# generated using pymatgen
data_Tb3Co2H46C72N12Cl2O37
_symmetry_space_group_name_H-M   'P 1'
_cell_length_a   18.36720000
_cell_length_b   18.56250000
_cell_length_c   49.07120000
_cell_angle_alpha   90.00000000
_cell_angle_beta   90.00000000
_cell_angle_gamma   90.00000000
_symmetry_Int_Tables_number   1
_chemical_formula_structural   Tb3Co2H46C72N12Cl2O37
_chemical_formula_sum   'Tb24 Co16 H368 C576 N96 Cl16 O296'
_cell_volume   16730.39135988
_cell_formula_units_Z   8
loop_
 _symmetry_equiv_pos_site_id
 _symmetry_equiv_pos_as_xyz
  1  'x, y, z'
loop_
 _atom_site_type_symbol
 _atom_site_label
 _atom_site_symmetry_multiplicity
 _atom_site_fract_x
 _atom_site_fract_y
 _atom_site_fract_z
 _atom_site_occupancy
 _atom_site_charge
  Tb  Tb1  1  0.200360  0.420110  0.878350  1.0  2.2312
  Tb  Tb2  1  0.358990  0.599270  0.877680  1.0  2.2774
  Tb  Tb3  1  0.803920  0.518830  0.875770  1.0  2.1427
  Tb  Tb4  1  0.700360  0.579890  0.621650  1.0  2.2316
  Tb  Tb5  1  0.858990  0.400730  0.622320  1.0  2.2773
  Tb  Tb6  1  0.303920  0.481170  0.624230  1.0  2.1424
  Tb  Tb7  1  0.299640  0.920110  0.121650  1.0  2.2316
  Tb  Tb8  1  0.141010  0.099270  0.122320  1.0  2.278
  Tb  Tb9  1  0.696080  0.018830  0.124230  1.0  2.1425
  Tb  Tb10  1  0.799640  0.079890  0.378350  1.0  2.2323
  Tb  Tb11  1  0.641010  0.900730  0.377680  1.0  2.2779
  Tb  Tb12  1  0.196080  0.981170  0.375770  1.0  2.1422
  Tb  Tb13  1  0.799640  0.579890  0.121650  1.0  2.2321
  Tb  Tb14  1  0.641010  0.400730  0.122320  1.0  2.2779
  Tb  Tb15  1  0.196080  0.481170  0.124230  1.0  2.1418
  Tb  Tb16  1  0.299640  0.420110  0.378350  1.0  2.2316
  Tb  Tb17  1  0.141010  0.599270  0.377680  1.0  2.2779
  Tb  Tb18  1  0.696080  0.518830  0.375770  1.0  2.1427
  Tb  Tb19  1  0.700360  0.079890  0.878350  1.0  2.2317
  Tb  Tb20  1  0.858990  0.900730  0.877680  1.0  2.2774
  Tb  Tb21  1  0.303920  0.981170  0.875770  1.0  2.1424
  Tb  Tb22  1  0.200360  0.920110  0.621650  1.0  2.2312
  Tb  Tb23  1  0.358990  0.099270  0.622320  1.0  2.2775
  Tb  Tb24  1  0.803920  0.018830  0.624230  1.0  2.143
  Co  Co25  1  0.037180  0.617690  0.746600  1.0  0.7966
  Co  Co26  1  0.113160  0.748060  0.001950  1.0  0.771
  Co  Co27  1  0.537180  0.382310  0.753400  1.0  0.7966
  Co  Co28  1  0.613160  0.251940  0.498050  1.0  0.7714
  Co  Co29  1  0.462820  0.117690  0.253400  1.0  0.7963
  Co  Co30  1  0.386840  0.248060  0.998050  1.0  0.7722
  Co  Co31  1  0.962820  0.882310  0.246600  1.0  0.7973
  Co  Co32  1  0.886840  0.751940  0.501950  1.0  0.7718
  Co  Co33  1  0.962820  0.382310  0.253400  1.0  0.7968
  Co  Co34  1  0.886840  0.251940  0.998050  1.0  0.7722
  Co  Co35  1  0.462820  0.617690  0.246600  1.0  0.7968
  Co  Co36  1  0.386840  0.748060  0.501950  1.0  0.7718
  Co  Co37  1  0.537180  0.882310  0.746600  1.0  0.7971
  Co  Co38  1  0.613160  0.751940  0.001950  1.0  0.7711
  Co  Co39  1  0.037180  0.117690  0.753400  1.0  0.7961
  Co  Co40  1  0.113160  0.248060  0.498050  1.0  0.7714
  H  H41  1  0.462400  0.227200  0.055300  1.0  0.0783
  H  H42  1  0.626100  0.369500  0.056800  1.0  0.1137
  H  H43  1  0.585600  0.413300  0.015400  1.0  0.1024
  H  H44  1  0.539800  0.452100  0.976600  1.0  0.1219
  H  H45  1  0.477600  0.491500  0.938100  1.0  0.1067
  H  H46  1  0.331000  0.335200  0.949400  1.0  0.1064
  H  H47  1  0.466700  0.458900  0.803800  1.0  0.0756
  H  H48  1  0.310200  0.325700  0.829500  1.0  0.102
  H  H49  1  0.337500  0.249100  0.793300  1.0  0.1299
  H  H50  1  0.347800  0.199400  0.754100  1.0  0.1115
  H  H51  1  0.362100  0.150800  0.710800  1.0  0.1279
  H  H52  1  0.521900  0.295500  0.698300  1.0  0.0767
  H  H53  1  0.110000  0.549700  0.798500  1.0  0.0885
  H  H54  1  0.250200  0.698300  0.825400  1.0  0.1132
  H  H55  1  0.228900  0.765500  0.785400  1.0  0.1295
  H  H56  1  0.213800  0.813000  0.746100  1.0  0.1234
  H  H57  1  0.188100  0.860600  0.703400  1.0  0.1046
  H  H58  1  0.046200  0.702700  0.691400  1.0  0.0702
  H  H59  1  0.207600  0.677800  0.956400  1.0  0.0725
  H  H60  1  0.082400  0.520500  0.926800  1.0  0.1074
  H  H61  1  0.003000  0.538500  0.962800  1.0  0.1196
  H  H62  1  0.936000  0.559000  0.999200  1.0  0.1142
  H  H63  1  0.873200  0.584700  0.039300  1.0  0.0972
  H  H64  1  0.012200  0.746200  0.052400  1.0  0.0818
  H  H65  1  0.141300  0.586600  0.698100  1.0  0.0875
  H  H66  1  0.133200  0.374400  0.685500  1.0  0.113
  H  H67  1  0.062600  0.363800  0.724500  1.0  0.1134
  H  H68  1  0.014100  0.362600  0.766500  1.0  0.1126
  H  H69  1  0.945800  0.371300  0.806400  1.0  0.1144
  H  H70  1  0.937300  0.584700  0.795200  1.0  0.0915
  H  H71  1  0.866200  0.338300  0.944900  1.0  0.0741
  H  H72  1  0.652200  0.364100  0.936100  1.0  0.1134
  H  H73  1  0.634900  0.295200  0.974800  1.0  0.1142
  H  H74  1  0.627900  0.220400  0.010500  1.0  0.1073
  H  H75  1  0.633300  0.140900  0.047300  1.0  0.1087
  H  H76  1  0.849900  0.146200  0.043000  1.0  0.1099
  H  H77  1  0.283300  0.312700  0.888300  1.0  0.4578
  H  H78  1  0.515800  0.628300  0.874200  1.0  0.4503
  H  H79  1  0.853400  0.671500  0.875100  1.0  0.4594
  H  H80  1  0.927700  0.538900  0.903700  1.0  0.4143
  H  H81  1  0.216700  0.284000  0.881800  1.0  0.4197
  H  H82  1  0.510000  0.573100  0.893600  1.0  0.4742
  H  H83  1  0.777900  0.677400  0.879100  1.0  0.4575
  H  H84  1  0.949500  0.525900  0.877100  1.0  0.426
  H  H85  1  0.076700  0.441900  0.895100  1.0  0.4046
  H  H86  1  0.071100  0.435200  0.867000  1.0  0.4242
  H  H87  1  0.962400  0.772800  0.444700  1.0  0.0789
  H  H88  1  0.126100  0.630500  0.443200  1.0  0.1136
  H  H89  1  0.085600  0.586700  0.484600  1.0  0.1022
  H  H90  1  0.039800  0.547900  0.523400  1.0  0.1215
  H  H91  1  0.977600  0.508500  0.561900  1.0  0.1069
  H  H92  1  0.831000  0.664800  0.550600  1.0  0.1063
  H  H93  1  0.966700  0.541100  0.696200  1.0  0.0757
  H  H94  1  0.810200  0.674300  0.670500  1.0  0.1016
  H  H95  1  0.837500  0.750900  0.706700  1.0  0.1304
  H  H96  1  0.847800  0.800600  0.745900  1.0  0.1118
  H  H97  1  0.862100  0.849200  0.789200  1.0  0.1279
  H  H98  1  0.021900  0.704500  0.801700  1.0  0.0778
  H  H99  1  0.610000  0.450300  0.701500  1.0  0.0884
  H  H100  1  0.750200  0.301700  0.674600  1.0  0.1136
  H  H101  1  0.728900  0.234500  0.714600  1.0  0.1295
  H  H102  1  0.713800  0.187000  0.753900  1.0  0.1234
  H  H103  1  0.688100  0.139400  0.796600  1.0  0.1044
  H  H104  1  0.546200  0.297300  0.808600  1.0  0.0723
  H  H105  1  0.707600  0.322200  0.543600  1.0  0.0725
  H  H106  1  0.582400  0.479500  0.573200  1.0  0.1075
  H  H107  1  0.503000  0.461500  0.537200  1.0  0.1199
  H  H108  1  0.436000  0.441000  0.500800  1.0  0.1146
  H  H109  1  0.373200  0.415300  0.460700  1.0  0.0973
  H  H110  1  0.512200  0.253800  0.447600  1.0  0.0814
  H  H111  1  0.641300  0.413400  0.801900  1.0  0.0877
  H  H112  1  0.633200  0.625600  0.814500  1.0  0.1132
  H  H113  1  0.562600  0.636200  0.775500  1.0  0.1138
  H  H114  1  0.514100  0.637400  0.733500  1.0  0.1124
  H  H115  1  0.445800  0.628700  0.693600  1.0  0.1146
  H  H116  1  0.437300  0.415300  0.704800  1.0  0.0911
  H  H117  1  0.366200  0.661700  0.555100  1.0  0.0745
  H  H118  1  0.152200  0.635900  0.563900  1.0  0.1142
  H  H119  1  0.134900  0.704800  0.525200  1.0  0.1154
  H  H120  1  0.127900  0.779600  0.489500  1.0  0.1069
  H  H121  1  0.133300  0.859100  0.452700  1.0  0.1087
  H  H122  1  0.349900  0.853800  0.457000  1.0  0.1099
  H  H123  1  0.783300  0.687300  0.611700  1.0  0.4578
  H  H124  1  0.015800  0.371700  0.625800  1.0  0.4505
  H  H125  1  0.353400  0.328500  0.624900  1.0  0.4601
  H  H126  1  0.427700  0.461100  0.596300  1.0  0.4144
  H  H127  1  0.716700  0.716000  0.618200  1.0  0.4196
  H  H128  1  0.010000  0.426900  0.606400  1.0  0.4739
  H  H129  1  0.277900  0.322600  0.620900  1.0  0.458
  H  H130  1  0.449500  0.474100  0.622900  1.0  0.4261
  H  H131  1  0.576700  0.558100  0.604900  1.0  0.4035
  H  H132  1  0.571100  0.564800  0.633000  1.0  0.4232
  H  H133  1  0.037600  0.727200  0.944700  1.0  0.0785
  H  H134  1  0.873900  0.869500  0.943200  1.0  0.1137
  H  H135  1  0.914400  0.913300  0.984600  1.0  0.1024
  H  H136  1  0.960200  0.952100  0.023400  1.0  0.1215
  H  H137  1  0.022400  0.991500  0.061900  1.0  0.1069
  H  H138  1  0.169000  0.835200  0.050600  1.0  0.1068
  H  H139  1  0.033300  0.958900  0.196200  1.0  0.0754
  H  H140  1  0.189800  0.825700  0.170500  1.0  0.1015
  H  H141  1  0.162500  0.749100  0.206700  1.0  0.1301
  H  H142  1  0.152200  0.699400  0.245900  1.0  0.1111
  H  H143  1  0.137900  0.650800  0.289200  1.0  0.1283
  H  H144  1  0.978100  0.795500  0.301700  1.0  0.0772
  H  H145  1  0.390000  0.049700  0.201500  1.0  0.0887
  H  H146  1  0.249800  0.198300  0.174600  1.0  0.1135
  H  H147  1  0.271100  0.265500  0.214600  1.0  0.1302
  H  H148  1  0.286200  0.313000  0.253900  1.0  0.124
  H  H149  1  0.311900  0.360600  0.296600  1.0  0.1042
  H  H150  1  0.453800  0.202700  0.308600  1.0  0.0726
  H  H151  1  0.292400  0.177800  0.043600  1.0  0.0723
  H  H152  1  0.417600  0.020500  0.073200  1.0  0.108
  H  H153  1  0.497000  0.038500  0.037200  1.0  0.1199
  H  H154  1  0.564000  0.059000  0.000800  1.0  0.1146
  H  H155  1  0.626800  0.084700  0.960700  1.0  0.0975
  H  H156  1  0.487800  0.246200  0.947600  1.0  0.0815
  H  H157  1  0.358700  0.086600  0.301900  1.0  0.0881
  H  H158  1  0.366800  0.874400  0.314500  1.0  0.113
  H  H159  1  0.437400  0.863800  0.275500  1.0  0.1141
  H  H160  1  0.485900  0.862600  0.233500  1.0  0.1118
  H  H161  1  0.554200  0.871300  0.193600  1.0  0.1146
  H  H162  1  0.562700  0.084700  0.204800  1.0  0.0916
  H  H163  1  0.633800  0.838300  0.055100  1.0  0.0738
  H  H164  1  0.847800  0.864100  0.063900  1.0  0.1138
  H  H165  1  0.865100  0.795200  0.025200  1.0  0.1158
  H  H166  1  0.872100  0.720400  0.989500  1.0  0.1073
  H  H167  1  0.866700  0.640900  0.952700  1.0  0.1085
  H  H168  1  0.650100  0.646200  0.957000  1.0  0.1092
  H  H169  1  0.216700  0.812700  0.111700  1.0  0.4566
  H  H170  1  0.984200  0.128300  0.125800  1.0  0.4511
  H  H171  1  0.646600  0.171500  0.124900  1.0  0.4605
  H  H172  1  0.572300  0.038900  0.096300  1.0  0.4153
  H  H173  1  0.283300  0.784000  0.118200  1.0  0.4179
  H  H174  1  0.990000  0.073100  0.106400  1.0  0.4741
  H  H175  1  0.722100  0.177400  0.120900  1.0  0.456
  H  H176  1  0.550500  0.025900  0.122900  1.0  0.4266
  H  H177  1  0.423300  0.941900  0.104900  1.0  0.402
  H  H178  1  0.428900  0.935200  0.133000  1.0  0.4231
  H  H179  1  0.537600  0.272800  0.555300  1.0  0.0778
  H  H180  1  0.373900  0.130500  0.556800  1.0  0.114
  H  H181  1  0.414400  0.086700  0.515400  1.0  0.1026
  H  H182  1  0.460200  0.047900  0.476600  1.0  0.1216
  H  H183  1  0.522400  0.008500  0.438100  1.0  0.1061
  H  H184  1  0.669000  0.164800  0.449400  1.0  0.1064
  H  H185  1  0.533300  0.041100  0.303800  1.0  0.075
  H  H186  1  0.689800  0.174300  0.329500  1.0  0.1021
  H  H187  1  0.662500  0.250900  0.293300  1.0  0.1298
  H  H188  1  0.652200  0.300600  0.254100  1.0  0.1113
  H  H189  1  0.637900  0.349200  0.210800  1.0  0.1282
  H  H190  1  0.478100  0.204500  0.198300  1.0  0.0765
  H  H191  1  0.890000  0.950300  0.298500  1.0  0.0885
  H  H192  1  0.749800  0.801700  0.325400  1.0  0.113
  H  H193  1  0.771100  0.734500  0.285400  1.0  0.1293
  H  H194  1  0.786200  0.687000  0.246100  1.0  0.1235
  H  H195  1  0.811900  0.639400  0.203400  1.0  0.1039
  H  H196  1  0.953800  0.797300  0.191400  1.0  0.0714
  H  H197  1  0.792400  0.822200  0.456400  1.0  0.0722
  H  H198  1  0.917600  0.979500  0.426800  1.0  0.1071
  H  H199  1  0.997000  0.961500  0.462800  1.0  0.1203
  H  H200  1  0.064000  0.941000  0.499200  1.0  0.1144
  H  H201  1  0.126800  0.915300  0.539300  1.0  0.0969
  H  H202  1  0.987800  0.753800  0.552400  1.0  0.0822
  H  H203  1  0.858700  0.913400  0.198100  1.0  0.0871
  H  H204  1  0.866800  0.125600  0.185500  1.0  0.1129
  H  H205  1  0.937400  0.136200  0.224500  1.0  0.1136
  H  H206  1  0.985900  0.137400  0.266500  1.0  0.1127
  H  H207  1  0.054200  0.128700  0.306400  1.0  0.1143
  H  H208  1  0.062700  0.915300  0.295200  1.0  0.0914
  H  H209  1  0.133800  0.161700  0.444900  1.0  0.0734
  H  H210  1  0.347800  0.135900  0.436100  1.0  0.1133
  H  H211  1  0.365100  0.204800  0.474800  1.0  0.1146
  H  H212  1  0.372100  0.279600  0.510500  1.0  0.1077
  H  H213  1  0.366700  0.359100  0.547300  1.0  0.1087
  H  H214  1  0.150100  0.353800  0.543000  1.0  0.1092
  H  H215  1  0.716700  0.187300  0.388300  1.0  0.4587
  H  H216  1  0.484200  0.871700  0.374200  1.0  0.4495
  H  H217  1  0.146600  0.828500  0.375100  1.0  0.4592
  H  H218  1  0.072300  0.961100  0.403700  1.0  0.4149
  H  H219  1  0.783300  0.216000  0.381800  1.0  0.4181
  H  H220  1  0.490000  0.926900  0.393600  1.0  0.4743
  H  H221  1  0.222100  0.822600  0.379100  1.0  0.4561
  H  H222  1  0.050500  0.974100  0.377100  1.0  0.4257
  H  H223  1  0.923300  0.058100  0.395100  1.0  0.4041
  H  H224  1  0.928900  0.064800  0.367000  1.0  0.4237
  H  H225  1  0.537600  0.772800  0.944700  1.0  0.0787
  H  H226  1  0.373900  0.630500  0.943200  1.0  0.1135
  H  H227  1  0.414400  0.586700  0.984600  1.0  0.1025
  H  H228  1  0.460200  0.547900  0.023400  1.0  0.1214
  H  H229  1  0.522400  0.508500  0.061900  1.0  0.1067
  H  H230  1  0.669000  0.664800  0.050600  1.0  0.1066
  H  H231  1  0.533300  0.541100  0.196200  1.0  0.0749
  H  H232  1  0.689800  0.674300  0.170500  1.0  0.1018
  H  H233  1  0.662500  0.750900  0.206700  1.0  0.1304
  H  H234  1  0.652200  0.800600  0.245900  1.0  0.1115
  H  H235  1  0.637900  0.849200  0.289200  1.0  0.128
  H  H236  1  0.478100  0.704500  0.301700  1.0  0.0773
  H  H237  1  0.890000  0.450300  0.201500  1.0  0.0886
  H  H238  1  0.749800  0.301700  0.174600  1.0  0.1131
  H  H239  1  0.771100  0.234500  0.214600  1.0  0.1293
  H  H240  1  0.786200  0.187000  0.253900  1.0  0.1235
  H  H241  1  0.811900  0.139400  0.296600  1.0  0.1041
  H  H242  1  0.953800  0.297300  0.308600  1.0  0.0723
  H  H243  1  0.792400  0.322200  0.043600  1.0  0.0723
  H  H244  1  0.917600  0.479500  0.073200  1.0  0.1075
  H  H245  1  0.997000  0.461500  0.037200  1.0  0.1198
  H  H246  1  0.064000  0.441000  0.000800  1.0  0.1145
  H  H247  1  0.126800  0.415300  0.960700  1.0  0.0972
  H  H248  1  0.987800  0.253800  0.947600  1.0  0.081
  H  H249  1  0.858700  0.413400  0.301900  1.0  0.0879
  H  H250  1  0.866800  0.625600  0.314500  1.0  0.1129
  H  H251  1  0.937400  0.636200  0.275500  1.0  0.1139
  H  H252  1  0.985900  0.637400  0.233500  1.0  0.1121
  H  H253  1  0.054200  0.628700  0.193600  1.0  0.1149
  H  H254  1  0.062700  0.415300  0.204800  1.0  0.0912
  H  H255  1  0.133800  0.661700  0.055100  1.0  0.074
  H  H256  1  0.347800  0.635900  0.063900  1.0  0.1139
  H  H257  1  0.365100  0.704800  0.025200  1.0  0.1161
  H  H258  1  0.372100  0.779600  0.989500  1.0  0.1075
  H  H259  1  0.366700  0.859100  0.952700  1.0  0.1087
  H  H260  1  0.150100  0.853800  0.957000  1.0  0.1097
  H  H261  1  0.716700  0.687300  0.111700  1.0  0.458
  H  H262  1  0.484200  0.371700  0.125800  1.0  0.45
  H  H263  1  0.146600  0.328500  0.124900  1.0  0.4602
  H  H264  1  0.072300  0.461100  0.096300  1.0  0.4151
  H  H265  1  0.783300  0.716000  0.118200  1.0  0.4184
  H  H266  1  0.490000  0.426900  0.106400  1.0  0.4745
  H  H267  1  0.222100  0.322600  0.120900  1.0  0.4561
  H  H268  1  0.050500  0.474100  0.122900  1.0  0.4257
  H  H269  1  0.923300  0.558100  0.104900  1.0  0.4025
  H  H270  1  0.928900  0.564800  0.133000  1.0  0.4232
  H  H271  1  0.037600  0.227200  0.555300  1.0  0.078
  H  H272  1  0.873900  0.369500  0.556800  1.0  0.1137
  H  H273  1  0.914400  0.413300  0.515400  1.0  0.1029
  H  H274  1  0.960200  0.452100  0.476600  1.0  0.1219
  H  H275  1  0.022400  0.491500  0.438100  1.0  0.1065
  H  H276  1  0.169000  0.335200  0.449400  1.0  0.1066
  H  H277  1  0.033300  0.458900  0.303800  1.0  0.0751
  H  H278  1  0.189800  0.325700  0.329500  1.0  0.1024
  H  H279  1  0.162500  0.249100  0.293300  1.0  0.13
  H  H280  1  0.152200  0.199400  0.254100  1.0  0.1114
  H  H281  1  0.137900  0.150800  0.210800  1.0  0.1281
  H  H282  1  0.978100  0.295500  0.198300  1.0  0.0768
  H  H283  1  0.390000  0.549700  0.298500  1.0  0.0887
  H  H284  1  0.249800  0.698300  0.325400  1.0  0.113
  H  H285  1  0.271100  0.765500  0.285400  1.0  0.1295
  H  H286  1  0.286200  0.813000  0.246100  1.0  0.1236
  H  H287  1  0.311900  0.860600  0.203400  1.0  0.1046
  H  H288  1  0.453800  0.702700  0.191400  1.0  0.071
  H  H289  1  0.292400  0.677800  0.456400  1.0  0.0723
  H  H290  1  0.417600  0.520500  0.426800  1.0  0.1075
  H  H291  1  0.497000  0.538500  0.462800  1.0  0.1198
  H  H292  1  0.564000  0.559000  0.499200  1.0  0.1141
  H  H293  1  0.626800  0.584700  0.539300  1.0  0.0972
  H  H294  1  0.487800  0.746200  0.552400  1.0  0.0817
  H  H295  1  0.358700  0.586600  0.198100  1.0  0.0879
  H  H296  1  0.366800  0.374400  0.185500  1.0  0.1126
  H  H297  1  0.437400  0.363800  0.224500  1.0  0.1138
  H  H298  1  0.485900  0.362600  0.266500  1.0  0.1124
  H  H299  1  0.554200  0.371300  0.306400  1.0  0.1146
  H  H300  1  0.562700  0.584700  0.295200  1.0  0.0912
  H  H301  1  0.633800  0.338300  0.444900  1.0  0.0738
  H  H302  1  0.847800  0.364100  0.436100  1.0  0.1133
  H  H303  1  0.865100  0.295200  0.474800  1.0  0.1144
  H  H304  1  0.872100  0.220400  0.510500  1.0  0.1075
  H  H305  1  0.866700  0.140900  0.547300  1.0  0.109
  H  H306  1  0.650100  0.146200  0.543000  1.0  0.1091
  H  H307  1  0.216700  0.312700  0.388300  1.0  0.4572
  H  H308  1  0.984200  0.628300  0.374200  1.0  0.4505
  H  H309  1  0.646600  0.671500  0.375100  1.0  0.4602
  H  H310  1  0.572300  0.538900  0.403700  1.0  0.415
  H  H311  1  0.283300  0.284000  0.381800  1.0  0.4194
  H  H312  1  0.990000  0.573100  0.393600  1.0  0.4746
  H  H313  1  0.722100  0.677400  0.379100  1.0  0.456
  H  H314  1  0.550500  0.525900  0.377100  1.0  0.4258
  H  H315  1  0.423300  0.441900  0.395100  1.0  0.404
  H  H316  1  0.428900  0.435200  0.367000  1.0  0.4242
  H  H317  1  0.962400  0.272800  0.055300  1.0  0.0783
  H  H318  1  0.126100  0.130500  0.056800  1.0  0.1139
  H  H319  1  0.085600  0.086700  0.015400  1.0  0.1023
  H  H320  1  0.039800  0.047900  0.976600  1.0  0.1215
  H  H321  1  0.977600  0.008500  0.938100  1.0  0.1067
  H  H322  1  0.831000  0.164800  0.949400  1.0  0.1063
  H  H323  1  0.966700  0.041100  0.803800  1.0  0.0756
  H  H324  1  0.810200  0.174300  0.829500  1.0  0.1019
  H  H325  1  0.837500  0.250900  0.793300  1.0  0.13
  H  H326  1  0.847800  0.300600  0.754100  1.0  0.1115
  H  H327  1  0.862100  0.349200  0.710800  1.0  0.1281
  H  H328  1  0.021900  0.204500  0.698300  1.0  0.0767
  H  H329  1  0.610000  0.950300  0.798500  1.0  0.0885
  H  H330  1  0.750200  0.801700  0.825400  1.0  0.1133
  H  H331  1  0.728900  0.734500  0.785400  1.0  0.1295
  H  H332  1  0.713800  0.687000  0.746100  1.0  0.1235
  H  H333  1  0.688100  0.639400  0.703400  1.0  0.1042
  H  H334  1  0.546200  0.797300  0.691400  1.0  0.0709
  H  H335  1  0.707600  0.822200  0.956400  1.0  0.0725
  H  H336  1  0.582400  0.979500  0.926800  1.0  0.1071
  H  H337  1  0.503000  0.961500  0.962800  1.0  0.1205
  H  H338  1  0.436000  0.941000  0.999200  1.0  0.1147
  H  H339  1  0.373200  0.915300  0.039300  1.0  0.0971
  H  H340  1  0.512200  0.753800  0.052400  1.0  0.0823
  H  H341  1  0.641300  0.913400  0.698100  1.0  0.0873
  H  H342  1  0.633200  0.125600  0.685500  1.0  0.1133
  H  H343  1  0.562600  0.136200  0.724500  1.0  0.1135
  H  H344  1  0.514100  0.137400  0.766500  1.0  0.1128
  H  H345  1  0.445800  0.128700  0.806400  1.0  0.1142
  H  H346  1  0.437300  0.915300  0.795200  1.0  0.0914
  H  H347  1  0.366200  0.161700  0.944900  1.0  0.0741
  H  H348  1  0.152200  0.135900  0.936100  1.0  0.1135
  H  H349  1  0.134900  0.204800  0.974800  1.0  0.1141
  H  H350  1  0.127900  0.279600  0.010500  1.0  0.1072
  H  H351  1  0.133300  0.359100  0.047300  1.0  0.1086
  H  H352  1  0.349900  0.353800  0.043000  1.0  0.1099
  H  H353  1  0.783300  0.187300  0.888300  1.0  0.4584
  H  H354  1  0.015800  0.871700  0.874200  1.0  0.4496
  H  H355  1  0.353400  0.828500  0.875100  1.0  0.4589
  H  H356  1  0.427700  0.961100  0.903700  1.0  0.4145
  H  H357  1  0.716700  0.216000  0.881800  1.0  0.42
  H  H358  1  0.010000  0.926900  0.893600  1.0  0.4741
  H  H359  1  0.277900  0.822600  0.879100  1.0  0.4576
  H  H360  1  0.449500  0.974100  0.877100  1.0  0.4256
  H  H361  1  0.576700  0.058100  0.895100  1.0  0.4048
  H  H362  1  0.571100  0.064800  0.867000  1.0  0.424
  H  H363  1  0.462400  0.727200  0.444700  1.0  0.0783
  H  H364  1  0.626100  0.869500  0.443200  1.0  0.1136
  H  H365  1  0.585600  0.913300  0.484600  1.0  0.1021
  H  H366  1  0.539800  0.952100  0.523400  1.0  0.1216
  H  H367  1  0.477600  0.991500  0.561900  1.0  0.1068
  H  H368  1  0.331000  0.835200  0.550600  1.0  0.1064
  H  H369  1  0.466700  0.958900  0.696200  1.0  0.076
  H  H370  1  0.310200  0.825700  0.670500  1.0  0.1011
  H  H371  1  0.337500  0.749100  0.706700  1.0  0.1297
  H  H372  1  0.347800  0.699400  0.745900  1.0  0.1113
  H  H373  1  0.362100  0.650800  0.789200  1.0  0.1281
  H  H374  1  0.521900  0.795500  0.801700  1.0  0.0776
  H  H375  1  0.110000  0.049700  0.701500  1.0  0.0883
  H  H376  1  0.250200  0.198300  0.674600  1.0  0.1137
  H  H377  1  0.228900  0.265500  0.714600  1.0  0.1302
  H  H378  1  0.213800  0.313000  0.753900  1.0  0.1238
  H  H379  1  0.188100  0.360600  0.796600  1.0  0.1042
  H  H380  1  0.046200  0.202700  0.808600  1.0  0.0723
  H  H381  1  0.207600  0.177800  0.543600  1.0  0.0724
  H  H382  1  0.082400  0.020500  0.573200  1.0  0.1079
  H  H383  1  0.003000  0.038500  0.537200  1.0  0.1197
  H  H384  1  0.936000  0.059000  0.500800  1.0  0.1147
  H  H385  1  0.873200  0.084700  0.460700  1.0  0.0973
  H  H386  1  0.012200  0.246200  0.447600  1.0  0.0817
  H  H387  1  0.141300  0.086600  0.801900  1.0  0.0878
  H  H388  1  0.133200  0.874400  0.814500  1.0  0.1132
  H  H389  1  0.062600  0.863800  0.775500  1.0  0.1141
  H  H390  1  0.014100  0.862600  0.733500  1.0  0.1121
  H  H391  1  0.945800  0.871300  0.693600  1.0  0.1144
  H  H392  1  0.937300  0.084700  0.704800  1.0  0.092
  H  H393  1  0.866200  0.838300  0.555100  1.0  0.0743
  H  H394  1  0.652200  0.864100  0.563900  1.0  0.1139
  H  H395  1  0.634900  0.795200  0.525200  1.0  0.1153
  H  H396  1  0.627900  0.720400  0.489500  1.0  0.107
  H  H397  1  0.633300  0.640900  0.452700  1.0  0.1082
  H  H398  1  0.849900  0.646200  0.457000  1.0  0.1096
  H  H399  1  0.283300  0.812700  0.611700  1.0  0.4569
  H  H400  1  0.515800  0.128300  0.625800  1.0  0.4507
  H  H401  1  0.853400  0.171500  0.624900  1.0  0.46
  H  H402  1  0.927700  0.038900  0.596300  1.0  0.4144
  H  H403  1  0.216700  0.784000  0.618200  1.0  0.4192
  H  H404  1  0.510000  0.073100  0.606400  1.0  0.4736
  H  H405  1  0.777900  0.177400  0.620900  1.0  0.4577
  H  H406  1  0.949500  0.025900  0.622900  1.0  0.427
  H  H407  1  0.076700  0.941900  0.604900  1.0  0.4035
  H  H408  1  0.071100  0.935200  0.633000  1.0  0.4234
  C  C409  1  0.573300  0.256300  0.086460  1.0  0.6966
  C  C410  1  0.487600  0.265100  0.047260  1.0  0.1326
  C  C411  1  0.547700  0.292300  0.060600  1.0  -0.1649
  C  C412  1  0.585400  0.349500  0.048400  1.0  -0.0633
  C  C413  1  0.561000  0.375500  0.023800  1.0  -0.1328
  C  C414  1  0.501100  0.346600  0.011490  1.0  0.1867
  C  C415  1  0.469600  0.372600  0.985920  1.0  0.1385
  C  C416  1  0.496800  0.429800  0.971200  1.0  -0.0909
  C  C417  1  0.459500  0.453600  0.948480  1.0  0.0102
  C  C418  1  0.395800  0.420600  0.941490  1.0  -0.1652
  C  C419  1  0.372300  0.359700  0.955310  1.0  0.15
  C  C420  1  0.350000  0.447000  0.917860  1.0  0.6637
  C  C421  1  0.362600  0.456000  0.842300  1.0  0.6827
  C  C422  1  0.438900  0.417600  0.801250  1.0  0.1622
  C  C423  1  0.383600  0.401900  0.819800  1.0  -0.1649
  C  C424  1  0.345800  0.338300  0.816900  1.0  0.0478
  C  C425  1  0.360900  0.293300  0.795100  1.0  -0.1638
  C  C426  1  0.411300  0.315300  0.776220  1.0  0.1544
  C  C427  1  0.425100  0.275400  0.750520  1.0  0.1888
  C  C428  1  0.382400  0.218400  0.742270  1.0  -0.1263
  C  C429  1  0.390700  0.189200  0.716600  1.0  -0.0869
  C  C430  1  0.443800  0.219700  0.699530  1.0  -0.1627
  C  C431  1  0.485900  0.276400  0.709460  1.0  0.1624
  C  C432  1  0.452000  0.192400  0.670500  1.0  0.6897
  C  C433  1  0.205000  0.568800  0.839500  1.0  0.697
  C  C434  1  0.134200  0.593100  0.795860  1.0  0.183
  C  C435  1  0.185100  0.615300  0.815100  1.0  -0.1788
  C  C436  1  0.218800  0.681100  0.812100  1.0  -0.0224
  C  C437  1  0.205000  0.722000  0.788400  1.0  -0.1386
  C  C438  1  0.155400  0.695800  0.770000  1.0  0.1928
  C  C439  1  0.142800  0.730700  0.743420  1.0  0.1571
  C  C440  1  0.179400  0.791300  0.734900  1.0  -0.1209
  C  C441  1  0.164200  0.819300  0.709400  1.0  0.0237
  C  C442  1  0.114600  0.786500  0.693200  1.0  -0.2135
  C  C443  1  0.079200  0.725800  0.702770  1.0  0.1316
  C  C444  1  0.095100  0.814300  0.665000  1.0  0.676
  C  C445  1  0.211300  0.580800  0.916190  1.0  0.6775
  C  C446  1  0.165900  0.649600  0.957510  1.0  0.1272
  C  C447  1  0.155400  0.596500  0.938220  1.0  -0.1988
  C  C448  1  0.092400  0.555300  0.939900  1.0  -0.048
  C  C449  1  0.044700  0.566500  0.961250  1.0  -0.1203
  C  C450  1  0.058900  0.619100  0.980280  1.0  0.15
  C  C451  1  0.012100  0.634800  0.003730  1.0  0.1298
  C  C452  1  0.951800  0.596000  0.010540  1.0  -0.1299
  C  C453  1  0.913800  0.611700  0.034400  1.0  -0.0943
  C  C454  1  0.936900  0.667600  0.050800  1.0  -0.1789
  C  C455  1  0.996600  0.707500  0.041870  1.0  0.1307
  C  C456  1  0.898300  0.686500  0.077200  1.0  0.6639
  C  C457  1  0.193200  0.490700  0.663400  1.0  0.7054
  C  C458  1  0.124900  0.541400  0.703500  1.0  0.1523
  C  C459  1  0.145100  0.481600  0.688000  1.0  -0.1427
  C  C460  1  0.121300  0.414900  0.695700  1.0  0.0406
  C  C461  1  0.079200  0.408700  0.718900  1.0  -0.1137
  C  C462  1  0.062200  0.469200  0.733590  1.0  0.1433
  C  C463  1  0.017000  0.468400  0.758950  1.0  0.1659
  C  C464  1  0.998800  0.407300  0.772800  1.0  -0.098
  C  C465  1  0.957300  0.412400  0.796400  1.0  0.0305
  C  C466  1  0.933800  0.478100  0.804630  1.0  -0.1278
  C  C467  1  0.953500  0.539700  0.789510  1.0  0.1476
  C  C468  1  0.888800  0.489900  0.829700  1.0  0.6702
  C  C469  1  0.776400  0.403100  0.911200  1.0  0.672
  C  C470  1  0.819100  0.329200  0.950890  1.0  0.1963
  C  C471  1  0.761800  0.357800  0.936050  1.0  -0.2164
  C  C472  1  0.692000  0.345000  0.945300  1.0  0.0258
  C  C473  1  0.681700  0.304000  0.968300  1.0  -0.1191
  C  C474  1  0.742800  0.275400  0.981900  1.0  0.2294
  C  C475  1  0.737800  0.227800  0.005100  1.0  0.2206
  C  C476  1  0.672500  0.204500  0.017100  1.0  -0.1215
  C  C477  1  0.675800  0.157200  0.039000  1.0  -0.1017
  C  C478  1  0.741300  0.135500  0.048100  1.0  -0.1576
  C  C479  1  0.805000  0.160900  0.036300  1.0  0.1328
  C  C480  1  0.738900  0.084800  0.073200  1.0  0.6945
  C  C481  1  0.073300  0.743700  0.413540  1.0  0.6982
  C  C482  1  0.987600  0.734900  0.452740  1.0  0.133
  C  C483  1  0.047700  0.707700  0.439400  1.0  -0.1634
  C  C484  1  0.085400  0.650500  0.451600  1.0  -0.0632
  C  C485  1  0.061000  0.624500  0.476200  1.0  -0.1338
  C  C486  1  0.001100  0.653400  0.488510  1.0  0.187
  C  C487  1  0.969600  0.627400  0.514080  1.0  0.1378
  C  C488  1  0.996800  0.570200  0.528800  1.0  -0.0901
  C  C489  1  0.959500  0.546400  0.551520  1.0  0.0097
  C  C490  1  0.895800  0.579400  0.558510  1.0  -0.163
  C  C491  1  0.872300  0.640300  0.544690  1.0  0.1499
  C  C492  1  0.850000  0.553000  0.582140  1.0  0.664
  C  C493  1  0.862600  0.544000  0.657700  1.0  0.6835
  C  C494  1  0.938900  0.582400  0.698750  1.0  0.1624
  C  C495  1  0.883600  0.598100  0.680200  1.0  -0.1664
  C  C496  1  0.845800  0.661700  0.683100  1.0  0.0478
  C  C497  1  0.860900  0.706700  0.704900  1.0  -0.1639
  C  C498  1  0.911300  0.684700  0.723780  1.0  0.1538
  C  C499  1  0.925100  0.724600  0.749480  1.0  0.1889
  C  C500  1  0.882400  0.781600  0.757730  1.0  -0.1263
  C  C501  1  0.890700  0.810800  0.783400  1.0  -0.085
  C  C502  1  0.943800  0.780300  0.800470  1.0  -0.1627
  C  C503  1  0.985900  0.723600  0.790540  1.0  0.1628
  C  C504  1  0.952000  0.807600  0.829500  1.0  0.6905
  C  C505  1  0.705000  0.431200  0.660500  1.0  0.6974
  C  C506  1  0.634200  0.406900  0.704140  1.0  0.1791
  C  C507  1  0.685100  0.384700  0.684900  1.0  -0.1793
  C  C508  1  0.718800  0.318900  0.687900  1.0  -0.0227
  C  C509  1  0.705000  0.278000  0.711600  1.0  -0.1394
  C  C510  1  0.655400  0.304200  0.730000  1.0  0.1928
  C  C511  1  0.642800  0.269300  0.756580  1.0  0.1563
  C  C512  1  0.679400  0.208700  0.765100  1.0  -0.1203
  C  C513  1  0.664200  0.180700  0.790600  1.0  0.0233
  C  C514  1  0.614600  0.213500  0.806800  1.0  -0.2124
  C  C515  1  0.579200  0.274200  0.797230  1.0  0.1308
  C  C516  1  0.595100  0.185700  0.835000  1.0  0.6761
  C  C517  1  0.711300  0.419200  0.583810  1.0  0.6777
  C  C518  1  0.665900  0.350400  0.542490  1.0  0.1276
  C  C519  1  0.655400  0.403500  0.561780  1.0  -0.1989
  C  C520  1  0.592400  0.444700  0.560100  1.0  -0.0489
  C  C521  1  0.544700  0.433500  0.538750  1.0  -0.1205
  C  C522  1  0.558900  0.380900  0.519720  1.0  0.1502
  C  C523  1  0.512100  0.365200  0.496270  1.0  0.1305
  C  C524  1  0.451800  0.404000  0.489460  1.0  -0.1297
  C  C525  1  0.413800  0.388300  0.465600  1.0  -0.0954
  C  C526  1  0.436900  0.332400  0.449200  1.0  -0.1808
  C  C527  1  0.496600  0.292500  0.458130  1.0  0.1294
  C  C528  1  0.398300  0.313500  0.422800  1.0  0.663
  C  C529  1  0.693200  0.509300  0.836600  1.0  0.7049
  C  C530  1  0.624900  0.458600  0.796500  1.0  0.1533
  C  C531  1  0.645100  0.518400  0.812000  1.0  -0.144
  C  C532  1  0.621300  0.585100  0.804300  1.0  0.0411
  C  C533  1  0.579200  0.591300  0.781100  1.0  -0.1137
  C  C534  1  0.562200  0.530800  0.766410  1.0  0.1434
  C  C535  1  0.517000  0.531600  0.741050  1.0  0.1662
  C  C536  1  0.498800  0.592700  0.727200  1.0  -0.099
  C  C537  1  0.457300  0.587600  0.703600  1.0  0.0315
  C  C538  1  0.433800  0.521900  0.695370  1.0  -0.1289
  C  C539  1  0.453500  0.460300  0.710490  1.0  0.1466
  C  C540  1  0.388800  0.510100  0.670300  1.0  0.6705
  C  C541  1  0.276400  0.596900  0.588800  1.0  0.6723
  C  C542  1  0.319100  0.670800  0.549110  1.0  0.1964
  C  C543  1  0.261800  0.642200  0.563950  1.0  -0.2169
  C  C544  1  0.192000  0.655000  0.554700  1.0  0.0257
  C  C545  1  0.181700  0.696000  0.531700  1.0  -0.119
  C  C546  1  0.242800  0.724600  0.518100  1.0  0.2297
  C  C547  1  0.237800  0.772200  0.494900  1.0  0.2206
  C  C548  1  0.172500  0.795500  0.482900  1.0  -0.1212
  C  C549  1  0.175800  0.842800  0.461000  1.0  -0.1022
  C  C550  1  0.241300  0.864500  0.451900  1.0  -0.1573
  C  C551  1  0.305000  0.839100  0.463700  1.0  0.1328
  C  C552  1  0.238900  0.915200  0.426800  1.0  0.692
  C  C553  1  0.926700  0.756300  0.913540  1.0  0.6969
  C  C554  1  0.012400  0.765100  0.952740  1.0  0.1327
  C  C555  1  0.952300  0.792300  0.939400  1.0  -0.1635
  C  C556  1  0.914600  0.849500  0.951600  1.0  -0.0637
  C  C557  1  0.939000  0.875500  0.976200  1.0  -0.1325
  C  C558  1  0.998900  0.846600  0.988510  1.0  0.1869
  C  C559  1  0.030400  0.872600  0.014080  1.0  0.1388
  C  C560  1  0.003200  0.929800  0.028800  1.0  -0.0897
  C  C561  1  0.040500  0.953600  0.051520  1.0  0.0103
  C  C562  1  0.104200  0.920600  0.058510  1.0  -0.1645
  C  C563  1  0.127700  0.859700  0.044690  1.0  0.1502
  C  C564  1  0.150000  0.947000  0.082140  1.0  0.664
  C  C565  1  0.137400  0.956000  0.157700  1.0  0.6835
  C  C566  1  0.061100  0.917600  0.198750  1.0  0.1605
  C  C567  1  0.116400  0.901900  0.180200  1.0  -0.1643
  C  C568  1  0.154200  0.838300  0.183100  1.0  0.047
  C  C569  1  0.139100  0.793300  0.204900  1.0  -0.1641
  C  C570  1  0.088700  0.815300  0.223780  1.0  0.1545
  C  C571  1  0.074900  0.775400  0.249480  1.0  0.1888
  C  C572  1  0.117600  0.718400  0.257730  1.0  -0.1254
  C  C573  1  0.109300  0.689200  0.283400  1.0  -0.0854
  C  C574  1  0.056200  0.719700  0.300470  1.0  -0.1628
  C  C575  1  0.014100  0.776400  0.290540  1.0  0.1629
  C  C576  1  0.048000  0.692400  0.329500  1.0  0.6898
  C  C577  1  0.295000  0.068800  0.160500  1.0  0.6981
  C  C578  1  0.365800  0.093100  0.204140  1.0  0.1824
  C  C579  1  0.314900  0.115300  0.184900  1.0  -0.1803
  C  C580  1  0.281200  0.181100  0.187900  1.0  -0.0228
  C  C581  1  0.295000  0.222000  0.211600  1.0  -0.1387
  C  C582  1  0.344600  0.195800  0.230000  1.0  0.1931
  C  C583  1  0.357200  0.230700  0.256580  1.0  0.1567
  C  C584  1  0.320600  0.291300  0.265100  1.0  -0.1198
  C  C585  1  0.335800  0.319300  0.290600  1.0  0.0256
  C  C586  1  0.385400  0.286500  0.306800  1.0  -0.2119
  C  C587  1  0.420800  0.225800  0.297230  1.0  0.1316
  C  C588  1  0.404900  0.314300  0.335000  1.0  0.6764
  C  C589  1  0.288700  0.080800  0.083810  1.0  0.678
  C  C590  1  0.334100  0.149600  0.042490  1.0  0.128
  C  C591  1  0.344600  0.096500  0.061780  1.0  -0.199
  C  C592  1  0.407600  0.055300  0.060100  1.0  -0.0482
  C  C593  1  0.455300  0.066500  0.038750  1.0  -0.1198
  C  C594  1  0.441100  0.119100  0.019720  1.0  0.1502
  C  C595  1  0.487900  0.134800  0.996270  1.0  0.1302
  C  C596  1  0.548200  0.096000  0.989460  1.0  -0.1303
  C  C597  1  0.586200  0.111700  0.965600  1.0  -0.096
  C  C598  1  0.563100  0.167600  0.949200  1.0  -0.1809
  C  C599  1  0.503400  0.207500  0.958130  1.0  0.1303
  C  C600  1  0.601700  0.186500  0.922800  1.0  0.6629
  C  C601  1  0.306800  0.990700  0.336600  1.0  0.7036
  C  C602  1  0.375100  0.041400  0.296500  1.0  0.1525
  C  C603  1  0.354900  0.981600  0.312000  1.0  -0.1433
  C  C604  1  0.378700  0.914900  0.304300  1.0  0.0392
  C  C605  1  0.420800  0.908700  0.281100  1.0  -0.113
  C  C606  1  0.437800  0.969200  0.266410  1.0  0.1434
  C  C607  1  0.483000  0.968400  0.241050  1.0  0.1669
  C  C608  1  0.501200  0.907300  0.227200  1.0  -0.0995
  C  C609  1  0.542700  0.912400  0.203600  1.0  0.0315
  C  C610  1  0.566200  0.978100  0.195370  1.0  -0.1282
  C  C611  1  0.546500  0.039700  0.210490  1.0  0.1452
  C  C612  1  0.611200  0.989900  0.170300  1.0  0.6706
  C  C613  1  0.723600  0.903100  0.088800  1.0  0.6724
  C  C614  1  0.680900  0.829200  0.049110  1.0  0.197
  C  C615  1  0.738200  0.857800  0.063950  1.0  -0.2166
  C  C616  1  0.808000  0.845000  0.054700  1.0  0.0242
  C  C617  1  0.818300  0.804000  0.031700  1.0  -0.1188
  C  C618  1  0.757200  0.775400  0.018100  1.0  0.2302
  C  C619  1  0.762200  0.727800  0.994900  1.0  0.2207
  C  C620  1  0.827500  0.704500  0.982900  1.0  -0.1214
  C  C621  1  0.824200  0.657200  0.961000  1.0  -0.1042
  C  C622  1  0.758700  0.635500  0.951900  1.0  -0.1594
  C  C623  1  0.695000  0.660900  0.963700  1.0  0.1335
  C  C624  1  0.761100  0.584800  0.926800  1.0  0.6929
  C  C625  1  0.426700  0.243700  0.586460  1.0  0.6975
  C  C626  1  0.512400  0.234900  0.547260  1.0  0.1339
  C  C627  1  0.452300  0.207700  0.560600  1.0  -0.1653
  C  C628  1  0.414600  0.150500  0.548400  1.0  -0.0625
  C  C629  1  0.439000  0.124500  0.523800  1.0  -0.1335
  C  C630  1  0.498900  0.153400  0.511490  1.0  0.1872
  C  C631  1  0.530400  0.127400  0.485920  1.0  0.1382
  C  C632  1  0.503200  0.070200  0.471200  1.0  -0.0902
  C  C633  1  0.540500  0.046400  0.448480  1.0  0.0107
  C  C634  1  0.604200  0.079400  0.441490  1.0  -0.1654
  C  C635  1  0.627700  0.140300  0.455310  1.0  0.15
  C  C636  1  0.650000  0.053000  0.417860  1.0  0.6638
  C  C637  1  0.637400  0.044000  0.342300  1.0  0.682
  C  C638  1  0.561100  0.082400  0.301250  1.0  0.1627
  C  C639  1  0.616400  0.098100  0.319800  1.0  -0.1641
  C  C640  1  0.654200  0.161700  0.316900  1.0  0.0467
  C  C641  1  0.639100  0.206700  0.295100  1.0  -0.1633
  C  C642  1  0.588700  0.184700  0.276220  1.0  0.1548
  C  C643  1  0.574900  0.224600  0.250520  1.0  0.1891
  C  C644  1  0.617600  0.281600  0.242270  1.0  -0.1259
  C  C645  1  0.609300  0.310800  0.216600  1.0  -0.0871
  C  C646  1  0.556200  0.280300  0.199530  1.0  -0.1627
  C  C647  1  0.514100  0.223600  0.209460  1.0  0.1628
  C  C648  1  0.548000  0.307600  0.170500  1.0  0.6897
  C  C649  1  0.795000  0.931200  0.339500  1.0  0.6976
  C  C650  1  0.865800  0.906900  0.295860  1.0  0.1815
  C  C651  1  0.814900  0.884700  0.315100  1.0  -0.1789
  C  C652  1  0.781200  0.818900  0.312100  1.0  -0.0219
  C  C653  1  0.795000  0.778000  0.288400  1.0  -0.1386
  C  C654  1  0.844600  0.804200  0.270000  1.0  0.1928
  C  C655  1  0.857200  0.769300  0.243420  1.0  0.1568
  C  C656  1  0.820600  0.708700  0.234900  1.0  -0.12
  C  C657  1  0.835800  0.680700  0.209400  1.0  0.0235
  C  C658  1  0.885400  0.713500  0.193200  1.0  -0.2145
  C  C659  1  0.920800  0.774200  0.202770  1.0  0.132
  C  C660  1  0.904900  0.685700  0.165000  1.0  0.6757
  C  C661  1  0.788700  0.919200  0.416190  1.0  0.678
  C  C662  1  0.834100  0.850400  0.457510  1.0  0.1279
  C  C663  1  0.844600  0.903500  0.438220  1.0  -0.1997
  C  C664  1  0.907600  0.944700  0.439900  1.0  -0.0481
  C  C665  1  0.955300  0.933500  0.461250  1.0  -0.1214
  C  C666  1  0.941100  0.880900  0.480280  1.0  0.1509
  C  C667  1  0.987900  0.865200  0.503730  1.0  0.1305
  C  C668  1  0.048200  0.904000  0.510540  1.0  -0.13
  C  C669  1  0.086200  0.888300  0.534400  1.0  -0.0948
  C  C670  1  0.063100  0.832400  0.550800  1.0  -0.1793
  C  C671  1  0.003400  0.792500  0.541870  1.0  0.1302
  C  C672  1  0.101700  0.813500  0.577200  1.0  0.6639
  C  C673  1  0.806800  0.009300  0.163400  1.0  0.7038
  C  C674  1  0.875100  0.958600  0.203500  1.0  0.1526
  C  C675  1  0.854900  0.018400  0.188000  1.0  -0.1445
  C  C676  1  0.878700  0.085100  0.195700  1.0  0.0404
  C  C677  1  0.920800  0.091300  0.218900  1.0  -0.113
  C  C678  1  0.937800  0.030800  0.233590  1.0  0.1436
  C  C679  1  0.983000  0.031600  0.258950  1.0  0.1667
  C  C680  1  0.001200  0.092700  0.272800  1.0  -0.0988
  C  C681  1  0.042700  0.087600  0.296400  1.0  0.0322
  C  C682  1  0.066200  0.021900  0.304630  1.0  -0.1288
  C  C683  1  0.046500  0.960300  0.289510  1.0  0.1475
  C  C684  1  0.111200  0.010100  0.329700  1.0  0.6703
  C  C685  1  0.223600  0.096900  0.411200  1.0  0.6735
  C  C686  1  0.180900  0.170800  0.450890  1.0  0.1978
  C  C687  1  0.238200  0.142200  0.436050  1.0  -0.2175
  C  C688  1  0.308000  0.155000  0.445300  1.0  0.0242
  C  C689  1  0.318300  0.196000  0.468300  1.0  -0.119
  C  C690  1  0.257200  0.224600  0.481900  1.0  0.2301
  C  C691  1  0.262200  0.272200  0.505100  1.0  0.2208
  C  C692  1  0.327500  0.295500  0.517100  1.0  -0.1218
  C  C693  1  0.324200  0.342800  0.539000  1.0  -0.1039
  C  C694  1  0.258700  0.364500  0.548100  1.0  -0.1576
  C  C695  1  0.195000  0.339100  0.536300  1.0  0.1333
  C  C696  1  0.261100  0.415200  0.573200  1.0  0.6941
  C  C697  1  0.426700  0.743700  0.913540  1.0  0.6985
  C  C698  1  0.512400  0.734900  0.952740  1.0  0.1322
  C  C699  1  0.452300  0.707700  0.939400  1.0  -0.1635
  C  C700  1  0.414600  0.650500  0.951600  1.0  -0.063
  C  C701  1  0.439000  0.624500  0.976200  1.0  -0.1336
  C  C702  1  0.498900  0.653400  0.988510  1.0  0.1873
  C  C703  1  0.530400  0.627400  0.014080  1.0  0.138
  C  C704  1  0.503200  0.570200  0.028800  1.0  -0.0895
  C  C705  1  0.540500  0.546400  0.051520  1.0  0.0097
  C  C706  1  0.604200  0.579400  0.058510  1.0  -0.1635
  C  C707  1  0.627700  0.640300  0.044690  1.0  0.1501
  C  C708  1  0.650000  0.553000  0.082140  1.0  0.6639
  C  C709  1  0.637400  0.544000  0.157700  1.0  0.6832
  C  C710  1  0.561100  0.582400  0.198750  1.0  0.1617
  C  C711  1  0.616400  0.598100  0.180200  1.0  -0.1659
  C  C712  1  0.654200  0.661700  0.183100  1.0  0.0472
  C  C713  1  0.639100  0.706700  0.204900  1.0  -0.1637
  C  C714  1  0.588700  0.684700  0.223780  1.0  0.1543
  C  C715  1  0.574900  0.724600  0.249480  1.0  0.1891
  C  C716  1  0.617600  0.781600  0.257730  1.0  -0.1257
  C  C717  1  0.609300  0.810800  0.283400  1.0  -0.085
  C  C718  1  0.556200  0.780300  0.300470  1.0  -0.1635
  C  C719  1  0.514100  0.723600  0.290540  1.0  0.1635
  C  C720  1  0.548000  0.807600  0.329500  1.0  0.6905
  C  C721  1  0.795000  0.431200  0.160500  1.0  0.698
  C  C722  1  0.865800  0.406900  0.204140  1.0  0.1798
  C  C723  1  0.814900  0.384700  0.184900  1.0  -0.1791
  C  C724  1  0.781200  0.318900  0.187900  1.0  -0.0226
  C  C725  1  0.795000  0.278000  0.211600  1.0  -0.1392
  C  C726  1  0.844600  0.304200  0.230000  1.0  0.1931
  C  C727  1  0.857200  0.269300  0.256580  1.0  0.1564
  C  C728  1  0.820600  0.208700  0.265100  1.0  -0.1201
  C  C729  1  0.835800  0.180700  0.290600  1.0  0.0241
  C  C730  1  0.885400  0.213500  0.306800  1.0  -0.2119
  C  C731  1  0.920800  0.274200  0.297230  1.0  0.1315
  C  C732  1  0.904900  0.185700  0.335000  1.0  0.6758
  C  C733  1  0.788700  0.419200  0.083810  1.0  0.6781
  C  C734  1  0.834100  0.350400  0.042490  1.0  0.1279
  C  C735  1  0.844600  0.403500  0.061780  1.0  -0.1994
  C  C736  1  0.907600  0.444700  0.060100  1.0  -0.0481
  C  C737  1  0.955300  0.433500  0.038750  1.0  -0.1205
  C  C738  1  0.941100  0.380900  0.019720  1.0  0.1505
  C  C739  1  0.987900  0.365200  0.996270  1.0  0.1308
  C  C740  1  0.048200  0.404000  0.989460  1.0  -0.13
  C  C741  1  0.086200  0.388300  0.965600  1.0  -0.0961
  C  C742  1  0.063100  0.332400  0.949200  1.0  -0.1807
  C  C743  1  0.003400  0.292500  0.958130  1.0  0.1302
  C  C744  1  0.101700  0.313500  0.922800  1.0  0.6611
  C  C745  1  0.806800  0.509300  0.336600  1.0  0.7036
  C  C746  1  0.875100  0.458600  0.296500  1.0  0.1525
  C  C747  1  0.854900  0.518400  0.312000  1.0  -0.1434
  C  C748  1  0.878700  0.585100  0.304300  1.0  0.0401
  C  C749  1  0.920800  0.591300  0.281100  1.0  -0.1128
  C  C750  1  0.937800  0.530800  0.266410  1.0  0.1435
  C  C751  1  0.983000  0.531600  0.241050  1.0  0.1669
  C  C752  1  0.001200  0.592700  0.227200  1.0  -0.0995
  C  C753  1  0.042700  0.587600  0.203600  1.0  0.0316
  C  C754  1  0.066200  0.521900  0.195370  1.0  -0.1286
  C  C755  1  0.046500  0.460300  0.210490  1.0  0.1457
  C  C756  1  0.111200  0.510100  0.170300  1.0  0.6706
  C  C757  1  0.223600  0.596900  0.088800  1.0  0.6727
  C  C758  1  0.180900  0.670800  0.049110  1.0  0.1973
  C  C759  1  0.238200  0.642200  0.063950  1.0  -0.2161
  C  C760  1  0.308000  0.655000  0.054700  1.0  0.0247
  C  C761  1  0.318300  0.696000  0.031700  1.0  -0.1193
  C  C762  1  0.257200  0.724600  0.018100  1.0  0.2301
  C  C763  1  0.262200  0.772200  0.994900  1.0  0.2208
  C  C764  1  0.327500  0.795500  0.982900  1.0  -0.1213
  C  C765  1  0.324200  0.842800  0.961000  1.0  -0.1042
  C  C766  1  0.258700  0.864500  0.951900  1.0  -0.1579
  C  C767  1  0.195000  0.839100  0.963700  1.0  0.1333
  C  C768  1  0.261100  0.915200  0.926800  1.0  0.6924
  C  C769  1  0.926700  0.256300  0.586460  1.0  0.6981
  C  C770  1  0.012400  0.265100  0.547260  1.0  0.1334
  C  C771  1  0.952300  0.292300  0.560600  1.0  -0.1653
  C  C772  1  0.914600  0.349500  0.548400  1.0  -0.0636
  C  C773  1  0.939000  0.375500  0.523800  1.0  -0.1326
  C  C774  1  0.998900  0.346600  0.511490  1.0  0.1868
  C  C775  1  0.030400  0.372600  0.485920  1.0  0.1388
  C  C776  1  0.003200  0.429800  0.471200  1.0  -0.0902
  C  C777  1  0.040500  0.453600  0.448480  1.0  0.0109
  C  C778  1  0.104200  0.420600  0.441490  1.0  -0.1648
  C  C779  1  0.127700  0.359700  0.455310  1.0  0.1498
  C  C780  1  0.150000  0.447000  0.417860  1.0  0.6639
  C  C781  1  0.137400  0.456000  0.342300  1.0  0.6822
  C  C782  1  0.061100  0.417600  0.301250  1.0  0.1611
  C  C783  1  0.116400  0.401900  0.319800  1.0  -0.1646
  C  C784  1  0.154200  0.338300  0.316900  1.0  0.0472
  C  C785  1  0.139100  0.293300  0.295100  1.0  -0.1634
  C  C786  1  0.088700  0.315300  0.276220  1.0  0.155
  C  C787  1  0.074900  0.275400  0.250520  1.0  0.1888
  C  C788  1  0.117600  0.218400  0.242270  1.0  -0.1255
  C  C789  1  0.109300  0.189200  0.216600  1.0  -0.0871
  C  C790  1  0.056200  0.219700  0.199530  1.0  -0.1634
  C  C791  1  0.014100  0.276400  0.209460  1.0  0.1625
  C  C792  1  0.048000  0.192400  0.170500  1.0  0.6896
  C  C793  1  0.295000  0.568800  0.339500  1.0  0.698
  C  C794  1  0.365800  0.593100  0.295860  1.0  0.1839
  C  C795  1  0.314900  0.615300  0.315100  1.0  -0.1784
  C  C796  1  0.281200  0.681100  0.312100  1.0  -0.0225
  C  C797  1  0.295000  0.722000  0.288400  1.0  -0.1383
  C  C798  1  0.344600  0.695800  0.270000  1.0  0.1929
  C  C799  1  0.357200  0.730700  0.243420  1.0  0.1572
  C  C800  1  0.320600  0.791300  0.234900  1.0  -0.1201
  C  C801  1  0.335800  0.819300  0.209400  1.0  0.0239
  C  C802  1  0.385400  0.786500  0.193200  1.0  -0.2132
  C  C803  1  0.420800  0.725800  0.202770  1.0  0.1319
  C  C804  1  0.404900  0.814300  0.165000  1.0  0.6752
  C  C805  1  0.288700  0.580800  0.416190  1.0  0.6783
  C  C806  1  0.334100  0.649600  0.457510  1.0  0.1278
  C  C807  1  0.344600  0.596500  0.438220  1.0  -0.1993
  C  C808  1  0.407600  0.555300  0.439900  1.0  -0.0478
  C  C809  1  0.455300  0.566500  0.461250  1.0  -0.1205
  C  C810  1  0.441100  0.619100  0.480280  1.0  0.1503
  C  C811  1  0.487900  0.634800  0.503730  1.0  0.1298
  C  C812  1  0.548200  0.596000  0.510540  1.0  -0.1301
  C  C813  1  0.586200  0.611700  0.534400  1.0  -0.0949
  C  C814  1  0.563100  0.667600  0.550800  1.0  -0.1797
  C  C815  1  0.503400  0.707500  0.541870  1.0  0.1305
  C  C816  1  0.601700  0.686500  0.577200  1.0  0.6619
  C  C817  1  0.306800  0.490700  0.163400  1.0  0.7041
  C  C818  1  0.375100  0.541400  0.203500  1.0  0.1523
  C  C819  1  0.354900  0.481600  0.188000  1.0  -0.1437
  C  C820  1  0.378700  0.414900  0.195700  1.0  0.0397
  C  C821  1  0.420800  0.408700  0.218900  1.0  -0.1131
  C  C822  1  0.437800  0.469200  0.233590  1.0  0.1434
  C  C823  1  0.483000  0.468400  0.258950  1.0  0.1666
  C  C824  1  0.501200  0.407300  0.272800  1.0  -0.099
  C  C825  1  0.542700  0.412400  0.296400  1.0  0.0308
  C  C826  1  0.566200  0.478100  0.304630  1.0  -0.1288
  C  C827  1  0.546500  0.539700  0.289510  1.0  0.147
  C  C828  1  0.611200  0.489900  0.329700  1.0  0.6704
  C  C829  1  0.723600  0.403100  0.411200  1.0  0.6725
  C  C830  1  0.680900  0.329200  0.450890  1.0  0.197
  C  C831  1  0.738200  0.357800  0.436050  1.0  -0.216
  C  C832  1  0.808000  0.345000  0.445300  1.0  0.0249
  C  C833  1  0.818300  0.304000  0.468300  1.0  -0.1188
  C  C834  1  0.757200  0.275400  0.481900  1.0  0.23
  C  C835  1  0.762200  0.227800  0.505100  1.0  0.2207
  C  C836  1  0.827500  0.204500  0.517100  1.0  -0.1217
  C  C837  1  0.824200  0.157200  0.539000  1.0  -0.104
  C  C838  1  0.758700  0.135500  0.548100  1.0  -0.1581
  C  C839  1  0.695000  0.160900  0.536300  1.0  0.1335
  C  C840  1  0.761100  0.084800  0.573200  1.0  0.6948
  C  C841  1  0.073300  0.243700  0.086460  1.0  0.6961
  C  C842  1  0.987600  0.234900  0.047260  1.0  0.1329
  C  C843  1  0.047700  0.207700  0.060600  1.0  -0.1649
  C  C844  1  0.085400  0.150500  0.048400  1.0  -0.0625
  C  C845  1  0.061000  0.124500  0.023800  1.0  -0.1336
  C  C846  1  0.001100  0.153400  0.011490  1.0  0.1869
  C  C847  1  0.969600  0.127400  0.985920  1.0  0.1381
  C  C848  1  0.996800  0.070200  0.971200  1.0  -0.0906
  C  C849  1  0.959500  0.046400  0.948480  1.0  0.0102
  C  C850  1  0.895800  0.079400  0.941490  1.0  -0.1657
  C  C851  1  0.872300  0.140300  0.955310  1.0  0.1496
  C  C852  1  0.850000  0.053000  0.917860  1.0  0.6636
  C  C853  1  0.862600  0.044000  0.842300  1.0  0.6823
  C  C854  1  0.938900  0.082400  0.801250  1.0  0.1635
  C  C855  1  0.883600  0.098100  0.819800  1.0  -0.1646
  C  C856  1  0.845800  0.161700  0.816900  1.0  0.0474
  C  C857  1  0.860900  0.206700  0.795100  1.0  -0.1637
  C  C858  1  0.911300  0.184700  0.776220  1.0  0.1543
  C  C859  1  0.925100  0.224600  0.750520  1.0  0.189
  C  C860  1  0.882400  0.281600  0.742270  1.0  -0.1265
  C  C861  1  0.890700  0.310800  0.716600  1.0  -0.0867
  C  C862  1  0.943800  0.280300  0.699530  1.0  -0.1619
  C  C863  1  0.985900  0.223600  0.709460  1.0  0.1624
  C  C864  1  0.952000  0.307600  0.670500  1.0  0.6895
  C  C865  1  0.705000  0.931200  0.839500  1.0  0.6967
  C  C866  1  0.634200  0.906900  0.795860  1.0  0.1805
  C  C867  1  0.685100  0.884700  0.815100  1.0  -0.1793
  C  C868  1  0.718800  0.818900  0.812100  1.0  -0.0218
  C  C869  1  0.705000  0.778000  0.788400  1.0  -0.1387
  C  C870  1  0.655400  0.804200  0.770000  1.0  0.1927
  C  C871  1  0.642800  0.769300  0.743420  1.0  0.1568
  C  C872  1  0.679400  0.708700  0.734900  1.0  -0.1204
  C  C873  1  0.664200  0.680700  0.709400  1.0  0.0228
  C  C874  1  0.614600  0.713500  0.693200  1.0  -0.2149
  C  C875  1  0.579200  0.774200  0.702770  1.0  0.1312
  C  C876  1  0.595100  0.685700  0.665000  1.0  0.6765
  C  C877  1  0.711300  0.919200  0.916190  1.0  0.6773
  C  C878  1  0.665900  0.850400  0.957510  1.0  0.1274
  C  C879  1  0.655400  0.903500  0.938220  1.0  -0.1992
  C  C880  1  0.592400  0.944700  0.939900  1.0  -0.0484
  C  C881  1  0.544700  0.933500  0.961250  1.0  -0.1214
  C  C882  1  0.558900  0.880900  0.980280  1.0  0.1506
  C  C883  1  0.512100  0.865200  0.003730  1.0  0.1301
  C  C884  1  0.451800  0.904000  0.010540  1.0  -0.1298
  C  C885  1  0.413800  0.888300  0.034400  1.0  -0.0942
  C  C886  1  0.436900  0.832400  0.050800  1.0  -0.1785
  C  C887  1  0.496600  0.792500  0.041870  1.0  0.1307
  C  C888  1  0.398300  0.813500  0.077200  1.0  0.663
  C  C889  1  0.693200  0.009300  0.663400  1.0  0.7049
  C  C890  1  0.624900  0.958600  0.703500  1.0  0.1532
  C  C891  1  0.645100  0.018400  0.688000  1.0  -0.1433
  C  C892  1  0.621300  0.085100  0.695700  1.0  0.0413
  C  C893  1  0.579200  0.091300  0.718900  1.0  -0.1136
  C  C894  1  0.562200  0.030800  0.733590  1.0  0.1435
  C  C895  1  0.517000  0.031600  0.758950  1.0  0.1659
  C  C896  1  0.498800  0.092700  0.772800  1.0  -0.0981
  C  C897  1  0.457300  0.087600  0.796400  1.0  0.0317
  C  C898  1  0.433800  0.021900  0.804630  1.0  -0.1278
  C  C899  1  0.453500  0.960300  0.789510  1.0  0.1483
  C  C900  1  0.388800  0.010100  0.829700  1.0  0.67
  C  C901  1  0.276400  0.096900  0.911200  1.0  0.6731
  C  C902  1  0.319100  0.170800  0.950890  1.0  0.1964
  C  C903  1  0.261800  0.142200  0.936050  1.0  -0.2178
  C  C904  1  0.192000  0.155000  0.945300  1.0  0.0251
  C  C905  1  0.181700  0.196000  0.968300  1.0  -0.1188
  C  C906  1  0.242800  0.224600  0.981900  1.0  0.2295
  C  C907  1  0.237800  0.272200  0.005100  1.0  0.2206
  C  C908  1  0.172500  0.295500  0.017100  1.0  -0.1215
  C  C909  1  0.175800  0.342800  0.039000  1.0  -0.1013
  C  C910  1  0.241300  0.364500  0.048100  1.0  -0.1576
  C  C911  1  0.305000  0.339100  0.036300  1.0  0.1331
  C  C912  1  0.238900  0.415200  0.073200  1.0  0.6938
  C  C913  1  0.573300  0.756300  0.413540  1.0  0.6967
  C  C914  1  0.487600  0.765100  0.452740  1.0  0.1334
  C  C915  1  0.547700  0.792300  0.439400  1.0  -0.1636
  C  C916  1  0.585400  0.849500  0.451600  1.0  -0.0638
  C  C917  1  0.561000  0.875500  0.476200  1.0  -0.1327
  C  C918  1  0.501100  0.846600  0.488510  1.0  0.1869
  C  C919  1  0.469600  0.872600  0.514080  1.0  0.1385
  C  C920  1  0.496800  0.929800  0.528800  1.0  -0.0905
  C  C921  1  0.459500  0.953600  0.551520  1.0  0.0105
  C  C922  1  0.395800  0.920600  0.558510  1.0  -0.1637
  C  C923  1  0.372300  0.859700  0.544690  1.0  0.1502
  C  C924  1  0.350000  0.947000  0.582140  1.0  0.6641
  C  C925  1  0.362600  0.956000  0.657700  1.0  0.6838
  C  C926  1  0.438900  0.917600  0.698750  1.0  0.1613
  C  C927  1  0.383600  0.901900  0.680200  1.0  -0.1648
  C  C928  1  0.345800  0.838300  0.683100  1.0  0.0478
  C  C929  1  0.360900  0.793300  0.704900  1.0  -0.164
  C  C930  1  0.411300  0.815300  0.723780  1.0  0.154
  C  C931  1  0.425100  0.775400  0.749480  1.0  0.1887
  C  C932  1  0.382400  0.718400  0.757730  1.0  -0.1263
  C  C933  1  0.390700  0.689200  0.783400  1.0  -0.0856
  C  C934  1  0.443800  0.719700  0.800470  1.0  -0.162
  C  C935  1  0.485900  0.776400  0.790540  1.0  0.1625
  C  C936  1  0.452000  0.692400  0.829500  1.0  0.6898
  C  C937  1  0.205000  0.068800  0.660500  1.0  0.6972
  C  C938  1  0.134200  0.093100  0.704140  1.0  0.1813
  C  C939  1  0.185100  0.115300  0.684900  1.0  -0.1807
  C  C940  1  0.218800  0.181100  0.687900  1.0  -0.0229
  C  C941  1  0.205000  0.222000  0.711600  1.0  -0.1391
  C  C942  1  0.155400  0.195800  0.730000  1.0  0.1929
  C  C943  1  0.142800  0.230700  0.756580  1.0  0.1566
  C  C944  1  0.179400  0.291300  0.765100  1.0  -0.1205
  C  C945  1  0.164200  0.319300  0.790600  1.0  0.025
  C  C946  1  0.114600  0.286500  0.806800  1.0  -0.2125
  C  C947  1  0.079200  0.225800  0.797230  1.0  0.1313
  C  C948  1  0.095100  0.314300  0.835000  1.0  0.6768
  C  C949  1  0.211300  0.080800  0.583810  1.0  0.6773
  C  C950  1  0.165900  0.149600  0.542490  1.0  0.1274
  C  C951  1  0.155400  0.096500  0.561780  1.0  -0.1989
  C  C952  1  0.092400  0.055300  0.560100  1.0  -0.0488
  C  C953  1  0.044700  0.066500  0.538750  1.0  -0.1198
  C  C954  1  0.058900  0.119100  0.519720  1.0  0.1499
  C  C955  1  0.012100  0.134800  0.496270  1.0  0.13
  C  C956  1  0.951800  0.096000  0.489460  1.0  -0.1299
  C  C957  1  0.913800  0.111700  0.465600  1.0  -0.0953
  C  C958  1  0.936900  0.167600  0.449200  1.0  -0.1809
  C  C959  1  0.996600  0.207500  0.458130  1.0  0.129
  C  C960  1  0.898300  0.186500  0.422800  1.0  0.662
  C  C961  1  0.193200  0.990700  0.836600  1.0  0.7048
  C  C962  1  0.124900  0.041400  0.796500  1.0  0.1529
  C  C963  1  0.145100  0.981600  0.812000  1.0  -0.1439
  C  C964  1  0.121300  0.914900  0.804300  1.0  0.04
  C  C965  1  0.079200  0.908700  0.781100  1.0  -0.1138
  C  C966  1  0.062200  0.969200  0.766410  1.0  0.1432
  C  C967  1  0.017000  0.968400  0.741050  1.0  0.1662
  C  C968  1  0.998800  0.907300  0.727200  1.0  -0.0988
  C  C969  1  0.957300  0.912400  0.703600  1.0  0.0312
  C  C970  1  0.933800  0.978100  0.695370  1.0  -0.1286
  C  C971  1  0.953500  0.039700  0.710490  1.0  0.1459
  C  C972  1  0.888800  0.989900  0.670300  1.0  0.6706
  C  C973  1  0.776400  0.903100  0.588800  1.0  0.672
  C  C974  1  0.819100  0.829200  0.549110  1.0  0.1961
  C  C975  1  0.761800  0.857800  0.563950  1.0  -0.2174
  C  C976  1  0.692000  0.845000  0.554700  1.0  0.0247
  C  C977  1  0.681700  0.804000  0.531700  1.0  -0.119
  C  C978  1  0.742800  0.775400  0.518100  1.0  0.2298
  C  C979  1  0.737800  0.727800  0.494900  1.0  0.2206
  C  C980  1  0.672500  0.704500  0.482900  1.0  -0.1215
  C  C981  1  0.675800  0.657200  0.461000  1.0  -0.102
  C  C982  1  0.741300  0.635500  0.451900  1.0  -0.1578
  C  C983  1  0.805000  0.660900  0.463700  1.0  0.1323
  C  C984  1  0.738900  0.584800  0.426800  1.0  0.6926
  N  N985  1  0.463100  0.290500  0.023120  1.0  -0.3447
  N  N986  1  0.409200  0.336100  0.977050  1.0  -0.3318
  N  N987  1  0.453400  0.375400  0.780010  1.0  -0.3395
  N  N988  1  0.477100  0.304700  0.734370  1.0  -0.3138
  N  N989  1  0.118800  0.632400  0.773500  1.0  -0.3067
  N  N990  1  0.090400  0.698700  0.727580  1.0  -0.3245
  N  N991  1  0.118800  0.662300  0.977740  1.0  -0.3097
  N  N992  1  0.032400  0.692800  0.018960  1.0  -0.3094
  N  N993  1  0.083200  0.536900  0.725710  1.0  -0.3425
  N  N994  1  0.995200  0.534800  0.767130  1.0  -0.3317
  N  N995  1  0.810600  0.289200  0.973390  1.0  -0.3211
  N  N996  1  0.802000  0.206900  0.015020  1.0  -0.257
  N  N997  1  0.963100  0.709500  0.476880  1.0  -0.3437
  N  N998  1  0.909200  0.663900  0.522950  1.0  -0.3315
  N  N999  1  0.953400  0.624600  0.719990  1.0  -0.34
  N  N1000  1  0.977100  0.695300  0.765630  1.0  -0.3127
  N  N1001  1  0.618800  0.367600  0.726500  1.0  -0.3071
  N  N1002  1  0.590400  0.301300  0.772420  1.0  -0.3255
  N  N1003  1  0.618800  0.337700  0.522260  1.0  -0.3117
  N  N1004  1  0.532400  0.307200  0.481040  1.0  -0.3092
  N  N1005  1  0.583200  0.463100  0.774290  1.0  -0.3417
  N  N1006  1  0.495200  0.465200  0.732870  1.0  -0.3313
  N  N1007  1  0.310600  0.710800  0.526610  1.0  -0.322
  N  N1008  1  0.302000  0.793100  0.484980  1.0  -0.2565
  N  N1009  1  0.036900  0.790500  0.976880  1.0  -0.3435
  N  N1010  1  0.090800  0.836100  0.022950  1.0  -0.3318
  N  N1011  1  0.046600  0.875400  0.219990  1.0  -0.3396
  N  N1012  1  0.022900  0.804700  0.265630  1.0  -0.3123
  N  N1013  1  0.381200  0.132400  0.226500  1.0  -0.308
  N  N1014  1  0.409600  0.198700  0.272420  1.0  -0.3263
  N  N1015  1  0.381200  0.162300  0.022260  1.0  -0.3111
  N  N1016  1  0.467600  0.192800  0.981040  1.0  -0.3084
  N  N1017  1  0.416800  0.036900  0.274290  1.0  -0.3415
  N  N1018  1  0.504800  0.034800  0.232870  1.0  -0.3314
  N  N1019  1  0.689400  0.789200  0.026610  1.0  -0.3217
  N  N1020  1  0.698000  0.706900  0.984980  1.0  -0.2571
  N  N1021  1  0.536900  0.209500  0.523120  1.0  -0.343
  N  N1022  1  0.590800  0.163900  0.477050  1.0  -0.3317
  N  N1023  1  0.546600  0.124600  0.280010  1.0  -0.3377
  N  N1024  1  0.522900  0.195300  0.234370  1.0  -0.312
  N  N1025  1  0.881200  0.867600  0.273500  1.0  -0.3073
  N  N1026  1  0.909600  0.801300  0.227580  1.0  -0.3266
  N  N1027  1  0.881200  0.837700  0.477740  1.0  -0.3114
  N  N1028  1  0.967600  0.807200  0.518960  1.0  -0.3093
  N  N1029  1  0.916800  0.963100  0.225710  1.0  -0.3421
  N  N1030  1  0.004800  0.965200  0.267130  1.0  -0.3313
  N  N1031  1  0.189400  0.210800  0.473390  1.0  -0.3209
  N  N1032  1  0.198000  0.293100  0.515020  1.0  -0.2562
  N  N1033  1  0.536900  0.709500  0.976880  1.0  -0.3426
  N  N1034  1  0.590800  0.663900  0.022950  1.0  -0.3316
  N  N1035  1  0.546600  0.624600  0.219990  1.0  -0.339
  N  N1036  1  0.522900  0.695300  0.265630  1.0  -0.3113
  N  N1037  1  0.881200  0.367600  0.226500  1.0  -0.3077
  N  N1038  1  0.909600  0.301300  0.272420  1.0  -0.3268
  N  N1039  1  0.881200  0.337700  0.022260  1.0  -0.3121
  N  N1040  1  0.967600  0.307200  0.981040  1.0  -0.309
  N  N1041  1  0.916800  0.463100  0.274290  1.0  -0.3417
  N  N1042  1  0.004800  0.465200  0.232870  1.0  -0.3312
  N  N1043  1  0.189400  0.710800  0.026610  1.0  -0.3216
  N  N1044  1  0.198000  0.793100  0.984980  1.0  -0.2565
  N  N1045  1  0.036900  0.290500  0.523120  1.0  -0.344
  N  N1046  1  0.090800  0.336100  0.477050  1.0  -0.3319
  N  N1047  1  0.046600  0.375400  0.280010  1.0  -0.3382
  N  N1048  1  0.022900  0.304700  0.234370  1.0  -0.3128
  N  N1049  1  0.381200  0.632400  0.273500  1.0  -0.3076
  N  N1050  1  0.409600  0.698700  0.227580  1.0  -0.3258
  N  N1051  1  0.381200  0.662300  0.477740  1.0  -0.3104
  N  N1052  1  0.467600  0.692800  0.518960  1.0  -0.3092
  N  N1053  1  0.416800  0.536900  0.225710  1.0  -0.3423
  N  N1054  1  0.504800  0.534800  0.267130  1.0  -0.3317
  N  N1055  1  0.689400  0.289200  0.473390  1.0  -0.3213
  N  N1056  1  0.698000  0.206900  0.515020  1.0  -0.2568
  N  N1057  1  0.963100  0.209500  0.023120  1.0  -0.344
  N  N1058  1  0.909200  0.163900  0.977050  1.0  -0.3317
  N  N1059  1  0.953400  0.124600  0.780010  1.0  -0.3389
  N  N1060  1  0.977100  0.195300  0.734370  1.0  -0.3133
  N  N1061  1  0.618800  0.867600  0.773500  1.0  -0.3063
  N  N1062  1  0.590400  0.801300  0.727580  1.0  -0.3255
  N  N1063  1  0.618800  0.837700  0.977740  1.0  -0.3112
  N  N1064  1  0.532400  0.807200  0.018960  1.0  -0.3096
  N  N1065  1  0.583200  0.963100  0.725710  1.0  -0.3424
  N  N1066  1  0.495200  0.965200  0.767130  1.0  -0.3315
  N  N1067  1  0.310600  0.210800  0.973390  1.0  -0.3206
  N  N1068  1  0.302000  0.293100  0.015020  1.0  -0.2567
  N  N1069  1  0.463100  0.790500  0.476880  1.0  -0.3445
  N  N1070  1  0.409200  0.836100  0.522950  1.0  -0.3316
  N  N1071  1  0.453400  0.875400  0.719990  1.0  -0.3405
  N  N1072  1  0.477100  0.804700  0.765630  1.0  -0.3136
  N  N1073  1  0.118800  0.132400  0.726500  1.0  -0.3072
  N  N1074  1  0.090400  0.198700  0.772420  1.0  -0.3248
  N  N1075  1  0.118800  0.162300  0.522260  1.0  -0.3105
  N  N1076  1  0.032400  0.192800  0.481040  1.0  -0.3086
  N  N1077  1  0.083200  0.036900  0.774290  1.0  -0.3416
  N  N1078  1  0.995200  0.034800  0.732870  1.0  -0.3315
  N  N1079  1  0.810600  0.789200  0.526610  1.0  -0.3222
  N  N1080  1  0.802000  0.706900  0.484980  1.0  -0.2568
  Cl  Cl1081  1  0.776340  0.997440  0.992010  1.0  1.5598
  Cl  Cl1082  1  0.782100  0.996700  0.762570  1.0  1.5799
  Cl  Cl1083  1  0.276340  0.002560  0.507990  1.0  1.5607
  Cl  Cl1084  1  0.282100  0.003300  0.737430  1.0  1.5811
  Cl  Cl1085  1  0.723660  0.497440  0.007990  1.0  1.5604
  Cl  Cl1086  1  0.717900  0.496700  0.237430  1.0  1.5812
  Cl  Cl1087  1  0.223660  0.502560  0.492010  1.0  1.5596
  Cl  Cl1088  1  0.217900  0.503300  0.262570  1.0  1.5802
  Cl  Cl1089  1  0.223660  0.002560  0.007990  1.0  1.5604
  Cl  Cl1090  1  0.217900  0.003300  0.237430  1.0  1.5816
  Cl  Cl1091  1  0.723660  0.997440  0.492010  1.0  1.5596
  Cl  Cl1092  1  0.717900  0.996700  0.262570  1.0  1.5803
  Cl  Cl1093  1  0.276340  0.502560  0.992010  1.0  1.5598
  Cl  Cl1094  1  0.282100  0.503300  0.762570  1.0  1.5799
  Cl  Cl1095  1  0.776340  0.497440  0.507990  1.0  1.5608
  Cl  Cl1096  1  0.782100  0.496700  0.737430  1.0  1.5807
  O  O1097  1  0.549700  0.194800  0.091200  1.0  -0.5505
  O  O1098  1  0.617100  0.291500  0.100980  1.0  -0.6887
  O  O1099  1  0.294500  0.411400  0.911280  1.0  -0.5967
  O  O1100  1  0.370900  0.506000  0.907070  1.0  -0.6969
  O  O1101  1  0.305300  0.440500  0.854590  1.0  -0.7028
  O  O1102  1  0.400800  0.509700  0.845910  1.0  -0.6071
  O  O1103  1  0.396900  0.165500  0.659740  1.0  -0.6861
  O  O1104  1  0.514500  0.195200  0.660480  1.0  -0.5722
  O  O1105  1  0.256400  0.592300  0.853880  1.0  -0.6461
  O  O1106  1  0.170800  0.511500  0.843290  1.0  -0.6214
  O  O1107  1  0.037700  0.792300  0.654450  1.0  -0.5704
  O  O1108  1  0.139700  0.856800  0.654590  1.0  -0.6222
  O  O1109  1  0.262000  0.623600  0.912470  1.0  -0.6222
  O  O1110  1  0.199400  0.524600  0.903130  1.0  -0.6604
  O  O1111  1  0.858900  0.638100  0.086520  1.0  -0.5772
  O  O1112  1  0.908700  0.748100  0.086870  1.0  -0.5748
  O  O1113  1  0.198100  0.439700  0.646920  1.0  -0.6216
  O  O1114  1  0.230300  0.546400  0.660640  1.0  -0.6435
  O  O1115  1  0.886800  0.441200  0.847720  1.0  -0.6756
  O  O1116  1  0.856000  0.549400  0.832280  1.0  -0.6364
  O  O1117  1  0.723700  0.429100  0.898820  1.0  -0.6066
  O  O1118  1  0.839800  0.415600  0.904390  1.0  -0.6404
  O  O1119  1  0.683000  0.053600  0.078200  1.0  -0.6053
  O  O1120  1  0.789300  0.087100  0.087900  1.0  -0.5736
  O  O1121  1  0.487400  0.601200  0.883440  1.0  -0.877
  O  O1122  1  0.068800  0.463300  0.880600  1.0  -0.7894
  O  O1123  1  0.255700  0.300300  0.875530  1.0  -0.769
  O  O1124  1  0.812800  0.650500  0.872950  1.0  -0.8333
  O  O1125  1  0.927800  0.555100  0.887670  1.0  -0.7747
  O  O1126  1  0.049700  0.805200  0.408800  1.0  -0.5515
  O  O1127  1  0.117100  0.708500  0.399020  1.0  -0.6885
  O  O1128  1  0.794500  0.588600  0.588720  1.0  -0.5966
  O  O1129  1  0.870900  0.494000  0.592930  1.0  -0.6967
  O  O1130  1  0.805300  0.559500  0.645410  1.0  -0.7026
  O  O1131  1  0.900800  0.490300  0.654090  1.0  -0.6062
  O  O1132  1  0.896900  0.834500  0.840260  1.0  -0.6862
  O  O1133  1  0.014500  0.804800  0.839520  1.0  -0.5706
  O  O1134  1  0.756400  0.407700  0.646120  1.0  -0.6458
  O  O1135  1  0.670800  0.488500  0.656710  1.0  -0.6214
  O  O1136  1  0.537700  0.207700  0.845550  1.0  -0.5714
  O  O1137  1  0.639700  0.143200  0.845410  1.0  -0.6229
  O  O1138  1  0.762000  0.376400  0.587530  1.0  -0.6213
  O  O1139  1  0.699400  0.475400  0.596870  1.0  -0.6597
  O  O1140  1  0.358900  0.361900  0.413480  1.0  -0.5776
  O  O1141  1  0.408700  0.251900  0.413130  1.0  -0.5755
  O  O1142  1  0.698100  0.560300  0.853080  1.0  -0.621
  O  O1143  1  0.730300  0.453600  0.839360  1.0  -0.6445
  O  O1144  1  0.386800  0.558800  0.652280  1.0  -0.6762
  O  O1145  1  0.356000  0.450600  0.667720  1.0  -0.637
  O  O1146  1  0.223700  0.570900  0.601180  1.0  -0.6055
  O  O1147  1  0.339800  0.584400  0.595610  1.0  -0.6395
  O  O1148  1  0.183000  0.946400  0.421800  1.0  -0.6055
  O  O1149  1  0.289300  0.912900  0.412100  1.0  -0.5734
  O  O1150  1  0.987400  0.398800  0.616560  1.0  -0.8765
  O  O1151  1  0.568800  0.536700  0.619400  1.0  -0.7892
  O  O1152  1  0.755700  0.699700  0.624470  1.0  -0.7666
  O  O1153  1  0.312800  0.349500  0.627050  1.0  -0.8311
  O  O1154  1  0.427800  0.444900  0.612330  1.0  -0.7744
  O  O1155  1  0.950300  0.694800  0.908800  1.0  -0.5519
  O  O1156  1  0.882900  0.791500  0.899020  1.0  -0.688
  O  O1157  1  0.205500  0.911400  0.088720  1.0  -0.5969
  O  O1158  1  0.129100  0.006000  0.092930  1.0  -0.6969
  O  O1159  1  0.194700  0.940500  0.145410  1.0  -0.703
  O  O1160  1  0.099200  0.009700  0.154090  1.0  -0.6067
  O  O1161  1  0.103100  0.665500  0.340260  1.0  -0.6867
  O  O1162  1  0.985500  0.695200  0.339520  1.0  -0.5732
  O  O1163  1  0.243600  0.092300  0.146120  1.0  -0.6447
  O  O1164  1  0.329200  0.011500  0.156710  1.0  -0.6216
  O  O1165  1  0.462300  0.292300  0.345550  1.0  -0.5711
  O  O1166  1  0.360300  0.356800  0.345410  1.0  -0.6217
  O  O1167  1  0.238000  0.123600  0.087530  1.0  -0.6211
  O  O1168  1  0.300600  0.024600  0.096870  1.0  -0.6605
  O  O1169  1  0.641100  0.138100  0.913480  1.0  -0.5784
  O  O1170  1  0.591300  0.248100  0.913130  1.0  -0.5762
  O  O1171  1  0.301900  0.939700  0.353080  1.0  -0.6205
  O  O1172  1  0.269700  0.046400  0.339360  1.0  -0.6437
  O  O1173  1  0.613200  0.941200  0.152280  1.0  -0.6762
  O  O1174  1  0.644000  0.049400  0.167720  1.0  -0.6373
  O  O1175  1  0.776300  0.929100  0.101180  1.0  -0.6043
  O  O1176  1  0.660200  0.915600  0.095610  1.0  -0.6416
  O  O1177  1  0.817000  0.553600  0.921800  1.0  -0.6062
  O  O1178  1  0.710700  0.587100  0.912100  1.0  -0.5749
  O  O1179  1  0.012600  0.101200  0.116560  1.0  -0.8749
  O  O1180  1  0.431200  0.963300  0.119400  1.0  -0.7883
  O  O1181  1  0.244300  0.800300  0.124470  1.0  -0.7682
  O  O1182  1  0.687200  0.150500  0.127050  1.0  -0.8313
  O  O1183  1  0.572200  0.055100  0.112330  1.0  -0.7749
  O  O1184  1  0.450300  0.305200  0.591200  1.0  -0.5512
  O  O1185  1  0.382900  0.208500  0.600980  1.0  -0.6885
  O  O1186  1  0.705500  0.088600  0.411280  1.0  -0.5972
  O  O1187  1  0.629100  0.994000  0.407070  1.0  -0.6951
  O  O1188  1  0.694700  0.059500  0.354590  1.0  -0.7033
  O  O1189  1  0.599200  0.990300  0.345910  1.0  -0.6079
  O  O1190  1  0.603100  0.334500  0.159740  1.0  -0.6863
  O  O1191  1  0.485500  0.304800  0.160480  1.0  -0.5706
  O  O1192  1  0.743600  0.907700  0.353880  1.0  -0.6457
  O  O1193  1  0.829200  0.988500  0.343290  1.0  -0.6217
  O  O1194  1  0.962300  0.707700  0.154450  1.0  -0.5709
  O  O1195  1  0.860300  0.643200  0.154590  1.0  -0.6218
  O  O1196  1  0.738000  0.876400  0.412470  1.0  -0.6216
  O  O1197  1  0.800600  0.975400  0.403130  1.0  -0.6598
  O  O1198  1  0.141100  0.861900  0.586520  1.0  -0.5778
  O  O1199  1  0.091300  0.751900  0.586870  1.0  -0.5755
  O  O1200  1  0.801900  0.060300  0.146920  1.0  -0.621
  O  O1201  1  0.769700  0.953600  0.160640  1.0  -0.6451
  O  O1202  1  0.113200  0.058800  0.347720  1.0  -0.6761
  O  O1203  1  0.144000  0.950600  0.332280  1.0  -0.636
  O  O1204  1  0.276300  0.070900  0.398820  1.0  -0.6051
  O  O1205  1  0.160200  0.084400  0.404390  1.0  -0.6405
  O  O1206  1  0.317000  0.446400  0.578200  1.0  -0.6055
  O  O1207  1  0.210700  0.412900  0.587900  1.0  -0.5743
  O  O1208  1  0.512600  0.898800  0.383440  1.0  -0.8744
  O  O1209  1  0.931200  0.036700  0.380600  1.0  -0.79
  O  O1210  1  0.744300  0.199700  0.375530  1.0  -0.7662
  O  O1211  1  0.187200  0.849500  0.372950  1.0  -0.8315
  O  O1212  1  0.072200  0.944900  0.387670  1.0  -0.7754
  O  O1213  1  0.450300  0.805200  0.908800  1.0  -0.5526
  O  O1214  1  0.382900  0.708500  0.899020  1.0  -0.6881
  O  O1215  1  0.705500  0.588600  0.088720  1.0  -0.5972
  O  O1216  1  0.629100  0.494000  0.092930  1.0  -0.6958
  O  O1217  1  0.694700  0.559500  0.145410  1.0  -0.7027
  O  O1218  1  0.599200  0.490300  0.154090  1.0  -0.6067
  O  O1219  1  0.603100  0.834500  0.340260  1.0  -0.6862
  O  O1220  1  0.485500  0.804800  0.339520  1.0  -0.5713
  O  O1221  1  0.743600  0.407700  0.146120  1.0  -0.6458
  O  O1222  1  0.829200  0.488500  0.156710  1.0  -0.6217
  O  O1223  1  0.962300  0.207700  0.345550  1.0  -0.5719
  O  O1224  1  0.860300  0.143200  0.345410  1.0  -0.6226
  O  O1225  1  0.738000  0.376400  0.087530  1.0  -0.6209
  O  O1226  1  0.800600  0.475400  0.096870  1.0  -0.6596
  O  O1227  1  0.141100  0.361900  0.913480  1.0  -0.5785
  O  O1228  1  0.091300  0.251900  0.913130  1.0  -0.5763
  O  O1229  1  0.801900  0.560300  0.353080  1.0  -0.6206
  O  O1230  1  0.769700  0.453600  0.339360  1.0  -0.6444
  O  O1231  1  0.113200  0.558800  0.152280  1.0  -0.6756
  O  O1232  1  0.144000  0.450600  0.167720  1.0  -0.6367
  O  O1233  1  0.276300  0.570900  0.101180  1.0  -0.6041
  O  O1234  1  0.160200  0.584400  0.095610  1.0  -0.641
  O  O1235  1  0.317000  0.946400  0.921800  1.0  -0.6065
  O  O1236  1  0.210700  0.912900  0.912100  1.0  -0.5747
  O  O1237  1  0.512600  0.398800  0.116560  1.0  -0.8746
  O  O1238  1  0.931200  0.536700  0.119400  1.0  -0.7886
  O  O1239  1  0.744300  0.699700  0.124470  1.0  -0.7665
  O  O1240  1  0.187200  0.349500  0.127050  1.0  -0.8302
  O  O1241  1  0.072200  0.444900  0.112330  1.0  -0.7746
  O  O1242  1  0.950300  0.194800  0.591200  1.0  -0.5514
  O  O1243  1  0.882900  0.291500  0.600980  1.0  -0.6883
  O  O1244  1  0.205500  0.411400  0.411280  1.0  -0.5967
  O  O1245  1  0.129100  0.506000  0.407070  1.0  -0.6961
  O  O1246  1  0.194700  0.440500  0.354590  1.0  -0.7028
  O  O1247  1  0.099200  0.509700  0.345910  1.0  -0.6075
  O  O1248  1  0.103100  0.165500  0.159740  1.0  -0.6861
  O  O1249  1  0.985500  0.195200  0.160480  1.0  -0.5712
  O  O1250  1  0.243600  0.592300  0.353880  1.0  -0.6458
  O  O1251  1  0.329200  0.511500  0.343290  1.0  -0.6217
  O  O1252  1  0.462300  0.792300  0.154450  1.0  -0.5705
  O  O1253  1  0.360300  0.856800  0.154590  1.0  -0.6218
  O  O1254  1  0.238000  0.623600  0.412470  1.0  -0.6213
  O  O1255  1  0.300600  0.524600  0.403130  1.0  -0.6601
  O  O1256  1  0.641100  0.638100  0.586520  1.0  -0.578
  O  O1257  1  0.591300  0.748100  0.586870  1.0  -0.5768
  O  O1258  1  0.301900  0.439700  0.146920  1.0  -0.6213
  O  O1259  1  0.269700  0.546400  0.160640  1.0  -0.6436
  O  O1260  1  0.613200  0.441200  0.347720  1.0  -0.6754
  O  O1261  1  0.644000  0.549400  0.332280  1.0  -0.636
  O  O1262  1  0.776300  0.429100  0.398820  1.0  -0.6059
  O  O1263  1  0.660200  0.415600  0.404390  1.0  -0.6419
  O  O1264  1  0.817000  0.053600  0.578200  1.0  -0.6056
  O  O1265  1  0.710700  0.087100  0.587900  1.0  -0.5744
  O  O1266  1  0.012600  0.601200  0.383440  1.0  -0.8748
  O  O1267  1  0.431200  0.463300  0.380600  1.0  -0.7891
  O  O1268  1  0.244300  0.300300  0.375530  1.0  -0.769
  O  O1269  1  0.687200  0.650500  0.372950  1.0  -0.8329
  O  O1270  1  0.572200  0.555100  0.387670  1.0  -0.7758
  O  O1271  1  0.049700  0.305200  0.091200  1.0  -0.5508
  O  O1272  1  0.117100  0.208500  0.100980  1.0  -0.6889
  O  O1273  1  0.794500  0.088600  0.911280  1.0  -0.5968
  O  O1274  1  0.870900  0.994000  0.907070  1.0  -0.6959
  O  O1275  1  0.805300  0.059500  0.854590  1.0  -0.7034
  O  O1276  1  0.900800  0.990300  0.845910  1.0  -0.6071
  O  O1277  1  0.896900  0.334500  0.659740  1.0  -0.6864
  O  O1278  1  0.014500  0.304800  0.660480  1.0  -0.5705
  O  O1279  1  0.756400  0.907700  0.853880  1.0  -0.6455
  O  O1280  1  0.670800  0.988500  0.843290  1.0  -0.6213
  O  O1281  1  0.537700  0.707700  0.654450  1.0  -0.5705
  O  O1282  1  0.639700  0.643200  0.654590  1.0  -0.6227
  O  O1283  1  0.762000  0.876400  0.912470  1.0  -0.6217
  O  O1284  1  0.699400  0.975400  0.903130  1.0  -0.6602
  O  O1285  1  0.358900  0.861900  0.086520  1.0  -0.5771
  O  O1286  1  0.408700  0.751900  0.086870  1.0  -0.5741
  O  O1287  1  0.698100  0.060300  0.646920  1.0  -0.6217
  O  O1288  1  0.730300  0.953600  0.660640  1.0  -0.6452
  O  O1289  1  0.386800  0.058800  0.847720  1.0  -0.6765
  O  O1290  1  0.356000  0.950600  0.832280  1.0  -0.6363
  O  O1291  1  0.223700  0.070900  0.898820  1.0  -0.6059
  O  O1292  1  0.339800  0.084400  0.904390  1.0  -0.6391
  O  O1293  1  0.183000  0.446400  0.078200  1.0  -0.6045
  O  O1294  1  0.289300  0.412900  0.087900  1.0  -0.5733
  O  O1295  1  0.987400  0.898800  0.883440  1.0  -0.8766
  O  O1296  1  0.568800  0.036700  0.880600  1.0  -0.7903
  O  O1297  1  0.755700  0.199700  0.875530  1.0  -0.7675
  O  O1298  1  0.312800  0.849500  0.872950  1.0  -0.8317
  O  O1299  1  0.427800  0.944900  0.887670  1.0  -0.7751
  O  O1300  1  0.549700  0.694800  0.408800  1.0  -0.5505
  O  O1301  1  0.617100  0.791500  0.399020  1.0  -0.6884
  O  O1302  1  0.294500  0.911400  0.588720  1.0  -0.5967
  O  O1303  1  0.370900  0.006000  0.592930  1.0  -0.6976
  O  O1304  1  0.305300  0.940500  0.645410  1.0  -0.7031
  O  O1305  1  0.400800  0.009700  0.654090  1.0  -0.6067
  O  O1306  1  0.396900  0.665500  0.840260  1.0  -0.6867
  O  O1307  1  0.514500  0.695200  0.839520  1.0  -0.5711
  O  O1308  1  0.256400  0.092300  0.646120  1.0  -0.6454
  O  O1309  1  0.170800  0.011500  0.656710  1.0  -0.6214
  O  O1310  1  0.037700  0.292300  0.845550  1.0  -0.5702
  O  O1311  1  0.139700  0.356800  0.845410  1.0  -0.6226
  O  O1312  1  0.262000  0.123600  0.587530  1.0  -0.6217
  O  O1313  1  0.199400  0.024600  0.596870  1.0  -0.6603
  O  O1314  1  0.858900  0.138100  0.413480  1.0  -0.5775
  O  O1315  1  0.908700  0.248100  0.413130  1.0  -0.5749
  O  O1316  1  0.198100  0.939700  0.853080  1.0  -0.6203
  O  O1317  1  0.230300  0.046400  0.839360  1.0  -0.6436
  O  O1318  1  0.886800  0.941200  0.652280  1.0  -0.6768
  O  O1319  1  0.856000  0.049400  0.667720  1.0  -0.6377
  O  O1320  1  0.723700  0.929100  0.601180  1.0  -0.6057
  O  O1321  1  0.839800  0.915600  0.595610  1.0  -0.64
  O  O1322  1  0.683000  0.553600  0.421800  1.0  -0.6057
  O  O1323  1  0.789300  0.587100  0.412100  1.0  -0.5738
  O  O1324  1  0.487400  0.101200  0.616560  1.0  -0.877
  O  O1325  1  0.068800  0.963300  0.619400  1.0  -0.7887
  O  O1326  1  0.255700  0.800300  0.624470  1.0  -0.7671
  O  O1327  1  0.812800  0.150500  0.627050  1.0  -0.8319
  O  O1328  1  0.927800  0.055100  0.612330  1.0  -0.7738
  O  O1329  1  0.729700  0.953800  0.007500  1.0  -0.5801
  O  O1330  1  0.794200  0.961900  0.966980  1.0  -0.5763
  O  O1331  1  0.742600  0.064400  0.986260  1.0  -0.5959
  O  O1332  1  0.843200  0.010400  0.006820  1.0  -0.6672
  O  O1333  1  0.800000  0.978200  0.791300  1.0  -0.6629
  O  O1334  1  0.833800  0.028300  0.750300  1.0  -0.5415
  O  O1335  1  0.769000  0.922600  0.751300  1.0  -0.6818
  O  O1336  1  0.714800  0.030400  0.761900  1.0  -0.5764
  O  O1337  1  0.229700  0.046200  0.492500  1.0  -0.5801
  O  O1338  1  0.294200  0.038100  0.533020  1.0  -0.5772
  O  O1339  1  0.242600  0.935600  0.513740  1.0  -0.5947
  O  O1340  1  0.343200  0.989600  0.493180  1.0  -0.6672
  O  O1341  1  0.300000  0.021800  0.708700  1.0  -0.66
  O  O1342  1  0.333800  0.971700  0.749700  1.0  -0.5416
  O  O1343  1  0.269000  0.077400  0.748700  1.0  -0.6824
  O  O1344  1  0.214800  0.969600  0.738100  1.0  -0.5764
  O  O1345  1  0.770300  0.453800  0.992500  1.0  -0.5808
  O  O1346  1  0.705800  0.461900  0.033020  1.0  -0.5768
  O  O1347  1  0.757400  0.564400  0.013740  1.0  -0.5959
  O  O1348  1  0.656800  0.510400  0.993180  1.0  -0.6656
  O  O1349  1  0.700000  0.478200  0.208700  1.0  -0.6605
  O  O1350  1  0.666200  0.528300  0.249700  1.0  -0.5405
  O  O1351  1  0.731000  0.422600  0.248700  1.0  -0.6832
  O  O1352  1  0.785200  0.530400  0.238100  1.0  -0.5766
  O  O1353  1  0.270300  0.546200  0.507500  1.0  -0.5808
  O  O1354  1  0.205800  0.538100  0.466980  1.0  -0.576
  O  O1355  1  0.257400  0.435600  0.486260  1.0  -0.5949
  O  O1356  1  0.156800  0.489600  0.506820  1.0  -0.6655
  O  O1357  1  0.200000  0.521800  0.291300  1.0  -0.6628
  O  O1358  1  0.166200  0.471700  0.250300  1.0  -0.5415
  O  O1359  1  0.231000  0.577400  0.251300  1.0  -0.6809
  O  O1360  1  0.285200  0.469600  0.261900  1.0  -0.5771
  O  O1361  1  0.270300  0.046200  0.992500  1.0  -0.5809
  O  O1362  1  0.205800  0.038100  0.033020  1.0  -0.5768
  O  O1363  1  0.257400  0.935600  0.013740  1.0  -0.5951
  O  O1364  1  0.156800  0.989600  0.993180  1.0  -0.6655
  O  O1365  1  0.200000  0.021800  0.208700  1.0  -0.6604
  O  O1366  1  0.166200  0.971700  0.249700  1.0  -0.5415
  O  O1367  1  0.231000  0.077400  0.248700  1.0  -0.6821
  O  O1368  1  0.285200  0.969600  0.238100  1.0  -0.5768
  O  O1369  1  0.770300  0.953800  0.507500  1.0  -0.5809
  O  O1370  1  0.705800  0.961900  0.466980  1.0  -0.5761
  O  O1371  1  0.757400  0.064400  0.486260  1.0  -0.5957
  O  O1372  1  0.656800  0.010400  0.506820  1.0  -0.6654
  O  O1373  1  0.700000  0.978200  0.291300  1.0  -0.6631
  O  O1374  1  0.666200  0.028300  0.250300  1.0  -0.5405
  O  O1375  1  0.731000  0.922600  0.251300  1.0  -0.6812
  O  O1376  1  0.785200  0.030400  0.261900  1.0  -0.5771
  O  O1377  1  0.229700  0.546200  0.007500  1.0  -0.58
  O  O1378  1  0.294200  0.538100  0.966980  1.0  -0.5763
  O  O1379  1  0.242600  0.435600  0.986260  1.0  -0.5945
  O  O1380  1  0.343200  0.489600  0.006820  1.0  -0.6674
  O  O1381  1  0.300000  0.521800  0.791300  1.0  -0.6625
  O  O1382  1  0.333800  0.471700  0.750300  1.0  -0.5422
  O  O1383  1  0.269000  0.577400  0.751300  1.0  -0.6813
  O  O1384  1  0.214800  0.469600  0.761900  1.0  -0.5768
  O  O1385  1  0.729700  0.453800  0.492500  1.0  -0.5801
  O  O1386  1  0.794200  0.461900  0.533020  1.0  -0.5772
  O  O1387  1  0.742600  0.564400  0.513740  1.0  -0.5961
  O  O1388  1  0.843200  0.510400  0.493180  1.0  -0.6672
  O  O1389  1  0.800000  0.478200  0.708700  1.0  -0.6602
  O  O1390  1  0.833800  0.528300  0.749700  1.0  -0.5408
  O  O1391  1  0.769000  0.422600  0.748700  1.0  -0.6836
  O  O1392  1  0.714800  0.530400  0.738100  1.0  -0.5759
