# generated using pymatgen
data_Gd3Co2H47C72N12ClO33
_symmetry_space_group_name_H-M   'P 1'
_cell_length_a   18.56170000
_cell_length_b   18.71440000
_cell_length_c   49.07830000
_cell_angle_alpha   90.00000000
_cell_angle_beta   90.00000000
_cell_angle_gamma   90.00000000
_symmetry_Int_Tables_number   1
_chemical_formula_structural   Gd3Co2H47C72N12ClO33
_chemical_formula_sum   'Gd24 Co16 H376 C576 N96 Cl8 O264'
_cell_volume   17048.38200096
_cell_formula_units_Z   8
loop_
 _symmetry_equiv_pos_site_id
 _symmetry_equiv_pos_as_xyz
  1  'x, y, z'
loop_
 _atom_site_type_symbol
 _atom_site_label
 _atom_site_symmetry_multiplicity
 _atom_site_fract_x
 _atom_site_fract_y
 _atom_site_fract_z
 _atom_site_occupancy
 _atom_site_charge
  Gd  Gd1  1  0.698440  0.079560  0.621450  1.0  2.1297
  Gd  Gd2  1  0.858310  0.903170  0.622460  1.0  2.1638
  Gd  Gd3  1  0.803200  0.020160  0.875760  1.0  2.0454
  Gd  Gd4  1  0.198440  0.920440  0.878550  1.0  2.1332
  Gd  Gd5  1  0.358310  0.096830  0.877540  1.0  2.1635
  Gd  Gd6  1  0.303200  0.979840  0.624230  1.0  2.0451
  Gd  Gd7  1  0.801560  0.579560  0.378550  1.0  2.1302
  Gd  Gd8  1  0.641690  0.403170  0.377540  1.0  2.1638
  Gd  Gd9  1  0.696800  0.520160  0.124230  1.0  2.0456
  Gd  Gd10  1  0.301560  0.420440  0.121450  1.0  2.1344
  Gd  Gd11  1  0.141690  0.596830  0.122460  1.0  2.1634
  Gd  Gd12  1  0.196800  0.479840  0.375760  1.0  2.0461
  Gd  Gd13  1  0.301560  0.920440  0.378550  1.0  2.1341
  Gd  Gd14  1  0.141690  0.096830  0.377540  1.0  2.1633
  Gd  Gd15  1  0.196800  0.979840  0.124230  1.0  2.0454
  Gd  Gd16  1  0.801560  0.079560  0.121450  1.0  2.1342
  Gd  Gd17  1  0.641690  0.903170  0.122460  1.0  2.1637
  Gd  Gd18  1  0.696800  0.020160  0.375760  1.0  2.0459
  Gd  Gd19  1  0.198440  0.420440  0.621450  1.0  2.1337
  Gd  Gd20  1  0.358310  0.596830  0.622460  1.0  2.1635
  Gd  Gd21  1  0.303200  0.479840  0.875760  1.0  2.0456
  Gd  Gd22  1  0.698440  0.579560  0.878550  1.0  2.1338
  Gd  Gd23  1  0.858310  0.403170  0.877540  1.0  2.1639
  Gd  Gd24  1  0.803200  0.520160  0.624230  1.0  2.0452
  Co  Co25  1  0.535990  0.882840  0.753630  1.0  0.9675
  Co  Co26  1  0.887820  0.753020  0.998120  1.0  0.7099
  Co  Co27  1  0.035990  0.117160  0.746370  1.0  0.9685
  Co  Co28  1  0.387820  0.246980  0.501880  1.0  0.7097
  Co  Co29  1  0.964010  0.382840  0.246370  1.0  0.9683
  Co  Co30  1  0.612180  0.253020  0.001880  1.0  0.7093
  Co  Co31  1  0.464010  0.617160  0.253630  1.0  0.9691
  Co  Co32  1  0.112180  0.746980  0.498120  1.0  0.7093
  Co  Co33  1  0.464010  0.117160  0.246370  1.0  0.9692
  Co  Co34  1  0.112180  0.246980  0.001880  1.0  0.7092
  Co  Co35  1  0.964010  0.882840  0.253630  1.0  0.9682
  Co  Co36  1  0.612180  0.753020  0.498120  1.0  0.7094
  Co  Co37  1  0.035990  0.617160  0.753630  1.0  0.9683
  Co  Co38  1  0.387820  0.746980  0.998120  1.0  0.7098
  Co  Co39  1  0.535990  0.382840  0.746370  1.0  0.9675
  Co  Co40  1  0.887820  0.253020  0.501880  1.0  0.7098
  H  H41  1  0.832200  0.168300  0.550600  1.0  0.0704
  H  H42  1  0.974300  0.009500  0.561600  1.0  0.1086
  H  H43  1  0.034000  0.048500  0.522900  1.0  0.0985
  H  H44  1  0.086000  0.090300  0.485900  1.0  0.1105
  H  H45  1  0.124000  0.130700  0.444000  1.0  0.0982
  H  H46  1  0.964200  0.272000  0.444700  1.0  0.0695
  H  H47  1  0.706000  0.820600  0.543500  1.0  0.0655
  H  H48  1  0.584300  0.979100  0.573000  1.0  0.0907
  H  H49  1  0.504800  0.960200  0.537600  1.0  0.1049
  H  H50  1  0.436200  0.939500  0.501900  1.0  0.1081
  H  H51  1  0.374700  0.915400  0.461900  1.0  0.092
  H  H52  1  0.512100  0.754600  0.448000  1.0  0.0749
  H  H53  1  0.609000  0.949000  0.701700  1.0  0.0743
  H  H54  1  0.752200  0.803500  0.675900  1.0  0.0928
  H  H55  1  0.727900  0.736700  0.714300  1.0  0.1173
  H  H56  1  0.712400  0.687500  0.753400  1.0  0.1109
  H  H57  1  0.686600  0.639200  0.796600  1.0  0.1031
  H  H58  1  0.543300  0.794200  0.807900  1.0  0.0707
  H  H59  1  0.518700  0.795800  0.698000  1.0  0.0726
  H  H60  1  0.365700  0.649800  0.710600  1.0  0.1048
  H  H61  1  0.349100  0.697700  0.754300  1.0  0.1174
  H  H62  1  0.335400  0.749000  0.793000  1.0  0.1193
  H  H63  1  0.308400  0.823900  0.829400  1.0  0.1471
  H  H64  1  0.462700  0.957000  0.803800  1.0  0.068
  H  H65  1  0.437500  0.918300  0.705100  1.0  0.07
  H  H66  1  0.446700  0.128900  0.693600  1.0  0.0972
  H  H67  1  0.512700  0.138900  0.733200  1.0  0.1087
  H  H68  1  0.562400  0.139200  0.775000  1.0  0.1035
  H  H69  1  0.630300  0.128400  0.813700  1.0  0.0901
  H  H70  1  0.639200  0.918500  0.802700  1.0  0.0595
  H  H71  1  0.868900  0.839800  0.945300  1.0  0.0707
  H  H72  1  0.655600  0.863800  0.935800  1.0  0.1095
  H  H73  1  0.639600  0.792100  0.974000  1.0  0.0927
  H  H74  1  0.632800  0.722000  0.009800  1.0  0.0979
  H  H75  1  0.636600  0.644400  0.047000  1.0  0.0956
  H  H76  1  0.850800  0.647300  0.043800  1.0  0.0965
  H  H77  1  0.516200  0.674700  0.851000  1.0  0.3395
  H  H78  1  0.569100  0.989900  0.616000  1.0  0.3451
  H  H79  1  0.549100  0.041600  0.634800  1.0  0.4071
  H  H80  1  0.715700  0.232300  0.622600  1.0  0.4305
  H  H81  1  0.774300  0.206500  0.637200  1.0  0.4295
  H  H82  1  0.001200  0.949800  0.614700  1.0  0.4433
  H  H83  1  0.008200  0.885600  0.628700  1.0  0.4377
  H  H84  1  0.774600  0.171400  0.873800  1.0  0.4476
  H  H85  1  0.840800  0.166300  0.886800  1.0  0.3711
  H  H86  1  0.931700  0.097400  0.889600  1.0  0.3831
  H  H87  1  0.937700  0.033900  0.904000  1.0  0.4131
  H  H88  1  0.332200  0.831700  0.949400  1.0  0.071
  H  H89  1  0.474300  0.990500  0.938400  1.0  0.1086
  H  H90  1  0.534000  0.951500  0.977100  1.0  0.0989
  H  H91  1  0.586000  0.909700  0.014100  1.0  0.1106
  H  H92  1  0.624000  0.869300  0.056000  1.0  0.0981
  H  H93  1  0.464200  0.728000  0.055300  1.0  0.0694
  H  H94  1  0.206000  0.179400  0.956500  1.0  0.0656
  H  H95  1  0.084300  0.020900  0.927000  1.0  0.0901
  H  H96  1  0.004800  0.039800  0.962400  1.0  0.1045
  H  H97  1  0.936200  0.060500  0.998100  1.0  0.1087
  H  H98  1  0.874700  0.084600  0.038100  1.0  0.0919
  H  H99  1  0.012100  0.245400  0.052000  1.0  0.0748
  H  H100  1  0.109000  0.051000  0.798300  1.0  0.0742
  H  H101  1  0.252200  0.196500  0.824100  1.0  0.0927
  H  H102  1  0.227900  0.263300  0.785700  1.0  0.1171
  H  H103  1  0.212400  0.312500  0.746600  1.0  0.1105
  H  H104  1  0.186600  0.360800  0.703400  1.0  0.1033
  H  H105  1  0.043300  0.205800  0.692100  1.0  0.0697
  H  H106  1  0.018700  0.204200  0.802000  1.0  0.0735
  H  H107  1  0.865700  0.350200  0.789400  1.0  0.1046
  H  H108  1  0.849100  0.302300  0.745700  1.0  0.1179
  H  H109  1  0.835400  0.251000  0.707000  1.0  0.119
  H  H110  1  0.808400  0.176100  0.670600  1.0  0.146
  H  H111  1  0.962700  0.043000  0.696200  1.0  0.0683
  H  H112  1  0.937500  0.081700  0.794900  1.0  0.0706
  H  H113  1  0.946700  0.871100  0.806400  1.0  0.097
  H  H114  1  0.012700  0.861100  0.766800  1.0  0.1091
  H  H115  1  0.062400  0.860800  0.725000  1.0  0.1034
  H  H116  1  0.130300  0.871600  0.686300  1.0  0.0902
  H  H117  1  0.139200  0.081500  0.697300  1.0  0.0599
  H  H118  1  0.368900  0.160200  0.554700  1.0  0.0717
  H  H119  1  0.155600  0.136200  0.564200  1.0  0.11
  H  H120  1  0.139600  0.207900  0.526000  1.0  0.093
  H  H121  1  0.132800  0.278000  0.490200  1.0  0.0977
  H  H122  1  0.136600  0.355600  0.453000  1.0  0.0959
  H  H123  1  0.350800  0.352700  0.456200  1.0  0.0961
  H  H124  1  0.016200  0.325300  0.649000  1.0  0.34
  H  H125  1  0.069100  0.010100  0.884000  1.0  0.3465
  H  H126  1  0.049100  0.958400  0.865200  1.0  0.4051
  H  H127  1  0.215700  0.767700  0.877400  1.0  0.4305
  H  H128  1  0.274300  0.793500  0.862800  1.0  0.4291
  H  H129  1  0.501200  0.050200  0.885300  1.0  0.4424
  H  H130  1  0.508200  0.114400  0.871300  1.0  0.4367
  H  H131  1  0.274600  0.828600  0.626200  1.0  0.4485
  H  H132  1  0.340800  0.833700  0.613200  1.0  0.3702
  H  H133  1  0.431700  0.902600  0.610400  1.0  0.3807
  H  H134  1  0.437700  0.966100  0.596000  1.0  0.4114
  H  H135  1  0.667800  0.668300  0.449400  1.0  0.0704
  H  H136  1  0.525700  0.509500  0.438400  1.0  0.1079
  H  H137  1  0.466000  0.548500  0.477100  1.0  0.0984
  H  H138  1  0.414000  0.590300  0.514100  1.0  0.1102
  H  H139  1  0.376000  0.630700  0.556000  1.0  0.0985
  H  H140  1  0.535800  0.772000  0.555300  1.0  0.0695
  H  H141  1  0.794000  0.320600  0.456500  1.0  0.0654
  H  H142  1  0.915700  0.479100  0.427000  1.0  0.0902
  H  H143  1  0.995200  0.460200  0.462400  1.0  0.1051
  H  H144  1  0.063800  0.439500  0.498100  1.0  0.1086
  H  H145  1  0.125300  0.415400  0.538100  1.0  0.0918
  H  H146  1  0.987900  0.254600  0.552000  1.0  0.075
  H  H147  1  0.891000  0.449000  0.298300  1.0  0.0745
  H  H148  1  0.747800  0.303500  0.324100  1.0  0.0928
  H  H149  1  0.772100  0.236700  0.285700  1.0  0.1171
  H  H150  1  0.787600  0.187500  0.246600  1.0  0.1107
  H  H151  1  0.813400  0.139200  0.203400  1.0  0.1031
  H  H152  1  0.956700  0.294200  0.192100  1.0  0.0698
  H  H153  1  0.981300  0.295800  0.302000  1.0  0.0734
  H  H154  1  0.134300  0.149800  0.289400  1.0  0.1047
  H  H155  1  0.150900  0.197700  0.245700  1.0  0.1176
  H  H156  1  0.164600  0.249000  0.207000  1.0  0.1193
  H  H157  1  0.191600  0.323900  0.170600  1.0  0.1475
  H  H158  1  0.037300  0.457000  0.196200  1.0  0.0684
  H  H159  1  0.062500  0.418300  0.294900  1.0  0.0702
  H  H160  1  0.053300  0.628900  0.306400  1.0  0.0963
  H  H161  1  0.987300  0.638900  0.266800  1.0  0.1091
  H  H162  1  0.937600  0.639200  0.225000  1.0  0.1032
  H  H163  1  0.869700  0.628400  0.186300  1.0  0.0906
  H  H164  1  0.860800  0.418500  0.197300  1.0  0.0599
  H  H165  1  0.631100  0.339800  0.054700  1.0  0.0715
  H  H166  1  0.844400  0.363800  0.064200  1.0  0.1102
  H  H167  1  0.860400  0.292100  0.026000  1.0  0.0938
  H  H168  1  0.867200  0.222000  0.990200  1.0  0.0975
  H  H169  1  0.863400  0.144400  0.953000  1.0  0.0955
  H  H170  1  0.649200  0.147300  0.956200  1.0  0.0956
  H  H171  1  0.983800  0.174700  0.149000  1.0  0.3389
  H  H172  1  0.930900  0.489900  0.384000  1.0  0.3453
  H  H173  1  0.950900  0.541600  0.365200  1.0  0.4024
  H  H174  1  0.784300  0.732300  0.377400  1.0  0.4286
  H  H175  1  0.725700  0.706500  0.362800  1.0  0.4296
  H  H176  1  0.498800  0.449800  0.385300  1.0  0.4441
  H  H177  1  0.491800  0.385600  0.371300  1.0  0.4363
  H  H178  1  0.725400  0.671400  0.126200  1.0  0.4484
  H  H179  1  0.659200  0.666300  0.113200  1.0  0.3703
  H  H180  1  0.568300  0.597400  0.110400  1.0  0.382
  H  H181  1  0.562300  0.533900  0.096000  1.0  0.4122
  H  H182  1  0.167800  0.331700  0.050600  1.0  0.0708
  H  H183  1  0.025700  0.490500  0.061600  1.0  0.1085
  H  H184  1  0.966000  0.451500  0.022900  1.0  0.0985
  H  H185  1  0.914000  0.409700  0.985900  1.0  0.1104
  H  H186  1  0.876000  0.369300  0.944000  1.0  0.0984
  H  H187  1  0.035800  0.228000  0.944700  1.0  0.0692
  H  H188  1  0.294000  0.679400  0.043500  1.0  0.0657
  H  H189  1  0.415700  0.520900  0.073000  1.0  0.0905
  H  H190  1  0.495200  0.539800  0.037600  1.0  0.1047
  H  H191  1  0.563800  0.560500  0.001900  1.0  0.1087
  H  H192  1  0.625300  0.584600  0.961900  1.0  0.092
  H  H193  1  0.487900  0.745400  0.948000  1.0  0.0751
  H  H194  1  0.391000  0.551000  0.201700  1.0  0.0737
  H  H195  1  0.247800  0.696500  0.175900  1.0  0.093
  H  H196  1  0.272100  0.763300  0.214300  1.0  0.1178
  H  H197  1  0.287600  0.812500  0.253400  1.0  0.1106
  H  H198  1  0.313400  0.860800  0.296600  1.0  0.1033
  H  H199  1  0.456700  0.705800  0.307900  1.0  0.0712
  H  H200  1  0.481300  0.704200  0.198000  1.0  0.0725
  H  H201  1  0.634300  0.850200  0.210600  1.0  0.1047
  H  H202  1  0.650900  0.802300  0.254300  1.0  0.1173
  H  H203  1  0.664600  0.751000  0.293000  1.0  0.1186
  H  H204  1  0.691600  0.676100  0.329400  1.0  0.1456
  H  H205  1  0.537300  0.543000  0.303800  1.0  0.0684
  H  H206  1  0.562500  0.581700  0.205100  1.0  0.0703
  H  H207  1  0.553300  0.371100  0.193600  1.0  0.0965
  H  H208  1  0.487300  0.361100  0.233200  1.0  0.1086
  H  H209  1  0.437600  0.360800  0.275000  1.0  0.1035
  H  H210  1  0.369700  0.371600  0.313700  1.0  0.0902
  H  H211  1  0.360800  0.581500  0.302700  1.0  0.0598
  H  H212  1  0.131100  0.660200  0.445300  1.0  0.0711
  H  H213  1  0.344400  0.636200  0.435800  1.0  0.11
  H  H214  1  0.360400  0.707900  0.474000  1.0  0.0936
  H  H215  1  0.367200  0.778000  0.509800  1.0  0.0977
  H  H216  1  0.363400  0.855600  0.547000  1.0  0.0957
  H  H217  1  0.149200  0.852700  0.543800  1.0  0.0957
  H  H218  1  0.483800  0.825300  0.351000  1.0  0.3396
  H  H219  1  0.430900  0.510100  0.116000  1.0  0.3469
  H  H220  1  0.450900  0.458400  0.134800  1.0  0.4057
  H  H221  1  0.284300  0.267700  0.122600  1.0  0.4314
  H  H222  1  0.225700  0.293500  0.137200  1.0  0.4278
  H  H223  1  0.998800  0.550200  0.114700  1.0  0.4416
  H  H224  1  0.991800  0.614400  0.128700  1.0  0.4376
  H  H225  1  0.225400  0.328600  0.373800  1.0  0.4486
  H  H226  1  0.159200  0.333700  0.386800  1.0  0.3691
  H  H227  1  0.068300  0.402600  0.389600  1.0  0.3817
  H  H228  1  0.062300  0.466100  0.404000  1.0  0.4124
  H  H229  1  0.167800  0.831700  0.449400  1.0  0.0709
  H  H230  1  0.025700  0.990500  0.438400  1.0  0.1084
  H  H231  1  0.966000  0.951500  0.477100  1.0  0.0986
  H  H232  1  0.914000  0.909700  0.514100  1.0  0.1106
  H  H233  1  0.876000  0.869300  0.556000  1.0  0.0982
  H  H234  1  0.035800  0.728000  0.555300  1.0  0.0695
  H  H235  1  0.294000  0.179400  0.456500  1.0  0.066
  H  H236  1  0.415700  0.020900  0.427000  1.0  0.0899
  H  H237  1  0.495200  0.039800  0.462400  1.0  0.1043
  H  H238  1  0.563800  0.060500  0.498100  1.0  0.1086
  H  H239  1  0.625300  0.084600  0.538100  1.0  0.0921
  H  H240  1  0.487900  0.245400  0.552000  1.0  0.0749
  H  H241  1  0.391000  0.051000  0.298300  1.0  0.0742
  H  H242  1  0.247800  0.196500  0.324100  1.0  0.0928
  H  H243  1  0.272100  0.263300  0.285700  1.0  0.117
  H  H244  1  0.287600  0.312500  0.246600  1.0  0.1103
  H  H245  1  0.313400  0.360800  0.203400  1.0  0.1035
  H  H246  1  0.456700  0.205800  0.192100  1.0  0.0697
  H  H247  1  0.481300  0.204200  0.302000  1.0  0.0735
  H  H248  1  0.634300  0.350200  0.289400  1.0  0.1044
  H  H249  1  0.650900  0.302300  0.245700  1.0  0.1178
  H  H250  1  0.664600  0.251000  0.207000  1.0  0.1189
  H  H251  1  0.691600  0.176100  0.170600  1.0  0.1463
  H  H252  1  0.537300  0.043000  0.196200  1.0  0.0682
  H  H253  1  0.562500  0.081700  0.294900  1.0  0.07
  H  H254  1  0.553300  0.871100  0.306400  1.0  0.0966
  H  H255  1  0.487300  0.861100  0.266800  1.0  0.109
  H  H256  1  0.437600  0.860800  0.225000  1.0  0.1033
  H  H257  1  0.369700  0.871600  0.186300  1.0  0.0899
  H  H258  1  0.360800  0.081500  0.197300  1.0  0.0603
  H  H259  1  0.131100  0.160200  0.054700  1.0  0.0716
  H  H260  1  0.344400  0.136200  0.064200  1.0  0.1106
  H  H261  1  0.360400  0.207900  0.026000  1.0  0.0939
  H  H262  1  0.367200  0.278000  0.990200  1.0  0.0978
  H  H263  1  0.363400  0.355600  0.953000  1.0  0.0959
  H  H264  1  0.149200  0.352700  0.956200  1.0  0.0961
  H  H265  1  0.483800  0.325300  0.149000  1.0  0.3396
  H  H266  1  0.430900  0.010100  0.384000  1.0  0.3464
  H  H267  1  0.450900  0.958400  0.365200  1.0  0.403
  H  H268  1  0.284300  0.767700  0.377400  1.0  0.4306
  H  H269  1  0.225700  0.793500  0.362800  1.0  0.4291
  H  H270  1  0.998800  0.050200  0.385300  1.0  0.442
  H  H271  1  0.991800  0.114400  0.371300  1.0  0.4381
  H  H272  1  0.225400  0.828600  0.126200  1.0  0.4493
  H  H273  1  0.159200  0.833700  0.113200  1.0  0.3697
  H  H274  1  0.068300  0.902600  0.110400  1.0  0.3811
  H  H275  1  0.062300  0.966100  0.096000  1.0  0.411
  H  H276  1  0.667800  0.168300  0.050600  1.0  0.0704
  H  H277  1  0.525700  0.009500  0.061600  1.0  0.1084
  H  H278  1  0.466000  0.048500  0.022900  1.0  0.0984
  H  H279  1  0.414000  0.090300  0.985900  1.0  0.1102
  H  H280  1  0.376000  0.130700  0.944000  1.0  0.0982
  H  H281  1  0.535800  0.272000  0.944700  1.0  0.0695
  H  H282  1  0.794000  0.820600  0.043500  1.0  0.0658
  H  H283  1  0.915700  0.979100  0.073000  1.0  0.0905
  H  H284  1  0.995200  0.960200  0.037600  1.0  0.1049
  H  H285  1  0.063800  0.939500  0.001900  1.0  0.1082
  H  H286  1  0.125300  0.915400  0.961900  1.0  0.092
  H  H287  1  0.987900  0.754600  0.948000  1.0  0.0748
  H  H288  1  0.891000  0.949000  0.201700  1.0  0.0743
  H  H289  1  0.747800  0.803500  0.175900  1.0  0.0926
  H  H290  1  0.772100  0.736700  0.214300  1.0  0.1172
  H  H291  1  0.787600  0.687500  0.253400  1.0  0.1105
  H  H292  1  0.813400  0.639200  0.296600  1.0  0.1031
  H  H293  1  0.956700  0.794200  0.307900  1.0  0.0706
  H  H294  1  0.981300  0.795800  0.198000  1.0  0.0726
  H  H295  1  0.134300  0.649800  0.210600  1.0  0.1051
  H  H296  1  0.150900  0.697700  0.254300  1.0  0.1174
  H  H297  1  0.164600  0.749000  0.293000  1.0  0.1192
  H  H298  1  0.191600  0.823900  0.329400  1.0  0.1477
  H  H299  1  0.037300  0.957000  0.303800  1.0  0.0685
  H  H300  1  0.062500  0.918300  0.205100  1.0  0.0698
  H  H301  1  0.053300  0.128900  0.193600  1.0  0.0966
  H  H302  1  0.987300  0.138900  0.233200  1.0  0.1088
  H  H303  1  0.937600  0.139200  0.275000  1.0  0.1034
  H  H304  1  0.869700  0.128400  0.313700  1.0  0.0898
  H  H305  1  0.860800  0.918500  0.302700  1.0  0.0599
  H  H306  1  0.631100  0.839800  0.445300  1.0  0.0713
  H  H307  1  0.844400  0.863800  0.435800  1.0  0.1099
  H  H308  1  0.860400  0.792100  0.474000  1.0  0.0934
  H  H309  1  0.867200  0.722000  0.509800  1.0  0.0974
  H  H310  1  0.863400  0.644400  0.547000  1.0  0.0958
  H  H311  1  0.649200  0.647300  0.543800  1.0  0.096
  H  H312  1  0.983800  0.674700  0.351000  1.0  0.3386
  H  H313  1  0.930900  0.989900  0.116000  1.0  0.3454
  H  H314  1  0.950900  0.041600  0.134800  1.0  0.4052
  H  H315  1  0.784300  0.232300  0.122600  1.0  0.4295
  H  H316  1  0.725700  0.206500  0.137200  1.0  0.4286
  H  H317  1  0.498800  0.949800  0.114700  1.0  0.4443
  H  H318  1  0.491800  0.885600  0.128700  1.0  0.4383
  H  H319  1  0.725400  0.171400  0.373800  1.0  0.4483
  H  H320  1  0.659200  0.166300  0.386800  1.0  0.37
  H  H321  1  0.568300  0.097400  0.389600  1.0  0.3838
  H  H322  1  0.562300  0.033900  0.404000  1.0  0.4132
  H  H323  1  0.332200  0.331700  0.550600  1.0  0.0706
  H  H324  1  0.474300  0.490500  0.561600  1.0  0.1084
  H  H325  1  0.534000  0.451500  0.522900  1.0  0.0986
  H  H326  1  0.586000  0.409700  0.485900  1.0  0.1104
  H  H327  1  0.624000  0.369300  0.444000  1.0  0.0982
  H  H328  1  0.464200  0.228000  0.444700  1.0  0.0688
  H  H329  1  0.206000  0.679400  0.543500  1.0  0.0654
  H  H330  1  0.084300  0.520900  0.573000  1.0  0.0906
  H  H331  1  0.004800  0.539800  0.537600  1.0  0.1047
  H  H332  1  0.936200  0.560500  0.501900  1.0  0.1085
  H  H333  1  0.874700  0.584600  0.461900  1.0  0.0918
  H  H334  1  0.012100  0.745400  0.448000  1.0  0.075
  H  H335  1  0.109000  0.551000  0.701700  1.0  0.0737
  H  H336  1  0.252200  0.696500  0.675900  1.0  0.0928
  H  H337  1  0.227900  0.763300  0.714300  1.0  0.1178
  H  H338  1  0.212400  0.812500  0.753400  1.0  0.1109
  H  H339  1  0.186600  0.860800  0.796600  1.0  0.1033
  H  H340  1  0.043300  0.705800  0.807900  1.0  0.0708
  H  H341  1  0.018700  0.704200  0.698000  1.0  0.0726
  H  H342  1  0.865700  0.850200  0.710600  1.0  0.1049
  H  H343  1  0.849100  0.802300  0.754300  1.0  0.1172
  H  H344  1  0.835400  0.751000  0.793000  1.0  0.1188
  H  H345  1  0.808400  0.676100  0.829400  1.0  0.145
  H  H346  1  0.962700  0.543000  0.803800  1.0  0.0682
  H  H347  1  0.937500  0.581700  0.705100  1.0  0.0708
  H  H348  1  0.946700  0.371100  0.693600  1.0  0.0969
  H  H349  1  0.012700  0.361100  0.733200  1.0  0.1086
  H  H350  1  0.062400  0.360800  0.775000  1.0  0.1035
  H  H351  1  0.130300  0.371600  0.813700  1.0  0.09
  H  H352  1  0.139200  0.581500  0.802700  1.0  0.0593
  H  H353  1  0.368900  0.660200  0.945300  1.0  0.0709
  H  H354  1  0.155600  0.636200  0.935800  1.0  0.1095
  H  H355  1  0.139600  0.707900  0.974000  1.0  0.0929
  H  H356  1  0.132800  0.778000  0.009800  1.0  0.0979
  H  H357  1  0.136600  0.855600  0.047000  1.0  0.0957
  H  H358  1  0.350800  0.852700  0.043800  1.0  0.0961
  H  H359  1  0.016200  0.825300  0.851000  1.0  0.3398
  H  H360  1  0.069100  0.510100  0.616000  1.0  0.347
  H  H361  1  0.049100  0.458400  0.634800  1.0  0.4075
  H  H362  1  0.215700  0.267700  0.622600  1.0  0.4311
  H  H363  1  0.274300  0.293500  0.637200  1.0  0.4293
  H  H364  1  0.501200  0.550200  0.614700  1.0  0.442
  H  H365  1  0.508200  0.614400  0.628700  1.0  0.4381
  H  H366  1  0.274600  0.328600  0.873800  1.0  0.4479
  H  H367  1  0.340800  0.333700  0.886800  1.0  0.3705
  H  H368  1  0.431700  0.402600  0.889600  1.0  0.3817
  H  H369  1  0.437700  0.466100  0.904000  1.0  0.4127
  H  H370  1  0.832200  0.668300  0.949400  1.0  0.0706
  H  H371  1  0.974300  0.509500  0.938400  1.0  0.1082
  H  H372  1  0.034000  0.548500  0.977100  1.0  0.0983
  H  H373  1  0.086000  0.590300  0.014100  1.0  0.1105
  H  H374  1  0.124000  0.630700  0.056000  1.0  0.0985
  H  H375  1  0.964200  0.772000  0.055300  1.0  0.0695
  H  H376  1  0.706000  0.320600  0.956500  1.0  0.0651
  H  H377  1  0.584300  0.479100  0.927000  1.0  0.0905
  H  H378  1  0.504800  0.460200  0.962400  1.0  0.1053
  H  H379  1  0.436200  0.439500  0.998100  1.0  0.1089
  H  H380  1  0.374700  0.415400  0.038100  1.0  0.0918
  H  H381  1  0.512100  0.254600  0.052000  1.0  0.0748
  H  H382  1  0.609000  0.449000  0.798300  1.0  0.0744
  H  H383  1  0.752200  0.303500  0.824100  1.0  0.0929
  H  H384  1  0.727900  0.236700  0.785700  1.0  0.1172
  H  H385  1  0.712400  0.187500  0.746600  1.0  0.1109
  H  H386  1  0.686600  0.139200  0.703400  1.0  0.1031
  H  H387  1  0.543300  0.294200  0.692100  1.0  0.0701
  H  H388  1  0.518700  0.295800  0.802000  1.0  0.0733
  H  H389  1  0.365700  0.149800  0.789400  1.0  0.1046
  H  H390  1  0.349100  0.197700  0.745700  1.0  0.1176
  H  H391  1  0.335400  0.249000  0.707000  1.0  0.1193
  H  H392  1  0.308400  0.323900  0.670600  1.0  0.1472
  H  H393  1  0.462700  0.457000  0.696200  1.0  0.0683
  H  H394  1  0.437500  0.418300  0.794900  1.0  0.0706
  H  H395  1  0.446700  0.628900  0.806400  1.0  0.0968
  H  H396  1  0.512700  0.638900  0.766800  1.0  0.1091
  H  H397  1  0.562400  0.639200  0.725000  1.0  0.1033
  H  H398  1  0.630300  0.628400  0.686300  1.0  0.0904
  H  H399  1  0.639200  0.418500  0.697300  1.0  0.0598
  H  H400  1  0.868900  0.339800  0.554700  1.0  0.0712
  H  H401  1  0.655600  0.363800  0.564200  1.0  0.1096
  H  H402  1  0.639600  0.292100  0.526000  1.0  0.0931
  H  H403  1  0.632800  0.222000  0.490200  1.0  0.0977
  H  H404  1  0.636600  0.144400  0.453000  1.0  0.0952
  H  H405  1  0.850800  0.147300  0.456200  1.0  0.0959
  H  H406  1  0.516200  0.174700  0.649000  1.0  0.3397
  H  H407  1  0.569100  0.489900  0.884000  1.0  0.3451
  H  H408  1  0.549100  0.541600  0.865200  1.0  0.4046
  H  H409  1  0.715700  0.732300  0.877400  1.0  0.43
  H  H410  1  0.774300  0.706500  0.862800  1.0  0.4296
  H  H411  1  0.001200  0.449800  0.885300  1.0  0.4432
  H  H412  1  0.008200  0.385600  0.871300  1.0  0.4366
  H  H413  1  0.774600  0.671400  0.626200  1.0  0.4477
  H  H414  1  0.840800  0.666300  0.613200  1.0  0.3706
  H  H415  1  0.931700  0.597400  0.610400  1.0  0.3812
  H  H416  1  0.937700  0.533900  0.596000  1.0  0.4118
  C  C417  1  0.846800  0.054400  0.581920  1.0  0.6752
  C  C418  1  0.872300  0.142900  0.544660  1.0  0.1712
  C  C419  1  0.893600  0.081600  0.558810  1.0  -0.1774
  C  C420  1  0.956600  0.047600  0.551450  1.0  -0.0599
  C  C421  1  0.992500  0.071900  0.528640  1.0  -0.103
  C  C422  1  0.968300  0.129000  0.514560  1.0  0.1685
  C  C423  1  0.000200  0.155000  0.488640  1.0  0.1808
  C  C424  1  0.060900  0.126500  0.477060  1.0  -0.1469
  C  C425  1  0.084200  0.151400  0.452440  1.0  -0.0224
  C  C426  1  0.048300  0.207400  0.440170  1.0  -0.1878
  C  C427  1  0.988800  0.234700  0.453060  1.0  0.134
  C  C428  1  0.073400  0.241800  0.414000  1.0  0.6833
  C  C429  1  0.712000  0.919400  0.583310  1.0  0.6633
  C  C430  1  0.665400  0.849600  0.542350  1.0  0.1125
  C  C431  1  0.657100  0.903700  0.561620  1.0  -0.1243
  C  C432  1  0.594000  0.944400  0.559980  1.0  -0.0901
  C  C433  1  0.546300  0.932500  0.538930  1.0  -0.1237
  C  C434  1  0.559700  0.880000  0.519880  1.0  0.1739
  C  C435  1  0.512800  0.864600  0.496770  1.0  0.1675
  C  C436  1  0.452100  0.903400  0.490360  1.0  -0.1436
  C  C437  1  0.414900  0.888300  0.466630  1.0  -0.0196
  C  C438  1  0.437400  0.832900  0.449900  1.0  -0.1799
  C  C439  1  0.497100  0.793000  0.458600  1.0  0.121
  C  C440  1  0.399100  0.815100  0.423580  1.0  0.7071
  C  C441  1  0.704700  0.931500  0.660990  1.0  0.7118
  C  C442  1  0.633700  0.906300  0.704300  1.0  0.2023
  C  C443  1  0.685100  0.885900  0.684720  1.0  -0.1805
  C  C444  1  0.719400  0.820200  0.688780  1.0  0.0095
  C  C445  1  0.705000  0.780300  0.711490  1.0  -0.159
  C  C446  1  0.656000  0.806000  0.730120  1.0  0.1777
  C  C447  1  0.642900  0.769500  0.756600  1.0  0.1826
  C  C448  1  0.678700  0.709100  0.764750  1.0  -0.1439
  C  C449  1  0.663400  0.680500  0.790700  1.0  -0.0015
  C  C450  1  0.614500  0.713600  0.807000  1.0  -0.147
  C  C451  1  0.578300  0.773100  0.797030  1.0  0.1279
  C  C452  1  0.596600  0.686000  0.834840  1.0  0.6569
  C  C453  1  0.450900  0.693000  0.670680  1.0  0.6965
  C  C454  1  0.483600  0.776200  0.709330  1.0  0.1623
  C  C455  1  0.442100  0.719300  0.699390  1.0  -0.1515
  C  C456  1  0.392600  0.688900  0.716360  1.0  0.0145
  C  C457  1  0.382900  0.717400  0.742490  1.0  -0.1354
  C  C458  1  0.423900  0.774500  0.750350  1.0  0.1761
  C  C459  1  0.410400  0.814000  0.776300  1.0  0.144
  C  C460  1  0.359100  0.792400  0.795020  1.0  -0.1452
  C  C461  1  0.343600  0.836700  0.816870  1.0  -0.0062
  C  C462  1  0.380600  0.899600  0.819850  1.0  -0.1673
  C  C463  1  0.435700  0.915700  0.801270  1.0  0.1738
  C  C464  1  0.359300  0.951900  0.842330  1.0  0.6928
  C  C465  1  0.388100  0.011500  0.670080  1.0  0.6997
  C  C466  1  0.453400  0.963200  0.710640  1.0  0.1847
  C  C467  1  0.433300  0.021600  0.695360  1.0  -0.2001
  C  C468  1  0.457700  0.088400  0.703750  1.0  0.025
  C  C469  1  0.497700  0.094400  0.726960  1.0  -0.1622
  C  C470  1  0.515600  0.032800  0.741060  1.0  0.1699
  C  C471  1  0.559500  0.032600  0.766440  1.0  0.0755
  C  C472  1  0.577900  0.094500  0.780880  1.0  -0.15
  C  C473  1  0.618800  0.087900  0.803560  1.0  0.0222
  C  C474  1  0.643600  0.022300  0.811910  1.0  -0.2234
  C  C475  1  0.622900  0.963100  0.797020  1.0  0.1555
  C  C476  1  0.692100  0.014100  0.836500  1.0  0.7183
  C  C477  1  0.777000  0.903600  0.911350  1.0  0.6595
  C  C478  1  0.822200  0.830200  0.951120  1.0  0.1857
  C  C479  1  0.764000  0.858300  0.935960  1.0  -0.1716
  C  C480  1  0.695200  0.844900  0.944900  1.0  -0.0672
  C  C481  1  0.685900  0.802500  0.967870  1.0  -0.1212
  C  C482  1  0.744100  0.776100  0.981610  1.0  0.1531
  C  C483  1  0.740700  0.727900  0.005200  1.0  0.1845
  C  C484  1  0.676600  0.706100  0.016700  1.0  -0.1238
  C  C485  1  0.679100  0.659800  0.038800  1.0  0.016
  C  C486  1  0.742200  0.637800  0.048100  1.0  -0.1681
  C  C487  1  0.806900  0.662200  0.036700  1.0  0.13
  C  C488  1  0.740700  0.588300  0.073500  1.0  0.6786
  C  C489  1  0.346800  0.945600  0.918080  1.0  0.6747
  C  C490  1  0.372300  0.857100  0.955340  1.0  0.1716
  C  C491  1  0.393600  0.918400  0.941190  1.0  -0.1787
  C  C492  1  0.456600  0.952400  0.948550  1.0  -0.0598
  C  C493  1  0.492500  0.928100  0.971360  1.0  -0.1041
  C  C494  1  0.468300  0.871000  0.985440  1.0  0.1683
  C  C495  1  0.500200  0.845000  0.011360  1.0  0.1802
  C  C496  1  0.560900  0.873500  0.022940  1.0  -0.1464
  C  C497  1  0.584200  0.848600  0.047560  1.0  -0.0238
  C  C498  1  0.548300  0.792600  0.059830  1.0  -0.189
  C  C499  1  0.488800  0.765300  0.046940  1.0  0.1345
  C  C500  1  0.573400  0.758200  0.086000  1.0  0.6835
  C  C501  1  0.212000  0.080600  0.916690  1.0  0.664
  C  C502  1  0.165400  0.150400  0.957650  1.0  0.1119
  C  C503  1  0.157100  0.096300  0.938380  1.0  -0.1259
  C  C504  1  0.094000  0.055600  0.940020  1.0  -0.09
  C  C505  1  0.046300  0.067500  0.961070  1.0  -0.1243
  C  C506  1  0.059700  0.120000  0.980120  1.0  0.1721
  C  C507  1  0.012800  0.135400  0.003230  1.0  0.1667
  C  C508  1  0.952100  0.096600  0.009640  1.0  -0.1437
  C  C509  1  0.914900  0.111700  0.033370  1.0  -0.0175
  C  C510  1  0.937400  0.167100  0.050100  1.0  -0.1785
  C  C511  1  0.997100  0.207000  0.041400  1.0  0.1231
  C  C512  1  0.899100  0.184900  0.076420  1.0  0.7058
  C  C513  1  0.204700  0.068500  0.839010  1.0  0.7121
  C  C514  1  0.133700  0.093700  0.795700  1.0  0.2038
  C  C515  1  0.185100  0.114100  0.815280  1.0  -0.1792
  C  C516  1  0.219400  0.179800  0.811220  1.0  0.0093
  C  C517  1  0.205000  0.219700  0.788510  1.0  -0.1579
  C  C518  1  0.156000  0.194000  0.769880  1.0  0.1784
  C  C519  1  0.142900  0.230500  0.743400  1.0  0.1837
  C  C520  1  0.178700  0.290900  0.735250  1.0  -0.144
  C  C521  1  0.163400  0.319500  0.709300  1.0  -0.0027
  C  C522  1  0.114500  0.286400  0.693000  1.0  -0.1462
  C  C523  1  0.078300  0.226900  0.702970  1.0  0.1276
  C  C524  1  0.096600  0.314000  0.665160  1.0  0.6557
  C  C525  1  0.950900  0.307000  0.829320  1.0  0.6963
  C  C526  1  0.983600  0.223800  0.790670  1.0  0.1639
  C  C527  1  0.942100  0.280700  0.800610  1.0  -0.1498
  C  C528  1  0.892600  0.311100  0.783640  1.0  0.013
  C  C529  1  0.882900  0.282600  0.757510  1.0  -0.136
  C  C530  1  0.923900  0.225500  0.749650  1.0  0.1753
  C  C531  1  0.910400  0.186000  0.723700  1.0  0.1446
  C  C532  1  0.859100  0.207600  0.704980  1.0  -0.1448
  C  C533  1  0.843600  0.163300  0.683130  1.0  -0.0063
  C  C534  1  0.880600  0.100400  0.680150  1.0  -0.1685
  C  C535  1  0.935700  0.084300  0.698730  1.0  0.1737
  C  C536  1  0.859300  0.048100  0.657670  1.0  0.6924
  C  C537  1  0.888100  0.988500  0.829920  1.0  0.7001
  C  C538  1  0.953400  0.036800  0.789360  1.0  0.1847
  C  C539  1  0.933300  0.978400  0.804640  1.0  -0.2005
  C  C540  1  0.957700  0.911600  0.796250  1.0  0.0253
  C  C541  1  0.997700  0.905600  0.773040  1.0  -0.1624
  C  C542  1  0.015600  0.967200  0.758940  1.0  0.17
  C  C543  1  0.059500  0.967400  0.733560  1.0  0.0759
  C  C544  1  0.077900  0.905500  0.719120  1.0  -0.1497
  C  C545  1  0.118800  0.912100  0.696440  1.0  0.0227
  C  C546  1  0.143600  0.977700  0.688090  1.0  -0.2229
  C  C547  1  0.122900  0.036900  0.702980  1.0  0.1572
  C  C548  1  0.192100  0.985900  0.663500  1.0  0.7169
  C  C549  1  0.277000  0.096400  0.588650  1.0  0.6603
  C  C550  1  0.322200  0.169800  0.548880  1.0  0.186
  C  C551  1  0.264000  0.141700  0.564040  1.0  -0.1729
  C  C552  1  0.195200  0.155100  0.555100  1.0  -0.0685
  C  C553  1  0.185900  0.197500  0.532130  1.0  -0.1216
  C  C554  1  0.244100  0.223900  0.518390  1.0  0.1532
  C  C555  1  0.240700  0.272100  0.494800  1.0  0.1844
  C  C556  1  0.176600  0.293900  0.483300  1.0  -0.1239
  C  C557  1  0.179100  0.340200  0.461200  1.0  0.0168
  C  C558  1  0.242200  0.362200  0.451900  1.0  -0.169
  C  C559  1  0.306900  0.337800  0.463300  1.0  0.1311
  C  C560  1  0.240700  0.411700  0.426500  1.0  0.6783
  C  C561  1  0.653200  0.554400  0.418080  1.0  0.6737
  C  C562  1  0.627700  0.642900  0.455340  1.0  0.171
  C  C563  1  0.606400  0.581600  0.441190  1.0  -0.1795
  C  C564  1  0.543400  0.547600  0.448550  1.0  -0.0591
  C  C565  1  0.507500  0.571900  0.471360  1.0  -0.1016
  C  C566  1  0.531700  0.629000  0.485440  1.0  0.1685
  C  C567  1  0.499800  0.655000  0.511360  1.0  0.1805
  C  C568  1  0.439100  0.626500  0.522940  1.0  -0.1463
  C  C569  1  0.415800  0.651400  0.547560  1.0  -0.0225
  C  C570  1  0.451700  0.707400  0.559830  1.0  -0.1889
  C  C571  1  0.511200  0.734700  0.546940  1.0  0.1353
  C  C572  1  0.426600  0.741800  0.586000  1.0  0.682
  C  C573  1  0.788000  0.419400  0.416690  1.0  0.6638
  C  C574  1  0.834600  0.349600  0.457650  1.0  0.1123
  C  C575  1  0.842900  0.403700  0.438380  1.0  -0.1264
  C  C576  1  0.906000  0.444400  0.440020  1.0  -0.0904
  C  C577  1  0.953700  0.432500  0.461070  1.0  -0.1243
  C  C578  1  0.940300  0.380000  0.480120  1.0  0.1732
  C  C579  1  0.987200  0.364600  0.503230  1.0  0.1672
  C  C580  1  0.047900  0.403400  0.509640  1.0  -0.1441
  C  C581  1  0.085100  0.388300  0.533370  1.0  -0.0177
  C  C582  1  0.062600  0.332900  0.550100  1.0  -0.1777
  C  C583  1  0.002900  0.293000  0.541400  1.0  0.1226
  C  C584  1  0.100900  0.315100  0.576420  1.0  0.7053
  C  C585  1  0.795300  0.431500  0.339010  1.0  0.7126
  C  C586  1  0.866300  0.406300  0.295700  1.0  0.2041
  C  C587  1  0.814900  0.385900  0.315280  1.0  -0.1823
  C  C588  1  0.780600  0.320200  0.311220  1.0  0.0092
  C  C589  1  0.795000  0.280300  0.288510  1.0  -0.1592
  C  C590  1  0.844000  0.306000  0.269880  1.0  0.1777
  C  C591  1  0.857100  0.269500  0.243400  1.0  0.1825
  C  C592  1  0.821300  0.209100  0.235250  1.0  -0.1422
  C  C593  1  0.836600  0.180500  0.209300  1.0  -0.0014
  C  C594  1  0.885500  0.213600  0.193000  1.0  -0.1466
  C  C595  1  0.921700  0.273100  0.202970  1.0  0.1286
  C  C596  1  0.903400  0.186000  0.165160  1.0  0.6555
  C  C597  1  0.049100  0.193000  0.329320  1.0  0.6951
  C  C598  1  0.016400  0.276200  0.290670  1.0  0.1639
  C  C599  1  0.057900  0.219300  0.300610  1.0  -0.1503
  C  C600  1  0.107400  0.188900  0.283640  1.0  0.0141
  C  C601  1  0.117100  0.217400  0.257510  1.0  -0.1369
  C  C602  1  0.076100  0.274500  0.249650  1.0  0.1754
  C  C603  1  0.089600  0.314000  0.223700  1.0  0.1442
  C  C604  1  0.140900  0.292400  0.204980  1.0  -0.1455
  C  C605  1  0.156400  0.336700  0.183130  1.0  -0.0066
  C  C606  1  0.119400  0.399600  0.180150  1.0  -0.1676
  C  C607  1  0.064300  0.415700  0.198730  1.0  0.1719
  C  C608  1  0.140700  0.451900  0.157670  1.0  0.6929
  C  C609  1  0.111900  0.511500  0.329920  1.0  0.6999
  C  C610  1  0.046600  0.463200  0.289360  1.0  0.1839
  C  C611  1  0.066700  0.521600  0.304640  1.0  -0.2005
  C  C612  1  0.042300  0.588400  0.296250  1.0  0.0261
  C  C613  1  0.002300  0.594400  0.273040  1.0  -0.1625
  C  C614  1  0.984400  0.532800  0.258940  1.0  0.1704
  C  C615  1  0.940500  0.532600  0.233560  1.0  0.0766
  C  C616  1  0.922100  0.594500  0.219120  1.0  -0.1504
  C  C617  1  0.881200  0.587900  0.196440  1.0  0.0222
  C  C618  1  0.856400  0.522300  0.188090  1.0  -0.225
  C  C619  1  0.877100  0.463100  0.202980  1.0  0.156
  C  C620  1  0.807900  0.514100  0.163500  1.0  0.7166
  C  C621  1  0.723000  0.403600  0.088650  1.0  0.6613
  C  C622  1  0.677800  0.330200  0.048880  1.0  0.1862
  C  C623  1  0.736000  0.358300  0.064040  1.0  -0.1721
  C  C624  1  0.804800  0.344900  0.055100  1.0  -0.0682
  C  C625  1  0.814100  0.302500  0.032130  1.0  -0.1209
  C  C626  1  0.755900  0.276100  0.018390  1.0  0.1527
  C  C627  1  0.759300  0.227900  0.994800  1.0  0.1843
  C  C628  1  0.823400  0.206100  0.983300  1.0  -0.1252
  C  C629  1  0.820900  0.159800  0.961200  1.0  0.0175
  C  C630  1  0.757800  0.137800  0.951900  1.0  -0.1684
  C  C631  1  0.693100  0.162200  0.963300  1.0  0.1313
  C  C632  1  0.759300  0.088300  0.926500  1.0  0.678
  C  C633  1  0.153200  0.445600  0.081920  1.0  0.6737
  C  C634  1  0.127700  0.357100  0.044660  1.0  0.1709
  C  C635  1  0.106400  0.418400  0.058810  1.0  -0.1791
  C  C636  1  0.043400  0.452400  0.051450  1.0  -0.0585
  C  C637  1  0.007500  0.428100  0.028640  1.0  -0.1016
  C  C638  1  0.031700  0.371000  0.014560  1.0  0.168
  C  C639  1  0.999800  0.345000  0.988640  1.0  0.181
  C  C640  1  0.939100  0.373500  0.977060  1.0  -0.1469
  C  C641  1  0.915800  0.348600  0.952440  1.0  -0.0233
  C  C642  1  0.951700  0.292600  0.940170  1.0  -0.1882
  C  C643  1  0.011200  0.265300  0.953060  1.0  0.1337
  C  C644  1  0.926600  0.258200  0.914000  1.0  0.6819
  C  C645  1  0.288000  0.580600  0.083310  1.0  0.6636
  C  C646  1  0.334600  0.650400  0.042350  1.0  0.1127
  C  C647  1  0.342900  0.596300  0.061620  1.0  -0.1253
  C  C648  1  0.406000  0.555600  0.059980  1.0  -0.09
  C  C649  1  0.453700  0.567500  0.038930  1.0  -0.1239
  C  C650  1  0.440300  0.620000  0.019880  1.0  0.1734
  C  C651  1  0.487200  0.635400  0.996770  1.0  0.1671
  C  C652  1  0.547900  0.596600  0.990360  1.0  -0.1438
  C  C653  1  0.585100  0.611700  0.966630  1.0  -0.0184
  C  C654  1  0.562600  0.667100  0.949900  1.0  -0.1796
  C  C655  1  0.502900  0.707000  0.958600  1.0  0.122
  C  C656  1  0.600900  0.684900  0.923580  1.0  0.7072
  C  C657  1  0.295300  0.568500  0.160990  1.0  0.7124
  C  C658  1  0.366300  0.593700  0.204300  1.0  0.2039
  C  C659  1  0.314900  0.614100  0.184720  1.0  -0.1842
  C  C660  1  0.280600  0.679800  0.188780  1.0  0.0095
  C  C661  1  0.295000  0.719700  0.211490  1.0  -0.1588
  C  C662  1  0.344000  0.694000  0.230120  1.0  0.178
  C  C663  1  0.357100  0.730500  0.256600  1.0  0.1817
  C  C664  1  0.321300  0.790900  0.264750  1.0  -0.1429
  C  C665  1  0.336600  0.819500  0.290700  1.0  -0.0003
  C  C666  1  0.385500  0.786400  0.307000  1.0  -0.1449
  C  C667  1  0.421700  0.726900  0.297030  1.0  0.1287
  C  C668  1  0.403400  0.814000  0.334840  1.0  0.6574
  C  C669  1  0.549100  0.807000  0.170680  1.0  0.6958
  C  C670  1  0.516400  0.723800  0.209330  1.0  0.1623
  C  C671  1  0.557900  0.780700  0.199390  1.0  -0.152
  C  C672  1  0.607400  0.811100  0.216360  1.0  0.0124
  C  C673  1  0.617100  0.782600  0.242490  1.0  -0.137
  C  C674  1  0.576100  0.725500  0.250350  1.0  0.1762
  C  C675  1  0.589600  0.686000  0.276300  1.0  0.1443
  C  C676  1  0.640900  0.707600  0.295020  1.0  -0.1445
  C  C677  1  0.656400  0.663300  0.316870  1.0  -0.0065
  C  C678  1  0.619400  0.600400  0.319850  1.0  -0.1669
  C  C679  1  0.564300  0.584300  0.301270  1.0  0.1734
  C  C680  1  0.640700  0.548100  0.342330  1.0  0.6928
  C  C681  1  0.611900  0.488500  0.170080  1.0  0.6998
  C  C682  1  0.546600  0.536800  0.210640  1.0  0.1852
  C  C683  1  0.566700  0.478400  0.195360  1.0  -0.1993
  C  C684  1  0.542300  0.411600  0.203750  1.0  0.0251
  C  C685  1  0.502300  0.405600  0.226960  1.0  -0.1637
  C  C686  1  0.484400  0.467200  0.241060  1.0  0.1703
  C  C687  1  0.440500  0.467400  0.266440  1.0  0.0763
  C  C688  1  0.422100  0.405500  0.280880  1.0  -0.1481
  C  C689  1  0.381200  0.412100  0.303560  1.0  0.0208
  C  C690  1  0.356400  0.477700  0.311910  1.0  -0.2241
  C  C691  1  0.377100  0.536900  0.297020  1.0  0.1564
  C  C692  1  0.307900  0.485900  0.336500  1.0  0.7169
  C  C693  1  0.223000  0.596400  0.411350  1.0  0.6607
  C  C694  1  0.177800  0.669800  0.451120  1.0  0.1863
  C  C695  1  0.236000  0.641700  0.435960  1.0  -0.1722
  C  C696  1  0.304800  0.655100  0.444900  1.0  -0.0689
  C  C697  1  0.314100  0.697500  0.467870  1.0  -0.1213
  C  C698  1  0.255900  0.723900  0.481610  1.0  0.1531
  C  C699  1  0.259300  0.772100  0.505200  1.0  0.1843
  C  C700  1  0.323400  0.793900  0.516700  1.0  -0.1254
  C  C701  1  0.320900  0.840200  0.538800  1.0  0.0152
  C  C702  1  0.257800  0.862200  0.548100  1.0  -0.1671
  C  C703  1  0.193100  0.837800  0.536700  1.0  0.1302
  C  C704  1  0.259300  0.911700  0.573500  1.0  0.6769
  C  C705  1  0.153200  0.945600  0.418080  1.0  0.6736
  C  C706  1  0.127700  0.857100  0.455340  1.0  0.1707
  C  C707  1  0.106400  0.918400  0.441190  1.0  -0.1789
  C  C708  1  0.043400  0.952400  0.448550  1.0  -0.0584
  C  C709  1  0.007500  0.928100  0.471360  1.0  -0.1023
  C  C710  1  0.031700  0.871000  0.485440  1.0  0.1684
  C  C711  1  0.999800  0.845000  0.511360  1.0  0.1804
  C  C712  1  0.939100  0.873500  0.522940  1.0  -0.1464
  C  C713  1  0.915800  0.848600  0.547560  1.0  -0.0237
  C  C714  1  0.951700  0.792600  0.559830  1.0  -0.1892
  C  C715  1  0.011200  0.765300  0.546940  1.0  0.1348
  C  C716  1  0.926600  0.758200  0.586000  1.0  0.683
  C  C717  1  0.288000  0.080600  0.416690  1.0  0.6642
  C  C718  1  0.334600  0.150400  0.457650  1.0  0.1123
  C  C719  1  0.342900  0.096300  0.438380  1.0  -0.1263
  C  C720  1  0.406000  0.055600  0.440020  1.0  -0.09
  C  C721  1  0.453700  0.067500  0.461070  1.0  -0.1245
  C  C722  1  0.440300  0.120000  0.480120  1.0  0.1724
  C  C723  1  0.487200  0.135400  0.503230  1.0  0.1666
  C  C724  1  0.547900  0.096600  0.509640  1.0  -0.144
  C  C725  1  0.585100  0.111700  0.533370  1.0  -0.0174
  C  C726  1  0.562600  0.167100  0.550100  1.0  -0.178
  C  C727  1  0.502900  0.207000  0.541400  1.0  0.1228
  C  C728  1  0.600900  0.184900  0.576420  1.0  0.7054
  C  C729  1  0.295300  0.068500  0.339010  1.0  0.7127
  C  C730  1  0.366300  0.093700  0.295700  1.0  0.2044
  C  C731  1  0.314900  0.114100  0.315280  1.0  -0.182
  C  C732  1  0.280600  0.179800  0.311220  1.0  0.0091
  C  C733  1  0.295000  0.219700  0.288510  1.0  -0.1579
  C  C734  1  0.344000  0.194000  0.269880  1.0  0.1783
  C  C735  1  0.357100  0.230500  0.243400  1.0  0.1825
  C  C736  1  0.321300  0.290900  0.235250  1.0  -0.1425
  C  C737  1  0.336600  0.319500  0.209300  1.0  -0.0012
  C  C738  1  0.385500  0.286400  0.193000  1.0  -0.1459
  C  C739  1  0.421700  0.226900  0.202970  1.0  0.128
  C  C740  1  0.403400  0.314000  0.165160  1.0  0.6555
  C  C741  1  0.549100  0.307000  0.329320  1.0  0.6955
  C  C742  1  0.516400  0.223800  0.290670  1.0  0.1643
  C  C743  1  0.557900  0.280700  0.300610  1.0  -0.1505
  C  C744  1  0.607400  0.311100  0.283640  1.0  0.0125
  C  C745  1  0.617100  0.282600  0.257510  1.0  -0.1373
  C  C746  1  0.576100  0.225500  0.249650  1.0  0.1756
  C  C747  1  0.589600  0.186000  0.223700  1.0  0.1445
  C  C748  1  0.640900  0.207600  0.204980  1.0  -0.1452
  C  C749  1  0.656400  0.163300  0.183130  1.0  -0.0067
  C  C750  1  0.619400  0.100400  0.180150  1.0  -0.1686
  C  C751  1  0.564300  0.084300  0.198730  1.0  0.1727
  C  C752  1  0.640700  0.048100  0.157670  1.0  0.6924
  C  C753  1  0.611900  0.988500  0.329920  1.0  0.7003
  C  C754  1  0.546600  0.036800  0.289360  1.0  0.1846
  C  C755  1  0.566700  0.978400  0.304640  1.0  -0.2007
  C  C756  1  0.542300  0.911600  0.296250  1.0  0.0252
  C  C757  1  0.502300  0.905600  0.273040  1.0  -0.1636
  C  C758  1  0.484400  0.967200  0.258940  1.0  0.1703
  C  C759  1  0.440500  0.967400  0.233560  1.0  0.0767
  C  C760  1  0.422100  0.905500  0.219120  1.0  -0.1487
  C  C761  1  0.381200  0.912100  0.196440  1.0  0.0221
  C  C762  1  0.356400  0.977700  0.188090  1.0  -0.2245
  C  C763  1  0.377100  0.036900  0.202980  1.0  0.1566
  C  C764  1  0.307900  0.985900  0.163500  1.0  0.7164
  C  C765  1  0.223000  0.096400  0.088650  1.0  0.6606
  C  C766  1  0.177800  0.169800  0.048880  1.0  0.1861
  C  C767  1  0.236000  0.141700  0.064040  1.0  -0.1718
  C  C768  1  0.304800  0.155100  0.055100  1.0  -0.0686
  C  C769  1  0.314100  0.197500  0.032130  1.0  -0.1212
  C  C770  1  0.255900  0.223900  0.018390  1.0  0.153
  C  C771  1  0.259300  0.272100  0.994800  1.0  0.1843
  C  C772  1  0.323400  0.293900  0.983300  1.0  -0.1254
  C  C773  1  0.320900  0.340200  0.961200  1.0  0.0167
  C  C774  1  0.257800  0.362200  0.951900  1.0  -0.1678
  C  C775  1  0.193100  0.337800  0.963300  1.0  0.1313
  C  C776  1  0.259300  0.411700  0.926500  1.0  0.6777
  C  C777  1  0.653200  0.054400  0.081920  1.0  0.6739
  C  C778  1  0.627700  0.142900  0.044660  1.0  0.171
  C  C779  1  0.606400  0.081600  0.058810  1.0  -0.179
  C  C780  1  0.543400  0.047600  0.051450  1.0  -0.0593
  C  C781  1  0.507500  0.071900  0.028640  1.0  -0.101
  C  C782  1  0.531700  0.129000  0.014560  1.0  0.1684
  C  C783  1  0.499800  0.155000  0.988640  1.0  0.181
  C  C784  1  0.439100  0.126500  0.977060  1.0  -0.1469
  C  C785  1  0.415800  0.151400  0.952440  1.0  -0.0224
  C  C786  1  0.451700  0.207400  0.940170  1.0  -0.1882
  C  C787  1  0.511200  0.234700  0.953060  1.0  0.1331
  C  C788  1  0.426600  0.241800  0.914000  1.0  0.683
  C  C789  1  0.788000  0.919400  0.083310  1.0  0.6636
  C  C790  1  0.834600  0.849600  0.042350  1.0  0.1126
  C  C791  1  0.842900  0.903700  0.061620  1.0  -0.125
  C  C792  1  0.906000  0.944400  0.059980  1.0  -0.0899
  C  C793  1  0.953700  0.932500  0.038930  1.0  -0.1235
  C  C794  1  0.940300  0.880000  0.019880  1.0  0.1741
  C  C795  1  0.987200  0.864600  0.996770  1.0  0.1676
  C  C796  1  0.047900  0.903400  0.990360  1.0  -0.144
  C  C797  1  0.085100  0.888300  0.966630  1.0  -0.0194
  C  C798  1  0.062600  0.832900  0.949900  1.0  -0.1797
  C  C799  1  0.002900  0.793000  0.958600  1.0  0.1217
  C  C800  1  0.100900  0.815100  0.923580  1.0  0.7067
  C  C801  1  0.795300  0.931500  0.160990  1.0  0.7125
  C  C802  1  0.866300  0.906300  0.204300  1.0  0.2038
  C  C803  1  0.814900  0.885900  0.184720  1.0  -0.1825
  C  C804  1  0.780600  0.820200  0.188780  1.0  0.0098
  C  C805  1  0.795000  0.780300  0.211490  1.0  -0.1597
  C  C806  1  0.844000  0.806000  0.230120  1.0  0.1776
  C  C807  1  0.857100  0.769500  0.256600  1.0  0.1818
  C  C808  1  0.821300  0.709100  0.264750  1.0  -0.1428
  C  C809  1  0.836600  0.680500  0.290700  1.0  -0.0006
  C  C810  1  0.885500  0.713600  0.307000  1.0  -0.1455
  C  C811  1  0.921700  0.773100  0.297030  1.0  0.1288
  C  C812  1  0.903400  0.686000  0.334840  1.0  0.6565
  C  C813  1  0.049100  0.693000  0.170680  1.0  0.6957
  C  C814  1  0.016400  0.776200  0.209330  1.0  0.1623
  C  C815  1  0.057900  0.719300  0.199390  1.0  -0.1521
  C  C816  1  0.107400  0.688900  0.216360  1.0  0.014
  C  C817  1  0.117100  0.717400  0.242490  1.0  -0.1367
  C  C818  1  0.076100  0.774500  0.250350  1.0  0.1763
  C  C819  1  0.089600  0.814000  0.276300  1.0  0.1439
  C  C820  1  0.140900  0.792400  0.295020  1.0  -0.1451
  C  C821  1  0.156400  0.836700  0.316870  1.0  -0.0063
  C  C822  1  0.119400  0.899600  0.319850  1.0  -0.1673
  C  C823  1  0.064300  0.915700  0.301270  1.0  0.1724
  C  C824  1  0.140700  0.951900  0.342330  1.0  0.6931
  C  C825  1  0.111900  0.011500  0.170080  1.0  0.6996
  C  C826  1  0.046600  0.963200  0.210640  1.0  0.1844
  C  C827  1  0.066700  0.021600  0.195360  1.0  -0.1992
  C  C828  1  0.042300  0.088400  0.203750  1.0  0.0251
  C  C829  1  0.002300  0.094400  0.226960  1.0  -0.1626
  C  C830  1  0.984400  0.032800  0.241060  1.0  0.1704
  C  C831  1  0.940500  0.032600  0.266440  1.0  0.0762
  C  C832  1  0.922100  0.094500  0.280880  1.0  -0.1495
  C  C833  1  0.881200  0.087900  0.303560  1.0  0.0216
  C  C834  1  0.856400  0.022300  0.311910  1.0  -0.2239
  C  C835  1  0.877100  0.963100  0.297020  1.0  0.1556
  C  C836  1  0.807900  0.014100  0.336500  1.0  0.7175
  C  C837  1  0.723000  0.903600  0.411350  1.0  0.6599
  C  C838  1  0.677800  0.830200  0.451120  1.0  0.1859
  C  C839  1  0.736000  0.858300  0.435960  1.0  -0.1709
  C  C840  1  0.804800  0.844900  0.444900  1.0  -0.0681
  C  C841  1  0.814100  0.802500  0.467870  1.0  -0.1209
  C  C842  1  0.755900  0.776100  0.481610  1.0  0.1527
  C  C843  1  0.759300  0.727900  0.505200  1.0  0.1843
  C  C844  1  0.823400  0.706100  0.516700  1.0  -0.1251
  C  C845  1  0.820900  0.659800  0.538800  1.0  0.0158
  C  C846  1  0.757800  0.637800  0.548100  1.0  -0.1666
  C  C847  1  0.693100  0.662200  0.536700  1.0  0.1309
  C  C848  1  0.759300  0.588300  0.573500  1.0  0.6775
  C  C849  1  0.346800  0.445600  0.581920  1.0  0.6751
  C  C850  1  0.372300  0.357100  0.544660  1.0  0.1714
  C  C851  1  0.393600  0.418400  0.558810  1.0  -0.1775
  C  C852  1  0.456600  0.452400  0.551450  1.0  -0.059
  C  C853  1  0.492500  0.428100  0.528640  1.0  -0.1037
  C  C854  1  0.468300  0.371000  0.514560  1.0  0.1681
  C  C855  1  0.500200  0.345000  0.488640  1.0  0.1809
  C  C856  1  0.560900  0.373500  0.477060  1.0  -0.1468
  C  C857  1  0.584200  0.348600  0.452440  1.0  -0.0232
  C  C858  1  0.548300  0.292600  0.440170  1.0  -0.188
  C  C859  1  0.488800  0.265300  0.453060  1.0  0.1344
  C  C860  1  0.573400  0.258200  0.414000  1.0  0.6822
  C  C861  1  0.212000  0.580600  0.583310  1.0  0.6631
  C  C862  1  0.165400  0.650400  0.542350  1.0  0.1124
  C  C863  1  0.157100  0.596300  0.561620  1.0  -0.1247
  C  C864  1  0.094000  0.555600  0.559980  1.0  -0.0902
  C  C865  1  0.046300  0.567500  0.538930  1.0  -0.1239
  C  C866  1  0.059700  0.620000  0.519880  1.0  0.1732
  C  C867  1  0.012800  0.635400  0.496770  1.0  0.1672
  C  C868  1  0.952100  0.596600  0.490360  1.0  -0.1433
  C  C869  1  0.914900  0.611700  0.466630  1.0  -0.0186
  C  C870  1  0.937400  0.667100  0.449900  1.0  -0.1798
  C  C871  1  0.997100  0.707000  0.458600  1.0  0.1212
  C  C872  1  0.899100  0.684900  0.423580  1.0  0.7075
  C  C873  1  0.204700  0.568500  0.660990  1.0  0.7117
  C  C874  1  0.133700  0.593700  0.704300  1.0  0.2032
  C  C875  1  0.185100  0.614100  0.684720  1.0  -0.1819
  C  C876  1  0.219400  0.679800  0.688780  1.0  0.009
  C  C877  1  0.205000  0.719700  0.711490  1.0  -0.1588
  C  C878  1  0.156000  0.694000  0.730120  1.0  0.1784
  C  C879  1  0.142900  0.730500  0.756600  1.0  0.183
  C  C880  1  0.178700  0.790900  0.764750  1.0  -0.1445
  C  C881  1  0.163400  0.819500  0.790700  1.0  -0.002
  C  C882  1  0.114500  0.786400  0.807000  1.0  -0.1464
  C  C883  1  0.078300  0.726900  0.797030  1.0  0.1284
  C  C884  1  0.096600  0.814000  0.834840  1.0  0.6577
  C  C885  1  0.950900  0.807000  0.670680  1.0  0.6963
  C  C886  1  0.983600  0.723800  0.709330  1.0  0.1619
  C  C887  1  0.942100  0.780700  0.699390  1.0  -0.1514
  C  C888  1  0.892600  0.811100  0.716360  1.0  0.0128
  C  C889  1  0.882900  0.782600  0.742490  1.0  -0.1355
  C  C890  1  0.923900  0.725500  0.750350  1.0  0.176
  C  C891  1  0.910400  0.686000  0.776300  1.0  0.1446
  C  C892  1  0.859100  0.707600  0.795020  1.0  -0.1444
  C  C893  1  0.843600  0.663300  0.816870  1.0  -0.0061
  C  C894  1  0.880600  0.600400  0.819850  1.0  -0.1668
  C  C895  1  0.935700  0.584300  0.801270  1.0  0.1743
  C  C896  1  0.859300  0.548100  0.842330  1.0  0.6927
  C  C897  1  0.888100  0.488500  0.670080  1.0  0.6998
  C  C898  1  0.953400  0.536800  0.710640  1.0  0.1852
  C  C899  1  0.933300  0.478400  0.695360  1.0  -0.2003
  C  C900  1  0.957700  0.411600  0.703750  1.0  0.0253
  C  C901  1  0.997700  0.405600  0.726960  1.0  -0.1627
  C  C902  1  0.015600  0.467200  0.741060  1.0  0.1699
  C  C903  1  0.059500  0.467400  0.766440  1.0  0.0755
  C  C904  1  0.077900  0.405500  0.780880  1.0  -0.1493
  C  C905  1  0.118800  0.412100  0.803560  1.0  0.0214
  C  C906  1  0.143600  0.477700  0.811910  1.0  -0.2238
  C  C907  1  0.122900  0.536900  0.797020  1.0  0.1563
  C  C908  1  0.192100  0.485900  0.836500  1.0  0.7178
  C  C909  1  0.277000  0.596400  0.911350  1.0  0.6603
  C  C910  1  0.322200  0.669800  0.951120  1.0  0.1854
  C  C911  1  0.264000  0.641700  0.935960  1.0  -0.1728
  C  C912  1  0.195200  0.655100  0.944900  1.0  -0.0675
  C  C913  1  0.185900  0.697500  0.967870  1.0  -0.1213
  C  C914  1  0.244100  0.723900  0.981610  1.0  0.1535
  C  C915  1  0.240700  0.772100  0.005200  1.0  0.1843
  C  C916  1  0.176600  0.793900  0.016700  1.0  -0.124
  C  C917  1  0.179100  0.840200  0.038800  1.0  0.0156
  C  C918  1  0.242200  0.862200  0.048100  1.0  -0.1684
  C  C919  1  0.306900  0.837800  0.036700  1.0  0.1301
  C  C920  1  0.240700  0.911700  0.073500  1.0  0.6777
  C  C921  1  0.846800  0.554400  0.918080  1.0  0.6748
  C  C922  1  0.872300  0.642900  0.955340  1.0  0.1714
  C  C923  1  0.893600  0.581600  0.941190  1.0  -0.1788
  C  C924  1  0.956600  0.547600  0.948550  1.0  -0.0604
  C  C925  1  0.992500  0.571900  0.971360  1.0  -0.1035
  C  C926  1  0.968300  0.629000  0.985440  1.0  0.1685
  C  C927  1  0.000200  0.655000  0.011360  1.0  0.1802
  C  C928  1  0.060900  0.626500  0.022940  1.0  -0.1464
  C  C929  1  0.084200  0.651400  0.047560  1.0  -0.0225
  C  C930  1  0.048300  0.707400  0.059830  1.0  -0.1886
  C  C931  1  0.988800  0.734700  0.046940  1.0  0.135
  C  C932  1  0.073400  0.741800  0.086000  1.0  0.6824
  C  C933  1  0.712000  0.419400  0.916690  1.0  0.6638
  C  C934  1  0.665400  0.349600  0.957650  1.0  0.1119
  C  C935  1  0.657100  0.403700  0.938380  1.0  -0.1256
  C  C936  1  0.594000  0.444400  0.940020  1.0  -0.0904
  C  C937  1  0.546300  0.432500  0.961070  1.0  -0.1242
  C  C938  1  0.559700  0.380000  0.980120  1.0  0.1729
  C  C939  1  0.512800  0.364600  0.003230  1.0  0.167
  C  C940  1  0.452100  0.403400  0.009640  1.0  -0.1439
  C  C941  1  0.414900  0.388300  0.033370  1.0  -0.0178
  C  C942  1  0.437400  0.332900  0.050100  1.0  -0.1782
  C  C943  1  0.497100  0.293000  0.041400  1.0  0.1229
  C  C944  1  0.399100  0.315100  0.076420  1.0  0.7054
  C  C945  1  0.704700  0.431500  0.839010  1.0  0.7121
  C  C946  1  0.633700  0.406300  0.795700  1.0  0.2027
  C  C947  1  0.685100  0.385900  0.815280  1.0  -0.1798
  C  C948  1  0.719400  0.320200  0.811220  1.0  0.0095
  C  C949  1  0.705000  0.280300  0.788510  1.0  -0.1585
  C  C950  1  0.656000  0.306000  0.769880  1.0  0.1776
  C  C951  1  0.642900  0.269500  0.743400  1.0  0.1834
  C  C952  1  0.678700  0.209100  0.735250  1.0  -0.1434
  C  C953  1  0.663400  0.180500  0.709300  1.0  -0.0021
  C  C954  1  0.614500  0.213600  0.693000  1.0  -0.1468
  C  C955  1  0.578300  0.273100  0.702970  1.0  0.1275
  C  C956  1  0.596600  0.186000  0.665160  1.0  0.6557
  C  C957  1  0.450900  0.193000  0.829320  1.0  0.6955
  C  C958  1  0.483600  0.276200  0.790670  1.0  0.1637
  C  C959  1  0.442100  0.219300  0.800610  1.0  -0.1497
  C  C960  1  0.392600  0.188900  0.783640  1.0  0.0147
  C  C961  1  0.382900  0.217400  0.757510  1.0  -0.136
  C  C962  1  0.423900  0.274500  0.749650  1.0  0.1754
  C  C963  1  0.410400  0.314000  0.723700  1.0  0.144
  C  C964  1  0.359100  0.292400  0.704980  1.0  -0.1452
  C  C965  1  0.343600  0.336700  0.683130  1.0  -0.0062
  C  C966  1  0.380600  0.399600  0.680150  1.0  -0.1676
  C  C967  1  0.435700  0.415700  0.698730  1.0  0.1735
  C  C968  1  0.359300  0.451900  0.657670  1.0  0.6927
  C  C969  1  0.388100  0.511500  0.829920  1.0  0.6999
  C  C970  1  0.453400  0.463200  0.789360  1.0  0.1844
  C  C971  1  0.433300  0.521600  0.804640  1.0  -0.2004
  C  C972  1  0.457700  0.588400  0.796250  1.0  0.0256
  C  C973  1  0.497700  0.594400  0.773040  1.0  -0.1619
  C  C974  1  0.515600  0.532800  0.758940  1.0  0.17
  C  C975  1  0.559500  0.532600  0.733560  1.0  0.0759
  C  C976  1  0.577900  0.594500  0.719120  1.0  -0.1507
  C  C977  1  0.618800  0.587900  0.696440  1.0  0.0227
  C  C978  1  0.643600  0.522300  0.688090  1.0  -0.2232
  C  C979  1  0.622900  0.463100  0.702980  1.0  0.1567
  C  C980  1  0.692100  0.514100  0.663500  1.0  0.7169
  C  C981  1  0.777000  0.403600  0.588650  1.0  0.661
  C  C982  1  0.822200  0.330200  0.548880  1.0  0.1863
  C  C983  1  0.764000  0.358300  0.564040  1.0  -0.1734
  C  C984  1  0.695200  0.344900  0.555100  1.0  -0.0689
  C  C985  1  0.685900  0.302500  0.532130  1.0  -0.1212
  C  C986  1  0.744100  0.276100  0.518390  1.0  0.1529
  C  C987  1  0.740700  0.227900  0.494800  1.0  0.1845
  C  C988  1  0.676600  0.206100  0.483300  1.0  -0.1238
  C  C989  1  0.679100  0.159800  0.461200  1.0  0.0174
  C  C990  1  0.742200  0.137800  0.451900  1.0  -0.1693
  C  C991  1  0.806900  0.162200  0.463300  1.0  0.1302
  C  C992  1  0.740700  0.088300  0.426500  1.0  0.6789
  N  N993  1  0.963900  0.210500  0.477340  1.0  -0.3397
  N  N994  1  0.908200  0.165900  0.522870  1.0  -0.3355
  N  N995  1  0.533000  0.808000  0.481330  1.0  -0.3229
  N  N996  1  0.618600  0.837200  0.522400  1.0  -0.3142
  N  N997  1  0.618500  0.867800  0.726300  1.0  -0.3595
  N  N998  1  0.591400  0.801500  0.772470  1.0  -0.3127
  N  N999  1  0.475100  0.803700  0.734390  1.0  -0.3363
  N  N1000  1  0.450400  0.874200  0.780280  1.0  -0.3611
  N  N1001  1  0.494300  0.967300  0.732850  1.0  -0.3593
  N  N1002  1  0.580700  0.966000  0.774930  1.0  -0.3564
  N  N1003  1  0.812800  0.790800  0.973330  1.0  -0.3172
  N  N1004  1  0.805000  0.708300  0.014850  1.0  -0.295
  N  N1005  1  0.463900  0.789500  0.022660  1.0  -0.3409
  N  N1006  1  0.408200  0.834100  0.977130  1.0  -0.3372
  N  N1007  1  0.033000  0.192000  0.018670  1.0  -0.3238
  N  N1008  1  0.118600  0.162800  0.977600  1.0  -0.3134
  N  N1009  1  0.118500  0.132200  0.773700  1.0  -0.3601
  N  N1010  1  0.091400  0.198500  0.727530  1.0  -0.3128
  N  N1011  1  0.975100  0.196300  0.765610  1.0  -0.3352
  N  N1012  1  0.950400  0.125800  0.719720  1.0  -0.3603
  N  N1013  1  0.994300  0.032700  0.767150  1.0  -0.3602
  N  N1014  1  0.080700  0.034000  0.725070  1.0  -0.357
  N  N1015  1  0.312800  0.209200  0.526670  1.0  -0.3176
  N  N1016  1  0.305000  0.291700  0.485150  1.0  -0.2955
  N  N1017  1  0.536100  0.710500  0.522660  1.0  -0.3368
  N  N1018  1  0.591800  0.665900  0.477130  1.0  -0.3366
  N  N1019  1  0.967000  0.308000  0.518670  1.0  -0.3241
  N  N1020  1  0.881400  0.337200  0.477600  1.0  -0.3145
  N  N1021  1  0.881500  0.367800  0.273700  1.0  -0.3603
  N  N1022  1  0.908600  0.301500  0.227530  1.0  -0.3148
  N  N1023  1  0.024900  0.303700  0.265610  1.0  -0.3351
  N  N1024  1  0.049600  0.374200  0.219720  1.0  -0.3606
  N  N1025  1  0.005700  0.467300  0.267150  1.0  -0.3591
  N  N1026  1  0.919300  0.466000  0.225070  1.0  -0.3558
  N  N1027  1  0.687200  0.290800  0.026670  1.0  -0.317
  N  N1028  1  0.695000  0.208300  0.985150  1.0  -0.2938
  N  N1029  1  0.036100  0.289500  0.977340  1.0  -0.3374
  N  N1030  1  0.091800  0.334100  0.022870  1.0  -0.336
  N  N1031  1  0.467000  0.692000  0.981330  1.0  -0.3232
  N  N1032  1  0.381400  0.662800  0.022400  1.0  -0.3145
  N  N1033  1  0.381500  0.632200  0.226300  1.0  -0.3587
  N  N1034  1  0.408600  0.698500  0.272470  1.0  -0.3137
  N  N1035  1  0.524900  0.696300  0.234390  1.0  -0.3351
  N  N1036  1  0.549600  0.625800  0.280280  1.0  -0.3604
  N  N1037  1  0.505700  0.532700  0.232850  1.0  -0.359
  N  N1038  1  0.419300  0.534000  0.274930  1.0  -0.3565
  N  N1039  1  0.187200  0.709200  0.473330  1.0  -0.3154
  N  N1040  1  0.195000  0.791700  0.514850  1.0  -0.2933
  N  N1041  1  0.036100  0.789500  0.522660  1.0  -0.3375
  N  N1042  1  0.091800  0.834100  0.477130  1.0  -0.3372
  N  N1043  1  0.467000  0.192000  0.518670  1.0  -0.3244
  N  N1044  1  0.381400  0.162800  0.477600  1.0  -0.314
  N  N1045  1  0.381500  0.132200  0.273700  1.0  -0.3599
  N  N1046  1  0.408600  0.198500  0.227530  1.0  -0.3146
  N  N1047  1  0.524900  0.196300  0.265610  1.0  -0.3349
  N  N1048  1  0.549600  0.125800  0.219720  1.0  -0.3602
  N  N1049  1  0.505700  0.032700  0.267150  1.0  -0.3593
  N  N1050  1  0.419300  0.034000  0.225070  1.0  -0.3563
  N  N1051  1  0.187200  0.209200  0.026670  1.0  -0.3163
  N  N1052  1  0.195000  0.291700  0.985150  1.0  -0.2937
  N  N1053  1  0.536100  0.210500  0.977340  1.0  -0.3367
  N  N1054  1  0.591800  0.165900  0.022870  1.0  -0.3353
  N  N1055  1  0.967000  0.808000  0.981330  1.0  -0.3234
  N  N1056  1  0.881400  0.837200  0.022400  1.0  -0.315
  N  N1057  1  0.881500  0.867800  0.226300  1.0  -0.3594
  N  N1058  1  0.908600  0.801500  0.272470  1.0  -0.3143
  N  N1059  1  0.024900  0.803700  0.234390  1.0  -0.3356
  N  N1060  1  0.049600  0.874200  0.280280  1.0  -0.3606
  N  N1061  1  0.005700  0.967300  0.232850  1.0  -0.3588
  N  N1062  1  0.919300  0.966000  0.274930  1.0  -0.3562
  N  N1063  1  0.687200  0.790800  0.473330  1.0  -0.3164
  N  N1064  1  0.695000  0.708300  0.514850  1.0  -0.2935
  N  N1065  1  0.463900  0.289500  0.477340  1.0  -0.3404
  N  N1066  1  0.408200  0.334100  0.522870  1.0  -0.336
  N  N1067  1  0.033000  0.692000  0.481330  1.0  -0.3224
  N  N1068  1  0.118600  0.662800  0.522400  1.0  -0.3139
  N  N1069  1  0.118500  0.632200  0.726300  1.0  -0.3588
  N  N1070  1  0.091400  0.698500  0.772470  1.0  -0.3116
  N  N1071  1  0.975100  0.696300  0.734390  1.0  -0.3355
  N  N1072  1  0.950400  0.625800  0.780280  1.0  -0.3604
  N  N1073  1  0.994300  0.532700  0.732850  1.0  -0.3595
  N  N1074  1  0.080700  0.534000  0.774930  1.0  -0.3569
  N  N1075  1  0.312800  0.709200  0.973330  1.0  -0.3161
  N  N1076  1  0.305000  0.791700  0.014850  1.0  -0.2951
  N  N1077  1  0.963900  0.710500  0.022660  1.0  -0.3404
  N  N1078  1  0.908200  0.665900  0.977130  1.0  -0.3369
  N  N1079  1  0.533000  0.308000  0.018670  1.0  -0.3238
  N  N1080  1  0.618600  0.337200  0.977600  1.0  -0.3139
  N  N1081  1  0.618500  0.367800  0.773700  1.0  -0.3605
  N  N1082  1  0.591400  0.301500  0.727530  1.0  -0.3137
  N  N1083  1  0.475100  0.303700  0.765610  1.0  -0.3356
  N  N1084  1  0.450400  0.374200  0.719720  1.0  -0.3607
  N  N1085  1  0.494300  0.467300  0.767150  1.0  -0.3602
  N  N1086  1  0.580700  0.466000  0.725070  1.0  -0.3564
  N  N1087  1  0.812800  0.290800  0.526670  1.0  -0.3184
  N  N1088  1  0.805000  0.208300  0.485150  1.0  -0.2951
  Cl  Cl1089  1  0.775730  0.496470  0.993480  1.0  1.5857
  Cl  Cl1090  1  0.275730  0.503530  0.506520  1.0  1.5857
  Cl  Cl1091  1  0.724270  0.996470  0.006520  1.0  1.5857
  Cl  Cl1092  1  0.224270  0.003530  0.493480  1.0  1.5859
  Cl  Cl1093  1  0.224270  0.503530  0.006520  1.0  1.5858
  Cl  Cl1094  1  0.724270  0.496470  0.493480  1.0  1.5858
  Cl  Cl1095  1  0.275730  0.003530  0.993480  1.0  1.5858
  Cl  Cl1096  1  0.775730  0.996470  0.506520  1.0  1.5855
  O  O1097  1  0.793500  0.090600  0.588280  1.0  -0.6694
  O  O1098  1  0.868300  0.996900  0.592600  1.0  -0.6883
  O  O1099  1  0.055400  0.304000  0.409670  1.0  -0.5832
  O  O1100  1  0.115100  0.204600  0.399260  1.0  -0.6932
  O  O1101  1  0.700900  0.974900  0.596490  1.0  -0.6618
  O  O1102  1  0.763100  0.876900  0.586880  1.0  -0.645
  O  O1103  1  0.408000  0.755000  0.413840  1.0  -0.5654
  O  O1104  1  0.670600  0.987900  0.657010  1.0  -0.6321
  O  O1105  1  0.640300  0.642900  0.845050  1.0  -0.6505
  O  O1106  1  0.540100  0.708500  0.845420  1.0  -0.5568
  O  O1107  1  0.510600  0.700300  0.660010  1.0  -0.5377
  O  O1108  1  0.398900  0.662500  0.660060  1.0  -0.6921
  O  O1109  1  0.303400  0.937400  0.854900  1.0  -0.6857
  O  O1110  1  0.398100  0.006400  0.845760  1.0  -0.6546
  O  O1111  1  0.358000  0.951300  0.667370  1.0  -0.6315
  O  O1112  1  0.383500  0.059600  0.652810  1.0  -0.6208
  O  O1113  1  0.726400  0.957400  0.839430  1.0  -0.6173
  O  O1114  1  0.698200  0.065200  0.852090  1.0  -0.612
  O  O1115  1  0.724200  0.929700  0.899180  1.0  -0.6579
  O  O1116  1  0.840600  0.916700  0.904890  1.0  -0.6593
  O  O1117  1  0.684900  0.556500  0.078050  1.0  -0.6226
  O  O1118  1  0.795600  0.585500  0.086210  1.0  -0.5554
  O  O1119  1  0.570000  0.036100  0.619270  1.0  -0.7604
  O  O1120  1  0.750400  0.200700  0.622370  1.0  -0.7731
  O  O1121  1  0.986400  0.907100  0.615340  1.0  -0.8119
  O  O1122  1  0.817000  0.151400  0.872970  1.0  -0.7553
  O  O1123  1  0.927300  0.051700  0.888130  1.0  -0.7878
  O  O1124  1  0.362600  0.864200  0.414070  1.0  -0.6791
  O  O1125  1  0.756400  0.909500  0.646790  1.0  -0.6944
  O  O1126  1  0.293500  0.909400  0.911720  1.0  -0.6688
  O  O1127  1  0.368300  0.003100  0.907400  1.0  -0.6892
  O  O1128  1  0.555400  0.696000  0.090330  1.0  -0.5838
  O  O1129  1  0.615100  0.795400  0.100740  1.0  -0.6935
  O  O1130  1  0.200900  0.025100  0.903510  1.0  -0.6603
  O  O1131  1  0.263100  0.123100  0.913120  1.0  -0.645
  O  O1132  1  0.908000  0.245000  0.086160  1.0  -0.5645
  O  O1133  1  0.170600  0.012100  0.842990  1.0  -0.632
  O  O1134  1  0.140300  0.357100  0.654950  1.0  -0.6509
  O  O1135  1  0.040100  0.291500  0.654580  1.0  -0.5569
  O  O1136  1  0.010600  0.299700  0.839990  1.0  -0.5365
  O  O1137  1  0.898900  0.337500  0.839940  1.0  -0.6928
  O  O1138  1  0.803400  0.062600  0.645100  1.0  -0.6859
  O  O1139  1  0.898100  0.993600  0.654240  1.0  -0.6546
  O  O1140  1  0.858000  0.048700  0.832630  1.0  -0.6305
  O  O1141  1  0.883500  0.940400  0.847190  1.0  -0.6206
  O  O1142  1  0.226400  0.042600  0.660570  1.0  -0.6194
  O  O1143  1  0.198200  0.934800  0.647910  1.0  -0.6117
  O  O1144  1  0.224200  0.070300  0.600820  1.0  -0.6565
  O  O1145  1  0.340600  0.083300  0.595110  1.0  -0.6595
  O  O1146  1  0.184900  0.443500  0.421950  1.0  -0.6233
  O  O1147  1  0.295600  0.414500  0.413790  1.0  -0.5559
  O  O1148  1  0.070000  0.963900  0.880730  1.0  -0.7577
  O  O1149  1  0.250400  0.799300  0.877630  1.0  -0.7715
  O  O1150  1  0.486400  0.092900  0.884660  1.0  -0.8098
  O  O1151  1  0.317000  0.848600  0.627030  1.0  -0.7526
  O  O1152  1  0.427300  0.948300  0.611870  1.0  -0.7867
  O  O1153  1  0.862600  0.135800  0.085930  1.0  -0.6792
  O  O1154  1  0.256400  0.090500  0.853210  1.0  -0.6941
  O  O1155  1  0.706500  0.590600  0.411720  1.0  -0.6692
  O  O1156  1  0.631700  0.496900  0.407400  1.0  -0.6881
  O  O1157  1  0.444600  0.804000  0.590330  1.0  -0.5851
  O  O1158  1  0.384900  0.704600  0.600740  1.0  -0.6939
  O  O1159  1  0.799100  0.474900  0.403510  1.0  -0.661
  O  O1160  1  0.736900  0.376900  0.413120  1.0  -0.6462
  O  O1161  1  0.092000  0.255000  0.586160  1.0  -0.565
  O  O1162  1  0.829400  0.487900  0.342990  1.0  -0.6324
  O  O1163  1  0.859700  0.142900  0.154950  1.0  -0.6515
  O  O1164  1  0.959900  0.208500  0.154580  1.0  -0.5564
  O  O1165  1  0.989400  0.200300  0.339990  1.0  -0.5364
  O  O1166  1  0.101100  0.162500  0.339940  1.0  -0.6917
  O  O1167  1  0.196600  0.437400  0.145100  1.0  -0.6858
  O  O1168  1  0.101900  0.506400  0.154240  1.0  -0.6546
  O  O1169  1  0.142000  0.451300  0.332630  1.0  -0.6323
  O  O1170  1  0.116500  0.559600  0.347190  1.0  -0.6211
  O  O1171  1  0.773600  0.457400  0.160570  1.0  -0.6174
  O  O1172  1  0.801800  0.565200  0.147910  1.0  -0.6107
  O  O1173  1  0.775800  0.429700  0.100820  1.0  -0.6568
  O  O1174  1  0.659400  0.416700  0.095110  1.0  -0.6601
  O  O1175  1  0.815100  0.056500  0.921950  1.0  -0.6236
  O  O1176  1  0.704400  0.085500  0.913790  1.0  -0.5568
  O  O1177  1  0.930000  0.536100  0.380730  1.0  -0.7595
  O  O1178  1  0.749600  0.700700  0.377630  1.0  -0.7724
  O  O1179  1  0.513600  0.407100  0.384660  1.0  -0.8063
  O  O1180  1  0.683000  0.651400  0.127030  1.0  -0.7523
  O  O1181  1  0.572700  0.551700  0.111870  1.0  -0.7865
  O  O1182  1  0.137400  0.364200  0.585930  1.0  -0.679
  O  O1183  1  0.743600  0.409500  0.353210  1.0  -0.6936
  O  O1184  1  0.206500  0.409400  0.088280  1.0  -0.6701
  O  O1185  1  0.131700  0.503100  0.092600  1.0  -0.6887
  O  O1186  1  0.944600  0.196000  0.909670  1.0  -0.5834
  O  O1187  1  0.884900  0.295400  0.899260  1.0  -0.6929
  O  O1188  1  0.299100  0.525100  0.096490  1.0  -0.6605
  O  O1189  1  0.236900  0.623100  0.086880  1.0  -0.6462
  O  O1190  1  0.592000  0.745000  0.913840  1.0  -0.5649
  O  O1191  1  0.329400  0.512100  0.157010  1.0  -0.6323
  O  O1192  1  0.359700  0.857100  0.345050  1.0  -0.6511
  O  O1193  1  0.459900  0.791500  0.345420  1.0  -0.5584
  O  O1194  1  0.489400  0.799700  0.160010  1.0  -0.5363
  O  O1195  1  0.601100  0.837500  0.160060  1.0  -0.6914
  O  O1196  1  0.696600  0.562600  0.354900  1.0  -0.6856
  O  O1197  1  0.601900  0.493600  0.345760  1.0  -0.6548
  O  O1198  1  0.642000  0.548700  0.167370  1.0  -0.631
  O  O1199  1  0.616500  0.440400  0.152810  1.0  -0.6216
  O  O1200  1  0.273600  0.542600  0.339430  1.0  -0.6196
  O  O1201  1  0.301800  0.434800  0.352090  1.0  -0.6103
  O  O1202  1  0.275800  0.570300  0.399180  1.0  -0.6577
  O  O1203  1  0.159400  0.583300  0.404890  1.0  -0.6603
  O  O1204  1  0.315100  0.943500  0.578050  1.0  -0.6229
  O  O1205  1  0.204400  0.914500  0.586210  1.0  -0.5559
  O  O1206  1  0.430000  0.463900  0.119270  1.0  -0.7607
  O  O1207  1  0.249600  0.299300  0.122370  1.0  -0.7742
  O  O1208  1  0.013600  0.592900  0.115340  1.0  -0.809
  O  O1209  1  0.183000  0.348600  0.372970  1.0  -0.7555
  O  O1210  1  0.072700  0.448300  0.388130  1.0  -0.7879
  O  O1211  1  0.637400  0.635800  0.914070  1.0  -0.6794
  O  O1212  1  0.243600  0.590500  0.146790  1.0  -0.6939
  O  O1213  1  0.206500  0.909400  0.411720  1.0  -0.6691
  O  O1214  1  0.131700  0.003100  0.407400  1.0  -0.689
  O  O1215  1  0.944600  0.696000  0.590330  1.0  -0.5836
  O  O1216  1  0.884900  0.795400  0.600740  1.0  -0.6936
  O  O1217  1  0.299100  0.025100  0.403510  1.0  -0.6599
  O  O1218  1  0.236900  0.123100  0.413120  1.0  -0.6449
  O  O1219  1  0.592000  0.245000  0.586160  1.0  -0.566
  O  O1220  1  0.329400  0.012100  0.342990  1.0  -0.6322
  O  O1221  1  0.359700  0.357100  0.154950  1.0  -0.6514
  O  O1222  1  0.459900  0.291500  0.154580  1.0  -0.5586
  O  O1223  1  0.489400  0.299700  0.339990  1.0  -0.5366
  O  O1224  1  0.601100  0.337500  0.339940  1.0  -0.6915
  O  O1225  1  0.696600  0.062600  0.145100  1.0  -0.6858
  O  O1226  1  0.601900  0.993600  0.154240  1.0  -0.6548
  O  O1227  1  0.642000  0.048700  0.332630  1.0  -0.6303
  O  O1228  1  0.616500  0.940400  0.347190  1.0  -0.6212
  O  O1229  1  0.273600  0.042600  0.160570  1.0  -0.6192
  O  O1230  1  0.301800  0.934800  0.147910  1.0  -0.611
  O  O1231  1  0.275800  0.070300  0.100820  1.0  -0.6561
  O  O1232  1  0.159400  0.083300  0.095110  1.0  -0.6601
  O  O1233  1  0.315100  0.443500  0.921950  1.0  -0.6242
  O  O1234  1  0.204400  0.414500  0.913790  1.0  -0.5566
  O  O1235  1  0.430000  0.963900  0.380730  1.0  -0.7594
  O  O1236  1  0.249600  0.799300  0.377630  1.0  -0.7717
  O  O1237  1  0.013600  0.092900  0.384660  1.0  -0.8054
  O  O1238  1  0.183000  0.848600  0.127030  1.0  -0.7517
  O  O1239  1  0.072700  0.948300  0.111870  1.0  -0.7871
  O  O1240  1  0.637400  0.135800  0.585930  1.0  -0.6797
  O  O1241  1  0.243600  0.090500  0.353210  1.0  -0.6941
  O  O1242  1  0.706500  0.090600  0.088280  1.0  -0.6699
  O  O1243  1  0.631700  0.996900  0.092600  1.0  -0.6877
  O  O1244  1  0.444600  0.304000  0.909670  1.0  -0.5836
  O  O1245  1  0.384900  0.204600  0.899260  1.0  -0.6932
  O  O1246  1  0.799100  0.974900  0.096490  1.0  -0.6614
  O  O1247  1  0.736900  0.876900  0.086880  1.0  -0.6455
  O  O1248  1  0.092000  0.755000  0.913840  1.0  -0.5655
  O  O1249  1  0.829400  0.987900  0.157010  1.0  -0.6323
  O  O1250  1  0.859700  0.642900  0.345050  1.0  -0.6513
  O  O1251  1  0.959900  0.708500  0.345420  1.0  -0.5578
  O  O1252  1  0.989400  0.700300  0.160010  1.0  -0.536
  O  O1253  1  0.101100  0.662500  0.160060  1.0  -0.6911
  O  O1254  1  0.196600  0.937400  0.354900  1.0  -0.6855
  O  O1255  1  0.101900  0.006400  0.345760  1.0  -0.6546
  O  O1256  1  0.142000  0.951300  0.167370  1.0  -0.6319
  O  O1257  1  0.116500  0.059600  0.152810  1.0  -0.6206
  O  O1258  1  0.773600  0.957400  0.339430  1.0  -0.6174
  O  O1259  1  0.801800  0.065200  0.352090  1.0  -0.6112
  O  O1260  1  0.775800  0.929700  0.399180  1.0  -0.6582
  O  O1261  1  0.659400  0.916700  0.404890  1.0  -0.6607
  O  O1262  1  0.815100  0.556500  0.578050  1.0  -0.6228
  O  O1263  1  0.704400  0.585500  0.586210  1.0  -0.556
  O  O1264  1  0.930000  0.036100  0.119270  1.0  -0.7607
  O  O1265  1  0.749600  0.200700  0.122370  1.0  -0.7726
  O  O1266  1  0.513600  0.907100  0.115340  1.0  -0.8084
  O  O1267  1  0.683000  0.151400  0.372970  1.0  -0.7551
  O  O1268  1  0.572700  0.051700  0.388130  1.0  -0.7881
  O  O1269  1  0.137400  0.864200  0.914070  1.0  -0.6795
  O  O1270  1  0.743600  0.909500  0.146790  1.0  -0.6945
  O  O1271  1  0.293500  0.409400  0.588280  1.0  -0.6697
  O  O1272  1  0.368300  0.503100  0.592600  1.0  -0.6891
  O  O1273  1  0.555400  0.196000  0.409670  1.0  -0.5832
  O  O1274  1  0.615100  0.295400  0.399260  1.0  -0.6927
  O  O1275  1  0.200900  0.525100  0.596490  1.0  -0.661
  O  O1276  1  0.263100  0.623100  0.586880  1.0  -0.6451
  O  O1277  1  0.908000  0.745000  0.413840  1.0  -0.5645
  O  O1278  1  0.170600  0.512100  0.657010  1.0  -0.6321
  O  O1279  1  0.140300  0.857100  0.845050  1.0  -0.6505
  O  O1280  1  0.040100  0.791500  0.845420  1.0  -0.5589
  O  O1281  1  0.010600  0.799700  0.660010  1.0  -0.537
  O  O1282  1  0.898900  0.837500  0.660060  1.0  -0.6924
  O  O1283  1  0.803400  0.562600  0.854900  1.0  -0.6858
  O  O1284  1  0.898100  0.493600  0.845760  1.0  -0.6545
  O  O1285  1  0.858000  0.548700  0.667370  1.0  -0.6312
  O  O1286  1  0.883500  0.440400  0.652810  1.0  -0.6216
  O  O1287  1  0.226400  0.542600  0.839430  1.0  -0.6197
  O  O1288  1  0.198200  0.434800  0.852090  1.0  -0.6109
  O  O1289  1  0.224200  0.570300  0.899180  1.0  -0.6576
  O  O1290  1  0.340600  0.583300  0.904890  1.0  -0.6591
  O  O1291  1  0.184900  0.943500  0.078050  1.0  -0.6221
  O  O1292  1  0.295600  0.914500  0.086210  1.0  -0.5553
  O  O1293  1  0.070000  0.463900  0.619270  1.0  -0.7595
  O  O1294  1  0.250400  0.299300  0.622370  1.0  -0.7752
  O  O1295  1  0.486400  0.592900  0.615340  1.0  -0.811
  O  O1296  1  0.317000  0.348600  0.872970  1.0  -0.7558
  O  O1297  1  0.427300  0.448300  0.888130  1.0  -0.7876
  O  O1298  1  0.862600  0.635800  0.414070  1.0  -0.6787
  O  O1299  1  0.256400  0.590500  0.646790  1.0  -0.694
  O  O1300  1  0.793500  0.590600  0.911720  1.0  -0.6688
  O  O1301  1  0.868300  0.496900  0.907400  1.0  -0.6883
  O  O1302  1  0.055400  0.804000  0.090330  1.0  -0.5848
  O  O1303  1  0.115100  0.704600  0.100740  1.0  -0.6939
  O  O1304  1  0.700900  0.474900  0.903510  1.0  -0.6614
  O  O1305  1  0.763100  0.376900  0.913120  1.0  -0.644
  O  O1306  1  0.408000  0.255000  0.086160  1.0  -0.564
  O  O1307  1  0.670600  0.487900  0.842990  1.0  -0.6322
  O  O1308  1  0.640300  0.142900  0.654950  1.0  -0.6506
  O  O1309  1  0.540100  0.208500  0.654580  1.0  -0.5567
  O  O1310  1  0.510600  0.200300  0.839990  1.0  -0.5368
  O  O1311  1  0.398900  0.162500  0.839940  1.0  -0.6924
  O  O1312  1  0.303400  0.437400  0.645100  1.0  -0.6859
  O  O1313  1  0.398100  0.506400  0.654240  1.0  -0.6547
  O  O1314  1  0.358000  0.451300  0.832630  1.0  -0.632
  O  O1315  1  0.383500  0.559600  0.847190  1.0  -0.6209
  O  O1316  1  0.726400  0.457400  0.660570  1.0  -0.6173
  O  O1317  1  0.698200  0.565200  0.647910  1.0  -0.6117
  O  O1318  1  0.724200  0.429700  0.600820  1.0  -0.657
  O  O1319  1  0.840600  0.416700  0.595110  1.0  -0.6594
  O  O1320  1  0.684900  0.056500  0.421950  1.0  -0.6233
  O  O1321  1  0.795600  0.085500  0.413790  1.0  -0.5562
  O  O1322  1  0.570000  0.536100  0.880730  1.0  -0.7586
  O  O1323  1  0.750400  0.700700  0.877630  1.0  -0.7712
  O  O1324  1  0.986400  0.407100  0.884660  1.0  -0.8092
  O  O1325  1  0.817000  0.651400  0.627030  1.0  -0.7531
  O  O1326  1  0.927300  0.551700  0.611870  1.0  -0.7858
  O  O1327  1  0.362600  0.364200  0.085930  1.0  -0.6788
  O  O1328  1  0.756400  0.409500  0.853210  1.0  -0.6934
  O  O1329  1  0.745100  0.561500  0.986520  1.0  -0.6079
  O  O1330  1  0.841700  0.511500  0.007760  1.0  -0.6121
  O  O1331  1  0.729500  0.459300  0.008900  1.0  -0.5916
  O  O1332  1  0.789600  0.445700  0.974200  1.0  -0.6005
  O  O1333  1  0.245100  0.438500  0.513480  1.0  -0.6065
  O  O1334  1  0.341700  0.488500  0.492240  1.0  -0.6118
  O  O1335  1  0.229500  0.540700  0.491100  1.0  -0.5916
  O  O1336  1  0.289600  0.554300  0.525800  1.0  -0.6009
  O  O1337  1  0.754900  0.061500  0.013480  1.0  -0.6061
  O  O1338  1  0.658300  0.011500  0.992240  1.0  -0.6099
  O  O1339  1  0.770500  0.959300  0.991100  1.0  -0.5916
  O  O1340  1  0.710400  0.945700  0.025800  1.0  -0.6007
  O  O1341  1  0.254900  0.938500  0.486520  1.0  -0.6071
  O  O1342  1  0.158300  0.988500  0.507760  1.0  -0.6105
  O  O1343  1  0.270500  0.040700  0.508900  1.0  -0.5925
  O  O1344  1  0.210400  0.054300  0.474200  1.0  -0.6001
  O  O1345  1  0.254900  0.438500  0.013480  1.0  -0.6065
  O  O1346  1  0.158300  0.488500  0.992240  1.0  -0.6101
  O  O1347  1  0.270500  0.540700  0.991100  1.0  -0.5921
  O  O1348  1  0.210400  0.554300  0.025800  1.0  -0.6006
  O  O1349  1  0.754900  0.561500  0.486520  1.0  -0.6076
  O  O1350  1  0.658300  0.511500  0.507760  1.0  -0.6103
  O  O1351  1  0.770500  0.459300  0.508900  1.0  -0.5922
  O  O1352  1  0.710400  0.445700  0.474200  1.0  -0.6002
  O  O1353  1  0.245100  0.938500  0.986520  1.0  -0.6071
  O  O1354  1  0.341700  0.988500  0.007760  1.0  -0.6122
  O  O1355  1  0.229500  0.040700  0.008900  1.0  -0.5919
  O  O1356  1  0.289600  0.054300  0.974200  1.0  -0.6003
  O  O1357  1  0.745100  0.061500  0.513480  1.0  -0.6066
  O  O1358  1  0.841700  0.011500  0.492240  1.0  -0.6116
  O  O1359  1  0.729500  0.959300  0.491100  1.0  -0.5912
  O  O1360  1  0.789600  0.945700  0.525800  1.0  -0.6011
