# generated using pymatgen
data_Eu3Co2H40C72(N6O13)2
_symmetry_space_group_name_H-M   'P 1'
_cell_length_a   49.34890000
_cell_length_b   18.52800000
_cell_length_c   18.47050000
_cell_angle_alpha   90.00000000
_cell_angle_beta   90.00000000
_cell_angle_gamma   90.00000000
_symmetry_Int_Tables_number   1
_chemical_formula_structural   Eu3Co2H40C72(N6O13)2
_chemical_formula_sum   'Eu24 Co16 H320 C576 N96 O208'
_cell_volume   16888.25083083
_cell_formula_units_Z   8
loop_
 _symmetry_equiv_pos_site_id
 _symmetry_equiv_pos_as_xyz
  1  'x, y, z'
loop_
 _atom_site_type_symbol
 _atom_site_label
 _atom_site_symmetry_multiplicity
 _atom_site_fract_x
 _atom_site_fract_y
 _atom_site_fract_z
 _atom_site_occupancy
 _atom_site_charge
  Eu  Eu1  1  0.121310  0.580680  0.698330  1.0  2.1087
  Eu  Eu2  1  0.877780  0.601140  0.143710  1.0  2.1357
  Eu  Eu3  1  0.124340  0.478430  0.298800  1.0  1.8872
  Eu  Eu4  1  0.378690  0.419320  0.198330  1.0  2.1093
  Eu  Eu5  1  0.622220  0.398860  0.643710  1.0  2.1359
  Eu  Eu6  1  0.375660  0.521570  0.798800  1.0  1.8871
  Eu  Eu7  1  0.878690  0.080680  0.801670  1.0  2.1044
  Eu  Eu8  1  0.122220  0.101140  0.356290  1.0  2.1359
  Eu  Eu9  1  0.875660  0.978430  0.201200  1.0  1.8881
  Eu  Eu10  1  0.621310  0.919320  0.301670  1.0  2.1039
  Eu  Eu11  1  0.377780  0.898860  0.856290  1.0  2.1362
  Eu  Eu12  1  0.624340  0.021570  0.701200  1.0  1.8894
  Eu  Eu13  1  0.878690  0.419320  0.301670  1.0  2.1038
  Eu  Eu14  1  0.122220  0.398860  0.856290  1.0  2.1364
  Eu  Eu15  1  0.875660  0.521570  0.701200  1.0  1.8889
  Eu  Eu16  1  0.621310  0.580680  0.801670  1.0  2.1042
  Eu  Eu17  1  0.377780  0.601140  0.356290  1.0  2.1356
  Eu  Eu18  1  0.624340  0.478430  0.201200  1.0  1.8887
  Eu  Eu19  1  0.121310  0.919320  0.198330  1.0  2.1093
  Eu  Eu20  1  0.877780  0.898860  0.643710  1.0  2.1357
  Eu  Eu21  1  0.124340  0.021570  0.798800  1.0  1.8877
  Eu  Eu22  1  0.378690  0.080680  0.698330  1.0  2.1089
  Eu  Eu23  1  0.622220  0.101140  0.143710  1.0  2.1358
  Eu  Eu24  1  0.375660  0.978430  0.298800  1.0  1.8864
  Co  Co25  1  0.246580  0.616580  0.034950  1.0  0.9697
  Co  Co26  1  0.002350  0.751850  0.886170  1.0  0.6781
  Co  Co27  1  0.253420  0.383420  0.534950  1.0  0.9695
  Co  Co28  1  0.497650  0.248150  0.386170  1.0  0.6788
  Co  Co29  1  0.753420  0.116580  0.465050  1.0  0.9696
  Co  Co30  1  0.997650  0.251850  0.613830  1.0  0.6812
  Co  Co31  1  0.746580  0.883420  0.965050  1.0  0.9695
  Co  Co32  1  0.502350  0.748150  0.113830  1.0  0.6803
  Co  Co33  1  0.753420  0.383420  0.965050  1.0  0.9694
  Co  Co34  1  0.997650  0.248150  0.113830  1.0  0.681
  Co  Co35  1  0.746580  0.616580  0.465050  1.0  0.9696
  Co  Co36  1  0.502350  0.751850  0.613830  1.0  0.6803
  Co  Co37  1  0.246580  0.883420  0.534950  1.0  0.9696
  Co  Co38  1  0.002350  0.748150  0.386170  1.0  0.6782
  Co  Co39  1  0.253420  0.116580  0.034950  1.0  0.9696
  Co  Co40  1  0.497650  0.251850  0.886170  1.0  0.6789
  H  H41  1  0.105800  0.575500  0.565400  1.0  0.4219
  H  H42  1  0.132000  0.549900  0.565700  1.0  0.4096
  H  H43  1  0.098600  0.432600  0.439800  1.0  0.4219
  H  H44  1  0.116000  0.430400  0.381900  1.0  0.3728
  H  H45  1  0.945200  0.773300  0.960900  1.0  0.0821
  H  H46  1  0.943600  0.632000  0.124800  1.0  0.1
  H  H47  1  0.984900  0.585900  0.084500  1.0  0.1164
  H  H48  1  0.024000  0.548700  0.038800  1.0  0.1146
  H  H49  1  0.061700  0.508900  0.977600  1.0  0.1083
  H  H50  1  0.050100  0.664600  0.830200  1.0  0.0921
  H  H51  1  0.042900  0.353600  0.151800  1.0  0.0917
  H  H52  1  0.046100  0.357500  0.367100  1.0  0.0999
  H  H53  1  0.009300  0.278300  0.370500  1.0  0.1009
  H  H54  1  0.975400  0.203500  0.363100  1.0  0.1054
  H  H55  1  0.936400  0.133300  0.347500  1.0  0.1043
  H  H56  1  0.944600  0.160200  0.134500  1.0  0.0769
  H  H57  1  0.052500  0.749700  0.483500  1.0  0.0718
  H  H58  1  0.040700  0.588900  0.624700  1.0  0.0899
  H  H59  1  0.000700  0.559800  0.564100  1.0  0.1147
  H  H60  1  0.964400  0.540100  0.496100  1.0  0.1072
  H  H61  1  0.928500  0.519600  0.416500  1.0  0.108
  H  H62  1  0.958000  0.678200  0.291400  1.0  0.074
  H  H63  1  0.198500  0.583300  0.137900  1.0  0.0724
  H  H64  1  0.187000  0.370100  0.132300  1.0  0.1005
  H  H65  1  0.226800  0.360700  0.062700  1.0  0.098
  H  H66  1  0.267900  0.361300  0.012100  1.0  0.1024
  H  H67  1  0.307900  0.371700  0.945300  1.0  0.1066
  H  H68  1  0.295300  0.583800  0.934200  1.0  0.0861
  H  H69  1  0.197400  0.538700  0.963300  1.0  0.0763
  H  H70  1  0.169700  0.674400  0.810500  1.0  0.1023
  H  H71  1  0.205900  0.750100  0.836000  1.0  0.1132
  H  H72  1  0.244800  0.804300  0.847800  1.0  0.1247
  H  H73  1  0.288200  0.849000  0.861000  1.0  0.096
  H  H74  1  0.301300  0.704000  0.019000  1.0  0.0736
  H  H75  1  0.201500  0.450200  0.608600  1.0  0.0662
  H  H76  1  0.175300  0.302900  0.748900  1.0  0.1031
  H  H77  1  0.214400  0.235200  0.727700  1.0  0.1277
  H  H78  1  0.255200  0.187000  0.712400  1.0  0.1092
  H  H79  1  0.297600  0.142000  0.688300  1.0  0.1068
  H  H80  1  0.308500  0.299400  0.543000  1.0  0.0811
  H  H81  1  0.394200  0.424500  0.065400  1.0  0.4215
  H  H82  1  0.368000  0.450100  0.065700  1.0  0.4098
  H  H83  1  0.401400  0.567400  0.939800  1.0  0.4228
  H  H84  1  0.384000  0.569600  0.881900  1.0  0.3745
  H  H85  1  0.554800  0.226700  0.460900  1.0  0.0811
  H  H86  1  0.556400  0.368000  0.624800  1.0  0.0996
  H  H87  1  0.515100  0.414100  0.584500  1.0  0.1163
  H  H88  1  0.476000  0.451300  0.538800  1.0  0.1149
  H  H89  1  0.438300  0.491100  0.477600  1.0  0.1082
  H  H90  1  0.449900  0.335400  0.330200  1.0  0.0929
  H  H91  1  0.457100  0.646400  0.651800  1.0  0.0923
  H  H92  1  0.453900  0.642500  0.867100  1.0  0.0994
  H  H93  1  0.490700  0.721700  0.870500  1.0  0.1008
  H  H94  1  0.524600  0.796500  0.863100  1.0  0.1046
  H  H95  1  0.563600  0.866700  0.847500  1.0  0.1034
  H  H96  1  0.555400  0.839800  0.634500  1.0  0.0769
  H  H97  1  0.447500  0.250300  0.983500  1.0  0.0715
  H  H98  1  0.459300  0.411100  0.124700  1.0  0.0899
  H  H99  1  0.499300  0.440200  0.064100  1.0  0.1148
  H  H100  1  0.535600  0.459900  0.996100  1.0  0.1068
  H  H101  1  0.571500  0.480400  0.916500  1.0  0.1078
  H  H102  1  0.542000  0.321800  0.791400  1.0  0.0742
  H  H103  1  0.301500  0.416700  0.637900  1.0  0.0714
  H  H104  1  0.313000  0.629900  0.632300  1.0  0.1003
  H  H105  1  0.273200  0.639300  0.562700  1.0  0.0983
  H  H106  1  0.232100  0.638700  0.512100  1.0  0.1024
  H  H107  1  0.192100  0.628300  0.445300  1.0  0.1066
  H  H108  1  0.204700  0.416200  0.434200  1.0  0.0853
  H  H109  1  0.302600  0.461300  0.463300  1.0  0.0762
  H  H110  1  0.330300  0.325600  0.310500  1.0  0.1031
  H  H111  1  0.294100  0.249900  0.336000  1.0  0.113
  H  H112  1  0.255200  0.195700  0.347800  1.0  0.1246
  H  H113  1  0.211800  0.151000  0.361000  1.0  0.0966
  H  H114  1  0.198700  0.296000  0.519000  1.0  0.0735
  H  H115  1  0.298500  0.549800  0.108600  1.0  0.067
  H  H116  1  0.324700  0.697100  0.248900  1.0  0.1036
  H  H117  1  0.285600  0.764800  0.227700  1.0  0.1274
  H  H118  1  0.244800  0.813000  0.212400  1.0  0.1089
  H  H119  1  0.202400  0.858000  0.188300  1.0  0.1069
  H  H120  1  0.191500  0.700600  0.043000  1.0  0.0805
  H  H121  1  0.894200  0.075500  0.934600  1.0  0.4217
  H  H122  1  0.868000  0.049900  0.934300  1.0  0.4091
  H  H123  1  0.901400  0.932600  0.060200  1.0  0.422
  H  H124  1  0.884000  0.930400  0.118100  1.0  0.3738
  H  H125  1  0.054800  0.273300  0.539100  1.0  0.0809
  H  H126  1  0.056400  0.132000  0.375200  1.0  0.0996
  H  H127  1  0.015100  0.085900  0.415500  1.0  0.1162
  H  H128  1  0.976000  0.048700  0.461200  1.0  0.115
  H  H129  1  0.938300  0.008900  0.522400  1.0  0.1083
  H  H130  1  0.949900  0.164600  0.669800  1.0  0.093
  H  H131  1  0.957100  0.853600  0.348200  1.0  0.0924
  H  H132  1  0.953900  0.857500  0.132900  1.0  0.1005
  H  H133  1  0.990700  0.778300  0.129500  1.0  0.1008
  H  H134  1  0.024600  0.703500  0.136900  1.0  0.1046
  H  H135  1  0.063600  0.633300  0.152500  1.0  0.1038
  H  H136  1  0.055400  0.660200  0.365500  1.0  0.0761
  H  H137  1  0.947500  0.249700  0.016500  1.0  0.0724
  H  H138  1  0.959300  0.088900  0.875300  1.0  0.0898
  H  H139  1  0.999300  0.059800  0.935900  1.0  0.1146
  H  H140  1  0.035600  0.040100  0.003900  1.0  0.1078
  H  H141  1  0.071500  0.019600  0.083500  1.0  0.1085
  H  H142  1  0.042000  0.178200  0.208600  1.0  0.0734
  H  H143  1  0.801500  0.083300  0.362100  1.0  0.073
  H  H144  1  0.813000  0.870100  0.367700  1.0  0.101
  H  H145  1  0.773200  0.860700  0.437300  1.0  0.0978
  H  H146  1  0.732100  0.861300  0.487900  1.0  0.1027
  H  H147  1  0.692100  0.871700  0.554700  1.0  0.1061
  H  H148  1  0.704700  0.083800  0.565800  1.0  0.0861
  H  H149  1  0.802600  0.038700  0.536700  1.0  0.0764
  H  H150  1  0.830300  0.174400  0.689500  1.0  0.1023
  H  H151  1  0.794100  0.250100  0.664000  1.0  0.1131
  H  H152  1  0.755200  0.304300  0.652200  1.0  0.1248
  H  H153  1  0.711800  0.349000  0.639000  1.0  0.0965
  H  H154  1  0.698700  0.204000  0.481000  1.0  0.0742
  H  H155  1  0.798500  0.950200  0.891400  1.0  0.0658
  H  H156  1  0.824700  0.802900  0.751100  1.0  0.1034
  H  H157  1  0.785600  0.735200  0.772300  1.0  0.1274
  H  H158  1  0.744800  0.687000  0.787600  1.0  0.1092
  H  H159  1  0.702400  0.642000  0.811700  1.0  0.1069
  H  H160  1  0.691500  0.799400  0.957000  1.0  0.0805
  H  H161  1  0.605800  0.924500  0.434600  1.0  0.4221
  H  H162  1  0.632000  0.950100  0.434300  1.0  0.4089
  H  H163  1  0.598600  0.067400  0.560200  1.0  0.4214
  H  H164  1  0.616000  0.069600  0.618100  1.0  0.3732
  H  H165  1  0.445200  0.726700  0.039100  1.0  0.0813
  H  H166  1  0.443600  0.868000  0.875200  1.0  0.0994
  H  H167  1  0.484900  0.914100  0.915500  1.0  0.1166
  H  H168  1  0.524000  0.951300  0.961200  1.0  0.1149
  H  H169  1  0.561700  0.991100  0.022400  1.0  0.1086
  H  H170  1  0.550100  0.835400  0.169800  1.0  0.0921
  H  H171  1  0.542900  0.146400  0.848200  1.0  0.0921
  H  H172  1  0.546100  0.142500  0.632900  1.0  0.0999
  H  H173  1  0.509300  0.221700  0.629500  1.0  0.1005
  H  H174  1  0.475400  0.296500  0.636900  1.0  0.105
  H  H175  1  0.436400  0.366700  0.652500  1.0  0.1037
  H  H176  1  0.444600  0.339800  0.865500  1.0  0.0764
  H  H177  1  0.552500  0.750300  0.516500  1.0  0.0719
  H  H178  1  0.540700  0.911100  0.375300  1.0  0.0897
  H  H179  1  0.500700  0.940200  0.435900  1.0  0.1152
  H  H180  1  0.464400  0.959900  0.503900  1.0  0.1078
  H  H181  1  0.428500  0.980400  0.583500  1.0  0.1085
  H  H182  1  0.458000  0.821800  0.708600  1.0  0.0738
  H  H183  1  0.698500  0.916700  0.862100  1.0  0.071
  H  H184  1  0.687000  0.129900  0.867700  1.0  0.1004
  H  H185  1  0.726800  0.139300  0.937300  1.0  0.0979
  H  H186  1  0.767900  0.138700  0.987900  1.0  0.103
  H  H187  1  0.807900  0.128300  0.054700  1.0  0.1062
  H  H188  1  0.795300  0.916200  0.065800  1.0  0.0861
  H  H189  1  0.697400  0.961300  0.036700  1.0  0.0764
  H  H190  1  0.669700  0.825600  0.189500  1.0  0.1023
  H  H191  1  0.705900  0.749900  0.164000  1.0  0.1137
  H  H192  1  0.744800  0.695700  0.152200  1.0  0.1246
  H  H193  1  0.788200  0.651000  0.139000  1.0  0.0965
  H  H194  1  0.801300  0.796000  0.981000  1.0  0.0734
  H  H195  1  0.701500  0.049800  0.391400  1.0  0.0662
  H  H196  1  0.675300  0.197100  0.251100  1.0  0.1032
  H  H197  1  0.714400  0.264800  0.272300  1.0  0.1276
  H  H198  1  0.755200  0.313000  0.287600  1.0  0.1098
  H  H199  1  0.797600  0.358000  0.311700  1.0  0.1068
  H  H200  1  0.808500  0.200600  0.457000  1.0  0.0812
  H  H201  1  0.894200  0.424500  0.434600  1.0  0.4221
  H  H202  1  0.868000  0.450100  0.434300  1.0  0.4091
  H  H203  1  0.901400  0.567400  0.560200  1.0  0.4221
  H  H204  1  0.884000  0.569600  0.618100  1.0  0.3741
  H  H205  1  0.054800  0.226700  0.039100  1.0  0.081
  H  H206  1  0.056400  0.368000  0.875200  1.0  0.0995
  H  H207  1  0.015100  0.414100  0.915500  1.0  0.1168
  H  H208  1  0.976000  0.451300  0.961200  1.0  0.115
  H  H209  1  0.938300  0.491100  0.022400  1.0  0.1085
  H  H210  1  0.949900  0.335400  0.169800  1.0  0.0932
  H  H211  1  0.957100  0.646400  0.848200  1.0  0.0927
  H  H212  1  0.953900  0.642500  0.632900  1.0  0.1002
  H  H213  1  0.990700  0.721700  0.629500  1.0  0.1004
  H  H214  1  0.024600  0.796500  0.636900  1.0  0.1049
  H  H215  1  0.063600  0.866700  0.652500  1.0  0.1037
  H  H216  1  0.055400  0.839800  0.865500  1.0  0.0759
  H  H217  1  0.947500  0.250300  0.516500  1.0  0.0719
  H  H218  1  0.959300  0.411100  0.375300  1.0  0.0897
  H  H219  1  0.999300  0.440200  0.435900  1.0  0.1151
  H  H220  1  0.035600  0.459900  0.503900  1.0  0.1076
  H  H221  1  0.071500  0.480400  0.583500  1.0  0.1082
  H  H222  1  0.042000  0.321800  0.708600  1.0  0.0733
  H  H223  1  0.801500  0.416700  0.862100  1.0  0.0724
  H  H224  1  0.813000  0.629900  0.867700  1.0  0.1007
  H  H225  1  0.773200  0.639300  0.937300  1.0  0.0974
  H  H226  1  0.732100  0.638700  0.987900  1.0  0.1028
  H  H227  1  0.692100  0.628300  0.054700  1.0  0.106
  H  H228  1  0.704700  0.416200  0.065800  1.0  0.0861
  H  H229  1  0.802600  0.461300  0.036700  1.0  0.0764
  H  H230  1  0.830300  0.325600  0.189500  1.0  0.1028
  H  H231  1  0.794100  0.249900  0.164000  1.0  0.1135
  H  H232  1  0.755200  0.195700  0.152200  1.0  0.1248
  H  H233  1  0.711800  0.151000  0.139000  1.0  0.0968
  H  H234  1  0.698700  0.296000  0.981000  1.0  0.0742
  H  H235  1  0.798500  0.549800  0.391400  1.0  0.0665
  H  H236  1  0.824700  0.697100  0.251100  1.0  0.104
  H  H237  1  0.785600  0.764800  0.272300  1.0  0.1277
  H  H238  1  0.744800  0.813000  0.287600  1.0  0.1094
  H  H239  1  0.702400  0.858000  0.311700  1.0  0.1074
  H  H240  1  0.691500  0.700600  0.457000  1.0  0.0807
  H  H241  1  0.605800  0.575500  0.934600  1.0  0.4219
  H  H242  1  0.632000  0.549900  0.934300  1.0  0.409
  H  H243  1  0.598600  0.432600  0.060200  1.0  0.4215
  H  H244  1  0.616000  0.430400  0.118100  1.0  0.3733
  H  H245  1  0.445200  0.773300  0.539100  1.0  0.0819
  H  H246  1  0.443600  0.632000  0.375200  1.0  0.0995
  H  H247  1  0.484900  0.585900  0.415500  1.0  0.1164
  H  H248  1  0.524000  0.548700  0.461200  1.0  0.1147
  H  H249  1  0.561700  0.508900  0.522400  1.0  0.1087
  H  H250  1  0.550100  0.664600  0.669800  1.0  0.0921
  H  H251  1  0.542900  0.353600  0.348200  1.0  0.0919
  H  H252  1  0.546100  0.357500  0.132900  1.0  0.1001
  H  H253  1  0.509300  0.278300  0.129500  1.0  0.1007
  H  H254  1  0.475400  0.203500  0.136900  1.0  0.1048
  H  H255  1  0.436400  0.133300  0.152500  1.0  0.1038
  H  H256  1  0.444600  0.160200  0.365500  1.0  0.0764
  H  H257  1  0.552500  0.749700  0.016500  1.0  0.0716
  H  H258  1  0.540700  0.588900  0.875300  1.0  0.0898
  H  H259  1  0.500700  0.559800  0.935900  1.0  0.1146
  H  H260  1  0.464400  0.540100  0.003900  1.0  0.1078
  H  H261  1  0.428500  0.519600  0.083500  1.0  0.1084
  H  H262  1  0.458000  0.678200  0.208600  1.0  0.0735
  H  H263  1  0.698500  0.583300  0.362100  1.0  0.0719
  H  H264  1  0.687000  0.370100  0.367700  1.0  0.1001
  H  H265  1  0.726800  0.360700  0.437300  1.0  0.0973
  H  H266  1  0.767900  0.361300  0.487900  1.0  0.1028
  H  H267  1  0.807900  0.371700  0.554700  1.0  0.1061
  H  H268  1  0.795300  0.583800  0.565800  1.0  0.0861
  H  H269  1  0.697400  0.538700  0.536700  1.0  0.0768
  H  H270  1  0.669700  0.674400  0.689500  1.0  0.1018
  H  H271  1  0.705900  0.750100  0.664000  1.0  0.1133
  H  H272  1  0.744800  0.804300  0.652200  1.0  0.1246
  H  H273  1  0.788200  0.849000  0.639000  1.0  0.0962
  H  H274  1  0.801300  0.704000  0.481000  1.0  0.0737
  H  H275  1  0.701500  0.450200  0.891400  1.0  0.0659
  H  H276  1  0.675300  0.302900  0.751100  1.0  0.1029
  H  H277  1  0.714400  0.235200  0.772300  1.0  0.1274
  H  H278  1  0.755200  0.187000  0.787600  1.0  0.1093
  H  H279  1  0.797600  0.142000  0.811700  1.0  0.1074
  H  H280  1  0.808500  0.299400  0.957000  1.0  0.0809
  H  H281  1  0.105800  0.924500  0.065400  1.0  0.4219
  H  H282  1  0.132000  0.950100  0.065700  1.0  0.4095
  H  H283  1  0.098600  0.067400  0.939800  1.0  0.4216
  H  H284  1  0.116000  0.069600  0.881900  1.0  0.3734
  H  H285  1  0.945200  0.726700  0.460900  1.0  0.081
  H  H286  1  0.943600  0.868000  0.624800  1.0  0.0997
  H  H287  1  0.984900  0.914100  0.584500  1.0  0.1163
  H  H288  1  0.024000  0.951300  0.538800  1.0  0.1149
  H  H289  1  0.061700  0.991100  0.477600  1.0  0.108
  H  H290  1  0.050100  0.835400  0.330200  1.0  0.0924
  H  H291  1  0.042900  0.146400  0.651800  1.0  0.0917
  H  H292  1  0.046100  0.142500  0.867100  1.0  0.0997
  H  H293  1  0.009300  0.221700  0.870500  1.0  0.101
  H  H294  1  0.975400  0.296500  0.863100  1.0  0.1051
  H  H295  1  0.936400  0.366700  0.847500  1.0  0.1038
  H  H296  1  0.944600  0.339800  0.634500  1.0  0.0773
  H  H297  1  0.052500  0.750300  0.983500  1.0  0.0716
  H  H298  1  0.040700  0.911100  0.124700  1.0  0.0898
  H  H299  1  0.000700  0.940200  0.064100  1.0  0.1147
  H  H300  1  0.964400  0.959900  0.996100  1.0  0.1068
  H  H301  1  0.928500  0.980400  0.916500  1.0  0.108
  H  H302  1  0.958000  0.821800  0.791400  1.0  0.0743
  H  H303  1  0.198500  0.916700  0.637900  1.0  0.0725
  H  H304  1  0.187000  0.129900  0.632300  1.0  0.1005
  H  H305  1  0.226800  0.139300  0.562700  1.0  0.0977
  H  H306  1  0.267900  0.138700  0.512100  1.0  0.1025
  H  H307  1  0.307900  0.128300  0.445300  1.0  0.1066
  H  H308  1  0.295300  0.916200  0.434200  1.0  0.0856
  H  H309  1  0.197400  0.961300  0.463300  1.0  0.0759
  H  H310  1  0.169700  0.825600  0.310500  1.0  0.1024
  H  H311  1  0.205900  0.749900  0.336000  1.0  0.1131
  H  H312  1  0.244800  0.695700  0.347800  1.0  0.1246
  H  H313  1  0.288200  0.651000  0.361000  1.0  0.0966
  H  H314  1  0.301300  0.796000  0.519000  1.0  0.0733
  H  H315  1  0.201500  0.049800  0.108600  1.0  0.0668
  H  H316  1  0.175300  0.197100  0.248900  1.0  0.1028
  H  H317  1  0.214400  0.264800  0.227700  1.0  0.1276
  H  H318  1  0.255200  0.313000  0.212400  1.0  0.1095
  H  H319  1  0.297600  0.358000  0.188300  1.0  0.1073
  H  H320  1  0.308500  0.200600  0.043000  1.0  0.081
  H  H321  1  0.394200  0.075500  0.565400  1.0  0.4214
  H  H322  1  0.368000  0.049900  0.565700  1.0  0.4099
  H  H323  1  0.401400  0.932600  0.439800  1.0  0.4234
  H  H324  1  0.384000  0.930400  0.381900  1.0  0.3738
  H  H325  1  0.554800  0.273300  0.960900  1.0  0.0812
  H  H326  1  0.556400  0.132000  0.124800  1.0  0.0998
  H  H327  1  0.515100  0.085900  0.084500  1.0  0.1161
  H  H328  1  0.476000  0.048700  0.038800  1.0  0.115
  H  H329  1  0.438300  0.008900  0.977600  1.0  0.1083
  H  H330  1  0.449900  0.164600  0.830200  1.0  0.0926
  H  H331  1  0.457100  0.853600  0.151800  1.0  0.0919
  H  H332  1  0.453900  0.857500  0.367100  1.0  0.0997
  H  H333  1  0.490700  0.778300  0.370500  1.0  0.1008
  H  H334  1  0.524600  0.703500  0.363100  1.0  0.1047
  H  H335  1  0.563600  0.633300  0.347500  1.0  0.1034
  H  H336  1  0.555400  0.660200  0.134500  1.0  0.0767
  H  H337  1  0.447500  0.249700  0.483500  1.0  0.0724
  H  H338  1  0.459300  0.088900  0.624700  1.0  0.09
  H  H339  1  0.499300  0.059800  0.564100  1.0  0.1147
  H  H340  1  0.535600  0.040100  0.496100  1.0  0.1072
  H  H341  1  0.571500  0.019600  0.416500  1.0  0.1082
  H  H342  1  0.542000  0.178200  0.291400  1.0  0.0741
  H  H343  1  0.301500  0.083300  0.137900  1.0  0.0715
  H  H344  1  0.313000  0.870100  0.132300  1.0  0.101
  H  H345  1  0.273200  0.860700  0.062700  1.0  0.0976
  H  H346  1  0.232100  0.861300  0.012100  1.0  0.1023
  H  H347  1  0.192100  0.871700  0.945300  1.0  0.1058
  H  H348  1  0.204700  0.083800  0.934200  1.0  0.0861
  H  H349  1  0.302600  0.038700  0.963300  1.0  0.0761
  H  H350  1  0.330300  0.174400  0.810500  1.0  0.103
  H  H351  1  0.294100  0.250100  0.836000  1.0  0.1133
  H  H352  1  0.255200  0.304300  0.847800  1.0  0.1247
  H  H353  1  0.211800  0.349000  0.861000  1.0  0.0963
  H  H354  1  0.198700  0.204000  0.019000  1.0  0.0737
  H  H355  1  0.298500  0.950200  0.608600  1.0  0.066
  H  H356  1  0.324700  0.802900  0.748900  1.0  0.1035
  H  H357  1  0.285600  0.735200  0.727700  1.0  0.1273
  H  H358  1  0.244800  0.687000  0.712400  1.0  0.1089
  H  H359  1  0.202400  0.642000  0.688300  1.0  0.1077
  H  H360  1  0.191500  0.799400  0.543000  1.0  0.0809
  C  C361  1  0.914700  0.745800  0.073600  1.0  0.7301
  C  C362  1  0.953340  0.735900  0.986500  1.0  0.1598
  C  C363  1  0.940400  0.708900  0.047600  1.0  -0.1693
  C  C364  1  0.952080  0.651600  0.084400  1.0  -0.0273
  C  C365  1  0.976700  0.623900  0.060200  1.0  -0.1202
  C  C366  1  0.988780  0.653700  0.999300  1.0  0.1858
  C  C367  1  0.014090  0.628600  0.968500  1.0  0.0938
  C  C368  1  0.029160  0.570900  0.995800  1.0  -0.1224
  C  C369  1  0.051550  0.547000  0.959400  1.0  -0.0051
  C  C370  1  0.058930  0.580200  0.895100  1.0  -0.1593
  C  C371  1  0.044570  0.640500  0.871900  1.0  0.1592
  C  C372  1  0.082460  0.553000  0.848900  1.0  0.6902
  C  C373  1  0.072200  0.411600  0.259800  1.0  0.7074
  C  C374  1  0.036000  0.338800  0.196100  1.0  0.1438
  C  C375  1  0.047800  0.364100  0.259400  1.0  -0.1496
  C  C376  1  0.038200  0.341600  0.324400  1.0  -0.0681
  C  C377  1  0.016200  0.294400  0.326600  1.0  -0.1319
  C  C378  1  0.005000  0.272100  0.261400  1.0  0.1983
  C  C379  1  0.981100  0.223400  0.257600  1.0  0.175
  C  C380  1  0.968500  0.195000  0.316900  1.0  -0.1319
  C  C381  1  0.945300  0.153000  0.307800  1.0  0.0439
  C  C382  1  0.936000  0.141600  0.239400  1.0  -0.1607
  C  C383  1  0.950600  0.169900  0.181200  1.0  0.1717
  C  C384  1  0.911100  0.096700  0.226200  1.0  0.6838
  C  C385  1  0.077700  0.693700  0.599400  1.0  0.6653
  C  C386  1  0.042100  0.711100  0.500100  1.0  0.1184
  C  C387  1  0.051200  0.672500  0.561000  1.0  -0.1281
  C  C388  1  0.035390  0.615500  0.584300  1.0  0.0158
  C  C389  1  0.011600  0.597400  0.547800  1.0  -0.1283
  C  C390  1  0.004570  0.636800  0.486600  1.0  0.123
  C  C391  1  0.981130  0.620400  0.439400  1.0  0.1716
  C  C392  1  0.962700  0.567600  0.454200  1.0  -0.1137
  C  C393  1  0.941360  0.554800  0.406500  1.0  -0.0487
  C  C394  1  0.939780  0.596100  0.343300  1.0  -0.1684
  C  C395  1  0.958950  0.650100  0.333100  1.0  0.1773
  C  C396  1  0.917900  0.581600  0.288300  1.0  0.6555
  C  C397  1  0.163600  0.487600  0.187500  1.0  0.6826
  C  C398  1  0.203800  0.538000  0.121600  1.0  0.164
  C  C399  1  0.188600  0.479300  0.141800  1.0  -0.1731
  C  C400  1  0.196900  0.411000  0.119800  1.0  -0.0267
  C  C401  1  0.220700  0.405700  0.078100  1.0  -0.1104
  C  C402  1  0.234800  0.466600  0.060100  1.0  0.1673
  C  C403  1  0.259600  0.467200  0.015200  1.0  0.1306
  C  C404  1  0.273900  0.406400  0.996800  1.0  -0.1119
  C  C405  1  0.297400  0.412100  0.955500  1.0  -0.0013
  C  C406  1  0.304500  0.478200  0.930300  1.0  -0.1382
  C  C407  1  0.289600  0.538800  0.950500  1.0  0.1524
  C  C408  1  0.329400  0.491500  0.883300  1.0  0.6716
  C  C409  1  0.157900  0.543300  0.861400  1.0  0.6815
  C  C410  1  0.199280  0.580900  0.936300  1.0  0.1776
  C  C411  1  0.179810  0.596500  0.881400  1.0  -0.1503
  C  C412  1  0.182470  0.661100  0.844900  1.0  -0.0187
  C  C413  1  0.204220  0.706000  0.859700  1.0  -0.127
  C  C414  1  0.223680  0.684500  0.910300  1.0  0.1543
  C  C415  1  0.248900  0.723300  0.922900  1.0  0.1515
  C  C416  1  0.256700  0.783600  0.880700  1.0  -0.1887
  C  C417  1  0.282380  0.810700  0.889600  1.0  -0.0346
  C  C418  1  0.299900  0.780600  0.942000  1.0  -0.1416
  C  C419  1  0.290100  0.723600  0.983500  1.0  0.1636
  C  C420  1  0.328400  0.807900  0.949600  1.0  0.7014
  C  C421  1  0.160900  0.431500  0.702900  1.0  0.6651
  C  C422  1  0.204300  0.406900  0.633000  1.0  0.1733
  C  C423  1  0.185200  0.385000  0.683400  1.0  -0.1774
  C  C424  1  0.188500  0.319800  0.717300  1.0  0.0201
  C  C425  1  0.211600  0.279000  0.704300  1.0  -0.1298
  C  C426  1  0.230500  0.305900  0.654900  1.0  0.1645
  C  C427  1  0.256900  0.271000  0.640800  1.0  0.1012
  C  C428  1  0.266200  0.209200  0.678200  1.0  -0.125
  C  C429  1  0.291300  0.182400  0.663700  1.0  0.0322
  C  C430  1  0.307200  0.215400  0.612600  1.0  -0.188
  C  C431  1  0.297400  0.276500  0.576700  1.0  0.1411
  C  C432  1  0.335300  0.187700  0.590900  1.0  0.7183
  C  C433  1  0.585300  0.254200  0.573600  1.0  0.7311
  C  C434  1  0.546660  0.264100  0.486500  1.0  0.1592
  C  C435  1  0.559600  0.291100  0.547600  1.0  -0.1693
  C  C436  1  0.547920  0.348400  0.584400  1.0  -0.0278
  C  C437  1  0.523300  0.376100  0.560200  1.0  -0.1205
  C  C438  1  0.511220  0.346300  0.499300  1.0  0.1864
  C  C439  1  0.485910  0.371400  0.468500  1.0  0.0936
  C  C440  1  0.470840  0.429100  0.495800  1.0  -0.1212
  C  C441  1  0.448450  0.453000  0.459400  1.0  -0.0063
  C  C442  1  0.441070  0.419800  0.395100  1.0  -0.1598
  C  C443  1  0.455430  0.359500  0.371900  1.0  0.1592
  C  C444  1  0.417540  0.447000  0.348900  1.0  0.69
  C  C445  1  0.427800  0.588400  0.759800  1.0  0.7069
  C  C446  1  0.464000  0.661200  0.696100  1.0  0.1436
  C  C447  1  0.452200  0.635900  0.759400  1.0  -0.1507
  C  C448  1  0.461800  0.658400  0.824400  1.0  -0.0685
  C  C449  1  0.483800  0.705600  0.826600  1.0  -0.1324
  C  C450  1  0.495000  0.727900  0.761400  1.0  0.1984
  C  C451  1  0.518900  0.776600  0.757600  1.0  0.177
  C  C452  1  0.531500  0.805000  0.816900  1.0  -0.1314
  C  C453  1  0.554700  0.847000  0.807800  1.0  0.0427
  C  C454  1  0.564000  0.858400  0.739400  1.0  -0.1611
  C  C455  1  0.549400  0.830100  0.681200  1.0  0.1709
  C  C456  1  0.588900  0.903300  0.726200  1.0  0.6834
  C  C457  1  0.422300  0.306300  0.099400  1.0  0.667
  C  C458  1  0.457900  0.288900  0.000100  1.0  0.1169
  C  C459  1  0.448800  0.327500  0.061000  1.0  -0.1288
  C  C460  1  0.464610  0.384500  0.084300  1.0  0.0157
  C  C461  1  0.488400  0.402600  0.047800  1.0  -0.1282
  C  C462  1  0.495430  0.363200  0.986600  1.0  0.1225
  C  C463  1  0.518870  0.379600  0.939400  1.0  0.1707
  C  C464  1  0.537300  0.432400  0.954200  1.0  -0.1144
  C  C465  1  0.558640  0.445200  0.906500  1.0  -0.0493
  C  C466  1  0.560220  0.403900  0.843300  1.0  -0.1671
  C  C467  1  0.541050  0.349900  0.833100  1.0  0.1769
  C  C468  1  0.582100  0.418400  0.788300  1.0  0.6548
  C  C469  1  0.336400  0.512400  0.687500  1.0  0.6838
  C  C470  1  0.296200  0.462000  0.621600  1.0  0.1651
  C  C471  1  0.311400  0.520700  0.641800  1.0  -0.1738
  C  C472  1  0.303100  0.589000  0.619800  1.0  -0.0264
  C  C473  1  0.279300  0.594300  0.578100  1.0  -0.11
  C  C474  1  0.265200  0.533400  0.560100  1.0  0.1681
  C  C475  1  0.240400  0.532800  0.515200  1.0  0.1303
  C  C476  1  0.226100  0.593600  0.496800  1.0  -0.1108
  C  C477  1  0.202600  0.587900  0.455500  1.0  1e-04
  C  C478  1  0.195500  0.521800  0.430300  1.0  -0.1384
  C  C479  1  0.210400  0.461200  0.450500  1.0  0.1518
  C  C480  1  0.170600  0.508500  0.383300  1.0  0.6704
  C  C481  1  0.342100  0.456700  0.361400  1.0  0.6809
  C  C482  1  0.300720  0.419100  0.436300  1.0  0.1755
  C  C483  1  0.320190  0.403500  0.381400  1.0  -0.15
  C  C484  1  0.317530  0.338900  0.344900  1.0  -0.0172
  C  C485  1  0.295780  0.294000  0.359700  1.0  -0.1251
  C  C486  1  0.276320  0.315500  0.410300  1.0  0.1545
  C  C487  1  0.251100  0.276700  0.422900  1.0  0.1511
  C  C488  1  0.243300  0.216400  0.380700  1.0  -0.1882
  C  C489  1  0.217620  0.189300  0.389600  1.0  -0.0333
  C  C490  1  0.200100  0.219400  0.442000  1.0  -0.1383
  C  C491  1  0.209900  0.276400  0.483500  1.0  0.1631
  C  C492  1  0.171600  0.192100  0.449600  1.0  0.7025
  C  C493  1  0.339100  0.568500  0.202900  1.0  0.6643
  C  C494  1  0.295700  0.593100  0.133000  1.0  0.173
  C  C495  1  0.314800  0.615000  0.183400  1.0  -0.1778
  C  C496  1  0.311500  0.680200  0.217300  1.0  0.0195
  C  C497  1  0.288400  0.721000  0.204300  1.0  -0.1286
  C  C498  1  0.269500  0.694100  0.154900  1.0  0.1645
  C  C499  1  0.243100  0.729000  0.140800  1.0  0.1006
  C  C500  1  0.233800  0.790800  0.178200  1.0  -0.125
  C  C501  1  0.208700  0.817600  0.163700  1.0  0.0339
  C  C502  1  0.192800  0.784600  0.112600  1.0  -0.1876
  C  C503  1  0.202600  0.723500  0.076700  1.0  0.142
  C  C504  1  0.164700  0.812300  0.090900  1.0  0.72
  C  C505  1  0.085300  0.245800  0.426400  1.0  0.7316
  C  C506  1  0.046660  0.235900  0.513500  1.0  0.1592
  C  C507  1  0.059600  0.208900  0.452400  1.0  -0.1692
  C  C508  1  0.047920  0.151600  0.415600  1.0  -0.0274
  C  C509  1  0.023300  0.123900  0.439800  1.0  -0.1212
  C  C510  1  0.011220  0.153700  0.500700  1.0  0.1865
  C  C511  1  0.985910  0.128600  0.531500  1.0  0.095
  C  C512  1  0.970840  0.070900  0.504200  1.0  -0.1219
  C  C513  1  0.948450  0.047000  0.540600  1.0  -0.0068
  C  C514  1  0.941070  0.080200  0.604900  1.0  -0.1592
  C  C515  1  0.955430  0.140500  0.628100  1.0  0.1604
  C  C516  1  0.917540  0.053000  0.651100  1.0  0.69
  C  C517  1  0.927800  0.911600  0.240200  1.0  0.7069
  C  C518  1  0.964000  0.838800  0.303900  1.0  0.142
  C  C519  1  0.952200  0.864100  0.240600  1.0  -0.1488
  C  C520  1  0.961800  0.841600  0.175600  1.0  -0.0677
  C  C521  1  0.983800  0.794400  0.173400  1.0  -0.1317
  C  C522  1  0.995000  0.772100  0.238600  1.0  0.1982
  C  C523  1  0.018900  0.723400  0.242400  1.0  0.1761
  C  C524  1  0.031500  0.695000  0.183100  1.0  -0.1328
  C  C525  1  0.054700  0.653000  0.192200  1.0  0.0422
  C  C526  1  0.064000  0.641600  0.260600  1.0  -0.1612
  C  C527  1  0.049400  0.669900  0.318800  1.0  0.1723
  C  C528  1  0.088900  0.596700  0.273800  1.0  0.6843
  C  C529  1  0.922300  0.193700  0.900600  1.0  0.6672
  C  C530  1  0.957900  0.211100  0.999900  1.0  0.1179
  C  C531  1  0.948800  0.172500  0.939000  1.0  -0.1291
  C  C532  1  0.964610  0.115500  0.915700  1.0  0.0155
  C  C533  1  0.988400  0.097400  0.952200  1.0  -0.1293
  C  C534  1  0.995430  0.136800  0.013400  1.0  0.1229
  C  C535  1  0.018870  0.120400  0.060600  1.0  0.1709
  C  C536  1  0.037300  0.067600  0.045800  1.0  -0.1132
  C  C537  1  0.058640  0.054800  0.093500  1.0  -0.0495
  C  C538  1  0.060220  0.096100  0.156700  1.0  -0.1675
  C  C539  1  0.041050  0.150100  0.166900  1.0  0.1773
  C  C540  1  0.082100  0.081600  0.211700  1.0  0.6546
  C  C541  1  0.836400  0.987600  0.312500  1.0  0.6841
  C  C542  1  0.796200  0.038000  0.378400  1.0  0.1656
  C  C543  1  0.811400  0.979300  0.358200  1.0  -0.1737
  C  C544  1  0.803100  0.911000  0.380200  1.0  -0.027
  C  C545  1  0.779300  0.905700  0.421900  1.0  -0.1111
  C  C546  1  0.765200  0.966600  0.439900  1.0  0.1679
  C  C547  1  0.740400  0.967200  0.484800  1.0  0.1301
  C  C548  1  0.726100  0.906400  0.503200  1.0  -0.1104
  C  C549  1  0.702600  0.912100  0.544500  1.0  -0.001
  C  C550  1  0.695500  0.978200  0.569700  1.0  -0.1369
  C  C551  1  0.710400  0.038800  0.549500  1.0  0.1517
  C  C552  1  0.670600  0.991500  0.616700  1.0  0.6705
  C  C553  1  0.842100  0.043300  0.638600  1.0  0.6817
  C  C554  1  0.800720  0.080900  0.563700  1.0  0.1774
  C  C555  1  0.820190  0.096500  0.618600  1.0  -0.1491
  C  C556  1  0.817530  0.161100  0.655100  1.0  -0.0182
  C  C557  1  0.795780  0.206000  0.640300  1.0  -0.1258
  C  C558  1  0.776320  0.184500  0.589700  1.0  0.1544
  C  C559  1  0.751100  0.223300  0.577100  1.0  0.1508
  C  C560  1  0.743300  0.283600  0.619300  1.0  -0.1886
  C  C561  1  0.717620  0.310700  0.610400  1.0  -0.0336
  C  C562  1  0.700100  0.280600  0.558000  1.0  -0.1383
  C  C563  1  0.709900  0.223600  0.516500  1.0  0.1629
  C  C564  1  0.671600  0.307900  0.550400  1.0  0.7028
  C  C565  1  0.839100  0.931500  0.797100  1.0  0.6648
  C  C566  1  0.795700  0.906900  0.867000  1.0  0.1733
  C  C567  1  0.814800  0.885000  0.816600  1.0  -0.1779
  C  C568  1  0.811500  0.819800  0.782700  1.0  0.0208
  C  C569  1  0.788400  0.779000  0.795700  1.0  -0.1302
  C  C570  1  0.769500  0.805900  0.845100  1.0  0.1634
  C  C571  1  0.743100  0.771000  0.859200  1.0  0.1006
  C  C572  1  0.733800  0.709200  0.821800  1.0  -0.1255
  C  C573  1  0.708700  0.682400  0.836300  1.0  0.0349
  C  C574  1  0.692800  0.715400  0.887400  1.0  -0.1886
  C  C575  1  0.702600  0.776500  0.923300  1.0  0.1411
  C  C576  1  0.664700  0.687700  0.909100  1.0  0.7184
  C  C577  1  0.414700  0.754200  0.926400  1.0  0.7296
  C  C578  1  0.453340  0.764100  0.013500  1.0  0.1609
  C  C579  1  0.440400  0.791100  0.952400  1.0  -0.1697
  C  C580  1  0.452080  0.848400  0.915600  1.0  -0.0264
  C  C581  1  0.476700  0.876100  0.939800  1.0  -0.1204
  C  C582  1  0.488780  0.846300  0.000700  1.0  0.1867
  C  C583  1  0.514090  0.871400  0.031500  1.0  0.0938
  C  C584  1  0.529160  0.929100  0.004200  1.0  -0.1211
  C  C585  1  0.551550  0.953000  0.040600  1.0  -0.005
  C  C586  1  0.558930  0.919800  0.104900  1.0  -0.1591
  C  C587  1  0.544570  0.859500  0.128100  1.0  0.1592
  C  C588  1  0.582460  0.947000  0.151100  1.0  0.6913
  C  C589  1  0.572200  0.088400  0.740200  1.0  0.7076
  C  C590  1  0.536000  0.161200  0.803900  1.0  0.1448
  C  C591  1  0.547800  0.135900  0.740600  1.0  -0.1497
  C  C592  1  0.538200  0.158400  0.675600  1.0  -0.068
  C  C593  1  0.516200  0.205600  0.673400  1.0  -0.1319
  C  C594  1  0.505000  0.227900  0.738600  1.0  0.1985
  C  C595  1  0.481100  0.276600  0.742400  1.0  0.1755
  C  C596  1  0.468500  0.305000  0.683100  1.0  -0.1312
  C  C597  1  0.445300  0.347000  0.692200  1.0  0.0448
  C  C598  1  0.436000  0.358400  0.760600  1.0  -0.1591
  C  C599  1  0.450600  0.330100  0.818800  1.0  0.1715
  C  C600  1  0.411100  0.403300  0.773800  1.0  0.6837
  C  C601  1  0.577700  0.806300  0.400600  1.0  0.6664
  C  C602  1  0.542100  0.788900  0.499900  1.0  0.1188
  C  C603  1  0.551200  0.827500  0.439000  1.0  -0.1276
  C  C604  1  0.535390  0.884500  0.415700  1.0  0.0152
  C  C605  1  0.511600  0.902600  0.452200  1.0  -0.1285
  C  C606  1  0.504570  0.863200  0.513400  1.0  0.1231
  C  C607  1  0.481130  0.879600  0.560600  1.0  0.1717
  C  C608  1  0.462700  0.932400  0.545800  1.0  -0.1131
  C  C609  1  0.441360  0.945200  0.593500  1.0  -0.0487
  C  C610  1  0.439780  0.903900  0.656700  1.0  -0.168
  C  C611  1  0.458950  0.849900  0.666900  1.0  0.1768
  C  C612  1  0.417900  0.918400  0.711700  1.0  0.6548
  C  C613  1  0.663600  0.012400  0.812500  1.0  0.6831
  C  C614  1  0.703800  0.962000  0.878400  1.0  0.1653
  C  C615  1  0.688600  0.020700  0.858200  1.0  -0.1735
  C  C616  1  0.696900  0.089000  0.880200  1.0  -0.0263
  C  C617  1  0.720700  0.094300  0.921900  1.0  -0.1111
  C  C618  1  0.734800  0.033400  0.939900  1.0  0.1671
  C  C619  1  0.759600  0.032800  0.984800  1.0  0.1305
  C  C620  1  0.773900  0.093600  0.003200  1.0  -0.1107
  C  C621  1  0.797400  0.087900  0.044500  1.0  -0.0008
  C  C622  1  0.804500  0.021800  0.069700  1.0  -0.1368
  C  C623  1  0.789600  0.961200  0.049500  1.0  0.1524
  C  C624  1  0.829400  0.008500  0.116700  1.0  0.672
  C  C625  1  0.657900  0.956700  0.138600  1.0  0.6812
  C  C626  1  0.699280  0.919100  0.063700  1.0  0.176
  C  C627  1  0.679810  0.903500  0.118600  1.0  -0.1497
  C  C628  1  0.682470  0.838900  0.155100  1.0  -0.0185
  C  C629  1  0.704220  0.794000  0.140300  1.0  -0.1276
  C  C630  1  0.723680  0.815500  0.089700  1.0  0.154
  C  C631  1  0.748900  0.776700  0.077100  1.0  0.1515
  C  C632  1  0.756700  0.716400  0.119300  1.0  -0.1886
  C  C633  1  0.782380  0.689300  0.110400  1.0  -0.0331
  C  C634  1  0.799900  0.719400  0.058000  1.0  -0.1414
  C  C635  1  0.790100  0.776400  0.016500  1.0  0.1636
  C  C636  1  0.828400  0.692100  0.050400  1.0  0.7014
  C  C637  1  0.660900  0.068500  0.297100  1.0  0.6648
  C  C638  1  0.704300  0.093100  0.367000  1.0  0.1743
  C  C639  1  0.685200  0.115000  0.316600  1.0  -0.1785
  C  C640  1  0.688500  0.180200  0.282700  1.0  0.0197
  C  C641  1  0.711600  0.221000  0.295700  1.0  -0.1282
  C  C642  1  0.730500  0.194100  0.345100  1.0  0.1642
  C  C643  1  0.756900  0.229000  0.359200  1.0  0.1005
  C  C644  1  0.766200  0.290800  0.321800  1.0  -0.1247
  C  C645  1  0.791300  0.317600  0.336300  1.0  0.0335
  C  C646  1  0.807200  0.284600  0.387400  1.0  -0.1889
  C  C647  1  0.797400  0.223500  0.423300  1.0  0.1408
  C  C648  1  0.835300  0.312300  0.409100  1.0  0.7193
  C  C649  1  0.085300  0.254200  0.926400  1.0  0.7308
  C  C650  1  0.046660  0.264100  0.013500  1.0  0.1587
  C  C651  1  0.059600  0.291100  0.952400  1.0  -0.1693
  C  C652  1  0.047920  0.348400  0.915600  1.0  -0.0272
  C  C653  1  0.023300  0.376100  0.939800  1.0  -0.1209
  C  C654  1  0.011220  0.346300  0.000700  1.0  0.187
  C  C655  1  0.985910  0.371400  0.031500  1.0  0.0942
  C  C656  1  0.970840  0.429100  0.004200  1.0  -0.1203
  C  C657  1  0.948450  0.453000  0.040600  1.0  -0.0064
  C  C658  1  0.941070  0.419800  0.104900  1.0  -0.1592
  C  C659  1  0.955430  0.359500  0.128100  1.0  0.1597
  C  C660  1  0.917540  0.447000  0.151100  1.0  0.6903
  C  C661  1  0.927800  0.588400  0.740200  1.0  0.7071
  C  C662  1  0.964000  0.661200  0.803900  1.0  0.1442
  C  C663  1  0.952200  0.635900  0.740600  1.0  -0.1494
  C  C664  1  0.961800  0.658400  0.675600  1.0  -0.0685
  C  C665  1  0.983800  0.705600  0.673400  1.0  -0.1317
  C  C666  1  0.995000  0.727900  0.738600  1.0  0.1984
  C  C667  1  0.018900  0.776600  0.742400  1.0  0.1768
  C  C668  1  0.031500  0.805000  0.683100  1.0  -0.1322
  C  C669  1  0.054700  0.847000  0.692200  1.0  0.043
  C  C670  1  0.064000  0.858400  0.760600  1.0  -0.1613
  C  C671  1  0.049400  0.830100  0.818800  1.0  0.1709
  C  C672  1  0.088900  0.903300  0.773800  1.0  0.684
  C  C673  1  0.922300  0.306300  0.400600  1.0  0.6668
  C  C674  1  0.957900  0.288900  0.499900  1.0  0.1172
  C  C675  1  0.948800  0.327500  0.439000  1.0  -0.1288
  C  C676  1  0.964610  0.384500  0.415700  1.0  0.0156
  C  C677  1  0.988400  0.402600  0.452200  1.0  -0.1291
  C  C678  1  0.995430  0.363200  0.513400  1.0  0.1225
  C  C679  1  0.018870  0.379600  0.560600  1.0  0.171
  C  C680  1  0.037300  0.432400  0.545800  1.0  -0.1134
  C  C681  1  0.058640  0.445200  0.593500  1.0  -0.0493
  C  C682  1  0.060220  0.403900  0.656700  1.0  -0.1674
  C  C683  1  0.041050  0.349900  0.666900  1.0  0.177
  C  C684  1  0.082100  0.418400  0.711700  1.0  0.6548
  C  C685  1  0.836400  0.512400  0.812500  1.0  0.6838
  C  C686  1  0.796200  0.462000  0.878400  1.0  0.1653
  C  C687  1  0.811400  0.520700  0.858200  1.0  -0.1736
  C  C688  1  0.803100  0.589000  0.880200  1.0  -0.027
  C  C689  1  0.779300  0.594300  0.921900  1.0  -0.1108
  C  C690  1  0.765200  0.533400  0.939900  1.0  0.168
  C  C691  1  0.740400  0.532800  0.984800  1.0  0.1302
  C  C692  1  0.726100  0.593600  0.003200  1.0  -0.11
  C  C693  1  0.702600  0.587900  0.044500  1.0  -0.0002
  C  C694  1  0.695500  0.521800  0.069700  1.0  -0.1366
  C  C695  1  0.710400  0.461200  0.049500  1.0  0.152
  C  C696  1  0.670600  0.508500  0.116700  1.0  0.6704
  C  C697  1  0.842100  0.456700  0.138600  1.0  0.6813
  C  C698  1  0.800720  0.419100  0.063700  1.0  0.1759
  C  C699  1  0.820190  0.403500  0.118600  1.0  -0.1501
  C  C700  1  0.817530  0.338900  0.155100  1.0  -0.0173
  C  C701  1  0.795780  0.294000  0.140300  1.0  -0.1257
  C  C702  1  0.776320  0.315500  0.089700  1.0  0.1543
  C  C703  1  0.751100  0.276700  0.077100  1.0  0.151
  C  C704  1  0.743300  0.216400  0.119300  1.0  -0.1883
  C  C705  1  0.717620  0.189300  0.110400  1.0  -0.0329
  C  C706  1  0.700100  0.219400  0.058000  1.0  -0.138
  C  C707  1  0.709900  0.276400  0.016500  1.0  0.1631
  C  C708  1  0.671600  0.192100  0.050400  1.0  0.7026
  C  C709  1  0.839100  0.568500  0.297100  1.0  0.6642
  C  C710  1  0.795700  0.593100  0.367000  1.0  0.174
  C  C711  1  0.814800  0.615000  0.316600  1.0  -0.1778
  C  C712  1  0.811500  0.680200  0.282700  1.0  0.0198
  C  C713  1  0.788400  0.721000  0.295700  1.0  -0.1292
  C  C714  1  0.769500  0.694100  0.345100  1.0  0.1636
  C  C715  1  0.743100  0.729000  0.359200  1.0  0.1003
  C  C716  1  0.733800  0.790800  0.321800  1.0  -0.1255
  C  C717  1  0.708700  0.817600  0.336300  1.0  0.0351
  C  C718  1  0.692800  0.784600  0.387400  1.0  -0.1887
  C  C719  1  0.702600  0.723500  0.423300  1.0  0.1418
  C  C720  1  0.664700  0.812300  0.409100  1.0  0.7199
  C  C721  1  0.414700  0.745800  0.426400  1.0  0.7303
  C  C722  1  0.453340  0.735900  0.513500  1.0  0.1605
  C  C723  1  0.440400  0.708900  0.452400  1.0  -0.1698
  C  C724  1  0.452080  0.651600  0.415600  1.0  -0.0272
  C  C725  1  0.476700  0.623900  0.439800  1.0  -0.1204
  C  C726  1  0.488780  0.653700  0.500700  1.0  0.1861
  C  C727  1  0.514090  0.628600  0.531500  1.0  0.0942
  C  C728  1  0.529160  0.570900  0.504200  1.0  -0.1224
  C  C729  1  0.551550  0.547000  0.540600  1.0  -0.0048
  C  C730  1  0.558930  0.580200  0.604900  1.0  -0.1592
  C  C731  1  0.544570  0.640500  0.628100  1.0  0.1596
  C  C732  1  0.582460  0.553000  0.651100  1.0  0.6907
  C  C733  1  0.572200  0.411600  0.240200  1.0  0.7077
  C  C734  1  0.536000  0.338800  0.303900  1.0  0.1432
  C  C735  1  0.547800  0.364100  0.240600  1.0  -0.1493
  C  C736  1  0.538200  0.341600  0.175600  1.0  -0.0675
  C  C737  1  0.516200  0.294400  0.173400  1.0  -0.1319
  C  C738  1  0.505000  0.272100  0.238600  1.0  0.1985
  C  C739  1  0.481100  0.223400  0.242400  1.0  0.1749
  C  C740  1  0.468500  0.195000  0.183100  1.0  -0.1315
  C  C741  1  0.445300  0.153000  0.192200  1.0  0.0434
  C  C742  1  0.436000  0.141600  0.260600  1.0  -0.1605
  C  C743  1  0.450600  0.169900  0.318800  1.0  0.1724
  C  C744  1  0.411100  0.096700  0.273800  1.0  0.6839
  C  C745  1  0.577700  0.693700  0.900600  1.0  0.6651
  C  C746  1  0.542100  0.711100  0.999900  1.0  0.1189
  C  C747  1  0.551200  0.672500  0.939000  1.0  -0.1278
  C  C748  1  0.535390  0.615500  0.915700  1.0  0.0154
  C  C749  1  0.511600  0.597400  0.952200  1.0  -0.1292
  C  C750  1  0.504570  0.636800  0.013400  1.0  0.1231
  C  C751  1  0.481130  0.620400  0.060600  1.0  0.1719
  C  C752  1  0.462700  0.567600  0.045800  1.0  -0.1131
  C  C753  1  0.441360  0.554800  0.093500  1.0  -0.049
  C  C754  1  0.439780  0.596100  0.156700  1.0  -0.1679
  C  C755  1  0.458950  0.650100  0.166900  1.0  0.1773
  C  C756  1  0.417900  0.581600  0.211700  1.0  0.6549
  C  C757  1  0.663600  0.487600  0.312500  1.0  0.6831
  C  C758  1  0.703800  0.538000  0.378400  1.0  0.1648
  C  C759  1  0.688600  0.479300  0.358200  1.0  -0.1733
  C  C760  1  0.696900  0.411000  0.380200  1.0  -0.0264
  C  C761  1  0.720700  0.405700  0.421900  1.0  -0.111
  C  C762  1  0.734800  0.466600  0.439900  1.0  0.1672
  C  C763  1  0.759600  0.467200  0.484800  1.0  0.1305
  C  C764  1  0.773900  0.406400  0.503200  1.0  -0.1114
  C  C765  1  0.797400  0.412100  0.544500  1.0  -0.0016
  C  C766  1  0.804500  0.478200  0.569700  1.0  -0.137
  C  C767  1  0.789600  0.538800  0.549500  1.0  0.1527
  C  C768  1  0.829400  0.491500  0.616700  1.0  0.672
  C  C769  1  0.657900  0.543300  0.638600  1.0  0.6819
  C  C770  1  0.699280  0.580900  0.563700  1.0  0.177
  C  C771  1  0.679810  0.596500  0.618600  1.0  -0.1504
  C  C772  1  0.682470  0.661100  0.655100  1.0  -0.0188
  C  C773  1  0.704220  0.706000  0.640300  1.0  -0.127
  C  C774  1  0.723680  0.684500  0.589700  1.0  0.1543
  C  C775  1  0.748900  0.723300  0.577100  1.0  0.1514
  C  C776  1  0.756700  0.783600  0.619300  1.0  -0.1886
  C  C777  1  0.782380  0.810700  0.610400  1.0  -0.0343
  C  C778  1  0.799900  0.780600  0.558000  1.0  -0.1416
  C  C779  1  0.790100  0.723600  0.516500  1.0  0.1635
  C  C780  1  0.828400  0.807900  0.550400  1.0  0.7014
  C  C781  1  0.660900  0.431500  0.797100  1.0  0.6651
  C  C782  1  0.704300  0.406900  0.867000  1.0  0.1733
  C  C783  1  0.685200  0.385000  0.816600  1.0  -0.1775
  C  C784  1  0.688500  0.319800  0.782700  1.0  0.0202
  C  C785  1  0.711600  0.279000  0.795700  1.0  -0.1301
  C  C786  1  0.730500  0.305900  0.845100  1.0  0.1639
  C  C787  1  0.756900  0.271000  0.859200  1.0  0.1008
  C  C788  1  0.766200  0.209200  0.821800  1.0  -0.1247
  C  C789  1  0.791300  0.182400  0.836300  1.0  0.0332
  C  C790  1  0.807200  0.215400  0.887400  1.0  -0.1887
  C  C791  1  0.797400  0.276500  0.923300  1.0  0.1408
  C  C792  1  0.835300  0.187700  0.909100  1.0  0.7184
  C  C793  1  0.914700  0.754200  0.573600  1.0  0.7296
  C  C794  1  0.953340  0.764100  0.486500  1.0  0.1609
  C  C795  1  0.940400  0.791100  0.547600  1.0  -0.1692
  C  C796  1  0.952080  0.848400  0.584400  1.0  -0.027
  C  C797  1  0.976700  0.876100  0.560200  1.0  -0.12
  C  C798  1  0.988780  0.846300  0.499300  1.0  0.1861
  C  C799  1  0.014090  0.871400  0.468500  1.0  0.0932
  C  C800  1  0.029160  0.929100  0.495800  1.0  -0.1213
  C  C801  1  0.051550  0.953000  0.459400  1.0  -0.0053
  C  C802  1  0.058930  0.919800  0.395100  1.0  -0.1588
  C  C803  1  0.044570  0.859500  0.371900  1.0  0.1591
  C  C804  1  0.082460  0.947000  0.348900  1.0  0.6907
  C  C805  1  0.072200  0.088400  0.759800  1.0  0.707
  C  C806  1  0.036000  0.161200  0.696100  1.0  0.1441
  C  C807  1  0.047800  0.135900  0.759400  1.0  -0.1504
  C  C808  1  0.038200  0.158400  0.824400  1.0  -0.0688
  C  C809  1  0.016200  0.205600  0.826600  1.0  -0.1323
  C  C810  1  0.005000  0.227900  0.761400  1.0  0.1985
  C  C811  1  0.981100  0.276600  0.757600  1.0  0.1755
  C  C812  1  0.968500  0.305000  0.816900  1.0  -0.1309
  C  C813  1  0.945300  0.347000  0.807800  1.0  0.0443
  C  C814  1  0.936000  0.358400  0.739400  1.0  -0.1593
  C  C815  1  0.950600  0.330100  0.681200  1.0  0.1712
  C  C816  1  0.911100  0.403300  0.726200  1.0  0.6836
  C  C817  1  0.077700  0.806300  0.099400  1.0  0.6668
  C  C818  1  0.042100  0.788900  0.000100  1.0  0.1185
  C  C819  1  0.051200  0.827500  0.061000  1.0  -0.1279
  C  C820  1  0.035390  0.884500  0.084300  1.0  0.0157
  C  C821  1  0.011600  0.902600  0.047800  1.0  -0.1276
  C  C822  1  0.004570  0.863200  0.986600  1.0  0.1232
  C  C823  1  0.981130  0.879600  0.939400  1.0  0.1716
  C  C824  1  0.962700  0.932400  0.954200  1.0  -0.1141
  C  C825  1  0.941360  0.945200  0.906500  1.0  -0.0487
  C  C826  1  0.939780  0.903900  0.843300  1.0  -0.1684
  C  C827  1  0.958950  0.849900  0.833100  1.0  0.177
  C  C828  1  0.917900  0.918400  0.788300  1.0  0.6552
  C  C829  1  0.163600  0.012400  0.687500  1.0  0.6825
  C  C830  1  0.203800  0.962000  0.621600  1.0  0.1646
  C  C831  1  0.188600  0.020700  0.641800  1.0  -0.1729
  C  C832  1  0.196900  0.089000  0.619800  1.0  -0.0264
  C  C833  1  0.220700  0.094300  0.578100  1.0  -0.1104
  C  C834  1  0.234800  0.033400  0.560100  1.0  0.1674
  C  C835  1  0.259600  0.032800  0.515200  1.0  0.1305
  C  C836  1  0.273900  0.093600  0.496800  1.0  -0.1113
  C  C837  1  0.297400  0.087900  0.455500  1.0  -0.0007
  C  C838  1  0.304500  0.021800  0.430300  1.0  -0.1381
  C  C839  1  0.289600  0.961200  0.450500  1.0  0.1521
  C  C840  1  0.329400  0.008500  0.383300  1.0  0.6716
  C  C841  1  0.157900  0.956700  0.361400  1.0  0.681
  C  C842  1  0.199280  0.919100  0.436300  1.0  0.1758
  C  C843  1  0.179810  0.903500  0.381400  1.0  -0.1495
  C  C844  1  0.182470  0.838900  0.344900  1.0  -0.0185
  C  C845  1  0.204220  0.794000  0.359700  1.0  -0.1268
  C  C846  1  0.223680  0.815500  0.410300  1.0  0.1544
  C  C847  1  0.248900  0.776700  0.422900  1.0  0.1517
  C  C848  1  0.256700  0.716400  0.380700  1.0  -0.1883
  C  C849  1  0.282380  0.689300  0.389600  1.0  -0.0339
  C  C850  1  0.299900  0.719400  0.442000  1.0  -0.1416
  C  C851  1  0.290100  0.776400  0.483500  1.0  0.1636
  C  C852  1  0.328400  0.692100  0.449600  1.0  0.7015
  C  C853  1  0.160900  0.068500  0.202900  1.0  0.6648
  C  C854  1  0.204300  0.093100  0.133000  1.0  0.1735
  C  C855  1  0.185200  0.115000  0.183400  1.0  -0.1784
  C  C856  1  0.188500  0.180200  0.217300  1.0  0.0194
  C  C857  1  0.211600  0.221000  0.204300  1.0  -0.1277
  C  C858  1  0.230500  0.194100  0.154900  1.0  0.1649
  C  C859  1  0.256900  0.229000  0.140800  1.0  0.1011
  C  C860  1  0.266200  0.290800  0.178200  1.0  -0.1247
  C  C861  1  0.291300  0.317600  0.163700  1.0  0.0329
  C  C862  1  0.307200  0.284600  0.112600  1.0  -0.1881
  C  C863  1  0.297400  0.223500  0.076700  1.0  0.141
  C  C864  1  0.335300  0.312300  0.090900  1.0  0.7192
  C  C865  1  0.585300  0.245800  0.073600  1.0  0.7318
  C  C866  1  0.546660  0.235900  0.986500  1.0  0.1588
  C  C867  1  0.559600  0.208900  0.047600  1.0  -0.1692
  C  C868  1  0.547920  0.151600  0.084400  1.0  -0.0275
  C  C869  1  0.523300  0.123900  0.060200  1.0  -0.1209
  C  C870  1  0.511220  0.153700  0.999300  1.0  0.1861
  C  C871  1  0.485910  0.128600  0.968500  1.0  0.0946
  C  C872  1  0.470840  0.070900  0.995800  1.0  -0.1223
  C  C873  1  0.448450  0.047000  0.959400  1.0  -0.0069
  C  C874  1  0.441070  0.080200  0.895100  1.0  -0.1601
  C  C875  1  0.455430  0.140500  0.871900  1.0  0.1594
  C  C876  1  0.417540  0.053000  0.848900  1.0  0.6897
  C  C877  1  0.427800  0.911600  0.259800  1.0  0.7071
  C  C878  1  0.464000  0.838800  0.196100  1.0  0.1427
  C  C879  1  0.452200  0.864100  0.259400  1.0  -0.1496
  C  C880  1  0.461800  0.841600  0.324400  1.0  -0.0679
  C  C881  1  0.483800  0.794400  0.326600  1.0  -0.1319
  C  C882  1  0.495000  0.772100  0.261400  1.0  0.1982
  C  C883  1  0.518900  0.723400  0.257600  1.0  0.1762
  C  C884  1  0.531500  0.695000  0.316900  1.0  -0.1325
  C  C885  1  0.554700  0.653000  0.307800  1.0  0.0426
  C  C886  1  0.564000  0.641600  0.239400  1.0  -0.1612
  C  C887  1  0.549400  0.669900  0.181200  1.0  0.1718
  C  C888  1  0.588900  0.596700  0.226200  1.0  0.6838
  C  C889  1  0.422300  0.193700  0.599400  1.0  0.6671
  C  C890  1  0.457900  0.211100  0.500100  1.0  0.1175
  C  C891  1  0.448800  0.172500  0.561000  1.0  -0.1292
  C  C892  1  0.464610  0.115500  0.584300  1.0  0.0154
  C  C893  1  0.488400  0.097400  0.547800  1.0  -0.1285
  C  C894  1  0.495430  0.136800  0.486600  1.0  0.1227
  C  C895  1  0.518870  0.120400  0.439400  1.0  0.1706
  C  C896  1  0.537300  0.067600  0.454200  1.0  -0.1138
  C  C897  1  0.558640  0.054800  0.406500  1.0  -0.0493
  C  C898  1  0.560220  0.096100  0.343300  1.0  -0.1672
  C  C899  1  0.541050  0.150100  0.333100  1.0  0.1769
  C  C900  1  0.582100  0.081600  0.288300  1.0  0.6548
  C  C901  1  0.336400  0.987600  0.187500  1.0  0.6841
  C  C902  1  0.296200  0.038000  0.121600  1.0  0.165
  C  C903  1  0.311400  0.979300  0.141800  1.0  -0.174
  C  C904  1  0.303100  0.911000  0.119800  1.0  -0.0267
  C  C905  1  0.279300  0.905700  0.078100  1.0  -0.1102
  C  C906  1  0.265200  0.966600  0.060100  1.0  0.168
  C  C907  1  0.240400  0.967200  0.015200  1.0  0.1303
  C  C908  1  0.226100  0.906400  0.996800  1.0  -0.1109
  C  C909  1  0.202600  0.912100  0.955500  1.0  -0.0004
  C  C910  1  0.195500  0.978200  0.930300  1.0  -0.1384
  C  C911  1  0.210400  0.038800  0.950500  1.0  0.1518
  C  C912  1  0.170600  0.991500  0.883300  1.0  0.6704
  C  C913  1  0.342100  0.043300  0.861400  1.0  0.6813
  C  C914  1  0.300720  0.080900  0.936300  1.0  0.1776
  C  C915  1  0.320190  0.096500  0.881400  1.0  -0.1491
  C  C916  1  0.317530  0.161100  0.844900  1.0  -0.018
  C  C917  1  0.295780  0.206000  0.859700  1.0  -0.1262
  C  C918  1  0.276320  0.184500  0.910300  1.0  0.1543
  C  C919  1  0.251100  0.223300  0.922900  1.0  0.151
  C  C920  1  0.243300  0.283600  0.880700  1.0  -0.1887
  C  C921  1  0.217620  0.310700  0.889600  1.0  -0.0333
  C  C922  1  0.200100  0.280600  0.942000  1.0  -0.1384
  C  C923  1  0.209900  0.223600  0.983500  1.0  0.1629
  C  C924  1  0.171600  0.307900  0.949600  1.0  0.7027
  C  C925  1  0.339100  0.931500  0.702900  1.0  0.6649
  C  C926  1  0.295700  0.906900  0.633000  1.0  0.1729
  C  C927  1  0.314800  0.885000  0.683400  1.0  -0.178
  C  C928  1  0.311500  0.819800  0.717300  1.0  0.0208
  C  C929  1  0.288400  0.779000  0.704300  1.0  -0.1297
  C  C930  1  0.269500  0.805900  0.654900  1.0  0.1643
  C  C931  1  0.243100  0.771000  0.640800  1.0  0.1008
  C  C932  1  0.233800  0.709200  0.678200  1.0  -0.1251
  C  C933  1  0.208700  0.682400  0.663700  1.0  0.0334
  C  C934  1  0.192800  0.715400  0.612600  1.0  -0.1877
  C  C935  1  0.202600  0.776500  0.576700  1.0  0.1415
  C  C936  1  0.164700  0.687700  0.590900  1.0  0.7182
  N  N937  1  0.977310  0.710000  0.962700  1.0  -0.3085
  N  N938  1  0.022920  0.664400  0.908400  1.0  -0.3307
  N  N939  1  0.014360  0.292600  0.197300  1.0  -0.2761
  N  N940  1  0.972710  0.210200  0.189700  1.0  -0.3125
  N  N941  1  0.019440  0.694600  0.465500  1.0  -0.319
  N  N942  1  0.978670  0.663300  0.380900  1.0  -0.3246
  N  N943  1  0.225970  0.533800  0.079700  1.0  -0.3387
  N  N944  1  0.267480  0.534700  0.992700  1.0  -0.3587
  N  N945  1  0.219810  0.624300  0.950100  1.0  -0.3438
  N  N946  1  0.265430  0.696000  0.974500  1.0  -0.3213
  N  N947  1  0.226720  0.368600  0.617700  1.0  -0.3594
  N  N948  1  0.272610  0.303100  0.589500  1.0  -0.314
  N  N949  1  0.522690  0.290000  0.462700  1.0  -0.3085
  N  N950  1  0.477080  0.335600  0.408400  1.0  -0.3301
  N  N951  1  0.485640  0.707400  0.697300  1.0  -0.2761
  N  N952  1  0.527290  0.789800  0.689700  1.0  -0.3122
  N  N953  1  0.480560  0.305400  0.965500  1.0  -0.3193
  N  N954  1  0.521330  0.336700  0.880900  1.0  -0.3229
  N  N955  1  0.274030  0.466200  0.579700  1.0  -0.3394
  N  N956  1  0.232520  0.465300  0.492700  1.0  -0.3591
  N  N957  1  0.280190  0.375700  0.450100  1.0  -0.3451
  N  N958  1  0.234570  0.304000  0.474500  1.0  -0.3229
  N  N959  1  0.273280  0.631400  0.117700  1.0  -0.3597
  N  N960  1  0.227390  0.696900  0.089500  1.0  -0.3148
  N  N961  1  0.022690  0.210000  0.537300  1.0  -0.3088
  N  N962  1  0.977080  0.164400  0.591600  1.0  -0.3297
  N  N963  1  0.985640  0.792600  0.302700  1.0  -0.2762
  N  N964  1  0.027290  0.710200  0.310300  1.0  -0.3128
  N  N965  1  0.980560  0.194600  0.034500  1.0  -0.3188
  N  N966  1  0.021330  0.163300  0.119100  1.0  -0.3243
  N  N967  1  0.774030  0.033800  0.420300  1.0  -0.339
  N  N968  1  0.732520  0.034700  0.507300  1.0  -0.3598
  N  N969  1  0.780190  0.124300  0.549900  1.0  -0.3447
  N  N970  1  0.734570  0.196000  0.525500  1.0  -0.3229
  N  N971  1  0.773280  0.868600  0.882300  1.0  -0.3599
  N  N972  1  0.727390  0.803100  0.910500  1.0  -0.3146
  N  N973  1  0.477310  0.790000  0.037300  1.0  -0.3082
  N  N974  1  0.522920  0.835600  0.091600  1.0  -0.3313
  N  N975  1  0.514360  0.207400  0.802700  1.0  -0.2758
  N  N976  1  0.472710  0.289800  0.810300  1.0  -0.3125
  N  N977  1  0.519440  0.805400  0.534500  1.0  -0.3185
  N  N978  1  0.478670  0.836700  0.619100  1.0  -0.3243
  N  N979  1  0.725970  0.966200  0.920300  1.0  -0.3381
  N  N980  1  0.767480  0.965300  0.007300  1.0  -0.359
  N  N981  1  0.719810  0.875700  0.049900  1.0  -0.3446
  N  N982  1  0.765430  0.804000  0.025500  1.0  -0.3218
  N  N983  1  0.726720  0.131400  0.382300  1.0  -0.358
  N  N984  1  0.772610  0.196900  0.410500  1.0  -0.3134
  N  N985  1  0.022690  0.290000  0.037300  1.0  -0.3086
  N  N986  1  0.977080  0.335600  0.091600  1.0  -0.3303
  N  N987  1  0.985640  0.707400  0.802700  1.0  -0.2758
  N  N988  1  0.027290  0.789800  0.810300  1.0  -0.3124
  N  N989  1  0.980560  0.305400  0.534500  1.0  -0.3188
  N  N990  1  0.021330  0.336700  0.619100  1.0  -0.3235
  N  N991  1  0.774030  0.466200  0.920300  1.0  -0.3393
  N  N992  1  0.732520  0.465300  0.007300  1.0  -0.3594
  N  N993  1  0.780190  0.375700  0.049900  1.0  -0.3449
  N  N994  1  0.734570  0.304000  0.025500  1.0  -0.323
  N  N995  1  0.773280  0.631400  0.382300  1.0  -0.3592
  N  N996  1  0.727390  0.696900  0.410500  1.0  -0.3141
  N  N997  1  0.477310  0.710000  0.537300  1.0  -0.3081
  N  N998  1  0.522920  0.664400  0.591600  1.0  -0.3311
  N  N999  1  0.514360  0.292600  0.302700  1.0  -0.2758
  N  N1000  1  0.472710  0.210200  0.310300  1.0  -0.3127
  N  N1001  1  0.519440  0.694600  0.034500  1.0  -0.3184
  N  N1002  1  0.478670  0.663300  0.119100  1.0  -0.325
  N  N1003  1  0.725970  0.533800  0.420300  1.0  -0.3381
  N  N1004  1  0.767480  0.534700  0.507300  1.0  -0.3592
  N  N1005  1  0.719810  0.624300  0.549900  1.0  -0.344
  N  N1006  1  0.765430  0.696000  0.525500  1.0  -0.3218
  N  N1007  1  0.726720  0.368600  0.882300  1.0  -0.3587
  N  N1008  1  0.772610  0.303100  0.910500  1.0  -0.3139
  N  N1009  1  0.977310  0.790000  0.462700  1.0  -0.3084
  N  N1010  1  0.022920  0.835600  0.408400  1.0  -0.3309
  N  N1011  1  0.014360  0.207400  0.697300  1.0  -0.2759
  N  N1012  1  0.972710  0.289800  0.689700  1.0  -0.3124
  N  N1013  1  0.019440  0.805400  0.965500  1.0  -0.3189
  N  N1014  1  0.978670  0.836700  0.880900  1.0  -0.3235
  N  N1015  1  0.225970  0.966200  0.579700  1.0  -0.3383
  N  N1016  1  0.267480  0.965300  0.492700  1.0  -0.3587
  N  N1017  1  0.219810  0.875700  0.450100  1.0  -0.3442
  N  N1018  1  0.265430  0.804000  0.474500  1.0  -0.3218
  N  N1019  1  0.226720  0.131400  0.117700  1.0  -0.3585
  N  N1020  1  0.272610  0.196900  0.089500  1.0  -0.3141
  N  N1021  1  0.522690  0.210000  0.962700  1.0  -0.309
  N  N1022  1  0.477080  0.164400  0.908400  1.0  -0.3298
  N  N1023  1  0.485640  0.792600  0.197300  1.0  -0.2766
  N  N1024  1  0.527290  0.710200  0.189700  1.0  -0.3126
  N  N1025  1  0.480560  0.194600  0.465500  1.0  -0.3194
  N  N1026  1  0.521330  0.163300  0.380900  1.0  -0.3239
  N  N1027  1  0.274030  0.033800  0.079700  1.0  -0.3396
  N  N1028  1  0.232520  0.034700  0.992700  1.0  -0.3593
  N  N1029  1  0.280190  0.124300  0.950100  1.0  -0.3448
  N  N1030  1  0.234570  0.196000  0.974500  1.0  -0.3223
  N  N1031  1  0.273280  0.868600  0.617700  1.0  -0.3603
  N  N1032  1  0.227390  0.803100  0.589500  1.0  -0.3148
  O  O1033  1  0.899870  0.710800  0.116300  1.0  -0.7214
  O  O1034  1  0.910650  0.808200  0.050700  1.0  -0.587
  O  O1035  1  0.092970  0.494200  0.870400  1.0  -0.7635
  O  O1036  1  0.088480  0.589400  0.795000  1.0  -0.6823
  O  O1037  1  0.086890  0.413500  0.206900  1.0  -0.6013
  O  O1038  1  0.077140  0.446200  0.316500  1.0  -0.642
  O  O1039  1  0.903460  0.085500  0.163600  1.0  -0.6715
  O  O1040  1  0.900190  0.067800  0.281400  1.0  -0.6989
  O  O1041  1  0.086930  0.753400  0.586100  1.0  -0.5515
  O  O1042  1  0.086550  0.646800  0.641700  1.0  -0.6139
  O  O1043  1  0.913990  0.625200  0.237900  1.0  -0.7159
  O  O1044  1  0.904410  0.525100  0.299300  1.0  -0.7177
  O  O1045  1  0.147820  0.434500  0.193400  1.0  -0.6509
  O  O1046  1  0.159620  0.544800  0.222300  1.0  -0.6688
  O  O1047  1  0.347310  0.443100  0.881000  1.0  -0.6393
  O  O1048  1  0.331510  0.550700  0.850000  1.0  -0.6799
  O  O1049  1  0.154410  0.489100  0.899900  1.0  -0.6611
  O  O1050  1  0.145460  0.557800  0.803800  1.0  -0.76
  O  O1051  1  0.338890  0.806700  0.011400  1.0  -0.5493
  O  O1052  1  0.339780  0.831200  0.894600  1.0  -0.7469
  O  O1053  1  0.146150  0.406400  0.753700  1.0  -0.664
  O  O1054  1  0.157010  0.488500  0.668700  1.0  -0.6179
  O  O1055  1  0.346210  0.145200  0.635000  1.0  -0.7279
  O  O1056  1  0.344630  0.209900  0.532700  1.0  -0.5902
  O  O1057  1  0.115450  0.537500  0.570700  1.0  -0.7777
  O  O1058  1  0.114320  0.444400  0.425500  1.0  -0.7126
  O  O1059  1  0.600130  0.289200  0.616300  1.0  -0.7228
  O  O1060  1  0.589350  0.191800  0.550700  1.0  -0.5881
  O  O1061  1  0.407030  0.505800  0.370400  1.0  -0.7629
  O  O1062  1  0.411520  0.410600  0.295000  1.0  -0.6833
  O  O1063  1  0.413110  0.586500  0.706900  1.0  -0.6004
  O  O1064  1  0.422860  0.553800  0.816500  1.0  -0.6419
  O  O1065  1  0.596540  0.914500  0.663600  1.0  -0.673
  O  O1066  1  0.599810  0.932200  0.781400  1.0  -0.6977
  O  O1067  1  0.413070  0.246600  0.086100  1.0  -0.5531
  O  O1068  1  0.413450  0.353200  0.141700  1.0  -0.6153
  O  O1069  1  0.586010  0.374800  0.737900  1.0  -0.7159
  O  O1070  1  0.595590  0.474900  0.799300  1.0  -0.7166
  O  O1071  1  0.352180  0.565500  0.693400  1.0  -0.65
  O  O1072  1  0.340380  0.455200  0.722300  1.0  -0.6687
  O  O1073  1  0.152690  0.556900  0.381000  1.0  -0.6383
  O  O1074  1  0.168490  0.449300  0.350000  1.0  -0.68
  O  O1075  1  0.345590  0.510900  0.399900  1.0  -0.6622
  O  O1076  1  0.354540  0.442200  0.303800  1.0  -0.7597
  O  O1077  1  0.161110  0.193300  0.511400  1.0  -0.5461
  O  O1078  1  0.160220  0.168800  0.394600  1.0  -0.746
  O  O1079  1  0.353850  0.593600  0.253700  1.0  -0.6648
  O  O1080  1  0.342990  0.511500  0.168700  1.0  -0.6181
  O  O1081  1  0.153790  0.854800  0.135000  1.0  -0.7283
  O  O1082  1  0.155370  0.790100  0.032700  1.0  -0.5927
  O  O1083  1  0.384550  0.462500  0.070700  1.0  -0.7761
  O  O1084  1  0.385680  0.555600  0.925500  1.0  -0.7155
  O  O1085  1  0.100130  0.210800  0.383700  1.0  -0.7227
  O  O1086  1  0.089350  0.308200  0.449300  1.0  -0.5877
  O  O1087  1  0.907030  0.994200  0.629600  1.0  -0.7622
  O  O1088  1  0.911520  0.089400  0.705000  1.0  -0.6823
  O  O1089  1  0.913110  0.913500  0.293100  1.0  -0.602
  O  O1090  1  0.922860  0.946200  0.183500  1.0  -0.6421
  O  O1091  1  0.096540  0.585500  0.336400  1.0  -0.6733
  O  O1092  1  0.099810  0.567800  0.218600  1.0  -0.7012
  O  O1093  1  0.913070  0.253400  0.913900  1.0  -0.5536
  O  O1094  1  0.913450  0.146800  0.858300  1.0  -0.6137
  O  O1095  1  0.086010  0.125200  0.262100  1.0  -0.7164
  O  O1096  1  0.095590  0.025100  0.200700  1.0  -0.7164
  O  O1097  1  0.852180  0.934500  0.306600  1.0  -0.6502
  O  O1098  1  0.840380  0.044800  0.277700  1.0  -0.6681
  O  O1099  1  0.652690  0.943100  0.619000  1.0  -0.6381
  O  O1100  1  0.668490  0.050700  0.650000  1.0  -0.6793
  O  O1101  1  0.845590  0.989100  0.600100  1.0  -0.6617
  O  O1102  1  0.854540  0.057800  0.696200  1.0  -0.7613
  O  O1103  1  0.661110  0.306700  0.488600  1.0  -0.5469
  O  O1104  1  0.660220  0.331200  0.605400  1.0  -0.7457
  O  O1105  1  0.853850  0.906400  0.746300  1.0  -0.6646
  O  O1106  1  0.842990  0.988500  0.831300  1.0  -0.6185
  O  O1107  1  0.653790  0.645200  0.865000  1.0  -0.7282
  O  O1108  1  0.655370  0.709900  0.967300  1.0  -0.5911
  O  O1109  1  0.884550  0.037500  0.929300  1.0  -0.7765
  O  O1110  1  0.885680  0.944400  0.074500  1.0  -0.7142
  O  O1111  1  0.399870  0.789200  0.883700  1.0  -0.7229
  O  O1112  1  0.410650  0.691800  0.949300  1.0  -0.5887
  O  O1113  1  0.592970  0.005800  0.129600  1.0  -0.7636
  O  O1114  1  0.588480  0.910600  0.205000  1.0  -0.6825
  O  O1115  1  0.586890  0.086500  0.793100  1.0  -0.6017
  O  O1116  1  0.577140  0.053800  0.683500  1.0  -0.6414
  O  O1117  1  0.403460  0.414500  0.836400  1.0  -0.6744
  O  O1118  1  0.400190  0.432200  0.718600  1.0  -0.7004
  O  O1119  1  0.586930  0.746600  0.413900  1.0  -0.5512
  O  O1120  1  0.586550  0.853200  0.358300  1.0  -0.6127
  O  O1121  1  0.413990  0.874800  0.762100  1.0  -0.7147
  O  O1122  1  0.404410  0.974900  0.700700  1.0  -0.7179
  O  O1123  1  0.647820  0.065500  0.806600  1.0  -0.6501
  O  O1124  1  0.659620  0.955200  0.777700  1.0  -0.6689
  O  O1125  1  0.847310  0.056900  0.119000  1.0  -0.6392
  O  O1126  1  0.831510  0.949300  0.150000  1.0  -0.6785
  O  O1127  1  0.654410  0.010900  0.100100  1.0  -0.6634
  O  O1128  1  0.645460  0.942200  0.196200  1.0  -0.7613
  O  O1129  1  0.838890  0.693300  0.988600  1.0  -0.547
  O  O1130  1  0.839780  0.668800  0.105400  1.0  -0.7468
  O  O1131  1  0.646150  0.093600  0.246300  1.0  -0.6657
  O  O1132  1  0.657010  0.011500  0.331300  1.0  -0.6185
  O  O1133  1  0.846210  0.354800  0.365000  1.0  -0.7267
  O  O1134  1  0.844630  0.290100  0.467300  1.0  -0.5932
  O  O1135  1  0.615450  0.962500  0.429300  1.0  -0.7772
  O  O1136  1  0.614320  0.055600  0.574500  1.0  -0.7108
  O  O1137  1  0.100130  0.289200  0.883700  1.0  -0.723
  O  O1138  1  0.089350  0.191800  0.949300  1.0  -0.5885
  O  O1139  1  0.907030  0.505800  0.129600  1.0  -0.763
  O  O1140  1  0.911520  0.410600  0.205000  1.0  -0.6822
  O  O1141  1  0.913110  0.586500  0.793100  1.0  -0.6014
  O  O1142  1  0.922860  0.553800  0.683500  1.0  -0.6416
  O  O1143  1  0.096540  0.914500  0.836400  1.0  -0.6733
  O  O1144  1  0.099810  0.932200  0.718600  1.0  -0.7005
  O  O1145  1  0.913070  0.246600  0.413900  1.0  -0.5524
  O  O1146  1  0.913450  0.353200  0.358300  1.0  -0.6142
  O  O1147  1  0.086010  0.374800  0.762100  1.0  -0.7154
  O  O1148  1  0.095590  0.474900  0.700700  1.0  -0.7167
  O  O1149  1  0.852180  0.565500  0.806600  1.0  -0.6501
  O  O1150  1  0.840380  0.455200  0.777700  1.0  -0.6692
  O  O1151  1  0.652690  0.556900  0.119000  1.0  -0.6386
  O  O1152  1  0.668490  0.449300  0.150000  1.0  -0.6776
  O  O1153  1  0.845590  0.510900  0.100100  1.0  -0.6635
  O  O1154  1  0.854540  0.442200  0.196200  1.0  -0.7609
  O  O1155  1  0.661110  0.193300  0.988600  1.0  -0.5468
  O  O1156  1  0.660220  0.168800  0.105400  1.0  -0.7455
  O  O1157  1  0.853850  0.593600  0.246300  1.0  -0.665
  O  O1158  1  0.842990  0.511500  0.331300  1.0  -0.6183
  O  O1159  1  0.653790  0.854800  0.365000  1.0  -0.7279
  O  O1160  1  0.655370  0.790100  0.467300  1.0  -0.5907
  O  O1161  1  0.884550  0.462500  0.429300  1.0  -0.7766
  O  O1162  1  0.885680  0.555600  0.574500  1.0  -0.7133
  O  O1163  1  0.399870  0.710800  0.383700  1.0  -0.7228
  O  O1164  1  0.410650  0.808200  0.449300  1.0  -0.5876
  O  O1165  1  0.592970  0.494200  0.629600  1.0  -0.7629
  O  O1166  1  0.588480  0.589400  0.705000  1.0  -0.6825
  O  O1167  1  0.586890  0.413500  0.293100  1.0  -0.6021
  O  O1168  1  0.577140  0.446200  0.183500  1.0  -0.6417
  O  O1169  1  0.403460  0.085500  0.336400  1.0  -0.6736
  O  O1170  1  0.400190  0.067800  0.218600  1.0  -0.7002
  O  O1171  1  0.586930  0.753400  0.913900  1.0  -0.5519
  O  O1172  1  0.586550  0.646800  0.858300  1.0  -0.6124
  O  O1173  1  0.413990  0.625200  0.262100  1.0  -0.7162
  O  O1174  1  0.404410  0.525100  0.200700  1.0  -0.7178
  O  O1175  1  0.647820  0.434500  0.306600  1.0  -0.6503
  O  O1176  1  0.659620  0.544800  0.277700  1.0  -0.6684
  O  O1177  1  0.847310  0.443100  0.619000  1.0  -0.6388
  O  O1178  1  0.831510  0.550700  0.650000  1.0  -0.68
  O  O1179  1  0.654410  0.489100  0.600100  1.0  -0.6616
  O  O1180  1  0.645460  0.557800  0.696200  1.0  -0.7618
  O  O1181  1  0.838890  0.806700  0.488600  1.0  -0.547
  O  O1182  1  0.839780  0.831200  0.605400  1.0  -0.7471
  O  O1183  1  0.646150  0.406400  0.746300  1.0  -0.6653
  O  O1184  1  0.657010  0.488500  0.831300  1.0  -0.6185
  O  O1185  1  0.846210  0.145200  0.865000  1.0  -0.727
  O  O1186  1  0.844630  0.209900  0.967300  1.0  -0.5931
  O  O1187  1  0.615450  0.537500  0.929300  1.0  -0.7775
  O  O1188  1  0.614320  0.444400  0.074500  1.0  -0.7118
  O  O1189  1  0.899870  0.789200  0.616300  1.0  -0.7214
  O  O1190  1  0.910650  0.691800  0.550700  1.0  -0.5888
  O  O1191  1  0.092970  0.005800  0.370400  1.0  -0.7637
  O  O1192  1  0.088480  0.910600  0.295000  1.0  -0.6833
  O  O1193  1  0.086890  0.086500  0.706900  1.0  -0.601
  O  O1194  1  0.077140  0.053800  0.816500  1.0  -0.6411
  O  O1195  1  0.903460  0.414500  0.663600  1.0  -0.6721
  O  O1196  1  0.900190  0.432200  0.781400  1.0  -0.6993
  O  O1197  1  0.086930  0.746600  0.086100  1.0  -0.5512
  O  O1198  1  0.086550  0.853200  0.141700  1.0  -0.614
  O  O1199  1  0.913990  0.874800  0.737900  1.0  -0.7157
  O  O1200  1  0.904410  0.974900  0.799300  1.0  -0.7179
  O  O1201  1  0.147820  0.065500  0.693400  1.0  -0.6507
  O  O1202  1  0.159620  0.955200  0.722300  1.0  -0.6683
  O  O1203  1  0.347310  0.056900  0.381000  1.0  -0.6387
  O  O1204  1  0.331510  0.949300  0.350000  1.0  -0.6799
  O  O1205  1  0.154410  0.010900  0.399900  1.0  -0.6629
  O  O1206  1  0.145460  0.942200  0.303800  1.0  -0.7603
  O  O1207  1  0.338890  0.693300  0.511400  1.0  -0.5496
  O  O1208  1  0.339780  0.668800  0.394600  1.0  -0.7465
  O  O1209  1  0.146150  0.093600  0.253700  1.0  -0.6653
  O  O1210  1  0.157010  0.011500  0.168700  1.0  -0.6183
  O  O1211  1  0.346210  0.354800  0.135000  1.0  -0.7271
  O  O1212  1  0.344630  0.290100  0.032700  1.0  -0.5909
  O  O1213  1  0.115450  0.962500  0.070700  1.0  -0.777
  O  O1214  1  0.114320  0.055600  0.925500  1.0  -0.713
  O  O1215  1  0.600130  0.210800  0.116300  1.0  -0.7225
  O  O1216  1  0.589350  0.308200  0.050700  1.0  -0.5871
  O  O1217  1  0.407030  0.994200  0.870400  1.0  -0.7626
  O  O1218  1  0.411520  0.089400  0.795000  1.0  -0.6826
  O  O1219  1  0.413110  0.913500  0.206900  1.0  -0.6009
  O  O1220  1  0.422860  0.946200  0.316500  1.0  -0.6427
  O  O1221  1  0.596540  0.585500  0.163600  1.0  -0.6732
  O  O1222  1  0.599810  0.567800  0.281400  1.0  -0.6982
  O  O1223  1  0.413070  0.253400  0.586100  1.0  -0.554
  O  O1224  1  0.413450  0.146800  0.641700  1.0  -0.6149
  O  O1225  1  0.586010  0.125200  0.237900  1.0  -0.7158
  O  O1226  1  0.595590  0.025100  0.299300  1.0  -0.7163
  O  O1227  1  0.352180  0.934500  0.193400  1.0  -0.6505
  O  O1228  1  0.340380  0.044800  0.222300  1.0  -0.6687
  O  O1229  1  0.152690  0.943100  0.881000  1.0  -0.6385
  O  O1230  1  0.168490  0.050700  0.850000  1.0  -0.6801
  O  O1231  1  0.345590  0.989100  0.899900  1.0  -0.6607
  O  O1232  1  0.354540  0.057800  0.803800  1.0  -0.7593
  O  O1233  1  0.161110  0.306700  0.011400  1.0  -0.5459
  O  O1234  1  0.160220  0.331200  0.894600  1.0  -0.7463
  O  O1235  1  0.353850  0.906400  0.753700  1.0  -0.6636
  O  O1236  1  0.342990  0.988500  0.668700  1.0  -0.6179
  O  O1237  1  0.153790  0.645200  0.635000  1.0  -0.729
  O  O1238  1  0.155370  0.709900  0.532700  1.0  -0.5916
  O  O1239  1  0.384550  0.037500  0.570700  1.0  -0.7761
  O  O1240  1  0.385680  0.944400  0.425500  1.0  -0.7147
