# generated using pymatgen
data_Dy3Co2H46C72N12Cl2O37
_symmetry_space_group_name_H-M   'P 1'
_cell_length_a   18.39650000
_cell_length_b   18.55610000
_cell_length_c   48.85130000
_cell_angle_alpha   90.00000000
_cell_angle_beta   90.00000000
_cell_angle_gamma   90.00000000
_symmetry_Int_Tables_number   1
_chemical_formula_structural   Dy3Co2H46C72N12Cl2O37
_chemical_formula_sum   'Dy24 Co16 H368 C576 N96 Cl16 O296'
_cell_volume   16676.23607228
_cell_formula_units_Z   8
loop_
 _symmetry_equiv_pos_site_id
 _symmetry_equiv_pos_as_xyz
  1  'x, y, z'
loop_
 _atom_site_type_symbol
 _atom_site_label
 _atom_site_symmetry_multiplicity
 _atom_site_fract_x
 _atom_site_fract_y
 _atom_site_fract_z
 _atom_site_occupancy
 _atom_site_charge
  Dy  Dy1  1  0.799930  0.571460  0.878260  1.0  2.3022
  Dy  Dy2  1  0.631080  0.401660  0.877740  1.0  2.2982
  Dy  Dy3  1  0.682630  0.512880  0.624020  1.0  2.1903
  Dy  Dy4  1  0.299930  0.428540  0.621740  1.0  2.3022
  Dy  Dy5  1  0.131080  0.598340  0.622260  1.0  2.2979
  Dy  Dy6  1  0.182630  0.487120  0.875980  1.0  2.1895
  Dy  Dy7  1  0.700070  0.071460  0.121740  1.0  2.3008
  Dy  Dy8  1  0.868920  0.901660  0.122260  1.0  2.2989
  Dy  Dy9  1  0.817370  0.012880  0.375980  1.0  2.1895
  Dy  Dy10  1  0.200070  0.928540  0.378260  1.0  2.3009
  Dy  Dy11  1  0.368920  0.098340  0.377740  1.0  2.2991
  Dy  Dy12  1  0.317370  0.987120  0.124020  1.0  2.1897
  Dy  Dy13  1  0.200070  0.428540  0.121740  1.0  2.3005
  Dy  Dy14  1  0.368920  0.598340  0.122260  1.0  2.2982
  Dy  Dy15  1  0.317370  0.487120  0.375980  1.0  2.1893
  Dy  Dy16  1  0.700070  0.571460  0.378260  1.0  2.3006
  Dy  Dy17  1  0.868920  0.401660  0.377740  1.0  2.2987
  Dy  Dy18  1  0.817370  0.512880  0.124020  1.0  2.1899
  Dy  Dy19  1  0.299930  0.928540  0.878260  1.0  2.3036
  Dy  Dy20  1  0.131080  0.098340  0.877740  1.0  2.298
  Dy  Dy21  1  0.182630  0.987120  0.624020  1.0  2.1898
  Dy  Dy22  1  0.799930  0.071460  0.621740  1.0  2.3034
  Dy  Dy23  1  0.631080  0.901660  0.622260  1.0  2.2981
  Dy  Dy24  1  0.682630  0.012880  0.875980  1.0  2.1901
  Co  Co25  1  0.108670  0.747480  0.997900  1.0  0.5844
  Co  Co26  1  0.454750  0.614410  0.755170  1.0  0.833
  Co  Co27  1  0.608670  0.252520  0.502100  1.0  0.5841
  Co  Co28  1  0.954750  0.385590  0.744830  1.0  0.8333
  Co  Co29  1  0.391330  0.247480  0.002100  1.0  0.5855
  Co  Co30  1  0.045250  0.114410  0.244830  1.0  0.8319
  Co  Co31  1  0.891330  0.752520  0.497900  1.0  0.5857
  Co  Co32  1  0.545250  0.885590  0.255170  1.0  0.8317
  Co  Co33  1  0.891330  0.252520  0.002100  1.0  0.5852
  Co  Co34  1  0.545250  0.385590  0.244830  1.0  0.8321
  Co  Co35  1  0.391330  0.747480  0.497900  1.0  0.5856
  Co  Co36  1  0.045250  0.614410  0.255170  1.0  0.8316
  Co  Co37  1  0.608670  0.752520  0.997900  1.0  0.5847
  Co  Co38  1  0.954750  0.885590  0.755170  1.0  0.8329
  Co  Co39  1  0.108670  0.247480  0.502100  1.0  0.5843
  Co  Co40  1  0.454750  0.114410  0.744830  1.0  0.8331
  H  H41  1  0.962300  0.544900  0.868200  1.0  0.379
  H  H42  1  0.935300  0.475600  0.872400  1.0  0.3944
  H  H43  1  0.796800  0.722900  0.888600  1.0  0.4475
  H  H44  1  0.753400  0.721600  0.865800  1.0  0.4586
  H  H45  1  0.004900  0.743100  0.948200  1.0  0.1039
  H  H46  1  0.874300  0.575800  0.964000  1.0  0.1114
  H  H47  1  0.530400  0.502000  0.940200  1.0  0.0996
  H  H48  1  0.667000  0.666667  0.949900  1.0  0.0844
  H  H49  1  0.681800  0.684600  0.832300  1.0  0.1048
  H  H50  1  0.532100  0.544400  0.806200  1.0  0.0809
  H  H51  1  0.943000  0.798100  0.810900  1.0  0.0877
  H  H52  1  0.802200  0.637500  0.799700  1.0  0.1072
  H  H53  1  0.938400  0.553700  0.003300  1.0  0.1286
  H  H54  1  0.462000  0.544900  0.977700  1.0  0.1316
  H  H55  1  0.655500  0.757400  0.794400  1.0  0.1327
  H  H56  1  0.779400  0.682000  0.756000  1.0  0.1199
  H  H57  1  0.208200  0.686100  0.043400  1.0  0.0882
  H  H58  1  0.007800  0.539400  0.040100  1.0  0.125
  H  H59  1  0.409600  0.592100  0.015100  1.0  0.1139
  H  H60  1  0.538100  0.775300  0.054700  1.0  0.0956
  H  H61  1  0.644100  0.804300  0.753600  1.0  0.1102
  H  H62  1  0.473900  0.698900  0.698700  1.0  0.08
  H  H63  1  0.549400  0.575400  0.704800  1.0  0.0867
  H  H64  1  0.354600  0.577400  0.804800  1.0  0.0944
  H  H65  1  0.762800  0.730400  0.715800  1.0  0.1232
  H  H66  1  0.874200  0.948300  0.702600  1.0  0.0672
  H  H67  1  0.090300  0.524800  0.075000  1.0  0.1008
  H  H68  1  0.372100  0.638100  0.057400  1.0  0.112
  H  H69  1  0.626900  0.850000  0.710600  1.0  0.1303
  H  H70  1  0.473600  0.353800  0.733900  1.0  0.117
  H  H71  1  0.425800  0.353900  0.776100  1.0  0.1136
  H  H72  1  0.739000  0.795900  0.676500  1.0  0.1037
  H  H73  1  0.538300  0.362600  0.693500  1.0  0.1209
  H  H74  1  0.356100  0.363800  0.815700  1.0  0.1168
  H  H75  1  0.632800  0.666800  0.625500  1.0  0.448
  H  H76  1  0.706600  0.671600  0.632900  1.0  0.4939
  H  H77  1  0.520100  0.547300  0.606300  1.0  0.4223
  H  H78  1  0.570700  0.531300  0.586600  1.0  0.4139
  H  H79  1  0.864900  0.638600  0.539700  1.0  0.1044
  H  H80  1  0.648400  0.631600  0.548300  1.0  0.1076
  H  H81  1  0.637300  0.713200  0.512800  1.0  0.1222
  H  H82  1  0.641800  0.791500  0.475500  1.0  0.1143
  H  H83  1  0.873400  0.836800  0.444900  1.0  0.0947
  H  H84  1  0.658200  0.859700  0.435400  1.0  0.1218
  H  H85  1  0.465100  0.425200  0.892100  1.0  0.4696
  H  H86  1  0.519000  0.394000  0.907500  1.0  0.4067
  H  H87  1  0.462300  0.455100  0.631800  1.0  0.3799
  H  H88  1  0.435300  0.524400  0.627600  1.0  0.3937
  H  H89  1  0.296800  0.277100  0.611400  1.0  0.4465
  H  H90  1  0.253400  0.278400  0.634200  1.0  0.458
  H  H91  1  0.504900  0.256900  0.551800  1.0  0.1043
  H  H92  1  0.374300  0.424200  0.536000  1.0  0.1113
  H  H93  1  0.030400  0.498000  0.559800  1.0  0.0994
  H  H94  1  0.167000  0.333333  0.550100  1.0  0.0845
  H  H95  1  0.181800  0.315400  0.667700  1.0  0.1051
  H  H96  1  0.032100  0.455600  0.693800  1.0  0.0805
  H  H97  1  0.443000  0.201900  0.689100  1.0  0.0873
  H  H98  1  0.302200  0.362500  0.700300  1.0  0.1074
  H  H99  1  0.438400  0.446300  0.496700  1.0  0.1284
  H  H100  1  0.962000  0.455100  0.522300  1.0  0.1317
  H  H101  1  0.155500  0.242600  0.705600  1.0  0.1326
  H  H102  1  0.279400  0.318000  0.744000  1.0  0.1203
  H  H103  1  0.708200  0.313900  0.456600  1.0  0.088
  H  H104  1  0.507800  0.460600  0.459900  1.0  0.1253
  H  H105  1  0.909600  0.407900  0.484900  1.0  0.1151
  H  H106  1  0.038100  0.224700  0.445300  1.0  0.0963
  H  H107  1  0.144100  0.195700  0.746400  1.0  0.11
  H  H108  1  0.973900  0.301100  0.801300  1.0  0.08
  H  H109  1  0.049400  0.424600  0.795200  1.0  0.0866
  H  H110  1  0.854600  0.422600  0.695200  1.0  0.0932
  H  H111  1  0.262800  0.269600  0.784200  1.0  0.1231
  H  H112  1  0.374200  0.051700  0.797400  1.0  0.0676
  H  H113  1  0.590300  0.475200  0.425000  1.0  0.1003
  H  H114  1  0.872100  0.361900  0.442600  1.0  0.1119
  H  H115  1  0.126900  0.150000  0.789400  1.0  0.1303
  H  H116  1  0.973600  0.646200  0.766100  1.0  0.1181
  H  H117  1  0.925800  0.646100  0.723900  1.0  0.1134
  H  H118  1  0.239000  0.204100  0.823500  1.0  0.1036
  H  H119  1  0.038300  0.637400  0.806500  1.0  0.1206
  H  H120  1  0.856100  0.636200  0.684300  1.0  0.1161
  H  H121  1  0.132800  0.333200  0.874500  1.0  0.4481
  H  H122  1  0.206600  0.328400  0.867100  1.0  0.4943
  H  H123  1  0.020100  0.452700  0.893700  1.0  0.4215
  H  H124  1  0.070700  0.468700  0.913400  1.0  0.414
  H  H125  1  0.364900  0.361400  0.960300  1.0  0.1035
  H  H126  1  0.148400  0.368400  0.951700  1.0  0.1077
  H  H127  1  0.137300  0.286800  0.987200  1.0  0.1217
  H  H128  1  0.141800  0.208500  0.024500  1.0  0.1151
  H  H129  1  0.373400  0.163200  0.055100  1.0  0.0951
  H  H130  1  0.158200  0.140300  0.064600  1.0  0.1224
  H  H131  1  0.965100  0.574800  0.607900  1.0  0.4687
  H  H132  1  0.019000  0.606000  0.592500  1.0  0.4068
  H  H133  1  0.537700  0.044900  0.131800  1.0  0.3797
  H  H134  1  0.564700  0.975600  0.127600  1.0  0.3947
  H  H135  1  0.703200  0.222900  0.111400  1.0  0.4457
  H  H136  1  0.746600  0.221600  0.134200  1.0  0.4578
  H  H137  1  0.495100  0.243100  0.051800  1.0  0.1041
  H  H138  1  0.625700  0.075800  0.036000  1.0  0.1111
  H  H139  1  0.969600  0.002000  0.059800  1.0  0.1001
  H  H140  1  0.833000  0.166700  0.050100  1.0  0.0845
  H  H141  1  0.818200  0.184600  0.167700  1.0  0.1038
  H  H142  1  0.967900  0.044400  0.193800  1.0  0.0808
  H  H143  1  0.557000  0.298100  0.189100  1.0  0.0873
  H  H144  1  0.697800  0.137500  0.200300  1.0  0.107
  H  H145  1  0.561600  0.053700  0.996700  1.0  0.1283
  H  H146  1  0.038000  0.044900  0.022300  1.0  0.1319
  H  H147  1  0.844500  0.257400  0.205600  1.0  0.1333
  H  H148  1  0.720600  0.182000  0.244000  1.0  0.1205
  H  H149  1  0.291800  0.186100  0.956600  1.0  0.0887
  H  H150  1  0.492200  0.039400  0.959900  1.0  0.125
  H  H151  1  0.090400  0.092100  0.984900  1.0  0.1147
  H  H152  1  0.961900  0.275300  0.945300  1.0  0.0959
  H  H153  1  0.855900  0.304300  0.246400  1.0  0.1104
  H  H154  1  0.026100  0.198900  0.301300  1.0  0.0801
  H  H155  1  0.950600  0.075400  0.295200  1.0  0.0867
  H  H156  1  0.145400  0.077400  0.195200  1.0  0.0942
  H  H157  1  0.737200  0.230400  0.284200  1.0  0.1235
  H  H158  1  0.625800  0.448300  0.297400  1.0  0.0672
  H  H159  1  0.409700  0.024800  0.925000  1.0  0.1
  H  H160  1  0.127900  0.138100  0.942600  1.0  0.1118
  H  H161  1  0.873100  0.350000  0.289400  1.0  0.1303
  H  H162  1  0.026400  0.853800  0.266100  1.0  0.1176
  H  H163  1  0.074200  0.853900  0.223900  1.0  0.1129
  H  H164  1  0.761000  0.295900  0.323500  1.0  0.1039
  H  H165  1  0.961700  0.862600  0.306500  1.0  0.1209
  H  H166  1  0.143900  0.863800  0.184300  1.0  0.1163
  H  H167  1  0.867200  0.166800  0.374500  1.0  0.4467
  H  H168  1  0.793400  0.171600  0.367100  1.0  0.4933
  H  H169  1  0.979900  0.047300  0.393700  1.0  0.4221
  H  H170  1  0.929300  0.031300  0.413400  1.0  0.4144
  H  H171  1  0.635100  0.138600  0.460300  1.0  0.1038
  H  H172  1  0.851600  0.131600  0.451700  1.0  0.1072
  H  H173  1  0.862700  0.213200  0.487200  1.0  0.1223
  H  H174  1  0.858200  0.291500  0.524500  1.0  0.1158
  H  H175  1  0.626600  0.336800  0.555100  1.0  0.0949
  H  H176  1  0.841800  0.359700  0.564600  1.0  0.1229
  H  H177  1  0.034900  0.925200  0.107900  1.0  0.4681
  H  H178  1  0.981000  0.894000  0.092500  1.0  0.4061
  H  H179  1  0.037700  0.955100  0.368200  1.0  0.3796
  H  H180  1  0.064700  0.024400  0.372400  1.0  0.393
  H  H181  1  0.203200  0.777100  0.388600  1.0  0.447
  H  H182  1  0.246600  0.778400  0.365800  1.0  0.4577
  H  H183  1  0.995100  0.756900  0.448200  1.0  0.1038
  H  H184  1  0.125700  0.924200  0.464000  1.0  0.111
  H  H185  1  0.469600  0.998000  0.440200  1.0  0.0991
  H  H186  1  0.333000  0.833300  0.449900  1.0  0.0846
  H  H187  1  0.318200  0.815400  0.332300  1.0  0.1043
  H  H188  1  0.467900  0.955600  0.306200  1.0  0.0805
  H  H189  1  0.057000  0.701900  0.310900  1.0  0.0877
  H  H190  1  0.197800  0.862500  0.299700  1.0  0.1068
  H  H191  1  0.061600  0.946300  0.503300  1.0  0.1285
  H  H192  1  0.538000  0.955100  0.477700  1.0  0.132
  H  H193  1  0.344500  0.742600  0.294400  1.0  0.1329
  H  H194  1  0.220600  0.818000  0.256000  1.0  0.1206
  H  H195  1  0.791800  0.813900  0.543400  1.0  0.0884
  H  H196  1  0.992200  0.960600  0.540100  1.0  0.1251
  H  H197  1  0.590400  0.907900  0.515100  1.0  0.115
  H  H198  1  0.461900  0.724700  0.554700  1.0  0.0959
  H  H199  1  0.355900  0.695700  0.253600  1.0  0.1102
  H  H200  1  0.526100  0.801100  0.198700  1.0  0.0803
  H  H201  1  0.450600  0.924600  0.204800  1.0  0.0867
  H  H202  1  0.645400  0.922600  0.304800  1.0  0.0938
  H  H203  1  0.237200  0.769600  0.215800  1.0  0.1234
  H  H204  1  0.125800  0.551700  0.202600  1.0  0.0671
  H  H205  1  0.909700  0.975200  0.575000  1.0  0.1006
  H  H206  1  0.627900  0.861900  0.557400  1.0  0.1118
  H  H207  1  0.373100  0.650000  0.210600  1.0  0.1302
  H  H208  1  0.526400  0.146200  0.233900  1.0  0.1175
  H  H209  1  0.574200  0.146100  0.276100  1.0  0.1135
  H  H210  1  0.261000  0.704100  0.176500  1.0  0.1036
  H  H211  1  0.461700  0.137400  0.193500  1.0  0.1209
  H  H212  1  0.643900  0.136200  0.315700  1.0  0.1167
  H  H213  1  0.367200  0.833200  0.125500  1.0  0.4459
  H  H214  1  0.293400  0.828400  0.132900  1.0  0.4937
  H  H215  1  0.479900  0.952700  0.106300  1.0  0.4221
  H  H216  1  0.429300  0.968700  0.086600  1.0  0.4153
  H  H217  1  0.135100  0.861400  0.039700  1.0  0.1039
  H  H218  1  0.351600  0.868400  0.048300  1.0  0.1075
  H  H219  1  0.362700  0.786800  0.012800  1.0  0.1228
  H  H220  1  0.358200  0.708500  0.975500  1.0  0.1149
  H  H221  1  0.126600  0.663200  0.944900  1.0  0.0942
  H  H222  1  0.341800  0.640300  0.935400  1.0  0.1226
  H  H223  1  0.534900  0.074800  0.392100  1.0  0.4683
  H  H224  1  0.481000  0.106000  0.407500  1.0  0.406
  H  H225  1  0.037700  0.455100  0.131800  1.0  0.3797
  H  H226  1  0.064700  0.524400  0.127600  1.0  0.3951
  H  H227  1  0.203200  0.277100  0.111400  1.0  0.4453
  H  H228  1  0.246600  0.278400  0.134200  1.0  0.4581
  H  H229  1  0.995100  0.256900  0.051800  1.0  0.1042
  H  H230  1  0.125700  0.424200  0.036000  1.0  0.1109
  H  H231  1  0.469600  0.498000  0.059800  1.0  0.0992
  H  H232  1  0.333000  0.333333  0.050100  1.0  0.0842
  H  H233  1  0.318200  0.315400  0.167700  1.0  0.1037
  H  H234  1  0.467900  0.455600  0.193800  1.0  0.0806
  H  H235  1  0.057000  0.201900  0.189100  1.0  0.0871
  H  H236  1  0.197800  0.362500  0.200300  1.0  0.1071
  H  H237  1  0.061600  0.446300  0.996700  1.0  0.1284
  H  H238  1  0.538000  0.455100  0.022300  1.0  0.1317
  H  H239  1  0.344500  0.242600  0.205600  1.0  0.1324
  H  H240  1  0.220600  0.318000  0.244000  1.0  0.1203
  H  H241  1  0.791800  0.313900  0.956600  1.0  0.0883
  H  H242  1  0.992200  0.460600  0.959900  1.0  0.125
  H  H243  1  0.590400  0.407900  0.984900  1.0  0.1152
  H  H244  1  0.461900  0.224700  0.945300  1.0  0.0952
  H  H245  1  0.355900  0.195700  0.246400  1.0  0.1097
  H  H246  1  0.526100  0.301100  0.301300  1.0  0.0801
  H  H247  1  0.450600  0.424600  0.295200  1.0  0.0869
  H  H248  1  0.645400  0.422600  0.195200  1.0  0.0945
  H  H249  1  0.237200  0.269600  0.284200  1.0  0.1231
  H  H250  1  0.125800  0.051700  0.297400  1.0  0.0675
  H  H251  1  0.909700  0.475200  0.925000  1.0  0.1
  H  H252  1  0.627900  0.361900  0.942600  1.0  0.1118
  H  H253  1  0.373100  0.150000  0.289400  1.0  0.1303
  H  H254  1  0.526400  0.646200  0.266100  1.0  0.118
  H  H255  1  0.574200  0.646100  0.223900  1.0  0.1132
  H  H256  1  0.261000  0.204100  0.323500  1.0  0.1035
  H  H257  1  0.461700  0.637400  0.306500  1.0  0.1205
  H  H258  1  0.643900  0.636200  0.184300  1.0  0.1163
  H  H259  1  0.367200  0.333200  0.374500  1.0  0.4465
  H  H260  1  0.293400  0.328400  0.367100  1.0  0.4935
  H  H261  1  0.479900  0.452700  0.393700  1.0  0.4215
  H  H262  1  0.429300  0.468700  0.413400  1.0  0.4146
  H  H263  1  0.135100  0.361400  0.460300  1.0  0.1038
  H  H264  1  0.351600  0.368400  0.451700  1.0  0.1073
  H  H265  1  0.362700  0.286800  0.487200  1.0  0.1225
  H  H266  1  0.358200  0.208500  0.524500  1.0  0.1157
  H  H267  1  0.126600  0.163200  0.555100  1.0  0.0947
  H  H268  1  0.341800  0.140300  0.564600  1.0  0.1229
  H  H269  1  0.534900  0.574800  0.107900  1.0  0.4683
  H  H270  1  0.481000  0.606000  0.092500  1.0  0.406
  H  H271  1  0.537700  0.544900  0.368200  1.0  0.3798
  H  H272  1  0.564700  0.475600  0.372400  1.0  0.3955
  H  H273  1  0.703200  0.722900  0.388600  1.0  0.4466
  H  H274  1  0.746600  0.721600  0.365800  1.0  0.4572
  H  H275  1  0.495100  0.743100  0.448200  1.0  0.1041
  H  H276  1  0.625700  0.575800  0.464000  1.0  0.1112
  H  H277  1  0.969600  0.502000  0.440200  1.0  0.0998
  H  H278  1  0.833000  0.666667  0.449900  1.0  0.0846
  H  H279  1  0.818200  0.684600  0.332300  1.0  0.1042
  H  H280  1  0.967900  0.544400  0.306200  1.0  0.0807
  H  H281  1  0.557000  0.798100  0.310900  1.0  0.0878
  H  H282  1  0.697800  0.637500  0.299700  1.0  0.1071
  H  H283  1  0.561600  0.553700  0.503300  1.0  0.1287
  H  H284  1  0.038000  0.544900  0.477700  1.0  0.1319
  H  H285  1  0.844500  0.757400  0.294400  1.0  0.1329
  H  H286  1  0.720600  0.682000  0.256000  1.0  0.12
  H  H287  1  0.291800  0.686100  0.543400  1.0  0.0884
  H  H288  1  0.492200  0.539400  0.540100  1.0  0.1248
  H  H289  1  0.090400  0.592100  0.515100  1.0  0.1141
  H  H290  1  0.961900  0.775300  0.554700  1.0  0.0953
  H  H291  1  0.855900  0.804300  0.253600  1.0  0.1103
  H  H292  1  0.026100  0.698900  0.198700  1.0  0.0804
  H  H293  1  0.950600  0.575400  0.204800  1.0  0.087
  H  H294  1  0.145400  0.577400  0.304800  1.0  0.0953
  H  H295  1  0.737200  0.730400  0.215800  1.0  0.1232
  H  H296  1  0.625800  0.948300  0.202600  1.0  0.0673
  H  H297  1  0.409700  0.524800  0.575000  1.0  0.1007
  H  H298  1  0.127900  0.638100  0.557400  1.0  0.1119
  H  H299  1  0.873100  0.850000  0.210600  1.0  0.1305
  H  H300  1  0.026400  0.353800  0.233900  1.0  0.1171
  H  H301  1  0.074200  0.353900  0.276100  1.0  0.1135
  H  H302  1  0.761000  0.795900  0.176500  1.0  0.104
  H  H303  1  0.961700  0.362600  0.193500  1.0  0.1207
  H  H304  1  0.143900  0.363800  0.315700  1.0  0.1167
  H  H305  1  0.867200  0.666800  0.125500  1.0  0.4459
  H  H306  1  0.793400  0.671600  0.132900  1.0  0.4938
  H  H307  1  0.979900  0.547300  0.106300  1.0  0.4222
  H  H308  1  0.929300  0.531300  0.086600  1.0  0.4148
  H  H309  1  0.635100  0.638600  0.039700  1.0  0.1041
  H  H310  1  0.851600  0.631600  0.048300  1.0  0.1077
  H  H311  1  0.862700  0.713200  0.012800  1.0  0.1227
  H  H312  1  0.858200  0.791500  0.975500  1.0  0.1148
  H  H313  1  0.626600  0.836800  0.944900  1.0  0.0948
  H  H314  1  0.841800  0.859700  0.935400  1.0  0.1226
  H  H315  1  0.034900  0.425200  0.392100  1.0  0.4685
  H  H316  1  0.981000  0.394000  0.407500  1.0  0.406
  H  H317  1  0.462300  0.955100  0.868200  1.0  0.3788
  H  H318  1  0.435300  0.024400  0.872400  1.0  0.3944
  H  H319  1  0.296800  0.777100  0.888600  1.0  0.4484
  H  H320  1  0.253400  0.778400  0.865800  1.0  0.4584
  H  H321  1  0.504900  0.756900  0.948200  1.0  0.1037
  H  H322  1  0.374300  0.924200  0.964000  1.0  0.1113
  H  H323  1  0.030400  0.998000  0.940200  1.0  0.0992
  H  H324  1  0.167000  0.833300  0.949900  1.0  0.0846
  H  H325  1  0.181800  0.815400  0.832300  1.0  0.1055
  H  H326  1  0.032100  0.955600  0.806200  1.0  0.0807
  H  H327  1  0.443000  0.701900  0.810900  1.0  0.0877
  H  H328  1  0.302200  0.862500  0.799700  1.0  0.107
  H  H329  1  0.438400  0.946300  0.003300  1.0  0.1281
  H  H330  1  0.962000  0.955100  0.977700  1.0  0.132
  H  H331  1  0.155500  0.742600  0.794400  1.0  0.1329
  H  H332  1  0.279400  0.818000  0.756000  1.0  0.1206
  H  H333  1  0.708200  0.813900  0.043400  1.0  0.0882
  H  H334  1  0.507800  0.960600  0.040100  1.0  0.125
  H  H335  1  0.909600  0.907900  0.015100  1.0  0.1149
  H  H336  1  0.038100  0.724700  0.054700  1.0  0.0956
  H  H337  1  0.144100  0.695700  0.753600  1.0  0.1103
  H  H338  1  0.973900  0.801100  0.698700  1.0  0.0802
  H  H339  1  0.049400  0.924600  0.704800  1.0  0.0864
  H  H340  1  0.854600  0.922600  0.804800  1.0  0.0948
  H  H341  1  0.262800  0.769600  0.715800  1.0  0.1234
  H  H342  1  0.374200  0.551700  0.702600  1.0  0.0672
  H  H343  1  0.590300  0.975200  0.075000  1.0  0.1008
  H  H344  1  0.872100  0.861900  0.057400  1.0  0.1119
  H  H345  1  0.126900  0.650000  0.710600  1.0  0.1302
  H  H346  1  0.973600  0.146200  0.733900  1.0  0.1175
  H  H347  1  0.925800  0.146100  0.776100  1.0  0.1136
  H  H348  1  0.239000  0.704100  0.676500  1.0  0.1036
  H  H349  1  0.038300  0.137400  0.693500  1.0  0.1212
  H  H350  1  0.856100  0.136200  0.815700  1.0  0.1165
  H  H351  1  0.132800  0.833200  0.625500  1.0  0.4478
  H  H352  1  0.206600  0.828400  0.632900  1.0  0.4944
  H  H353  1  0.020100  0.952700  0.606300  1.0  0.422
  H  H354  1  0.070700  0.968700  0.586600  1.0  0.4143
  H  H355  1  0.364900  0.861400  0.539700  1.0  0.1038
  H  H356  1  0.148400  0.868400  0.548300  1.0  0.1077
  H  H357  1  0.137300  0.786800  0.512800  1.0  0.1221
  H  H358  1  0.141800  0.708500  0.475500  1.0  0.1143
  H  H359  1  0.373400  0.663200  0.444900  1.0  0.0944
  H  H360  1  0.158200  0.640300  0.435400  1.0  0.1221
  H  H361  1  0.965100  0.074800  0.892100  1.0  0.4693
  H  H362  1  0.019000  0.106000  0.907500  1.0  0.4066
  H  H363  1  0.962300  0.044900  0.631800  1.0  0.3798
  H  H364  1  0.935300  0.975600  0.627600  1.0  0.395
  H  H365  1  0.796800  0.222900  0.611400  1.0  0.4462
  H  H366  1  0.753400  0.221600  0.634200  1.0  0.4582
  H  H367  1  0.004900  0.243100  0.551800  1.0  0.1041
  H  H368  1  0.874300  0.075800  0.536000  1.0  0.1114
  H  H369  1  0.530400  0.002000  0.559800  1.0  0.1001
  H  H370  1  0.667000  0.166700  0.550100  1.0  0.0846
  H  H371  1  0.681800  0.184600  0.667700  1.0  0.1047
  H  H372  1  0.532100  0.044400  0.693800  1.0  0.0807
  H  H373  1  0.943000  0.298100  0.689100  1.0  0.0873
  H  H374  1  0.802200  0.137500  0.700300  1.0  0.1071
  H  H375  1  0.938400  0.053700  0.496700  1.0  0.1283
  H  H376  1  0.462000  0.044900  0.522300  1.0  0.1317
  H  H377  1  0.655500  0.257400  0.705600  1.0  0.1332
  H  H378  1  0.779400  0.182000  0.744000  1.0  0.1204
  H  H379  1  0.208200  0.186100  0.456600  1.0  0.0881
  H  H380  1  0.007800  0.039400  0.459900  1.0  0.1244
  H  H381  1  0.409600  0.092100  0.484900  1.0  0.1146
  H  H382  1  0.538100  0.275300  0.445300  1.0  0.0955
  H  H383  1  0.644100  0.304300  0.746400  1.0  0.1104
  H  H384  1  0.473900  0.198900  0.801300  1.0  0.0799
  H  H385  1  0.549400  0.075400  0.795200  1.0  0.0864
  H  H386  1  0.354600  0.077400  0.695200  1.0  0.0949
  H  H387  1  0.762800  0.230400  0.784200  1.0  0.1234
  H  H388  1  0.874200  0.448300  0.797400  1.0  0.0672
  H  H389  1  0.090300  0.024800  0.425000  1.0  0.1005
  H  H390  1  0.372100  0.138100  0.442600  1.0  0.1118
  H  H391  1  0.626900  0.350000  0.789400  1.0  0.1301
  H  H392  1  0.473600  0.853800  0.766100  1.0  0.1177
  H  H393  1  0.425800  0.853900  0.723900  1.0  0.1132
  H  H394  1  0.739000  0.295900  0.823500  1.0  0.1038
  H  H395  1  0.538300  0.862600  0.806500  1.0  0.121
  H  H396  1  0.356100  0.863800  0.684300  1.0  0.1163
  H  H397  1  0.632800  0.166800  0.874500  1.0  0.4488
  H  H398  1  0.706600  0.171600  0.867100  1.0  0.4938
  H  H399  1  0.520100  0.047300  0.893700  1.0  0.4224
  H  H400  1  0.570700  0.031300  0.913400  1.0  0.4139
  H  H401  1  0.864900  0.138600  0.960300  1.0  0.1038
  H  H402  1  0.648400  0.131600  0.951700  1.0  0.1073
  H  H403  1  0.637300  0.213200  0.987200  1.0  0.1217
  H  H404  1  0.641800  0.291500  0.024500  1.0  0.1152
  H  H405  1  0.873400  0.336800  0.055100  1.0  0.0949
  H  H406  1  0.658200  0.359700  0.064600  1.0  0.1219
  H  H407  1  0.465100  0.925200  0.607900  1.0  0.4688
  H  H408  1  0.519000  0.894000  0.592500  1.0  0.4069
  C  C409  1  0.894100  0.669500  0.924000  1.0  0.6967
  C  C410  1  0.655600  0.549500  0.919500  1.0  0.697
  C  C411  1  0.634800  0.551900  0.844900  1.0  0.7259
  C  C412  1  0.895600  0.689300  0.838500  1.0  0.6863
  C  C413  1  0.935700  0.659200  0.951100  1.0  -0.1574
  C  C414  1  0.608100  0.577700  0.942500  1.0  -0.1733
  C  C415  1  0.611300  0.604600  0.823000  1.0  -0.2009
  C  C416  1  0.875000  0.713100  0.809800  1.0  -0.165
  C  C417  1  0.992900  0.703500  0.958900  1.0  0.1744
  C  C418  1  0.914500  0.603900  0.968400  1.0  -0.0171
  C  C419  1  0.545500  0.542500  0.949800  1.0  0.0191
  C  C420  1  0.626400  0.641100  0.955800  1.0  0.1303
  C  C421  1  0.647500  0.669900  0.819400  1.0  0.0126
  C  C422  1  0.558300  0.586700  0.803700  1.0  0.2209
  C  C423  1  0.909700  0.774700  0.799700  1.0  0.1911
  C  C424  1  0.826100  0.678500  0.793500  1.0  0.0375
  C  C425  1  0.952400  0.590800  0.991600  1.0  -0.0952
  C  C426  1  0.504300  0.568200  0.972100  1.0  -0.1271
  C  C427  1  0.632600  0.713100  0.796800  1.0  -0.1521
  C  C428  1  0.812100  0.705200  0.767500  1.0  -0.0922
  C  C429  1  0.012000  0.633000  0.997700  1.0  0.2219
  C  C430  1  0.529100  0.629900  0.985400  1.0  0.1941
  C  C431  1  0.582200  0.687600  0.777900  1.0  0.1831
  C  C432  1  0.847900  0.767300  0.758900  1.0  0.1919
  C  C433  1  0.061100  0.620600  0.021200  1.0  0.151
  C  C434  1  0.496900  0.656600  0.010900  1.0  0.1856
  C  C435  1  0.570600  0.724800  0.751100  1.0  0.1362
  C  C436  1  0.833300  0.802600  0.732300  1.0  0.0889
  C  C437  1  0.167700  0.656200  0.042700  1.0  0.16
  C  C438  1  0.049000  0.568400  0.041000  1.0  -0.1317
  C  C439  1  0.435700  0.629000  0.023400  1.0  -0.1221
  C  C440  1  0.511700  0.738200  0.046600  1.0  0.0955
  C  C441  1  0.610100  0.783100  0.742000  1.0  -0.0973
  C  C442  1  0.508800  0.720200  0.709800  1.0  0.1837
  C  C443  1  0.532900  0.530400  0.710400  1.0  0.1646
  C  C444  1  0.474300  0.459800  0.742400  1.0  0.2034
  C  C445  1  0.430300  0.460500  0.768100  1.0  0.2013
  C  C446  1  0.369200  0.531900  0.799100  1.0  0.1951
  C  C447  1  0.785000  0.774800  0.713000  1.0  -0.1156
  C  C448  1  0.851600  0.904000  0.705300  1.0  0.1588
  C  C449  1  0.159500  0.602500  0.062700  1.0  -0.1706
  C  C450  1  0.098200  0.559700  0.061600  1.0  -0.0171
  C  C451  1  0.412900  0.656600  0.048700  1.0  -0.1066
  C  C452  1  0.452200  0.711800  0.060200  1.0  -0.1287
  C  C453  1  0.600300  0.810300  0.716400  1.0  -0.1608
  C  C454  1  0.549800  0.777800  0.699100  1.0  -0.1665
  C  C455  1  0.550000  0.470000  0.694300  1.0  -0.1401
  C  C456  1  0.489300  0.398500  0.727600  1.0  -0.1259
  C  C457  1  0.410900  0.398900  0.782300  1.0  -0.1037
  C  C458  1  0.346900  0.472300  0.814200  1.0  -0.1117
  C  C459  1  0.770600  0.814100  0.689700  1.0  0.0347
  C  C460  1  0.803000  0.880400  0.685800  1.0  -0.236
  C  C461  1  0.215500  0.590200  0.085200  1.0  0.695
  C  C462  1  0.429400  0.746600  0.086900  1.0  0.7065
  C  C463  1  0.537300  0.799600  0.669800  1.0  0.6926
  C  C464  1  0.590900  0.482900  0.668200  1.0  0.687
  C  C465  1  0.527600  0.403800  0.703500  1.0  0.0225
  C  C466  1  0.369100  0.404600  0.805800  1.0  0.0035
  C  C467  1  0.295400  0.481400  0.838100  1.0  0.6856
  C  C468  1  0.783900  0.926300  0.661700  1.0  0.6767
  C  C469  1  0.771800  0.571000  0.570200  1.0  0.6698
  C  C470  1  0.756900  0.625900  0.547400  1.0  -0.1505
  C  C471  1  0.818800  0.654000  0.534400  1.0  0.1315
  C  C472  1  0.689700  0.649000  0.539500  1.0  0.0229
  C  C473  1  0.683000  0.698200  0.518500  1.0  -0.127
  C  C474  1  0.744400  0.725000  0.506100  1.0  0.14
  C  C475  1  0.747000  0.774500  0.482100  1.0  0.1856
  C  C476  1  0.688300  0.800500  0.468900  1.0  -0.1305
  C  C477  1  0.826200  0.827600  0.450900  1.0  0.1453
  C  C478  1  0.698000  0.841400  0.444900  1.0  -0.0075
  C  C479  1  0.767900  0.853500  0.435800  1.0  -0.1552
  C  C480  1  0.784200  0.897200  0.410100  1.0  0.6688
  C  C481  1  0.394100  0.330500  0.576000  1.0  0.6969
  C  C482  1  0.155600  0.450500  0.580500  1.0  0.6976
  C  C483  1  0.134800  0.448100  0.655100  1.0  0.7289
  C  C484  1  0.395600  0.310700  0.661500  1.0  0.6856
  C  C485  1  0.435700  0.340800  0.548900  1.0  -0.155
  C  C486  1  0.108100  0.422300  0.557500  1.0  -0.1729
  C  C487  1  0.111300  0.395400  0.677000  1.0  -0.2023
  C  C488  1  0.375000  0.286900  0.690200  1.0  -0.167
  C  C489  1  0.492900  0.296500  0.541100  1.0  0.1747
  C  C490  1  0.414500  0.396100  0.531600  1.0  -0.0175
  C  C491  1  0.045500  0.457500  0.550200  1.0  0.0192
  C  C492  1  0.126400  0.358900  0.544200  1.0  0.1312
  C  C493  1  0.147500  0.330100  0.680600  1.0  0.0125
  C  C494  1  0.058300  0.413300  0.696300  1.0  0.2195
  C  C495  1  0.409700  0.225300  0.700300  1.0  0.1913
  C  C496  1  0.326100  0.321500  0.706500  1.0  0.0372
  C  C497  1  0.452400  0.409200  0.508400  1.0  -0.0956
  C  C498  1  0.004300  0.431800  0.527900  1.0  -0.1269
  C  C499  1  0.132600  0.286900  0.703200  1.0  -0.153
  C  C500  1  0.312100  0.294800  0.732500  1.0  -0.0915
  C  C501  1  0.512000  0.367000  0.502300  1.0  0.2212
  C  C502  1  0.029100  0.370100  0.514600  1.0  0.1949
  C  C503  1  0.082200  0.312400  0.722100  1.0  0.1836
  C  C504  1  0.347900  0.232700  0.741100  1.0  0.1926
  C  C505  1  0.561100  0.379400  0.478800  1.0  0.1519
  C  C506  1  0.996900  0.343400  0.489100  1.0  0.1862
  C  C507  1  0.070600  0.275200  0.748900  1.0  0.1365
  C  C508  1  0.333333  0.197400  0.767700  1.0  0.0881
  C  C509  1  0.667700  0.343800  0.457300  1.0  0.159
  C  C510  1  0.549000  0.431600  0.459000  1.0  -0.1326
  C  C511  1  0.935700  0.371000  0.476600  1.0  -0.1228
  C  C512  1  0.011700  0.261800  0.453400  1.0  0.0927
  C  C513  1  0.110100  0.216900  0.758000  1.0  -0.097
  C  C514  1  0.008800  0.279800  0.790200  1.0  0.1844
  C  C515  1  0.032900  0.469600  0.789600  1.0  0.1671
  C  C516  1  0.974300  0.540200  0.757600  1.0  0.2039
  C  C517  1  0.930300  0.539500  0.731900  1.0  0.2015
  C  C518  1  0.869200  0.468100  0.700900  1.0  0.1938
  C  C519  1  0.285000  0.225200  0.787000  1.0  -0.1146
  C  C520  1  0.351600  0.096000  0.794700  1.0  0.1594
  C  C521  1  0.659500  0.397500  0.437300  1.0  -0.1702
  C  C522  1  0.598200  0.440300  0.438400  1.0  -0.0162
  C  C523  1  0.912900  0.343400  0.451300  1.0  -0.1072
  C  C524  1  0.952200  0.288200  0.439800  1.0  -0.13
  C  C525  1  0.100300  0.189700  0.783600  1.0  -0.1602
  C  C526  1  0.049800  0.222200  0.800900  1.0  -0.1651
  C  C527  1  0.050000  0.530000  0.805700  1.0  -0.1403
  C  C528  1  0.989300  0.601500  0.772400  1.0  -0.1252
  C  C529  1  0.910900  0.601100  0.717700  1.0  -0.1043
  C  C530  1  0.846900  0.527700  0.685800  1.0  -0.1129
  C  C531  1  0.270600  0.185900  0.810300  1.0  0.0339
  C  C532  1  0.303000  0.119600  0.814200  1.0  -0.2353
  C  C533  1  0.715500  0.409800  0.414800  1.0  0.6964
  C  C534  1  0.929400  0.253400  0.413100  1.0  0.7067
  C  C535  1  0.037300  0.200400  0.830200  1.0  0.6899
  C  C536  1  0.090900  0.517100  0.831800  1.0  0.6874
  C  C537  1  0.027600  0.596200  0.796500  1.0  0.0227
  C  C538  1  0.869100  0.595400  0.694200  1.0  0.0046
  C  C539  1  0.795400  0.518600  0.661900  1.0  0.6861
  C  C540  1  0.283900  0.073700  0.838300  1.0  0.6769
  C  C541  1  0.271800  0.429000  0.929800  1.0  0.6697
  C  C542  1  0.256900  0.374100  0.952600  1.0  -0.1503
  C  C543  1  0.318800  0.346000  0.965600  1.0  0.1304
  C  C544  1  0.189700  0.351000  0.960500  1.0  0.0216
  C  C545  1  0.183000  0.301800  0.981500  1.0  -0.1264
  C  C546  1  0.244400  0.275000  0.993900  1.0  0.1402
  C  C547  1  0.247000  0.225500  0.017900  1.0  0.185
  C  C548  1  0.188300  0.199500  0.031100  1.0  -0.1303
  C  C549  1  0.326200  0.172400  0.049100  1.0  0.1452
  C  C550  1  0.198000  0.158600  0.055100  1.0  -0.0079
  C  C551  1  0.267900  0.146500  0.064200  1.0  -0.1548
  C  C552  1  0.284200  0.102800  0.089900  1.0  0.6679
  C  C553  1  0.605900  0.169500  0.076000  1.0  0.6966
  C  C554  1  0.844400  0.049500  0.080500  1.0  0.6982
  C  C555  1  0.865200  0.051900  0.155100  1.0  0.7288
  C  C556  1  0.604400  0.189300  0.161500  1.0  0.6881
  C  C557  1  0.564300  0.159200  0.048900  1.0  -0.1548
  C  C558  1  0.891900  0.077700  0.057500  1.0  -0.1709
  C  C559  1  0.888700  0.104600  0.177000  1.0  -0.2016
  C  C560  1  0.625000  0.213100  0.190200  1.0  -0.1668
  C  C561  1  0.507100  0.203500  0.041100  1.0  0.1725
  C  C562  1  0.585500  0.103900  0.031600  1.0  -0.0169
  C  C563  1  0.954500  0.042500  0.050200  1.0  0.0193
  C  C564  1  0.873600  0.141100  0.044200  1.0  0.128
  C  C565  1  0.852500  0.169900  0.180600  1.0  0.0107
  C  C566  1  0.941700  0.086700  0.196300  1.0  0.2194
  C  C567  1  0.590300  0.274700  0.200300  1.0  0.191
  C  C568  1  0.673900  0.178500  0.206500  1.0  0.0352
  C  C569  1  0.547600  0.090800  0.008400  1.0  -0.0945
  C  C570  1  0.995700  0.068200  0.027900  1.0  -0.1274
  C  C571  1  0.867400  0.213100  0.203200  1.0  -0.1521
  C  C572  1  0.687900  0.205200  0.232500  1.0  -0.0928
  C  C573  1  0.488000  0.133000  0.002300  1.0  0.2212
  C  C574  1  0.970900  0.129900  0.014600  1.0  0.1952
  C  C575  1  0.917800  0.187600  0.222100  1.0  0.1834
  C  C576  1  0.652100  0.267300  0.241100  1.0  0.1923
  C  C577  1  0.438900  0.120600  0.978800  1.0  0.1523
  C  C578  1  0.003100  0.156600  0.989100  1.0  0.1857
  C  C579  1  0.929400  0.224800  0.248900  1.0  0.1364
  C  C580  1  0.666667  0.302600  0.267700  1.0  0.0881
  C  C581  1  0.332300  0.156200  0.957300  1.0  0.1587
  C  C582  1  0.451000  0.068400  0.959000  1.0  -0.1323
  C  C583  1  0.064300  0.129000  0.976600  1.0  -0.1232
  C  C584  1  0.988300  0.238200  0.953400  1.0  0.0909
  C  C585  1  0.889900  0.283100  0.258000  1.0  -0.0943
  C  C586  1  0.991200  0.220200  0.290200  1.0  0.1844
  C  C587  1  0.967100  0.030400  0.289600  1.0  0.1659
  C  C588  1  0.025700  0.959800  0.257600  1.0  0.2036
  C  C589  1  0.069700  0.960500  0.231900  1.0  0.2021
  C  C590  1  0.130800  0.031900  0.200900  1.0  0.1937
  C  C591  1  0.715000  0.274800  0.287000  1.0  -0.1163
  C  C592  1  0.648400  0.404000  0.294700  1.0  0.1584
  C  C593  1  0.340500  0.102500  0.937300  1.0  -0.17
  C  C594  1  0.401800  0.059700  0.938400  1.0  -0.0152
  C  C595  1  0.087100  0.156600  0.951300  1.0  -0.1075
  C  C596  1  0.047800  0.211800  0.939800  1.0  -0.1286
  C  C597  1  0.899700  0.310300  0.283600  1.0  -0.1607
  C  C598  1  0.950200  0.277800  0.300900  1.0  -0.1645
  C  C599  1  0.950000  0.970000  0.305700  1.0  -0.1407
  C  C600  1  0.010700  0.898500  0.272400  1.0  -0.1252
  C  C601  1  0.089100  0.898900  0.217700  1.0  -0.1043
  C  C602  1  0.153100  0.972300  0.185800  1.0  -0.1125
  C  C603  1  0.729400  0.314100  0.310300  1.0  0.0333
  C  C604  1  0.697000  0.380400  0.314200  1.0  -0.2353
  C  C605  1  0.284500  0.090200  0.914800  1.0  0.6982
  C  C606  1  0.070600  0.246600  0.913100  1.0  0.7055
  C  C607  1  0.962700  0.299600  0.330200  1.0  0.6912
  C  C608  1  0.909100  0.982900  0.331800  1.0  0.6879
  C  C609  1  0.972400  0.903800  0.296500  1.0  0.0214
  C  C610  1  0.130900  0.904600  0.194200  1.0  0.0035
  C  C611  1  0.204600  0.981400  0.161900  1.0  0.6852
  C  C612  1  0.716100  0.426300  0.338300  1.0  0.6771
  C  C613  1  0.728200  0.071000  0.429800  1.0  0.6686
  C  C614  1  0.743100  0.125900  0.452600  1.0  -0.1516
  C  C615  1  0.681200  0.154000  0.465600  1.0  0.1311
  C  C616  1  0.810300  0.149000  0.460500  1.0  0.0232
  C  C617  1  0.817000  0.198200  0.481500  1.0  -0.1276
  C  C618  1  0.755600  0.225000  0.493900  1.0  0.1398
  C  C619  1  0.753000  0.274500  0.517900  1.0  0.1844
  C  C620  1  0.811700  0.300500  0.531100  1.0  -0.132
  C  C621  1  0.673800  0.327600  0.549100  1.0  0.1437
  C  C622  1  0.802000  0.341400  0.555100  1.0  -0.0083
  C  C623  1  0.732100  0.353500  0.564200  1.0  -0.1554
  C  C624  1  0.715800  0.397200  0.589900  1.0  0.6678
  C  C625  1  0.105900  0.830500  0.424000  1.0  0.6977
  C  C626  1  0.344400  0.950500  0.419500  1.0  0.6972
  C  C627  1  0.365200  0.948100  0.344900  1.0  0.7275
  C  C628  1  0.104400  0.810700  0.338500  1.0  0.6876
  C  C629  1  0.064300  0.840800  0.451100  1.0  -0.1571
  C  C630  1  0.391900  0.922300  0.442500  1.0  -0.1721
  C  C631  1  0.388700  0.895400  0.323000  1.0  -0.2016
  C  C632  1  0.125000  0.786900  0.309800  1.0  -0.1664
  C  C633  1  0.007100  0.796500  0.458900  1.0  0.1743
  C  C634  1  0.085500  0.896100  0.468400  1.0  -0.0171
  C  C635  1  0.454500  0.957500  0.449800  1.0  0.0185
  C  C636  1  0.373600  0.858900  0.455800  1.0  0.128
  C  C637  1  0.352500  0.830100  0.319400  1.0  0.0128
  C  C638  1  0.441700  0.913300  0.303700  1.0  0.2187
  C  C639  1  0.090300  0.725300  0.299700  1.0  0.192
  C  C640  1  0.173900  0.821500  0.293500  1.0  0.0367
  C  C641  1  0.047600  0.909200  0.491600  1.0  -0.0948
  C  C642  1  0.495700  0.931800  0.472100  1.0  -0.128
  C  C643  1  0.367400  0.786900  0.296800  1.0  -0.1524
  C  C644  1  0.187900  0.794800  0.267500  1.0  -0.0924
  C  C645  1  0.988000  0.867000  0.497700  1.0  0.222
  C  C646  1  0.470900  0.870100  0.485400  1.0  0.1943
  C  C647  1  0.417800  0.812400  0.277900  1.0  0.1832
  C  C648  1  0.152100  0.732700  0.258900  1.0  0.193
  C  C649  1  0.938900  0.879400  0.521200  1.0  0.1518
  C  C650  1  0.503100  0.843400  0.510900  1.0  0.1856
  C  C651  1  0.429400  0.775200  0.251100  1.0  0.1357
  C  C652  1  0.166700  0.697400  0.232300  1.0  0.0883
  C  C653  1  0.832300  0.843800  0.542700  1.0  0.1593
  C  C654  1  0.951000  0.931600  0.541000  1.0  -0.1331
  C  C655  1  0.564300  0.871000  0.523400  1.0  -0.1232
  C  C656  1  0.488300  0.761800  0.546600  1.0  0.0933
  C  C657  1  0.389900  0.716900  0.242000  1.0  -0.0948
  C  C658  1  0.491200  0.779800  0.209800  1.0  0.1839
  C  C659  1  0.467100  0.969600  0.210400  1.0  0.1662
  C  C660  1  0.525700  0.040200  0.242400  1.0  0.2032
  C  C661  1  0.569700  0.039500  0.268100  1.0  0.2018
  C  C662  1  0.630800  0.968100  0.299100  1.0  0.1954
  C  C663  1  0.215000  0.725200  0.213000  1.0  -0.116
  C  C664  1  0.148400  0.596000  0.205300  1.0  0.1588
  C  C665  1  0.840500  0.897500  0.562700  1.0  -0.1696
  C  C666  1  0.901800  0.940300  0.561600  1.0  -0.016
  C  C667  1  0.587100  0.843400  0.548700  1.0  -0.1068
  C  C668  1  0.547800  0.788200  0.560200  1.0  -0.1279
  C  C669  1  0.399700  0.689700  0.216400  1.0  -0.1611
  C  C670  1  0.450200  0.722200  0.199100  1.0  -0.1666
  C  C671  1  0.450000  0.030000  0.194300  1.0  -0.1416
  C  C672  1  0.510700  0.101500  0.227600  1.0  -0.1251
  C  C673  1  0.589100  0.101100  0.282300  1.0  -0.1043
  C  C674  1  0.653100  0.027700  0.314200  1.0  -0.1116
  C  C675  1  0.229400  0.685900  0.189700  1.0  0.0333
  C  C676  1  0.197000  0.619600  0.185800  1.0  -0.2373
  C  C677  1  0.784500  0.909800  0.585200  1.0  0.6961
  C  C678  1  0.570600  0.753400  0.586900  1.0  0.7062
  C  C679  1  0.462700  0.700400  0.169800  1.0  0.6929
  C  C680  1  0.409100  0.017100  0.168200  1.0  0.6874
  C  C681  1  0.472400  0.096200  0.203500  1.0  0.0225
  C  C682  1  0.630900  0.095400  0.305800  1.0  0.0052
  C  C683  1  0.704600  0.018600  0.338100  1.0  0.686
  C  C684  1  0.216100  0.573700  0.161700  1.0  0.6763
  C  C685  1  0.228200  0.929000  0.070200  1.0  0.6683
  C  C686  1  0.243100  0.874100  0.047400  1.0  -0.1502
  C  C687  1  0.181200  0.846000  0.034400  1.0  0.1308
  C  C688  1  0.310300  0.851000  0.039500  1.0  0.0234
  C  C689  1  0.317000  0.801800  0.018500  1.0  -0.127
  C  C690  1  0.255600  0.775000  0.006100  1.0  0.1392
  C  C691  1  0.253000  0.725500  0.982100  1.0  0.1846
  C  C692  1  0.311700  0.699500  0.968900  1.0  -0.1324
  C  C693  1  0.173800  0.672400  0.950900  1.0  0.1452
  C  C694  1  0.302000  0.658600  0.944900  1.0  -0.008
  C  C695  1  0.232100  0.646500  0.935800  1.0  -0.1561
  C  C696  1  0.215800  0.602800  0.910100  1.0  0.6685
  C  C697  1  0.105900  0.330500  0.076000  1.0  0.697
  C  C698  1  0.344400  0.450500  0.080500  1.0  0.6983
  C  C699  1  0.365200  0.448100  0.155100  1.0  0.7291
  C  C700  1  0.104400  0.310700  0.161500  1.0  0.6878
  C  C701  1  0.064300  0.340800  0.048900  1.0  -0.1544
  C  C702  1  0.391900  0.422300  0.057500  1.0  -0.1718
  C  C703  1  0.388700  0.395400  0.177000  1.0  -0.2016
  C  C704  1  0.125000  0.286900  0.190200  1.0  -0.1671
  C  C705  1  0.007100  0.296500  0.041100  1.0  0.1738
  C  C706  1  0.085500  0.396100  0.031600  1.0  -0.0169
  C  C707  1  0.454500  0.457500  0.050200  1.0  0.0196
  C  C708  1  0.373600  0.358900  0.044200  1.0  0.1299
  C  C709  1  0.352500  0.330100  0.180600  1.0  0.0115
  C  C710  1  0.441700  0.413300  0.196300  1.0  0.2186
  C  C711  1  0.090300  0.225300  0.200300  1.0  0.1915
  C  C712  1  0.173900  0.321500  0.206500  1.0  0.0354
  C  C713  1  0.047600  0.409200  0.008400  1.0  -0.0949
  C  C714  1  0.495700  0.431800  0.027900  1.0  -0.1271
  C  C715  1  0.367400  0.286900  0.203200  1.0  -0.1526
  C  C716  1  0.187900  0.294800  0.232500  1.0  -0.0924
  C  C717  1  0.988000  0.367000  0.002300  1.0  0.2213
  C  C718  1  0.470900  0.370100  0.014600  1.0  0.1952
  C  C719  1  0.417800  0.312400  0.222100  1.0  0.1835
  C  C720  1  0.152100  0.232700  0.241100  1.0  0.1934
  C  C721  1  0.938900  0.379400  0.978800  1.0  0.1525
  C  C722  1  0.503100  0.343400  0.989100  1.0  0.1861
  C  C723  1  0.429400  0.275200  0.248900  1.0  0.1362
  C  C724  1  0.166700  0.197400  0.267700  1.0  0.0884
  C  C725  1  0.832300  0.343800  0.957300  1.0  0.1561
  C  C726  1  0.951000  0.431600  0.959000  1.0  -0.1329
  C  C727  1  0.564300  0.371000  0.976600  1.0  -0.1232
  C  C728  1  0.488300  0.261800  0.953400  1.0  0.0919
  C  C729  1  0.389900  0.216900  0.258000  1.0  -0.0947
  C  C730  1  0.491200  0.279800  0.290200  1.0  0.1843
  C  C731  1  0.467100  0.469600  0.289600  1.0  0.1667
  C  C732  1  0.525700  0.540200  0.257600  1.0  0.2036
  C  C733  1  0.569700  0.539500  0.231900  1.0  0.2021
  C  C734  1  0.630800  0.468100  0.200900  1.0  0.1938
  C  C735  1  0.215000  0.225200  0.287000  1.0  -0.1157
  C  C736  1  0.148400  0.096000  0.294700  1.0  0.1587
  C  C737  1  0.840500  0.397500  0.937300  1.0  -0.1702
  C  C738  1  0.901800  0.440300  0.938400  1.0  -0.0153
  C  C739  1  0.587100  0.343400  0.951300  1.0  -0.1075
  C  C740  1  0.547800  0.288200  0.939800  1.0  -0.1294
  C  C741  1  0.399700  0.189700  0.283600  1.0  -0.1608
  C  C742  1  0.450200  0.222200  0.300900  1.0  -0.1645
  C  C743  1  0.450000  0.530000  0.305700  1.0  -0.1406
  C  C744  1  0.510700  0.601500  0.272400  1.0  -0.125
  C  C745  1  0.589100  0.601100  0.217700  1.0  -0.1039
  C  C746  1  0.653100  0.527700  0.185800  1.0  -0.1126
  C  C747  1  0.229400  0.185900  0.310300  1.0  0.0335
  C  C748  1  0.197000  0.119600  0.314200  1.0  -0.2356
  C  C749  1  0.784500  0.409800  0.914800  1.0  0.6971
  C  C750  1  0.570600  0.253400  0.913100  1.0  0.706
  C  C751  1  0.462700  0.200400  0.330200  1.0  0.6912
  C  C752  1  0.409100  0.517100  0.331800  1.0  0.6877
  C  C753  1  0.472400  0.596200  0.296500  1.0  0.0227
  C  C754  1  0.630900  0.595400  0.194200  1.0  0.0039
  C  C755  1  0.704600  0.518600  0.161900  1.0  0.6855
  C  C756  1  0.216100  0.073700  0.338300  1.0  0.6767
  C  C757  1  0.228200  0.429000  0.429800  1.0  0.6694
  C  C758  1  0.243100  0.374100  0.452600  1.0  -0.1504
  C  C759  1  0.181200  0.346000  0.465600  1.0  0.1305
  C  C760  1  0.310300  0.351000  0.460500  1.0  0.0227
  C  C761  1  0.317000  0.301800  0.481500  1.0  -0.127
  C  C762  1  0.255600  0.275000  0.493900  1.0  0.1397
  C  C763  1  0.253000  0.225500  0.517900  1.0  0.1843
  C  C764  1  0.311700  0.199500  0.531100  1.0  -0.1323
  C  C765  1  0.173800  0.172400  0.549100  1.0  0.1441
  C  C766  1  0.302000  0.158600  0.555100  1.0  -0.0081
  C  C767  1  0.232100  0.146500  0.564200  1.0  -0.1545
  C  C768  1  0.215800  0.102800  0.589900  1.0  0.6675
  C  C769  1  0.605900  0.669500  0.424000  1.0  0.6973
  C  C770  1  0.844400  0.549500  0.419500  1.0  0.6972
  C  C771  1  0.865200  0.551900  0.344900  1.0  0.7268
  C  C772  1  0.604400  0.689300  0.338500  1.0  0.6873
  C  C773  1  0.564300  0.659200  0.451100  1.0  -0.1568
  C  C774  1  0.891900  0.577700  0.442500  1.0  -0.1737
  C  C775  1  0.888700  0.604600  0.323000  1.0  -0.2001
  C  C776  1  0.625000  0.713100  0.309800  1.0  -0.1653
  C  C777  1  0.507100  0.703500  0.458900  1.0  0.1745
  C  C778  1  0.585500  0.603900  0.468400  1.0  -0.0167
  C  C779  1  0.954500  0.542500  0.449800  1.0  0.0185
  C  C780  1  0.873600  0.641100  0.455800  1.0  0.1294
  C  C781  1  0.852500  0.669900  0.319400  1.0  0.0116
  C  C782  1  0.941700  0.586700  0.303700  1.0  0.2198
  C  C783  1  0.590300  0.774700  0.299700  1.0  0.191
  C  C784  1  0.673900  0.678500  0.293500  1.0  0.0362
  C  C785  1  0.547600  0.590800  0.491600  1.0  -0.0943
  C  C786  1  0.995700  0.568200  0.472100  1.0  -0.1281
  C  C787  1  0.867400  0.713100  0.296800  1.0  -0.1521
  C  C788  1  0.687900  0.705200  0.267500  1.0  -0.0928
  C  C789  1  0.488000  0.633000  0.497700  1.0  0.2217
  C  C790  1  0.970900  0.629900  0.485400  1.0  0.1946
  C  C791  1  0.917800  0.687600  0.277900  1.0  0.1831
  C  C792  1  0.652100  0.767300  0.258900  1.0  0.1919
  C  C793  1  0.438900  0.620600  0.521200  1.0  0.1513
  C  C794  1  0.003100  0.656600  0.510900  1.0  0.1853
  C  C795  1  0.929400  0.724800  0.251100  1.0  0.1359
  C  C796  1  0.666667  0.802600  0.232300  1.0  0.0881
  C  C797  1  0.332300  0.656200  0.542700  1.0  0.1568
  C  C798  1  0.451000  0.568400  0.541000  1.0  -0.1328
  C  C799  1  0.064300  0.629000  0.523400  1.0  -0.1228
  C  C800  1  0.988300  0.738200  0.546600  1.0  0.0929
  C  C801  1  0.889900  0.783100  0.242000  1.0  -0.0947
  C  C802  1  0.991200  0.720200  0.209800  1.0  0.1838
  C  C803  1  0.967100  0.530400  0.210400  1.0  0.1654
  C  C804  1  0.025700  0.459800  0.242400  1.0  0.203
  C  C805  1  0.069700  0.460500  0.268100  1.0  0.2017
  C  C806  1  0.130800  0.531900  0.299100  1.0  0.1949
  C  C807  1  0.715000  0.774800  0.213000  1.0  -0.1169
  C  C808  1  0.648400  0.904000  0.205300  1.0  0.1584
  C  C809  1  0.340500  0.602500  0.562700  1.0  -0.1695
  C  C810  1  0.401800  0.559700  0.561600  1.0  -0.0161
  C  C811  1  0.087100  0.656600  0.548700  1.0  -0.1067
  C  C812  1  0.047800  0.711800  0.560200  1.0  -0.1283
  C  C813  1  0.899700  0.810300  0.216400  1.0  -0.1613
  C  C814  1  0.950200  0.777800  0.199100  1.0  -0.1662
  C  C815  1  0.950000  0.470000  0.194300  1.0  -0.1413
  C  C816  1  0.010700  0.398500  0.227600  1.0  -0.1252
  C  C817  1  0.089100  0.398900  0.282300  1.0  -0.1042
  C  C818  1  0.153100  0.472300  0.314200  1.0  -0.112
  C  C819  1  0.729400  0.814100  0.189700  1.0  0.0332
  C  C820  1  0.697000  0.880400  0.185800  1.0  -0.2361
  C  C821  1  0.284500  0.590200  0.585200  1.0  0.6961
  C  C822  1  0.070600  0.746600  0.586900  1.0  0.706
  C  C823  1  0.962700  0.799600  0.169800  1.0  0.6927
  C  C824  1  0.909100  0.482900  0.168200  1.0  0.6876
  C  C825  1  0.972400  0.403800  0.203500  1.0  0.022
  C  C826  1  0.130900  0.404600  0.305800  1.0  0.0038
  C  C827  1  0.204600  0.481400  0.338100  1.0  0.6854
  C  C828  1  0.716100  0.926300  0.161700  1.0  0.6764
  C  C829  1  0.728200  0.571000  0.070200  1.0  0.6688
  C  C830  1  0.743100  0.625900  0.047400  1.0  -0.1504
  C  C831  1  0.681200  0.654000  0.034400  1.0  0.1314
  C  C832  1  0.810300  0.649000  0.039500  1.0  0.0241
  C  C833  1  0.817000  0.698200  0.018500  1.0  -0.1275
  C  C834  1  0.755600  0.725000  0.006100  1.0  0.1393
  C  C835  1  0.753000  0.774500  0.982100  1.0  0.1849
  C  C836  1  0.811700  0.800500  0.968900  1.0  -0.1321
  C  C837  1  0.673800  0.827600  0.950900  1.0  0.1445
  C  C838  1  0.802000  0.841400  0.944900  1.0  -0.0078
  C  C839  1  0.732100  0.853500  0.935800  1.0  -0.155
  C  C840  1  0.715800  0.897200  0.910100  1.0  0.6683
  C  C841  1  0.394100  0.830500  0.924000  1.0  0.6974
  C  C842  1  0.155600  0.950500  0.919500  1.0  0.6973
  C  C843  1  0.134800  0.948100  0.844900  1.0  0.7268
  C  C844  1  0.395600  0.810700  0.838500  1.0  0.6868
  C  C845  1  0.435700  0.840800  0.951100  1.0  -0.1577
  C  C846  1  0.108100  0.922300  0.942500  1.0  -0.1718
  C  C847  1  0.111300  0.895400  0.823000  1.0  -0.202
  C  C848  1  0.375000  0.786900  0.809800  1.0  -0.1659
  C  C849  1  0.492900  0.796500  0.958900  1.0  0.1741
  C  C850  1  0.414500  0.896100  0.968400  1.0  -0.0176
  C  C851  1  0.045500  0.957500  0.949800  1.0  0.0189
  C  C852  1  0.126400  0.858900  0.955800  1.0  0.1285
  C  C853  1  0.147500  0.830100  0.819400  1.0  0.0139
  C  C854  1  0.058300  0.913300  0.803700  1.0  0.2195
  C  C855  1  0.409700  0.725300  0.799700  1.0  0.1916
  C  C856  1  0.326100  0.821500  0.793500  1.0  0.0385
  C  C857  1  0.452400  0.909200  0.991600  1.0  -0.0957
  C  C858  1  0.004300  0.931800  0.972100  1.0  -0.1272
  C  C859  1  0.132600  0.786900  0.796800  1.0  -0.1526
  C  C860  1  0.312100  0.794800  0.767500  1.0  -0.0917
  C  C861  1  0.512000  0.867000  0.997700  1.0  0.222
  C  C862  1  0.029100  0.870100  0.985400  1.0  0.1939
  C  C863  1  0.082200  0.812400  0.777900  1.0  0.1834
  C  C864  1  0.347900  0.732700  0.758900  1.0  0.1922
  C  C865  1  0.561100  0.879400  0.021200  1.0  0.1514
  C  C866  1  0.996900  0.843400  0.010900  1.0  0.1859
  C  C867  1  0.070600  0.775200  0.751100  1.0  0.136
  C  C868  1  0.333333  0.697400  0.732300  1.0  0.0882
  C  C869  1  0.667700  0.843800  0.042700  1.0  0.1575
  C  C870  1  0.549000  0.931600  0.041000  1.0  -0.1325
  C  C871  1  0.935700  0.871000  0.023400  1.0  -0.1228
  C  C872  1  0.011700  0.761800  0.046600  1.0  0.0956
  C  C873  1  0.110100  0.716900  0.742000  1.0  -0.0973
  C  C874  1  0.008800  0.779800  0.709800  1.0  0.1835
  C  C875  1  0.032900  0.969600  0.710400  1.0  0.1665
  C  C876  1  0.974300  0.040200  0.742400  1.0  0.2035
  C  C877  1  0.930300  0.039500  0.768100  1.0  0.2014
  C  C878  1  0.869200  0.968100  0.799100  1.0  0.1958
  C  C879  1  0.285000  0.725200  0.713000  1.0  -0.1148
  C  C880  1  0.351600  0.596000  0.705300  1.0  0.1594
  C  C881  1  0.659500  0.897500  0.062700  1.0  -0.1705
  C  C882  1  0.598200  0.940300  0.061600  1.0  -0.0171
  C  C883  1  0.912900  0.843400  0.048700  1.0  -0.1068
  C  C884  1  0.952200  0.788200  0.060200  1.0  -0.1283
  C  C885  1  0.100300  0.689700  0.716400  1.0  -0.1606
  C  C886  1  0.049800  0.722200  0.699100  1.0  -0.1668
  C  C887  1  0.050000  0.030000  0.694300  1.0  -0.1403
  C  C888  1  0.989300  0.101500  0.727600  1.0  -0.1253
  C  C889  1  0.910900  0.101100  0.782300  1.0  -0.1042
  C  C890  1  0.846900  0.027700  0.814200  1.0  -0.1116
  C  C891  1  0.270600  0.685900  0.689700  1.0  0.0341
  C  C892  1  0.303000  0.619600  0.685800  1.0  -0.237
  C  C893  1  0.715500  0.909800  0.085200  1.0  0.6953
  C  C894  1  0.929400  0.753400  0.086900  1.0  0.7067
  C  C895  1  0.037300  0.700400  0.669800  1.0  0.6929
  C  C896  1  0.090900  0.017100  0.668200  1.0  0.6867
  C  C897  1  0.027600  0.096200  0.703500  1.0  0.0226
  C  C898  1  0.869100  0.095400  0.805800  1.0  0.0047
  C  C899  1  0.795400  0.018600  0.838100  1.0  0.6862
  C  C900  1  0.283900  0.573700  0.661700  1.0  0.6765
  C  C901  1  0.271800  0.929000  0.570200  1.0  0.6694
  C  C902  1  0.256900  0.874100  0.547400  1.0  -0.1501
  C  C903  1  0.318800  0.846000  0.534400  1.0  0.1306
  C  C904  1  0.189700  0.851000  0.539500  1.0  0.0221
  C  C905  1  0.183000  0.801800  0.518500  1.0  -0.1267
  C  C906  1  0.244400  0.775000  0.506100  1.0  0.1398
  C  C907  1  0.247000  0.725500  0.482100  1.0  0.1853
  C  C908  1  0.188300  0.699500  0.468900  1.0  -0.1306
  C  C909  1  0.326200  0.672400  0.450900  1.0  0.1457
  C  C910  1  0.198000  0.658600  0.444900  1.0  -0.0072
  C  C911  1  0.267900  0.646500  0.435800  1.0  -0.1564
  C  C912  1  0.284200  0.602800  0.410100  1.0  0.669
  C  C913  1  0.894100  0.169500  0.576000  1.0  0.6964
  C  C914  1  0.655600  0.049500  0.580500  1.0  0.6974
  C  C915  1  0.634800  0.051900  0.655100  1.0  0.728
  C  C916  1  0.895600  0.189300  0.661500  1.0  0.6858
  C  C917  1  0.935700  0.159200  0.548900  1.0  -0.1554
  C  C918  1  0.608100  0.077700  0.557500  1.0  -0.172
  C  C919  1  0.611300  0.104600  0.677000  1.0  -0.2029
  C  C920  1  0.875000  0.213100  0.690200  1.0  -0.1669
  C  C921  1  0.992900  0.203500  0.541100  1.0  0.1735
  C  C922  1  0.914500  0.103900  0.531600  1.0  -0.0173
  C  C923  1  0.545500  0.042500  0.550200  1.0  0.0192
  C  C924  1  0.626400  0.141100  0.544200  1.0  0.1297
  C  C925  1  0.647500  0.169900  0.680600  1.0  0.012
  C  C926  1  0.558300  0.086700  0.696300  1.0  0.2209
  C  C927  1  0.909700  0.274700  0.700300  1.0  0.1915
  C  C928  1  0.826100  0.178500  0.706500  1.0  0.0363
  C  C929  1  0.952400  0.090800  0.508400  1.0  -0.0952
  C  C930  1  0.504300  0.068200  0.527900  1.0  -0.1272
  C  C931  1  0.632600  0.213100  0.703200  1.0  -0.1525
  C  C932  1  0.812100  0.205200  0.732500  1.0  -0.0921
  C  C933  1  0.012000  0.133000  0.502300  1.0  0.2213
  C  C934  1  0.529100  0.129900  0.514600  1.0  0.1949
  C  C935  1  0.582200  0.187600  0.722100  1.0  0.1834
  C  C936  1  0.847900  0.267300  0.741100  1.0  0.1923
  C  C937  1  0.061100  0.120600  0.478800  1.0  0.1517
  C  C938  1  0.496900  0.156600  0.489100  1.0  0.1859
  C  C939  1  0.570600  0.224800  0.748900  1.0  0.1367
  C  C940  1  0.833300  0.302600  0.767700  1.0  0.0889
  C  C941  1  0.167700  0.156200  0.457300  1.0  0.1566
  C  C942  1  0.049000  0.068400  0.459000  1.0  -0.1315
  C  C943  1  0.435700  0.129000  0.476600  1.0  -0.1224
  C  C944  1  0.511700  0.238200  0.453400  1.0  0.0918
  C  C945  1  0.610100  0.283100  0.758000  1.0  -0.0968
  C  C946  1  0.508800  0.220200  0.790200  1.0  0.1848
  C  C947  1  0.532900  0.030400  0.789600  1.0  0.1653
  C  C948  1  0.474300  0.959800  0.757600  1.0  0.2039
  C  C949  1  0.430300  0.960500  0.731900  1.0  0.2016
  C  C950  1  0.369200  0.031900  0.700900  1.0  0.1935
  C  C951  1  0.785000  0.274800  0.787000  1.0  -0.1157
  C  C952  1  0.851600  0.404000  0.794700  1.0  0.1591
  C  C953  1  0.159500  0.102500  0.437300  1.0  -0.1704
  C  C954  1  0.098200  0.059700  0.438400  1.0  -0.0159
  C  C955  1  0.412900  0.156600  0.451300  1.0  -0.1072
  C  C956  1  0.452200  0.211800  0.439800  1.0  -0.1292
  C  C957  1  0.600300  0.310300  0.783600  1.0  -0.16
  C  C958  1  0.549800  0.277800  0.800900  1.0  -0.1652
  C  C959  1  0.550000  0.970000  0.805700  1.0  -0.1403
  C  C960  1  0.489300  0.898500  0.772400  1.0  -0.1259
  C  C961  1  0.410900  0.898900  0.717700  1.0  -0.1041
  C  C962  1  0.346900  0.972300  0.685800  1.0  -0.1126
  C  C963  1  0.770600  0.314100  0.810300  1.0  0.0346
  C  C964  1  0.803000  0.380400  0.814200  1.0  -0.2353
  C  C965  1  0.215500  0.090200  0.414800  1.0  0.6972
  C  C966  1  0.429400  0.246600  0.413100  1.0  0.7059
  C  C967  1  0.537300  0.299600  0.830200  1.0  0.69
  C  C968  1  0.590900  0.982900  0.831800  1.0  0.6876
  C  C969  1  0.527600  0.903800  0.796500  1.0  0.0216
  C  C970  1  0.369100  0.904600  0.694200  1.0  0.0039
  C  C971  1  0.295400  0.981400  0.661900  1.0  0.6857
  C  C972  1  0.783900  0.426300  0.838300  1.0  0.6774
  C  C973  1  0.771800  0.071000  0.929800  1.0  0.6688
  C  C974  1  0.756900  0.125900  0.952600  1.0  -0.1513
  C  C975  1  0.818800  0.154000  0.965600  1.0  0.1308
  C  C976  1  0.689700  0.149000  0.960500  1.0  0.0224
  C  C977  1  0.683000  0.198200  0.981500  1.0  -0.1269
  C  C978  1  0.744400  0.225000  0.993900  1.0  0.1404
  C  C979  1  0.747000  0.274500  0.017900  1.0  0.185
  C  C980  1  0.688300  0.300500  0.031100  1.0  -0.1302
  C  C981  1  0.826200  0.327600  0.049100  1.0  0.1446
  C  C982  1  0.698000  0.341400  0.055100  1.0  -0.0091
  C  C983  1  0.767900  0.353500  0.064200  1.0  -0.1558
  C  C984  1  0.784200  0.397200  0.089900  1.0  0.6681
  N  N985  1  0.031500  0.689700  0.981900  1.0  -0.3315
  N  N986  1  0.587500  0.666800  0.976800  1.0  -0.3313
  N  N987  1  0.543200  0.627000  0.781800  1.0  -0.3542
  N  N988  1  0.897300  0.801700  0.774600  1.0  -0.3439
  N  N989  1  0.119600  0.665800  0.022800  1.0  -0.3517
  N  N990  1  0.815900  0.789700  0.473900  1.0  -0.2952
  N  N991  1  0.811400  0.702900  0.514600  1.0  -0.3293
  N  N992  1  0.533800  0.712600  0.021900  1.0  -0.3525
  N  N993  1  0.517900  0.694800  0.735200  1.0  -0.3487
  N  N994  1  0.494200  0.525900  0.733300  1.0  -0.3278
  N  N995  1  0.411000  0.526700  0.776700  1.0  -0.3442
  N  N996  1  0.867900  0.866900  0.727800  1.0  -0.3359
  N  N997  1  0.531500  0.310300  0.518100  1.0  -0.3317
  N  N998  1  0.087500  0.333200  0.523200  1.0  -0.3321
  N  N999  1  0.043200  0.373000  0.718200  1.0  -0.3545
  N  N1000  1  0.397300  0.198300  0.725400  1.0  -0.3428
  N  N1001  1  0.619600  0.334200  0.477200  1.0  -0.3524
  N  N1002  1  0.315900  0.210300  0.026100  1.0  -0.2961
  N  N1003  1  0.311400  0.297100  0.985400  1.0  -0.3299
  N  N1004  1  0.033800  0.287400  0.478100  1.0  -0.3511
  N  N1005  1  0.017900  0.305200  0.764800  1.0  -0.3489
  N  N1006  1  0.994200  0.474100  0.766700  1.0  -0.3269
  N  N1007  1  0.911000  0.473300  0.723300  1.0  -0.344
  N  N1008  1  0.367900  0.133100  0.772200  1.0  -0.3362
  N  N1009  1  0.468500  0.189700  0.018100  1.0  -0.3308
  N  N1010  1  0.912500  0.166800  0.023200  1.0  -0.3317
  N  N1011  1  0.956800  0.127000  0.218200  1.0  -0.3531
  N  N1012  1  0.602700  0.301700  0.225400  1.0  -0.3435
  N  N1013  1  0.380400  0.165800  0.977200  1.0  -0.3518
  N  N1014  1  0.684100  0.289700  0.526100  1.0  -0.2965
  N  N1015  1  0.688600  0.202900  0.485400  1.0  -0.3289
  N  N1016  1  0.966200  0.212600  0.978100  1.0  -0.3523
  N  N1017  1  0.982100  0.194800  0.264800  1.0  -0.3492
  N  N1018  1  0.005800  0.025900  0.266700  1.0  -0.3275
  N  N1019  1  0.089000  0.026700  0.223300  1.0  -0.3434
  N  N1020  1  0.632100  0.366900  0.272200  1.0  -0.3357
  N  N1021  1  0.968500  0.810300  0.481900  1.0  -0.3316
  N  N1022  1  0.412500  0.833200  0.476800  1.0  -0.3317
  N  N1023  1  0.456800  0.873000  0.281800  1.0  -0.3536
  N  N1024  1  0.102700  0.698300  0.274600  1.0  -0.3418
  N  N1025  1  0.880400  0.834200  0.522800  1.0  -0.3523
  N  N1026  1  0.184100  0.710300  0.973900  1.0  -0.2959
  N  N1027  1  0.188600  0.797100  0.014600  1.0  -0.3291
  N  N1028  1  0.466200  0.787400  0.521900  1.0  -0.3514
  N  N1029  1  0.482100  0.805200  0.235200  1.0  -0.3496
  N  N1030  1  0.505800  0.974100  0.233300  1.0  -0.3271
  N  N1031  1  0.589000  0.973300  0.276700  1.0  -0.344
  N  N1032  1  0.132100  0.633100  0.227800  1.0  -0.3341
  N  N1033  1  0.968500  0.310300  0.018100  1.0  -0.3313
  N  N1034  1  0.412500  0.333200  0.023200  1.0  -0.3319
  N  N1035  1  0.456800  0.373000  0.218200  1.0  -0.3537
  N  N1036  1  0.102700  0.198300  0.225400  1.0  -0.3418
  N  N1037  1  0.880400  0.334200  0.977200  1.0  -0.3523
  N  N1038  1  0.184100  0.210300  0.526100  1.0  -0.2965
  N  N1039  1  0.188600  0.297100  0.485400  1.0  -0.3291
  N  N1040  1  0.466200  0.287400  0.978100  1.0  -0.3516
  N  N1041  1  0.482100  0.305200  0.264800  1.0  -0.3495
  N  N1042  1  0.505800  0.474100  0.266700  1.0  -0.3271
  N  N1043  1  0.589000  0.473300  0.223300  1.0  -0.3435
  N  N1044  1  0.132100  0.133100  0.272200  1.0  -0.3355
  N  N1045  1  0.468500  0.689700  0.481900  1.0  -0.3314
  N  N1046  1  0.912500  0.666800  0.476800  1.0  -0.3311
  N  N1047  1  0.956800  0.627000  0.281800  1.0  -0.3532
  N  N1048  1  0.602700  0.801700  0.274600  1.0  -0.3438
  N  N1049  1  0.380400  0.665800  0.522800  1.0  -0.3521
  N  N1050  1  0.684100  0.789700  0.973900  1.0  -0.2958
  N  N1051  1  0.688600  0.702900  0.014600  1.0  -0.3288
  N  N1052  1  0.966200  0.712600  0.521900  1.0  -0.3519
  N  N1053  1  0.982100  0.694800  0.235200  1.0  -0.3493
  N  N1054  1  0.005800  0.525900  0.233300  1.0  -0.3273
  N  N1055  1  0.089000  0.526700  0.276700  1.0  -0.3438
  N  N1056  1  0.632100  0.866900  0.227800  1.0  -0.3344
  N  N1057  1  0.531500  0.810300  0.981900  1.0  -0.3319
  N  N1058  1  0.087500  0.833200  0.976800  1.0  -0.3319
  N  N1059  1  0.043200  0.873000  0.781800  1.0  -0.3541
  N  N1060  1  0.397300  0.698300  0.774600  1.0  -0.343
  N  N1061  1  0.619600  0.834200  0.022800  1.0  -0.3523
  N  N1062  1  0.315900  0.710300  0.473900  1.0  -0.295
  N  N1063  1  0.311400  0.797100  0.514600  1.0  -0.3297
  N  N1064  1  0.033800  0.787400  0.021900  1.0  -0.3519
  N  N1065  1  0.017900  0.805200  0.735200  1.0  -0.3489
  N  N1066  1  0.994200  0.974100  0.733300  1.0  -0.3273
  N  N1067  1  0.911000  0.973300  0.776700  1.0  -0.3446
  N  N1068  1  0.367900  0.633100  0.727800  1.0  -0.3348
  N  N1069  1  0.031500  0.189700  0.518100  1.0  -0.3312
  N  N1070  1  0.587500  0.166800  0.523200  1.0  -0.3318
  N  N1071  1  0.543200  0.127000  0.718200  1.0  -0.3542
  N  N1072  1  0.897300  0.301700  0.725400  1.0  -0.3436
  N  N1073  1  0.119600  0.165800  0.477200  1.0  -0.3514
  N  N1074  1  0.815900  0.289700  0.026100  1.0  -0.2963
  N  N1075  1  0.811400  0.202900  0.985400  1.0  -0.3295
  N  N1076  1  0.533800  0.212600  0.478100  1.0  -0.3518
  N  N1077  1  0.517900  0.194800  0.764800  1.0  -0.3484
  N  N1078  1  0.494200  0.025900  0.766700  1.0  -0.3276
  N  N1079  1  0.411000  0.026700  0.723300  1.0  -0.3438
  N  N1080  1  0.867900  0.366900  0.772200  1.0  -0.337
  Cl  Cl1081  1  0.725000  0.494100  0.992160  1.0  1.606
  Cl  Cl1082  1  0.705100  0.508900  0.761340  1.0  1.2816
  Cl  Cl1083  1  0.225000  0.505900  0.507840  1.0  1.6062
  Cl  Cl1084  1  0.205100  0.491100  0.738660  1.0  1.2772
  Cl  Cl1085  1  0.775000  0.994100  0.007840  1.0  1.6065
  Cl  Cl1086  1  0.794900  0.008900  0.238660  1.0  1.2831
  Cl  Cl1087  1  0.275000  0.005900  0.492160  1.0  1.6064
  Cl  Cl1088  1  0.294900  0.991100  0.261340  1.0  1.2772
  Cl  Cl1089  1  0.275000  0.505900  0.007840  1.0  1.6065
  Cl  Cl1090  1  0.294900  0.491100  0.238660  1.0  1.2769
  Cl  Cl1091  1  0.775000  0.494100  0.492160  1.0  1.6063
  Cl  Cl1092  1  0.794900  0.508900  0.261340  1.0  1.2833
  Cl  Cl1093  1  0.225000  0.005900  0.992160  1.0  1.6061
  Cl  Cl1094  1  0.205100  0.991100  0.761340  1.0  1.2776
  Cl  Cl1095  1  0.725000  0.994100  0.507840  1.0  1.6062
  Cl  Cl1096  1  0.705100  0.008900  0.738660  1.0  1.2812
  O  O1097  1  0.867800  0.612900  0.914610  1.0  -0.6525
  O  O1098  1  0.711100  0.585900  0.913890  1.0  -0.6641
  O  O1099  1  0.691800  0.567800  0.856520  1.0  -0.6437
  O  O1100  1  0.868600  0.629400  0.845600  1.0  -0.6634
  O  O1101  1  0.932900  0.519200  0.877100  1.0  -0.7826
  O  O1102  1  0.766700  0.697400  0.879700  1.0  -0.8223
  O  O1103  1  0.205100  0.534700  0.098660  1.0  -0.6537
  O  O1104  1  0.817700  0.982800  0.657500  1.0  -0.626
  O  O1105  1  0.887800  0.731900  0.915100  1.0  -0.5707
  O  O1106  1  0.635000  0.492400  0.908920  1.0  -0.6357
  O  O1107  1  0.595200  0.498600  0.848900  1.0  -0.619
  O  O1108  1  0.933600  0.728900  0.852400  1.0  -0.5487
  O  O1109  1  0.268300  0.632700  0.088180  1.0  -0.669
  O  O1110  1  0.448800  0.810000  0.090500  1.0  -0.5522
  O  O1111  1  0.392700  0.709200  0.103270  1.0  -0.6587
  O  O1112  1  0.582000  0.842500  0.659800  1.0  -0.7207
  O  O1113  1  0.482500  0.772600  0.657700  1.0  -0.6059
  O  O1114  1  0.613500  0.545300  0.663700  1.0  -0.6268
  O  O1115  1  0.600900  0.432100  0.652000  1.0  -0.5904
  O  O1116  1  0.251000  0.532800  0.837300  1.0  -0.6192
  O  O1117  1  0.296300  0.438300  0.857400  1.0  -0.6011
  O  O1118  1  0.730600  0.903400  0.647700  1.0  -0.6924
  O  O1119  1  0.715300  0.551600  0.582200  1.0  -0.6227
  O  O1120  1  0.672200  0.643500  0.626500  1.0  -0.8323
  O  O1121  1  0.565400  0.543700  0.603200  1.0  -0.7681
  O  O1122  1  0.849400  0.916500  0.406800  1.0  -0.6704
  O  O1123  1  0.735600  0.913100  0.394100  1.0  -0.5954
  O  O1124  1  0.836400  0.551800  0.573800  1.0  -0.575
  O  O1125  1  0.510400  0.416200  0.892700  1.0  -0.8127
  O  O1126  1  0.367800  0.387100  0.585390  1.0  -0.6518
  O  O1127  1  0.211100  0.414100  0.586110  1.0  -0.6648
  O  O1128  1  0.191800  0.432200  0.643480  1.0  -0.6446
  O  O1129  1  0.368600  0.370600  0.654400  1.0  -0.664
  O  O1130  1  0.432900  0.480800  0.622900  1.0  -0.7845
  O  O1131  1  0.266700  0.302600  0.620300  1.0  -0.8226
  O  O1132  1  0.705100  0.465300  0.401340  1.0  -0.6543
  O  O1133  1  0.317700  0.017200  0.842500  1.0  -0.6251
  O  O1134  1  0.387800  0.268100  0.584900  1.0  -0.5702
  O  O1135  1  0.135000  0.507600  0.591080  1.0  -0.637
  O  O1136  1  0.095200  0.501400  0.651100  1.0  -0.6179
  O  O1137  1  0.433600  0.271100  0.647600  1.0  -0.549
  O  O1138  1  0.768300  0.367300  0.411820  1.0  -0.6682
  O  O1139  1  0.948800  0.190000  0.409500  1.0  -0.5529
  O  O1140  1  0.892700  0.290800  0.396730  1.0  -0.6576
  O  O1141  1  0.082000  0.157500  0.840200  1.0  -0.72
  O  O1142  1  0.982500  0.227400  0.842300  1.0  -0.6081
  O  O1143  1  0.113500  0.454700  0.836300  1.0  -0.6288
  O  O1144  1  0.100900  0.567900  0.848000  1.0  -0.59
  O  O1145  1  0.751000  0.467200  0.662700  1.0  -0.6197
  O  O1146  1  0.796300  0.561700  0.642600  1.0  -0.601
  O  O1147  1  0.230600  0.096600  0.852300  1.0  -0.6928
  O  O1148  1  0.215300  0.448400  0.917800  1.0  -0.6229
  O  O1149  1  0.172200  0.356500  0.873500  1.0  -0.8305
  O  O1150  1  0.065400  0.456300  0.896800  1.0  -0.77
  O  O1151  1  0.349400  0.083500  0.093200  1.0  -0.6688
  O  O1152  1  0.235600  0.086900  0.105900  1.0  -0.5943
  O  O1153  1  0.336400  0.448200  0.926200  1.0  -0.5753
  O  O1154  1  0.010400  0.583800  0.607300  1.0  -0.8113
  O  O1155  1  0.632200  0.112900  0.085390  1.0  -0.6524
  O  O1156  1  0.788900  0.085900  0.086110  1.0  -0.6629
  O  O1157  1  0.808200  0.067800  0.143480  1.0  -0.6435
  O  O1158  1  0.631400  0.129400  0.154400  1.0  -0.6644
  O  O1159  1  0.567100  0.019200  0.122900  1.0  -0.7831
  O  O1160  1  0.733300  0.197400  0.120300  1.0  -0.8233
  O  O1161  1  0.294900  0.034700  0.901340  1.0  -0.6526
  O  O1162  1  0.682300  0.482800  0.342500  1.0  -0.6261
  O  O1163  1  0.612200  0.231900  0.084900  1.0  -0.5697
  O  O1164  1  0.865000  0.992400  0.091080  1.0  -0.6366
  O  O1165  1  0.904800  0.998600  0.151100  1.0  -0.6176
  O  O1166  1  0.566400  0.228900  0.147600  1.0  -0.5472
  O  O1167  1  0.231700  0.132700  0.911820  1.0  -0.6678
  O  O1168  1  0.051200  0.310000  0.909500  1.0  -0.552
  O  O1169  1  0.107300  0.209200  0.896730  1.0  -0.6575
  O  O1170  1  0.918000  0.342500  0.340200  1.0  -0.7215
  O  O1171  1  0.017500  0.272600  0.342300  1.0  -0.6076
  O  O1172  1  0.886500  0.045300  0.336300  1.0  -0.6283
  O  O1173  1  0.899100  0.932100  0.348000  1.0  -0.5887
  O  O1174  1  0.249000  0.032800  0.162700  1.0  -0.6203
  O  O1175  1  0.203700  0.938300  0.142600  1.0  -0.6009
  O  O1176  1  0.769400  0.403400  0.352300  1.0  -0.6919
  O  O1177  1  0.784700  0.051600  0.417800  1.0  -0.624
  O  O1178  1  0.827800  0.143500  0.373500  1.0  -0.833
  O  O1179  1  0.934600  0.043700  0.396800  1.0  -0.7699
  O  O1180  1  0.650600  0.416500  0.593200  1.0  -0.6702
  O  O1181  1  0.764400  0.413100  0.605900  1.0  -0.5949
  O  O1182  1  0.663600  0.051800  0.426200  1.0  -0.5758
  O  O1183  1  0.989600  0.916200  0.107300  1.0  -0.8138
  O  O1184  1  0.132200  0.887100  0.414610  1.0  -0.6531
  O  O1185  1  0.288900  0.914100  0.413890  1.0  -0.6632
  O  O1186  1  0.308200  0.932200  0.356520  1.0  -0.6434
  O  O1187  1  0.131400  0.870600  0.345600  1.0  -0.6649
  O  O1188  1  0.067100  0.980800  0.377100  1.0  -0.7806
  O  O1189  1  0.233300  0.802600  0.379700  1.0  -0.822
  O  O1190  1  0.794900  0.965300  0.598660  1.0  -0.6541
  O  O1191  1  0.182300  0.517200  0.157500  1.0  -0.6249
  O  O1192  1  0.112200  0.768100  0.415100  1.0  -0.5703
  O  O1193  1  0.365000  0.007600  0.408920  1.0  -0.6359
  O  O1194  1  0.404800  0.001400  0.348900  1.0  -0.6175
  O  O1195  1  0.066400  0.771100  0.352400  1.0  -0.5491
  O  O1196  1  0.731700  0.867300  0.588180  1.0  -0.6675
  O  O1197  1  0.551200  0.690000  0.590500  1.0  -0.5534
  O  O1198  1  0.607300  0.790800  0.603270  1.0  -0.6578
  O  O1199  1  0.418000  0.657500  0.159800  1.0  -0.7204
  O  O1200  1  0.517500  0.727400  0.157700  1.0  -0.6053
  O  O1201  1  0.386500  0.954700  0.163700  1.0  -0.6297
  O  O1202  1  0.399100  0.067900  0.152000  1.0  -0.5905
  O  O1203  1  0.749000  0.967200  0.337300  1.0  -0.6197
  O  O1204  1  0.703700  0.061700  0.357400  1.0  -0.6015
  O  O1205  1  0.269400  0.596600  0.147700  1.0  -0.6919
  O  O1206  1  0.284700  0.948400  0.082200  1.0  -0.6244
  O  O1207  1  0.327800  0.856500  0.126500  1.0  -0.8301
  O  O1208  1  0.434600  0.956300  0.103200  1.0  -0.7696
  O  O1209  1  0.150600  0.583500  0.906800  1.0  -0.6692
  O  O1210  1  0.264400  0.586900  0.894100  1.0  -0.5952
  O  O1211  1  0.163600  0.948200  0.073800  1.0  -0.5764
  O  O1212  1  0.489600  0.083800  0.392700  1.0  -0.8143
  O  O1213  1  0.132200  0.387100  0.085390  1.0  -0.6522
  O  O1214  1  0.288900  0.414100  0.086110  1.0  -0.6636
  O  O1215  1  0.308200  0.432200  0.143480  1.0  -0.6443
  O  O1216  1  0.131400  0.370600  0.154400  1.0  -0.665
  O  O1217  1  0.067100  0.480800  0.122900  1.0  -0.7831
  O  O1218  1  0.233300  0.302600  0.120300  1.0  -0.8227
  O  O1219  1  0.794900  0.465300  0.901340  1.0  -0.6538
  O  O1220  1  0.182300  0.017200  0.342500  1.0  -0.6249
  O  O1221  1  0.112200  0.268100  0.084900  1.0  -0.5697
  O  O1222  1  0.365000  0.507600  0.091080  1.0  -0.6362
  O  O1223  1  0.404800  0.501400  0.151100  1.0  -0.6173
  O  O1224  1  0.066400  0.271100  0.147600  1.0  -0.5485
  O  O1225  1  0.731700  0.367300  0.911820  1.0  -0.6681
  O  O1226  1  0.551200  0.190000  0.909500  1.0  -0.5531
  O  O1227  1  0.607300  0.290800  0.896730  1.0  -0.6572
  O  O1228  1  0.418000  0.157500  0.340200  1.0  -0.7206
  O  O1229  1  0.517500  0.227400  0.342300  1.0  -0.6086
  O  O1230  1  0.386500  0.454700  0.336300  1.0  -0.6298
  O  O1231  1  0.399100  0.567900  0.348000  1.0  -0.5904
  O  O1232  1  0.749000  0.467200  0.162700  1.0  -0.6197
  O  O1233  1  0.703700  0.561700  0.142600  1.0  -0.6007
  O  O1234  1  0.269400  0.096600  0.352300  1.0  -0.693
  O  O1235  1  0.284700  0.448400  0.417800  1.0  -0.6242
  O  O1236  1  0.327800  0.356500  0.373500  1.0  -0.8308
  O  O1237  1  0.434600  0.456300  0.396800  1.0  -0.7702
  O  O1238  1  0.150600  0.083500  0.593200  1.0  -0.669
  O  O1239  1  0.264400  0.086900  0.605900  1.0  -0.594
  O  O1240  1  0.163600  0.448200  0.426200  1.0  -0.5759
  O  O1241  1  0.489600  0.583800  0.107300  1.0  -0.814
  O  O1242  1  0.632200  0.612900  0.414610  1.0  -0.6525
  O  O1243  1  0.788900  0.585900  0.413890  1.0  -0.6626
  O  O1244  1  0.808200  0.567800  0.356520  1.0  -0.6438
  O  O1245  1  0.631400  0.629400  0.345600  1.0  -0.6642
  O  O1246  1  0.567100  0.519200  0.377100  1.0  -0.7806
  O  O1247  1  0.733300  0.697400  0.379700  1.0  -0.8228
  O  O1248  1  0.294900  0.534700  0.598660  1.0  -0.6531
  O  O1249  1  0.682300  0.982800  0.157500  1.0  -0.6261
  O  O1250  1  0.612200  0.731900  0.415100  1.0  -0.5702
  O  O1251  1  0.865000  0.492400  0.408920  1.0  -0.6354
  O  O1252  1  0.904800  0.498600  0.348900  1.0  -0.6178
  O  O1253  1  0.566400  0.728900  0.352400  1.0  -0.5484
  O  O1254  1  0.231700  0.632700  0.588180  1.0  -0.6683
  O  O1255  1  0.051200  0.810000  0.590500  1.0  -0.5525
  O  O1256  1  0.107300  0.709200  0.603270  1.0  -0.6583
  O  O1257  1  0.918000  0.842500  0.159800  1.0  -0.721
  O  O1258  1  0.017500  0.772600  0.157700  1.0  -0.6049
  O  O1259  1  0.886500  0.545300  0.163700  1.0  -0.6278
  O  O1260  1  0.899100  0.432100  0.152000  1.0  -0.5904
  O  O1261  1  0.249000  0.532800  0.337300  1.0  -0.6205
  O  O1262  1  0.203700  0.438300  0.357400  1.0  -0.6003
  O  O1263  1  0.769400  0.903400  0.147700  1.0  -0.6926
  O  O1264  1  0.784700  0.551600  0.082200  1.0  -0.624
  O  O1265  1  0.827800  0.643500  0.126500  1.0  -0.8324
  O  O1266  1  0.934600  0.543700  0.103200  1.0  -0.7692
  O  O1267  1  0.650600  0.916500  0.906800  1.0  -0.671
  O  O1268  1  0.764400  0.913100  0.894100  1.0  -0.5957
  O  O1269  1  0.663600  0.551800  0.073800  1.0  -0.5755
  O  O1270  1  0.989600  0.416200  0.392700  1.0  -0.8145
  O  O1271  1  0.367800  0.887100  0.914610  1.0  -0.653
  O  O1272  1  0.211100  0.914100  0.913890  1.0  -0.6643
  O  O1273  1  0.191800  0.932200  0.856520  1.0  -0.6433
  O  O1274  1  0.368600  0.870600  0.845600  1.0  -0.6636
  O  O1275  1  0.432900  0.980800  0.877100  1.0  -0.7834
  O  O1276  1  0.266700  0.802600  0.879700  1.0  -0.8224
  O  O1277  1  0.705100  0.965300  0.098660  1.0  -0.6547
  O  O1278  1  0.317700  0.517200  0.657500  1.0  -0.6252
  O  O1279  1  0.387800  0.768100  0.915100  1.0  -0.5705
  O  O1280  1  0.135000  0.007600  0.908920  1.0  -0.6366
  O  O1281  1  0.095200  0.001400  0.848900  1.0  -0.618
  O  O1282  1  0.433600  0.771100  0.852400  1.0  -0.5503
  O  O1283  1  0.768300  0.867300  0.088180  1.0  -0.6674
  O  O1284  1  0.948800  0.690000  0.090500  1.0  -0.5529
  O  O1285  1  0.892700  0.790800  0.103270  1.0  -0.6584
  O  O1286  1  0.082000  0.657500  0.659800  1.0  -0.7194
  O  O1287  1  0.982500  0.727400  0.657700  1.0  -0.6063
  O  O1288  1  0.113500  0.954700  0.663700  1.0  -0.6289
  O  O1289  1  0.100900  0.067900  0.652000  1.0  -0.5895
  O  O1290  1  0.751000  0.967200  0.837300  1.0  -0.6198
  O  O1291  1  0.796300  0.061700  0.857400  1.0  -0.6023
  O  O1292  1  0.230600  0.596600  0.647700  1.0  -0.6917
  O  O1293  1  0.215300  0.948400  0.582200  1.0  -0.6231
  O  O1294  1  0.172200  0.856500  0.626500  1.0  -0.8301
  O  O1295  1  0.065400  0.956300  0.603200  1.0  -0.7684
  O  O1296  1  0.349400  0.583500  0.406800  1.0  -0.6689
  O  O1297  1  0.235600  0.586900  0.394100  1.0  -0.5953
  O  O1298  1  0.336400  0.948200  0.573800  1.0  -0.5759
  O  O1299  1  0.010400  0.083800  0.892700  1.0  -0.8128
  O  O1300  1  0.867800  0.112900  0.585390  1.0  -0.652
  O  O1301  1  0.711100  0.085900  0.586110  1.0  -0.6644
  O  O1302  1  0.691800  0.067800  0.643480  1.0  -0.6437
  O  O1303  1  0.868600  0.129400  0.654400  1.0  -0.6638
  O  O1304  1  0.932900  0.019200  0.622900  1.0  -0.7838
  O  O1305  1  0.766700  0.197400  0.620300  1.0  -0.8227
  O  O1306  1  0.205100  0.034700  0.401340  1.0  -0.6532
  O  O1307  1  0.817700  0.482800  0.842500  1.0  -0.626
  O  O1308  1  0.887800  0.231900  0.584900  1.0  -0.5698
  O  O1309  1  0.635000  0.992400  0.591080  1.0  -0.6368
  O  O1310  1  0.595200  0.998600  0.651100  1.0  -0.6189
  O  O1311  1  0.933600  0.228900  0.647600  1.0  -0.5477
  O  O1312  1  0.268300  0.132700  0.411820  1.0  -0.669
  O  O1313  1  0.448800  0.310000  0.409500  1.0  -0.552
  O  O1314  1  0.392700  0.209200  0.396730  1.0  -0.6578
  O  O1315  1  0.582000  0.342500  0.840200  1.0  -0.7212
  O  O1316  1  0.482500  0.272600  0.842300  1.0  -0.6068
  O  O1317  1  0.613500  0.045300  0.836300  1.0  -0.6269
  O  O1318  1  0.600900  0.932100  0.848000  1.0  -0.5893
  O  O1319  1  0.251000  0.032800  0.662700  1.0  -0.619
  O  O1320  1  0.296300  0.938300  0.642600  1.0  -0.6013
  O  O1321  1  0.730600  0.403400  0.852300  1.0  -0.6919
  O  O1322  1  0.715300  0.051600  0.917800  1.0  -0.6227
  O  O1323  1  0.672200  0.143500  0.873500  1.0  -0.833
  O  O1324  1  0.565400  0.043700  0.896800  1.0  -0.7697
  O  O1325  1  0.849400  0.416500  0.093200  1.0  -0.6699
  O  O1326  1  0.735600  0.413100  0.105900  1.0  -0.5945
  O  O1327  1  0.836400  0.051800  0.926200  1.0  -0.5754
  O  O1328  1  0.510400  0.916200  0.607300  1.0  -0.8114
  O  O1329  1  0.658100  0.503400  0.007100  1.0  -0.6445
  O  O1330  1  0.708700  0.454200  0.968000  1.0  -0.5855
  O  O1331  1  0.753500  0.563300  0.984800  1.0  -0.5834
  O  O1332  1  0.777500  0.455000  0.007800  1.0  -0.5875
  O  O1333  1  0.641400  0.469600  0.759700  1.0  -0.6027
  O  O1334  1  0.707300  0.502600  0.791800  1.0  -0.6747
  O  O1335  1  0.676900  0.575900  0.748800  1.0  -0.6421
  O  O1336  1  0.760200  0.486500  0.743700  1.0  -0.6078
  O  O1337  1  0.158100  0.496600  0.492900  1.0  -0.6438
  O  O1338  1  0.208700  0.545800  0.532000  1.0  -0.5849
  O  O1339  1  0.253500  0.436700  0.515200  1.0  -0.5828
  O  O1340  1  0.277500  0.545000  0.492200  1.0  -0.5874
  O  O1341  1  0.141400  0.530400  0.740300  1.0  -0.6028
  O  O1342  1  0.207300  0.497400  0.708200  1.0  -0.6735
  O  O1343  1  0.176900  0.424100  0.751200  1.0  -0.641
  O  O1344  1  0.260200  0.513500  0.756300  1.0  -0.61
  O  O1345  1  0.841900  0.003400  0.992900  1.0  -0.6444
  O  O1346  1  0.791300  0.954200  0.032000  1.0  -0.5848
  O  O1347  1  0.746500  0.063300  0.015200  1.0  -0.5838
  O  O1348  1  0.722500  0.955000  0.992200  1.0  -0.5862
  O  O1349  1  0.858600  0.969600  0.240300  1.0  -0.6024
  O  O1350  1  0.792700  0.002600  0.208200  1.0  -0.6739
  O  O1351  1  0.823100  0.075900  0.251200  1.0  -0.6408
  O  O1352  1  0.739800  0.986500  0.256300  1.0  -0.6076
  O  O1353  1  0.341900  0.996600  0.507100  1.0  -0.6446
  O  O1354  1  0.291300  0.045800  0.468000  1.0  -0.5855
  O  O1355  1  0.246500  0.936700  0.484800  1.0  -0.5822
  O  O1356  1  0.222500  0.045000  0.507800  1.0  -0.5856
  O  O1357  1  0.358600  0.030400  0.259700  1.0  -0.6024
  O  O1358  1  0.292700  0.997400  0.291800  1.0  -0.6748
  O  O1359  1  0.323100  0.924100  0.248800  1.0  -0.6416
  O  O1360  1  0.239800  0.013500  0.243700  1.0  -0.6056
  O  O1361  1  0.341900  0.496600  0.992900  1.0  -0.6442
  O  O1362  1  0.291300  0.545800  0.032000  1.0  -0.5849
  O  O1363  1  0.246500  0.436700  0.015200  1.0  -0.5826
  O  O1364  1  0.222500  0.545000  0.992200  1.0  -0.5862
  O  O1365  1  0.358600  0.530400  0.240300  1.0  -0.6025
  O  O1366  1  0.292700  0.497400  0.208200  1.0  -0.6737
  O  O1367  1  0.323100  0.424100  0.251200  1.0  -0.6407
  O  O1368  1  0.239800  0.513500  0.256300  1.0  -0.6076
  O  O1369  1  0.841900  0.503400  0.507100  1.0  -0.6449
  O  O1370  1  0.791300  0.454200  0.468000  1.0  -0.5854
  O  O1371  1  0.746500  0.563300  0.484800  1.0  -0.5838
  O  O1372  1  0.722500  0.455000  0.507800  1.0  -0.5857
  O  O1373  1  0.858600  0.469600  0.259700  1.0  -0.6025
  O  O1374  1  0.792700  0.502600  0.291800  1.0  -0.6749
  O  O1375  1  0.823100  0.575900  0.248800  1.0  -0.6417
  O  O1376  1  0.739800  0.486500  0.243700  1.0  -0.6056
  O  O1377  1  0.158100  0.996600  0.007100  1.0  -0.6442
  O  O1378  1  0.208700  0.045800  0.968000  1.0  -0.5855
  O  O1379  1  0.253500  0.936700  0.984800  1.0  -0.5824
  O  O1380  1  0.277500  0.045000  0.007800  1.0  -0.5871
  O  O1381  1  0.141400  0.030400  0.759700  1.0  -0.6026
  O  O1382  1  0.207300  0.997400  0.791800  1.0  -0.6746
  O  O1383  1  0.176900  0.924100  0.748800  1.0  -0.642
  O  O1384  1  0.260200  0.013500  0.743700  1.0  -0.6077
  O  O1385  1  0.658100  0.003400  0.492900  1.0  -0.644
  O  O1386  1  0.708700  0.954200  0.532000  1.0  -0.5848
  O  O1387  1  0.753500  0.063300  0.515200  1.0  -0.5835
  O  O1388  1  0.777500  0.955000  0.492200  1.0  -0.5875
  O  O1389  1  0.641400  0.969600  0.740300  1.0  -0.6027
  O  O1390  1  0.707300  0.002600  0.708200  1.0  -0.6736
  O  O1391  1  0.676900  0.075900  0.751200  1.0  -0.6411
  O  O1392  1  0.760200  0.986500  0.756300  1.0  -0.6102
