# generated using pymatgen
data_AgH20(C6N)4
_symmetry_space_group_name_H-M   'P 1'
_cell_length_a   10.29200000
_cell_length_b   29.88700000
_cell_length_c   38.59300000
_cell_angle_alpha   90.00000000
_cell_angle_beta   90.00000000
_cell_angle_gamma   90.00000000
_symmetry_Int_Tables_number   1
_chemical_formula_structural   AgH20(C6N)4
_chemical_formula_sum   'Ag16 H320 C384 N64'
_cell_volume   11871.09117537
_cell_formula_units_Z   16
loop_
 _symmetry_equiv_pos_site_id
 _symmetry_equiv_pos_as_xyz
  1  'x, y, z'
loop_
 _atom_site_type_symbol
 _atom_site_label
 _atom_site_symmetry_multiplicity
 _atom_site_fract_x
 _atom_site_fract_y
 _atom_site_fract_z
 _atom_site_occupancy
 _atom_site_charge
  Ag  Ag1  1  0.875000  0.875000  0.986600  1.0  0.354
  Ag  Ag2  1  0.875000  0.375000  0.486600  1.0  0.354
  Ag  Ag3  1  0.375000  0.875000  0.486600  1.0  0.354
  Ag  Ag4  1  0.375000  0.375000  0.986600  1.0  0.354
  Ag  Ag5  1  0.875000  0.875000  0.763400  1.0  0.3549
  Ag  Ag6  1  0.875000  0.375000  0.263400  1.0  0.3549
  Ag  Ag7  1  0.375000  0.875000  0.263400  1.0  0.3549
  Ag  Ag8  1  0.375000  0.375000  0.763400  1.0  0.3549
  Ag  Ag9  1  0.125000  0.125000  0.013400  1.0  0.3549
  Ag  Ag10  1  0.125000  0.625000  0.513400  1.0  0.3549
  Ag  Ag11  1  0.625000  0.125000  0.513400  1.0  0.3549
  Ag  Ag12  1  0.625000  0.625000  0.013400  1.0  0.3549
  Ag  Ag13  1  0.125000  0.125000  0.236600  1.0  0.354
  Ag  Ag14  1  0.125000  0.625000  0.736600  1.0  0.354
  Ag  Ag15  1  0.625000  0.125000  0.736600  1.0  0.354
  Ag  Ag16  1  0.625000  0.625000  0.236600  1.0  0.354
  H  H17  1  0.053600  0.085100  0.090000  1.0  0.0619
  H  H18  1  0.877800  0.066900  0.124200  1.0  0.1141
  H  H19  1  0.099500  0.670700  0.039200  1.0  0.1208
  H  H20  1  0.917200  0.651500  0.008200  1.0  0.0699
  H  H21  1  0.206300  0.675900  0.096000  1.0  0.0907
  H  H22  1  0.102800  0.817500  0.246100  1.0  0.0605
  H  H23  1  0.007200  0.773800  0.203800  1.0  0.1164
  H  H24  1  0.914500  0.784300  0.101600  1.0  0.1106
  H  H25  1  0.834600  0.831000  0.059000  1.0  0.0659
  H  H26  1  0.003100  0.750700  0.143400  1.0  0.083
  H  H27  1  0.053600  0.585100  0.590000  1.0  0.0619
  H  H28  1  0.877800  0.566900  0.624200  1.0  0.1141
  H  H29  1  0.099500  0.170700  0.539200  1.0  0.1208
  H  H30  1  0.917200  0.151500  0.508200  1.0  0.0699
  H  H31  1  0.206300  0.175900  0.596000  1.0  0.0907
  H  H32  1  0.102800  0.317500  0.746100  1.0  0.0605
  H  H33  1  0.007200  0.273800  0.703800  1.0  0.1164
  H  H34  1  0.914500  0.284300  0.601600  1.0  0.1106
  H  H35  1  0.834600  0.331000  0.559000  1.0  0.0659
  H  H36  1  0.003100  0.250700  0.643400  1.0  0.083
  H  H37  1  0.553600  0.085100  0.590000  1.0  0.0619
  H  H38  1  0.377800  0.066900  0.624200  1.0  0.1141
  H  H39  1  0.599500  0.670700  0.539200  1.0  0.1208
  H  H40  1  0.417200  0.651500  0.508200  1.0  0.0699
  H  H41  1  0.706300  0.675900  0.596000  1.0  0.0907
  H  H42  1  0.602800  0.817500  0.746100  1.0  0.0605
  H  H43  1  0.507200  0.773800  0.703800  1.0  0.1164
  H  H44  1  0.414500  0.784300  0.601600  1.0  0.1106
  H  H45  1  0.334600  0.831000  0.559000  1.0  0.0659
  H  H46  1  0.503100  0.750700  0.643400  1.0  0.083
  H  H47  1  0.553600  0.585100  0.090000  1.0  0.0619
  H  H48  1  0.377800  0.566900  0.124200  1.0  0.1141
  H  H49  1  0.599500  0.170700  0.039200  1.0  0.1208
  H  H50  1  0.417200  0.151500  0.008200  1.0  0.0699
  H  H51  1  0.706300  0.175900  0.096000  1.0  0.0907
  H  H52  1  0.602800  0.317500  0.246100  1.0  0.0605
  H  H53  1  0.507200  0.273800  0.203800  1.0  0.1164
  H  H54  1  0.414500  0.284300  0.101600  1.0  0.1106
  H  H55  1  0.334600  0.331000  0.059000  1.0  0.0659
  H  H56  1  0.503100  0.250700  0.143400  1.0  0.083
  H  H57  1  0.696400  0.664900  0.090000  1.0  0.0615
  H  H58  1  0.872200  0.683100  0.124200  1.0  0.114
  H  H59  1  0.650500  0.079300  0.039200  1.0  0.1205
  H  H60  1  0.832800  0.098500  0.008200  1.0  0.0711
  H  H61  1  0.543700  0.074100  0.096000  1.0  0.0906
  H  H62  1  0.647200  0.932500  0.246100  1.0  0.0601
  H  H63  1  0.742800  0.976200  0.203800  1.0  0.1165
  H  H64  1  0.835500  0.965700  0.101600  1.0  0.11
  H  H65  1  0.915400  0.919000  0.059000  1.0  0.0658
  H  H66  1  0.746900  0.999300  0.143400  1.0  0.0845
  H  H67  1  0.696400  0.164900  0.590000  1.0  0.0615
  H  H68  1  0.872200  0.183100  0.624200  1.0  0.114
  H  H69  1  0.650500  0.579300  0.539200  1.0  0.1205
  H  H70  1  0.832800  0.598500  0.508200  1.0  0.0711
  H  H71  1  0.543700  0.574100  0.596000  1.0  0.0906
  H  H72  1  0.647200  0.432500  0.746100  1.0  0.0601
  H  H73  1  0.742800  0.476200  0.703800  1.0  0.1165
  H  H74  1  0.835500  0.465700  0.601600  1.0  0.11
  H  H75  1  0.915400  0.419000  0.559000  1.0  0.0658
  H  H76  1  0.746900  0.499300  0.643400  1.0  0.0845
  H  H77  1  0.196400  0.664900  0.590000  1.0  0.0615
  H  H78  1  0.372200  0.683100  0.624200  1.0  0.114
  H  H79  1  0.150500  0.079300  0.539200  1.0  0.1205
  H  H80  1  0.332800  0.098500  0.508200  1.0  0.0711
  H  H81  1  0.043700  0.074100  0.596000  1.0  0.0906
  H  H82  1  0.147200  0.932500  0.746100  1.0  0.0601
  H  H83  1  0.242800  0.976200  0.703800  1.0  0.1165
  H  H84  1  0.335500  0.965700  0.601600  1.0  0.11
  H  H85  1  0.415400  0.919000  0.559000  1.0  0.0658
  H  H86  1  0.246900  0.999300  0.643400  1.0  0.0845
  H  H87  1  0.196400  0.164900  0.090000  1.0  0.0615
  H  H88  1  0.372200  0.183100  0.124200  1.0  0.114
  H  H89  1  0.150500  0.579300  0.039200  1.0  0.1205
  H  H90  1  0.332800  0.598500  0.008200  1.0  0.0711
  H  H91  1  0.043700  0.574100  0.096000  1.0  0.0906
  H  H92  1  0.147200  0.432500  0.246100  1.0  0.0601
  H  H93  1  0.242800  0.476200  0.203800  1.0  0.1165
  H  H94  1  0.335500  0.465700  0.101600  1.0  0.11
  H  H95  1  0.415400  0.419000  0.059000  1.0  0.0658
  H  H96  1  0.246900  0.499300  0.143400  1.0  0.0845
  H  H97  1  0.696400  0.085100  0.660000  1.0  0.0614
  H  H98  1  0.872200  0.066900  0.625800  1.0  0.115
  H  H99  1  0.650500  0.670700  0.710800  1.0  0.1201
  H  H100  1  0.832800  0.651500  0.741800  1.0  0.0698
  H  H101  1  0.543700  0.675900  0.654000  1.0  0.0897
  H  H102  1  0.647200  0.817500  0.503900  1.0  0.0606
  H  H103  1  0.742800  0.773800  0.546200  1.0  0.1166
  H  H104  1  0.835500  0.784300  0.648400  1.0  0.1114
  H  H105  1  0.915400  0.831000  0.691000  1.0  0.0656
  H  H106  1  0.746900  0.750700  0.606600  1.0  0.0848
  H  H107  1  0.696400  0.585100  0.160000  1.0  0.0614
  H  H108  1  0.872200  0.566900  0.125800  1.0  0.115
  H  H109  1  0.650500  0.170700  0.210800  1.0  0.1201
  H  H110  1  0.832800  0.151500  0.241800  1.0  0.0698
  H  H111  1  0.543700  0.175900  0.154000  1.0  0.0897
  H  H112  1  0.647200  0.317500  0.003900  1.0  0.0606
  H  H113  1  0.742800  0.273800  0.046200  1.0  0.1166
  H  H114  1  0.835500  0.284300  0.148400  1.0  0.1114
  H  H115  1  0.915400  0.331000  0.191000  1.0  0.0656
  H  H116  1  0.746900  0.250700  0.106600  1.0  0.0848
  H  H117  1  0.196400  0.085100  0.160000  1.0  0.0614
  H  H118  1  0.372200  0.066900  0.125800  1.0  0.115
  H  H119  1  0.150500  0.670700  0.210800  1.0  0.1201
  H  H120  1  0.332800  0.651500  0.241800  1.0  0.0698
  H  H121  1  0.043700  0.675900  0.154000  1.0  0.0897
  H  H122  1  0.147200  0.817500  0.003900  1.0  0.0606
  H  H123  1  0.242800  0.773800  0.046200  1.0  0.1166
  H  H124  1  0.335500  0.784300  0.148400  1.0  0.1114
  H  H125  1  0.415400  0.831000  0.191000  1.0  0.0656
  H  H126  1  0.246900  0.750700  0.106600  1.0  0.0848
  H  H127  1  0.196400  0.585100  0.660000  1.0  0.0614
  H  H128  1  0.372200  0.566900  0.625800  1.0  0.115
  H  H129  1  0.150500  0.170700  0.710800  1.0  0.1201
  H  H130  1  0.332800  0.151500  0.741800  1.0  0.0698
  H  H131  1  0.043700  0.175900  0.654000  1.0  0.0897
  H  H132  1  0.147200  0.317500  0.503900  1.0  0.0606
  H  H133  1  0.242800  0.273800  0.546200  1.0  0.1166
  H  H134  1  0.335500  0.284300  0.648400  1.0  0.1114
  H  H135  1  0.415400  0.331000  0.691000  1.0  0.0656
  H  H136  1  0.246900  0.250700  0.606600  1.0  0.0848
  H  H137  1  0.053600  0.664900  0.660000  1.0  0.0612
  H  H138  1  0.877800  0.683100  0.625800  1.0  0.1155
  H  H139  1  0.099500  0.079300  0.710800  1.0  0.1206
  H  H140  1  0.917200  0.098500  0.741800  1.0  0.0706
  H  H141  1  0.206300  0.074100  0.654000  1.0  0.09
  H  H142  1  0.102800  0.932500  0.503900  1.0  0.0604
  H  H143  1  0.007200  0.976200  0.546200  1.0  0.1162
  H  H144  1  0.914500  0.965700  0.648400  1.0  0.1098
  H  H145  1  0.834600  0.919000  0.691000  1.0  0.066
  H  H146  1  0.003100  0.999300  0.606600  1.0  0.0846
  H  H147  1  0.053600  0.164900  0.160000  1.0  0.0612
  H  H148  1  0.877800  0.183100  0.125800  1.0  0.1155
  H  H149  1  0.099500  0.579300  0.210800  1.0  0.1206
  H  H150  1  0.917200  0.598500  0.241800  1.0  0.0706
  H  H151  1  0.206300  0.574100  0.154000  1.0  0.09
  H  H152  1  0.102800  0.432500  0.003900  1.0  0.0604
  H  H153  1  0.007200  0.476200  0.046200  1.0  0.1162
  H  H154  1  0.914500  0.465700  0.148400  1.0  0.1098
  H  H155  1  0.834600  0.419000  0.191000  1.0  0.066
  H  H156  1  0.003100  0.499300  0.106600  1.0  0.0846
  H  H157  1  0.553600  0.664900  0.160000  1.0  0.0612
  H  H158  1  0.377800  0.683100  0.125800  1.0  0.1155
  H  H159  1  0.599500  0.079300  0.210800  1.0  0.1206
  H  H160  1  0.417200  0.098500  0.241800  1.0  0.0706
  H  H161  1  0.706300  0.074100  0.154000  1.0  0.09
  H  H162  1  0.602800  0.932500  0.003900  1.0  0.0604
  H  H163  1  0.507200  0.976200  0.046200  1.0  0.1162
  H  H164  1  0.414500  0.965700  0.148400  1.0  0.1098
  H  H165  1  0.334600  0.919000  0.191000  1.0  0.066
  H  H166  1  0.503100  0.999300  0.106600  1.0  0.0846
  H  H167  1  0.553600  0.164900  0.660000  1.0  0.0612
  H  H168  1  0.377800  0.183100  0.625800  1.0  0.1155
  H  H169  1  0.599500  0.579300  0.710800  1.0  0.1206
  H  H170  1  0.417200  0.598500  0.741800  1.0  0.0706
  H  H171  1  0.706300  0.574100  0.654000  1.0  0.09
  H  H172  1  0.602800  0.432500  0.503900  1.0  0.0604
  H  H173  1  0.507200  0.476200  0.546200  1.0  0.1162
  H  H174  1  0.414500  0.465700  0.648400  1.0  0.1098
  H  H175  1  0.334600  0.419000  0.691000  1.0  0.066
  H  H176  1  0.503100  0.499300  0.606600  1.0  0.0846
  H  H177  1  0.946400  0.914900  0.910000  1.0  0.0612
  H  H178  1  0.122200  0.933100  0.875800  1.0  0.1152
  H  H179  1  0.900500  0.329300  0.960800  1.0  0.1202
  H  H180  1  0.082800  0.348500  0.991800  1.0  0.0698
  H  H181  1  0.793700  0.324100  0.904000  1.0  0.0901
  H  H182  1  0.897200  0.182500  0.753900  1.0  0.0605
  H  H183  1  0.992800  0.226200  0.796200  1.0  0.1163
  H  H184  1  0.085500  0.215700  0.898400  1.0  0.1105
  H  H185  1  0.165400  0.169000  0.941000  1.0  0.0657
  H  H186  1  0.996900  0.249300  0.856600  1.0  0.0845
  H  H187  1  0.946400  0.414900  0.410000  1.0  0.0612
  H  H188  1  0.122200  0.433100  0.375800  1.0  0.1152
  H  H189  1  0.900500  0.829300  0.460800  1.0  0.1202
  H  H190  1  0.082800  0.848500  0.491800  1.0  0.0698
  H  H191  1  0.793700  0.824100  0.404000  1.0  0.0901
  H  H192  1  0.897200  0.682500  0.253900  1.0  0.0605
  H  H193  1  0.992800  0.726200  0.296200  1.0  0.1163
  H  H194  1  0.085500  0.715700  0.398400  1.0  0.1105
  H  H195  1  0.165400  0.669000  0.441000  1.0  0.0657
  H  H196  1  0.996900  0.749300  0.356600  1.0  0.0845
  H  H197  1  0.446400  0.914900  0.410000  1.0  0.0612
  H  H198  1  0.622200  0.933100  0.375800  1.0  0.1152
  H  H199  1  0.400500  0.329300  0.460800  1.0  0.1202
  H  H200  1  0.582800  0.348500  0.491800  1.0  0.0698
  H  H201  1  0.293700  0.324100  0.404000  1.0  0.0901
  H  H202  1  0.397200  0.182500  0.253900  1.0  0.0605
  H  H203  1  0.492800  0.226200  0.296200  1.0  0.1163
  H  H204  1  0.585500  0.215700  0.398400  1.0  0.1105
  H  H205  1  0.665400  0.169000  0.441000  1.0  0.0657
  H  H206  1  0.496900  0.249300  0.356600  1.0  0.0845
  H  H207  1  0.446400  0.414900  0.910000  1.0  0.0612
  H  H208  1  0.622200  0.433100  0.875800  1.0  0.1152
  H  H209  1  0.400500  0.829300  0.960800  1.0  0.1202
  H  H210  1  0.582800  0.848500  0.991800  1.0  0.0698
  H  H211  1  0.293700  0.824100  0.904000  1.0  0.0901
  H  H212  1  0.397200  0.682500  0.753900  1.0  0.0605
  H  H213  1  0.492800  0.726200  0.796200  1.0  0.1163
  H  H214  1  0.585500  0.715700  0.898400  1.0  0.1105
  H  H215  1  0.665400  0.669000  0.941000  1.0  0.0657
  H  H216  1  0.496900  0.749300  0.856600  1.0  0.0845
  H  H217  1  0.303600  0.335100  0.910000  1.0  0.0614
  H  H218  1  0.127800  0.316900  0.875800  1.0  0.1156
  H  H219  1  0.349500  0.920700  0.960800  1.0  0.1203
  H  H220  1  0.167200  0.901500  0.991800  1.0  0.0716
  H  H221  1  0.456300  0.925900  0.904000  1.0  0.0898
  H  H222  1  0.352800  0.067500  0.753900  1.0  0.0604
  H  H223  1  0.257200  0.023800  0.796200  1.0  0.1164
  H  H224  1  0.164500  0.034300  0.898400  1.0  0.1106
  H  H225  1  0.084600  0.081000  0.941000  1.0  0.0656
  H  H226  1  0.253100  0.000700  0.856600  1.0  0.0843
  H  H227  1  0.303600  0.835100  0.410000  1.0  0.0614
  H  H228  1  0.127800  0.816900  0.375800  1.0  0.1156
  H  H229  1  0.349500  0.420700  0.460800  1.0  0.1203
  H  H230  1  0.167200  0.401500  0.491800  1.0  0.0716
  H  H231  1  0.456300  0.425900  0.404000  1.0  0.0898
  H  H232  1  0.352800  0.567500  0.253900  1.0  0.0604
  H  H233  1  0.257200  0.523800  0.296200  1.0  0.1164
  H  H234  1  0.164500  0.534300  0.398400  1.0  0.1106
  H  H235  1  0.084600  0.581000  0.441000  1.0  0.0656
  H  H236  1  0.253100  0.500700  0.356600  1.0  0.0843
  H  H237  1  0.803600  0.335100  0.410000  1.0  0.0614
  H  H238  1  0.627800  0.316900  0.375800  1.0  0.1156
  H  H239  1  0.849500  0.920700  0.460800  1.0  0.1203
  H  H240  1  0.667200  0.901500  0.491800  1.0  0.0716
  H  H241  1  0.956300  0.925900  0.404000  1.0  0.0898
  H  H242  1  0.852800  0.067500  0.253900  1.0  0.0604
  H  H243  1  0.757200  0.023800  0.296200  1.0  0.1164
  H  H244  1  0.664500  0.034300  0.398400  1.0  0.1106
  H  H245  1  0.584600  0.081000  0.441000  1.0  0.0656
  H  H246  1  0.753100  0.000700  0.356600  1.0  0.0843
  H  H247  1  0.803600  0.835100  0.910000  1.0  0.0614
  H  H248  1  0.627800  0.816900  0.875800  1.0  0.1156
  H  H249  1  0.849500  0.420700  0.960800  1.0  0.1203
  H  H250  1  0.667200  0.401500  0.991800  1.0  0.0716
  H  H251  1  0.956300  0.425900  0.904000  1.0  0.0898
  H  H252  1  0.852800  0.567500  0.753900  1.0  0.0604
  H  H253  1  0.757200  0.523800  0.796200  1.0  0.1164
  H  H254  1  0.664500  0.534300  0.898400  1.0  0.1106
  H  H255  1  0.584600  0.581000  0.941000  1.0  0.0656
  H  H256  1  0.753100  0.500700  0.856600  1.0  0.0843
  H  H257  1  0.303600  0.914900  0.340000  1.0  0.0614
  H  H258  1  0.127800  0.933100  0.374200  1.0  0.1141
  H  H259  1  0.349500  0.329300  0.289200  1.0  0.1209
  H  H260  1  0.167200  0.348500  0.258200  1.0  0.0701
  H  H261  1  0.456300  0.324100  0.346000  1.0  0.0914
  H  H262  1  0.352800  0.182500  0.496100  1.0  0.0603
  H  H263  1  0.257200  0.226200  0.453800  1.0  0.1162
  H  H264  1  0.164500  0.215700  0.351600  1.0  0.1099
  H  H265  1  0.084600  0.169000  0.309000  1.0  0.0662
  H  H266  1  0.253100  0.249300  0.393400  1.0  0.0841
  H  H267  1  0.303600  0.414900  0.840000  1.0  0.0614
  H  H268  1  0.127800  0.433100  0.874200  1.0  0.1141
  H  H269  1  0.349500  0.829300  0.789200  1.0  0.1209
  H  H270  1  0.167200  0.848500  0.758200  1.0  0.0701
  H  H271  1  0.456300  0.824100  0.846000  1.0  0.0914
  H  H272  1  0.352800  0.682500  0.996100  1.0  0.0603
  H  H273  1  0.257200  0.726200  0.953800  1.0  0.1162
  H  H274  1  0.164500  0.715700  0.851600  1.0  0.1099
  H  H275  1  0.084600  0.669000  0.809000  1.0  0.0662
  H  H276  1  0.253100  0.749300  0.893400  1.0  0.0841
  H  H277  1  0.803600  0.914900  0.840000  1.0  0.0614
  H  H278  1  0.627800  0.933100  0.874200  1.0  0.1141
  H  H279  1  0.849500  0.329300  0.789200  1.0  0.1209
  H  H280  1  0.667200  0.348500  0.758200  1.0  0.0701
  H  H281  1  0.956300  0.324100  0.846000  1.0  0.0914
  H  H282  1  0.852800  0.182500  0.996100  1.0  0.0603
  H  H283  1  0.757200  0.226200  0.953800  1.0  0.1162
  H  H284  1  0.664500  0.215700  0.851600  1.0  0.1099
  H  H285  1  0.584600  0.169000  0.809000  1.0  0.0662
  H  H286  1  0.753100  0.249300  0.893400  1.0  0.0841
  H  H287  1  0.803600  0.414900  0.340000  1.0  0.0614
  H  H288  1  0.627800  0.433100  0.374200  1.0  0.1141
  H  H289  1  0.849500  0.829300  0.289200  1.0  0.1209
  H  H290  1  0.667200  0.848500  0.258200  1.0  0.0701
  H  H291  1  0.956300  0.824100  0.346000  1.0  0.0914
  H  H292  1  0.852800  0.682500  0.496100  1.0  0.0603
  H  H293  1  0.757200  0.726200  0.453800  1.0  0.1162
  H  H294  1  0.664500  0.715700  0.351600  1.0  0.1099
  H  H295  1  0.584600  0.669000  0.309000  1.0  0.0662
  H  H296  1  0.753100  0.749300  0.393400  1.0  0.0841
  H  H297  1  0.946400  0.335100  0.340000  1.0  0.0618
  H  H298  1  0.122200  0.316900  0.374200  1.0  0.1139
  H  H299  1  0.900500  0.920700  0.289200  1.0  0.1205
  H  H300  1  0.082800  0.901500  0.258200  1.0  0.0723
  H  H301  1  0.793700  0.925900  0.346000  1.0  0.0895
  H  H302  1  0.897200  0.067500  0.496100  1.0  0.0602
  H  H303  1  0.992800  0.023800  0.453800  1.0  0.1167
  H  H304  1  0.085500  0.034300  0.351600  1.0  0.1106
  H  H305  1  0.165400  0.081000  0.309000  1.0  0.0656
  H  H306  1  0.996900  0.000700  0.393400  1.0  0.0841
  H  H307  1  0.946400  0.835100  0.840000  1.0  0.0618
  H  H308  1  0.122200  0.816900  0.874200  1.0  0.1139
  H  H309  1  0.900500  0.420700  0.789200  1.0  0.1205
  H  H310  1  0.082800  0.401500  0.758200  1.0  0.0723
  H  H311  1  0.793700  0.425900  0.846000  1.0  0.0895
  H  H312  1  0.897200  0.567500  0.996100  1.0  0.0602
  H  H313  1  0.992800  0.523800  0.953800  1.0  0.1167
  H  H314  1  0.085500  0.534300  0.851600  1.0  0.1106
  H  H315  1  0.165400  0.581000  0.809000  1.0  0.0656
  H  H316  1  0.996900  0.500700  0.893400  1.0  0.0841
  H  H317  1  0.446400  0.335100  0.840000  1.0  0.0618
  H  H318  1  0.622200  0.316900  0.874200  1.0  0.1139
  H  H319  1  0.400500  0.920700  0.789200  1.0  0.1205
  H  H320  1  0.582800  0.901500  0.758200  1.0  0.0723
  H  H321  1  0.293700  0.925900  0.846000  1.0  0.0895
  H  H322  1  0.397200  0.067500  0.996100  1.0  0.0602
  H  H323  1  0.492800  0.023800  0.953800  1.0  0.1167
  H  H324  1  0.585500  0.034300  0.851600  1.0  0.1106
  H  H325  1  0.665400  0.081000  0.809000  1.0  0.0656
  H  H326  1  0.496900  0.000700  0.893400  1.0  0.0841
  H  H327  1  0.446400  0.835100  0.340000  1.0  0.0618
  H  H328  1  0.622200  0.816900  0.374200  1.0  0.1139
  H  H329  1  0.400500  0.420700  0.289200  1.0  0.1205
  H  H330  1  0.582800  0.401500  0.258200  1.0  0.0723
  H  H331  1  0.293700  0.425900  0.346000  1.0  0.0895
  H  H332  1  0.397200  0.567500  0.496100  1.0  0.0602
  H  H333  1  0.492800  0.523800  0.453800  1.0  0.1167
  H  H334  1  0.585500  0.534300  0.351600  1.0  0.1106
  H  H335  1  0.665400  0.581000  0.309000  1.0  0.0656
  H  H336  1  0.496900  0.500700  0.393400  1.0  0.0841
  C  C337  1  0.970000  0.084200  0.079600  1.0  0.1529
  C  C338  1  0.865600  0.073100  0.100300  1.0  -0.2555
  C  C339  1  0.007300  0.678700  0.085700  1.0  0.0764
  C  C340  1  0.017400  0.669400  0.050400  1.0  -0.1965
  C  C341  1  0.907900  0.658200  0.032100  1.0  0.1511
  C  C342  1  0.128100  0.692200  0.104800  1.0  -0.1243
  C  C343  1  0.098900  0.811200  0.024300  1.0  0.1451
  C  C344  1  0.156900  0.784600  0.049500  1.0  -0.2167
  C  C345  1  0.090300  0.773800  0.079400  1.0  0.0957
  C  C346  1  0.966700  0.791100  0.082000  1.0  -0.2361
  C  C347  1  0.918500  0.818400  0.055800  1.0  0.1467
  C  C348  1  0.151300  0.744800  0.106100  1.0  -0.1024
  C  C349  1  0.970000  0.584200  0.579600  1.0  0.1529
  C  C350  1  0.865600  0.573100  0.600300  1.0  -0.2555
  C  C351  1  0.007300  0.178700  0.585700  1.0  0.0764
  C  C352  1  0.017400  0.169400  0.550400  1.0  -0.1965
  C  C353  1  0.907900  0.158200  0.532100  1.0  0.1511
  C  C354  1  0.128100  0.192200  0.604800  1.0  -0.1243
  C  C355  1  0.098900  0.311200  0.524300  1.0  0.1451
  C  C356  1  0.156900  0.284600  0.549500  1.0  -0.2167
  C  C357  1  0.090300  0.273800  0.579400  1.0  0.0957
  C  C358  1  0.966700  0.291100  0.582000  1.0  -0.2361
  C  C359  1  0.918500  0.318400  0.555800  1.0  0.1467
  C  C360  1  0.151300  0.244800  0.606100  1.0  -0.1024
  C  C361  1  0.470000  0.084200  0.579600  1.0  0.1529
  C  C362  1  0.365600  0.073100  0.600300  1.0  -0.2555
  C  C363  1  0.507300  0.678700  0.585700  1.0  0.0764
  C  C364  1  0.517400  0.669400  0.550400  1.0  -0.1965
  C  C365  1  0.407900  0.658200  0.532100  1.0  0.1511
  C  C366  1  0.628100  0.692200  0.604800  1.0  -0.1243
  C  C367  1  0.598900  0.811200  0.524300  1.0  0.1451
  C  C368  1  0.656900  0.784600  0.549500  1.0  -0.2167
  C  C369  1  0.590300  0.773800  0.579400  1.0  0.0957
  C  C370  1  0.466700  0.791100  0.582000  1.0  -0.2361
  C  C371  1  0.418500  0.818400  0.555800  1.0  0.1467
  C  C372  1  0.651300  0.744800  0.606100  1.0  -0.1024
  C  C373  1  0.470000  0.584200  0.079600  1.0  0.1529
  C  C374  1  0.365600  0.573100  0.100300  1.0  -0.2555
  C  C375  1  0.507300  0.178700  0.085700  1.0  0.0764
  C  C376  1  0.517400  0.169400  0.050400  1.0  -0.1965
  C  C377  1  0.407900  0.158200  0.032100  1.0  0.1511
  C  C378  1  0.628100  0.192200  0.104800  1.0  -0.1243
  C  C379  1  0.598900  0.311200  0.024300  1.0  0.1451
  C  C380  1  0.656900  0.284600  0.049500  1.0  -0.2167
  C  C381  1  0.590300  0.273800  0.079400  1.0  0.0957
  C  C382  1  0.466700  0.291100  0.082000  1.0  -0.2361
  C  C383  1  0.418500  0.318400  0.055800  1.0  0.1467
  C  C384  1  0.651300  0.244800  0.106100  1.0  -0.1024
  C  C385  1  0.780000  0.665800  0.079600  1.0  0.1513
  C  C386  1  0.884400  0.676900  0.100300  1.0  -0.2559
  C  C387  1  0.742700  0.071300  0.085700  1.0  0.0785
  C  C388  1  0.732600  0.080600  0.050400  1.0  -0.1967
  C  C389  1  0.842100  0.091800  0.032100  1.0  0.151
  C  C390  1  0.621900  0.057800  0.104800  1.0  -0.1232
  C  C391  1  0.651100  0.938800  0.024300  1.0  0.1458
  C  C392  1  0.593100  0.965400  0.049500  1.0  -0.2176
  C  C393  1  0.659700  0.976200  0.079400  1.0  0.096
  C  C394  1  0.783300  0.958900  0.082000  1.0  -0.2358
  C  C395  1  0.831500  0.931600  0.055800  1.0  0.1465
  C  C396  1  0.598700  0.005200  0.106100  1.0  -0.1045
  C  C397  1  0.780000  0.165800  0.579600  1.0  0.1513
  C  C398  1  0.884400  0.176900  0.600300  1.0  -0.2559
  C  C399  1  0.742700  0.571300  0.585700  1.0  0.0785
  C  C400  1  0.732600  0.580600  0.550400  1.0  -0.1967
  C  C401  1  0.842100  0.591800  0.532100  1.0  0.151
  C  C402  1  0.621900  0.557800  0.604800  1.0  -0.1232
  C  C403  1  0.651100  0.438800  0.524300  1.0  0.1458
  C  C404  1  0.593100  0.465400  0.549500  1.0  -0.2176
  C  C405  1  0.659700  0.476200  0.579400  1.0  0.096
  C  C406  1  0.783300  0.458900  0.582000  1.0  -0.2358
  C  C407  1  0.831500  0.431600  0.555800  1.0  0.1465
  C  C408  1  0.598700  0.505200  0.606100  1.0  -0.1045
  C  C409  1  0.280000  0.665800  0.579600  1.0  0.1513
  C  C410  1  0.384400  0.676900  0.600300  1.0  -0.2559
  C  C411  1  0.242700  0.071300  0.585700  1.0  0.0785
  C  C412  1  0.232600  0.080600  0.550400  1.0  -0.1967
  C  C413  1  0.342100  0.091800  0.532100  1.0  0.151
  C  C414  1  0.121900  0.057800  0.604800  1.0  -0.1232
  C  C415  1  0.151100  0.938800  0.524300  1.0  0.1458
  C  C416  1  0.093100  0.965400  0.549500  1.0  -0.2176
  C  C417  1  0.159700  0.976200  0.579400  1.0  0.096
  C  C418  1  0.283300  0.958900  0.582000  1.0  -0.2358
  C  C419  1  0.331500  0.931600  0.555800  1.0  0.1465
  C  C420  1  0.098700  0.005200  0.606100  1.0  -0.1045
  C  C421  1  0.280000  0.165800  0.079600  1.0  0.1513
  C  C422  1  0.384400  0.176900  0.100300  1.0  -0.2559
  C  C423  1  0.242700  0.571300  0.085700  1.0  0.0785
  C  C424  1  0.232600  0.580600  0.050400  1.0  -0.1967
  C  C425  1  0.342100  0.591800  0.032100  1.0  0.151
  C  C426  1  0.121900  0.557800  0.104800  1.0  -0.1232
  C  C427  1  0.151100  0.438800  0.024300  1.0  0.1458
  C  C428  1  0.093100  0.465400  0.049500  1.0  -0.2176
  C  C429  1  0.159700  0.476200  0.079400  1.0  0.096
  C  C430  1  0.283300  0.458900  0.082000  1.0  -0.2358
  C  C431  1  0.331500  0.431600  0.055800  1.0  0.1465
  C  C432  1  0.098700  0.505200  0.106100  1.0  -0.1045
  C  C433  1  0.780000  0.084200  0.670400  1.0  0.1519
  C  C434  1  0.884400  0.073100  0.649700  1.0  -0.2571
  C  C435  1  0.742700  0.678700  0.664300  1.0  0.0767
  C  C436  1  0.732600  0.669400  0.699600  1.0  -0.199
  C  C437  1  0.842100  0.658200  0.717900  1.0  0.15
  C  C438  1  0.621900  0.692200  0.645200  1.0  -0.1222
  C  C439  1  0.651100  0.811200  0.725700  1.0  0.1457
  C  C440  1  0.593100  0.784600  0.700500  1.0  -0.2188
  C  C441  1  0.659700  0.773800  0.670600  1.0  0.0965
  C  C442  1  0.783300  0.791100  0.668000  1.0  -0.2363
  C  C443  1  0.831500  0.818400  0.694200  1.0  0.1464
  C  C444  1  0.598700  0.744800  0.643900  1.0  -0.1035
  C  C445  1  0.780000  0.584200  0.170400  1.0  0.1519
  C  C446  1  0.884400  0.573100  0.149700  1.0  -0.2571
  C  C447  1  0.742700  0.178700  0.164300  1.0  0.0767
  C  C448  1  0.732600  0.169400  0.199600  1.0  -0.199
  C  C449  1  0.842100  0.158200  0.217900  1.0  0.15
  C  C450  1  0.621900  0.192200  0.145200  1.0  -0.1222
  C  C451  1  0.651100  0.311200  0.225700  1.0  0.1457
  C  C452  1  0.593100  0.284600  0.200500  1.0  -0.2188
  C  C453  1  0.659700  0.273800  0.170600  1.0  0.0965
  C  C454  1  0.783300  0.291100  0.168000  1.0  -0.2363
  C  C455  1  0.831500  0.318400  0.194200  1.0  0.1464
  C  C456  1  0.598700  0.244800  0.143900  1.0  -0.1035
  C  C457  1  0.280000  0.084200  0.170400  1.0  0.1519
  C  C458  1  0.384400  0.073100  0.149700  1.0  -0.2571
  C  C459  1  0.242700  0.678700  0.164300  1.0  0.0767
  C  C460  1  0.232600  0.669400  0.199600  1.0  -0.199
  C  C461  1  0.342100  0.658200  0.217900  1.0  0.15
  C  C462  1  0.121900  0.692200  0.145200  1.0  -0.1222
  C  C463  1  0.151100  0.811200  0.225700  1.0  0.1457
  C  C464  1  0.093100  0.784600  0.200500  1.0  -0.2188
  C  C465  1  0.159700  0.773800  0.170600  1.0  0.0965
  C  C466  1  0.283300  0.791100  0.168000  1.0  -0.2363
  C  C467  1  0.331500  0.818400  0.194200  1.0  0.1464
  C  C468  1  0.098700  0.744800  0.143900  1.0  -0.1035
  C  C469  1  0.280000  0.584200  0.670400  1.0  0.1519
  C  C470  1  0.384400  0.573100  0.649700  1.0  -0.2571
  C  C471  1  0.242700  0.178700  0.664300  1.0  0.0767
  C  C472  1  0.232600  0.169400  0.699600  1.0  -0.199
  C  C473  1  0.342100  0.158200  0.717900  1.0  0.15
  C  C474  1  0.121900  0.192200  0.645200  1.0  -0.1222
  C  C475  1  0.151100  0.311200  0.725700  1.0  0.1457
  C  C476  1  0.093100  0.284600  0.700500  1.0  -0.2188
  C  C477  1  0.159700  0.273800  0.670600  1.0  0.0965
  C  C478  1  0.283300  0.291100  0.668000  1.0  -0.2363
  C  C479  1  0.331500  0.318400  0.694200  1.0  0.1464
  C  C480  1  0.098700  0.244800  0.643900  1.0  -0.1035
  C  C481  1  0.970000  0.665800  0.670400  1.0  0.1522
  C  C482  1  0.865600  0.676900  0.649700  1.0  -0.2563
  C  C483  1  0.007300  0.071300  0.664300  1.0  0.0776
  C  C484  1  0.017400  0.080600  0.699600  1.0  -0.1979
  C  C485  1  0.907900  0.091800  0.717900  1.0  0.1495
  C  C486  1  0.128100  0.057800  0.645200  1.0  -0.124
  C  C487  1  0.098900  0.938800  0.725700  1.0  0.1459
  C  C488  1  0.156900  0.965400  0.700500  1.0  -0.2173
  C  C489  1  0.090300  0.976200  0.670600  1.0  0.098
  C  C490  1  0.966700  0.958900  0.668000  1.0  -0.2365
  C  C491  1  0.918500  0.931600  0.694200  1.0  0.1468
  C  C492  1  0.151300  0.005200  0.643900  1.0  -0.1025
  C  C493  1  0.970000  0.165800  0.170400  1.0  0.1522
  C  C494  1  0.865600  0.176900  0.149700  1.0  -0.2563
  C  C495  1  0.007300  0.571300  0.164300  1.0  0.0776
  C  C496  1  0.017400  0.580600  0.199600  1.0  -0.1979
  C  C497  1  0.907900  0.591800  0.217900  1.0  0.1495
  C  C498  1  0.128100  0.557800  0.145200  1.0  -0.124
  C  C499  1  0.098900  0.438800  0.225700  1.0  0.1459
  C  C500  1  0.156900  0.465400  0.200500  1.0  -0.2173
  C  C501  1  0.090300  0.476200  0.170600  1.0  0.098
  C  C502  1  0.966700  0.458900  0.168000  1.0  -0.2365
  C  C503  1  0.918500  0.431600  0.194200  1.0  0.1468
  C  C504  1  0.151300  0.505200  0.143900  1.0  -0.1025
  C  C505  1  0.470000  0.665800  0.170400  1.0  0.1522
  C  C506  1  0.365600  0.676900  0.149700  1.0  -0.2563
  C  C507  1  0.507300  0.071300  0.164300  1.0  0.0776
  C  C508  1  0.517400  0.080600  0.199600  1.0  -0.1979
  C  C509  1  0.407900  0.091800  0.217900  1.0  0.1495
  C  C510  1  0.628100  0.057800  0.145200  1.0  -0.124
  C  C511  1  0.598900  0.938800  0.225700  1.0  0.1459
  C  C512  1  0.656900  0.965400  0.200500  1.0  -0.2173
  C  C513  1  0.590300  0.976200  0.170600  1.0  0.098
  C  C514  1  0.466700  0.958900  0.168000  1.0  -0.2365
  C  C515  1  0.418500  0.931600  0.194200  1.0  0.1468
  C  C516  1  0.651300  0.005200  0.143900  1.0  -0.1025
  C  C517  1  0.470000  0.165800  0.670400  1.0  0.1522
  C  C518  1  0.365600  0.176900  0.649700  1.0  -0.2563
  C  C519  1  0.507300  0.571300  0.664300  1.0  0.0776
  C  C520  1  0.517400  0.580600  0.699600  1.0  -0.1979
  C  C521  1  0.407900  0.591800  0.717900  1.0  0.1495
  C  C522  1  0.628100  0.557800  0.645200  1.0  -0.124
  C  C523  1  0.598900  0.438800  0.725700  1.0  0.1459
  C  C524  1  0.656900  0.465400  0.700500  1.0  -0.2173
  C  C525  1  0.590300  0.476200  0.670600  1.0  0.098
  C  C526  1  0.466700  0.458900  0.668000  1.0  -0.2365
  C  C527  1  0.418500  0.431600  0.694200  1.0  0.1468
  C  C528  1  0.651300  0.505200  0.643900  1.0  -0.1025
  C  C529  1  0.030000  0.915800  0.920400  1.0  0.1515
  C  C530  1  0.134400  0.926900  0.899700  1.0  -0.2569
  C  C531  1  0.992700  0.321300  0.914300  1.0  0.0763
  C  C532  1  0.982600  0.330600  0.949600  1.0  -0.1989
  C  C533  1  0.092100  0.341800  0.967900  1.0  0.1504
  C  C534  1  0.871900  0.307800  0.895200  1.0  -0.1226
  C  C535  1  0.901100  0.188800  0.975700  1.0  0.1457
  C  C536  1  0.843100  0.215400  0.950500  1.0  -0.218
  C  C537  1  0.909700  0.226200  0.920600  1.0  0.0974
  C  C538  1  0.033300  0.208900  0.918000  1.0  -0.2361
  C  C539  1  0.081500  0.181600  0.944200  1.0  0.1465
  C  C540  1  0.848700  0.255200  0.893900  1.0  -0.1031
  C  C541  1  0.030000  0.415800  0.420400  1.0  0.1515
  C  C542  1  0.134400  0.426900  0.399700  1.0  -0.2569
  C  C543  1  0.992700  0.821300  0.414300  1.0  0.0763
  C  C544  1  0.982600  0.830600  0.449600  1.0  -0.1989
  C  C545  1  0.092100  0.841800  0.467900  1.0  0.1504
  C  C546  1  0.871900  0.807800  0.395200  1.0  -0.1226
  C  C547  1  0.901100  0.688800  0.475700  1.0  0.1457
  C  C548  1  0.843100  0.715400  0.450500  1.0  -0.218
  C  C549  1  0.909700  0.726200  0.420600  1.0  0.0974
  C  C550  1  0.033300  0.708900  0.418000  1.0  -0.2361
  C  C551  1  0.081500  0.681600  0.444200  1.0  0.1465
  C  C552  1  0.848700  0.755200  0.393900  1.0  -0.1031
  C  C553  1  0.530000  0.915800  0.420400  1.0  0.1515
  C  C554  1  0.634400  0.926900  0.399700  1.0  -0.2569
  C  C555  1  0.492700  0.321300  0.414300  1.0  0.0763
  C  C556  1  0.482600  0.330600  0.449600  1.0  -0.1989
  C  C557  1  0.592100  0.341800  0.467900  1.0  0.1504
  C  C558  1  0.371900  0.307800  0.395200  1.0  -0.1226
  C  C559  1  0.401100  0.188800  0.475700  1.0  0.1457
  C  C560  1  0.343100  0.215400  0.450500  1.0  -0.218
  C  C561  1  0.409700  0.226200  0.420600  1.0  0.0974
  C  C562  1  0.533300  0.208900  0.418000  1.0  -0.2361
  C  C563  1  0.581500  0.181600  0.444200  1.0  0.1465
  C  C564  1  0.348700  0.255200  0.393900  1.0  -0.1031
  C  C565  1  0.530000  0.415800  0.920400  1.0  0.1515
  C  C566  1  0.634400  0.426900  0.899700  1.0  -0.2569
  C  C567  1  0.492700  0.821300  0.914300  1.0  0.0763
  C  C568  1  0.482600  0.830600  0.949600  1.0  -0.1989
  C  C569  1  0.592100  0.841800  0.967900  1.0  0.1504
  C  C570  1  0.371900  0.807800  0.895200  1.0  -0.1226
  C  C571  1  0.401100  0.688800  0.975700  1.0  0.1457
  C  C572  1  0.343100  0.715400  0.950500  1.0  -0.218
  C  C573  1  0.409700  0.726200  0.920600  1.0  0.0974
  C  C574  1  0.533300  0.708900  0.918000  1.0  -0.2361
  C  C575  1  0.581500  0.681600  0.944200  1.0  0.1465
  C  C576  1  0.348700  0.755200  0.893900  1.0  -0.1031
  C  C577  1  0.220000  0.334200  0.920400  1.0  0.1525
  C  C578  1  0.115600  0.323100  0.899700  1.0  -0.2556
  C  C579  1  0.257300  0.928700  0.914300  1.0  0.0783
  C  C580  1  0.267400  0.919400  0.949600  1.0  -0.1979
  C  C581  1  0.157900  0.908200  0.967900  1.0  0.1493
  C  C582  1  0.378100  0.942200  0.895200  1.0  -0.1238
  C  C583  1  0.348900  0.061200  0.975700  1.0  0.1444
  C  C584  1  0.406900  0.034600  0.950500  1.0  -0.2176
  C  C585  1  0.340300  0.023800  0.920600  1.0  0.0969
  C  C586  1  0.216700  0.041100  0.918000  1.0  -0.2361
  C  C587  1  0.168500  0.068400  0.944200  1.0  0.1468
  C  C588  1  0.401300  0.994800  0.893900  1.0  -0.1026
  C  C589  1  0.220000  0.834200  0.420400  1.0  0.1525
  C  C590  1  0.115600  0.823100  0.399700  1.0  -0.2556
  C  C591  1  0.257300  0.428700  0.414300  1.0  0.0783
  C  C592  1  0.267400  0.419400  0.449600  1.0  -0.1979
  C  C593  1  0.157900  0.408200  0.467900  1.0  0.1493
  C  C594  1  0.378100  0.442200  0.395200  1.0  -0.1238
  C  C595  1  0.348900  0.561200  0.475700  1.0  0.1444
  C  C596  1  0.406900  0.534600  0.450500  1.0  -0.2176
  C  C597  1  0.340300  0.523800  0.420600  1.0  0.0969
  C  C598  1  0.216700  0.541100  0.418000  1.0  -0.2361
  C  C599  1  0.168500  0.568400  0.444200  1.0  0.1468
  C  C600  1  0.401300  0.494800  0.393900  1.0  -0.1026
  C  C601  1  0.720000  0.334200  0.420400  1.0  0.1525
  C  C602  1  0.615600  0.323100  0.399700  1.0  -0.2556
  C  C603  1  0.757300  0.928700  0.414300  1.0  0.0783
  C  C604  1  0.767400  0.919400  0.449600  1.0  -0.1979
  C  C605  1  0.657900  0.908200  0.467900  1.0  0.1493
  C  C606  1  0.878100  0.942200  0.395200  1.0  -0.1238
  C  C607  1  0.848900  0.061200  0.475700  1.0  0.1444
  C  C608  1  0.906900  0.034600  0.450500  1.0  -0.2176
  C  C609  1  0.840300  0.023800  0.420600  1.0  0.0969
  C  C610  1  0.716700  0.041100  0.418000  1.0  -0.2361
  C  C611  1  0.668500  0.068400  0.444200  1.0  0.1468
  C  C612  1  0.901300  0.994800  0.393900  1.0  -0.1026
  C  C613  1  0.720000  0.834200  0.920400  1.0  0.1525
  C  C614  1  0.615600  0.823100  0.899700  1.0  -0.2556
  C  C615  1  0.757300  0.428700  0.914300  1.0  0.0783
  C  C616  1  0.767400  0.419400  0.949600  1.0  -0.1979
  C  C617  1  0.657900  0.408200  0.967900  1.0  0.1493
  C  C618  1  0.878100  0.442200  0.895200  1.0  -0.1238
  C  C619  1  0.848900  0.561200  0.975700  1.0  0.1444
  C  C620  1  0.906900  0.534600  0.950500  1.0  -0.2176
  C  C621  1  0.840300  0.523800  0.920600  1.0  0.0969
  C  C622  1  0.716700  0.541100  0.918000  1.0  -0.2361
  C  C623  1  0.668500  0.568400  0.944200  1.0  0.1468
  C  C624  1  0.901300  0.494800  0.893900  1.0  -0.1026
  C  C625  1  0.220000  0.915800  0.329600  1.0  0.1527
  C  C626  1  0.115600  0.926900  0.350300  1.0  -0.2557
  C  C627  1  0.257300  0.321300  0.335700  1.0  0.0756
  C  C628  1  0.267400  0.330600  0.300400  1.0  -0.1965
  C  C629  1  0.157900  0.341800  0.282100  1.0  0.151
  C  C630  1  0.378100  0.307800  0.354800  1.0  -0.1247
  C  C631  1  0.348900  0.188800  0.274300  1.0  0.1441
  C  C632  1  0.406900  0.215400  0.299500  1.0  -0.2165
  C  C633  1  0.340300  0.226200  0.329400  1.0  0.0966
  C  C634  1  0.216700  0.208900  0.332000  1.0  -0.236
  C  C635  1  0.168500  0.181600  0.305800  1.0  0.1468
  C  C636  1  0.401300  0.255200  0.356100  1.0  -0.104
  C  C637  1  0.220000  0.415800  0.829600  1.0  0.1527
  C  C638  1  0.115600  0.426900  0.850300  1.0  -0.2557
  C  C639  1  0.257300  0.821300  0.835700  1.0  0.0756
  C  C640  1  0.267400  0.830600  0.800400  1.0  -0.1965
  C  C641  1  0.157900  0.841800  0.782100  1.0  0.151
  C  C642  1  0.378100  0.807800  0.854800  1.0  -0.1247
  C  C643  1  0.348900  0.688800  0.774300  1.0  0.1441
  C  C644  1  0.406900  0.715400  0.799500  1.0  -0.2165
  C  C645  1  0.340300  0.726200  0.829400  1.0  0.0966
  C  C646  1  0.216700  0.708900  0.832000  1.0  -0.236
  C  C647  1  0.168500  0.681600  0.805800  1.0  0.1468
  C  C648  1  0.401300  0.755200  0.856100  1.0  -0.104
  C  C649  1  0.720000  0.915800  0.829600  1.0  0.1527
  C  C650  1  0.615600  0.926900  0.850300  1.0  -0.2557
  C  C651  1  0.757300  0.321300  0.835700  1.0  0.0756
  C  C652  1  0.767400  0.330600  0.800400  1.0  -0.1965
  C  C653  1  0.657900  0.341800  0.782100  1.0  0.151
  C  C654  1  0.878100  0.307800  0.854800  1.0  -0.1247
  C  C655  1  0.848900  0.188800  0.774300  1.0  0.1441
  C  C656  1  0.906900  0.215400  0.799500  1.0  -0.2165
  C  C657  1  0.840300  0.226200  0.829400  1.0  0.0966
  C  C658  1  0.716700  0.208900  0.832000  1.0  -0.236
  C  C659  1  0.668500  0.181600  0.805800  1.0  0.1468
  C  C660  1  0.901300  0.255200  0.856100  1.0  -0.104
  C  C661  1  0.720000  0.415800  0.329600  1.0  0.1527
  C  C662  1  0.615600  0.426900  0.350300  1.0  -0.2557
  C  C663  1  0.757300  0.821300  0.335700  1.0  0.0756
  C  C664  1  0.767400  0.830600  0.300400  1.0  -0.1965
  C  C665  1  0.657900  0.841800  0.282100  1.0  0.151
  C  C666  1  0.878100  0.807800  0.354800  1.0  -0.1247
  C  C667  1  0.848900  0.688800  0.274300  1.0  0.1441
  C  C668  1  0.906900  0.715400  0.299500  1.0  -0.2165
  C  C669  1  0.840300  0.726200  0.329400  1.0  0.0966
  C  C670  1  0.716700  0.708900  0.332000  1.0  -0.236
  C  C671  1  0.668500  0.681600  0.305800  1.0  0.1468
  C  C672  1  0.901300  0.755200  0.356100  1.0  -0.104
  C  C673  1  0.030000  0.334200  0.329600  1.0  0.1515
  C  C674  1  0.134400  0.323100  0.350300  1.0  -0.2565
  C  C675  1  0.992700  0.928700  0.335700  1.0  0.079
  C  C676  1  0.982600  0.919400  0.300400  1.0  -0.197
  C  C677  1  0.092100  0.908200  0.282100  1.0  0.1507
  C  C678  1  0.871900  0.942200  0.354800  1.0  -0.1225
  C  C679  1  0.901100  0.061200  0.274300  1.0  0.1453
  C  C680  1  0.843100  0.034600  0.299500  1.0  -0.218
  C  C681  1  0.909700  0.023800  0.329400  1.0  0.0953
  C  C682  1  0.033300  0.041100  0.332000  1.0  -0.2365
  C  C683  1  0.081500  0.068400  0.305800  1.0  0.1462
  C  C684  1  0.848700  0.994800  0.356100  1.0  -0.1029
  C  C685  1  0.030000  0.834200  0.829600  1.0  0.1515
  C  C686  1  0.134400  0.823100  0.850300  1.0  -0.2565
  C  C687  1  0.992700  0.428700  0.835700  1.0  0.079
  C  C688  1  0.982600  0.419400  0.800400  1.0  -0.197
  C  C689  1  0.092100  0.408200  0.782100  1.0  0.1507
  C  C690  1  0.871900  0.442200  0.854800  1.0  -0.1225
  C  C691  1  0.901100  0.561200  0.774300  1.0  0.1453
  C  C692  1  0.843100  0.534600  0.799500  1.0  -0.218
  C  C693  1  0.909700  0.523800  0.829400  1.0  0.0953
  C  C694  1  0.033300  0.541100  0.832000  1.0  -0.2365
  C  C695  1  0.081500  0.568400  0.805800  1.0  0.1462
  C  C696  1  0.848700  0.494800  0.856100  1.0  -0.1029
  C  C697  1  0.530000  0.334200  0.829600  1.0  0.1515
  C  C698  1  0.634400  0.323100  0.850300  1.0  -0.2565
  C  C699  1  0.492700  0.928700  0.835700  1.0  0.079
  C  C700  1  0.482600  0.919400  0.800400  1.0  -0.197
  C  C701  1  0.592100  0.908200  0.782100  1.0  0.1507
  C  C702  1  0.371900  0.942200  0.854800  1.0  -0.1225
  C  C703  1  0.401100  0.061200  0.774300  1.0  0.1453
  C  C704  1  0.343100  0.034600  0.799500  1.0  -0.218
  C  C705  1  0.409700  0.023800  0.829400  1.0  0.0953
  C  C706  1  0.533300  0.041100  0.832000  1.0  -0.2365
  C  C707  1  0.581500  0.068400  0.805800  1.0  0.1462
  C  C708  1  0.348700  0.994800  0.856100  1.0  -0.1029
  C  C709  1  0.530000  0.834200  0.329600  1.0  0.1515
  C  C710  1  0.634400  0.823100  0.350300  1.0  -0.2565
  C  C711  1  0.492700  0.428700  0.335700  1.0  0.079
  C  C712  1  0.482600  0.419400  0.300400  1.0  -0.197
  C  C713  1  0.592100  0.408200  0.282100  1.0  0.1507
  C  C714  1  0.371900  0.442200  0.354800  1.0  -0.1225
  C  C715  1  0.401100  0.561200  0.274300  1.0  0.1453
  C  C716  1  0.343100  0.534600  0.299500  1.0  -0.218
  C  C717  1  0.409700  0.523800  0.329400  1.0  0.0953
  C  C718  1  0.533300  0.541100  0.332000  1.0  -0.2365
  C  C719  1  0.581500  0.568400  0.305800  1.0  0.1462
  C  C720  1  0.348700  0.494800  0.356100  1.0  -0.1029
  N  N721  1  0.961000  0.093700  0.045900  1.0  -0.3331
  N  N722  1  0.980600  0.828100  0.027000  1.0  -0.3722
  N  N723  1  0.961000  0.593700  0.545900  1.0  -0.3331
  N  N724  1  0.980600  0.328100  0.527000  1.0  -0.3722
  N  N725  1  0.461000  0.093700  0.545900  1.0  -0.3331
  N  N726  1  0.480600  0.828100  0.527000  1.0  -0.3722
  N  N727  1  0.461000  0.593700  0.045900  1.0  -0.3331
  N  N728  1  0.480600  0.328100  0.027000  1.0  -0.3722
  N  N729  1  0.789000  0.656300  0.045900  1.0  -0.3343
  N  N730  1  0.769400  0.921900  0.027000  1.0  -0.3732
  N  N731  1  0.789000  0.156300  0.545900  1.0  -0.3343
  N  N732  1  0.769400  0.421900  0.527000  1.0  -0.3732
  N  N733  1  0.289000  0.656300  0.545900  1.0  -0.3343
  N  N734  1  0.269400  0.921900  0.527000  1.0  -0.3732
  N  N735  1  0.289000  0.156300  0.045900  1.0  -0.3343
  N  N736  1  0.269400  0.421900  0.027000  1.0  -0.3732
  N  N737  1  0.789000  0.093700  0.704100  1.0  -0.3332
  N  N738  1  0.769400  0.828100  0.723000  1.0  -0.3731
  N  N739  1  0.789000  0.593700  0.204100  1.0  -0.3332
  N  N740  1  0.769400  0.328100  0.223000  1.0  -0.3731
  N  N741  1  0.289000  0.093700  0.204100  1.0  -0.3332
  N  N742  1  0.269400  0.828100  0.223000  1.0  -0.3731
  N  N743  1  0.289000  0.593700  0.704100  1.0  -0.3332
  N  N744  1  0.269400  0.328100  0.723000  1.0  -0.3731
  N  N745  1  0.961000  0.656300  0.704100  1.0  -0.3313
  N  N746  1  0.980600  0.921900  0.723000  1.0  -0.374
  N  N747  1  0.961000  0.156300  0.204100  1.0  -0.3313
  N  N748  1  0.980600  0.421900  0.223000  1.0  -0.374
  N  N749  1  0.461000  0.656300  0.204100  1.0  -0.3313
  N  N750  1  0.480600  0.921900  0.223000  1.0  -0.374
  N  N751  1  0.461000  0.156300  0.704100  1.0  -0.3313
  N  N752  1  0.480600  0.421900  0.723000  1.0  -0.374
  N  N753  1  0.039000  0.906300  0.954100  1.0  -0.3329
  N  N754  1  0.019400  0.171900  0.973000  1.0  -0.3722
  N  N755  1  0.039000  0.406300  0.454100  1.0  -0.3329
  N  N756  1  0.019400  0.671900  0.473000  1.0  -0.3722
  N  N757  1  0.539000  0.906300  0.454100  1.0  -0.3329
  N  N758  1  0.519400  0.171900  0.473000  1.0  -0.3722
  N  N759  1  0.539000  0.406300  0.954100  1.0  -0.3329
  N  N760  1  0.519400  0.671900  0.973000  1.0  -0.3722
  N  N761  1  0.211000  0.343700  0.954100  1.0  -0.3317
  N  N762  1  0.230600  0.078100  0.973000  1.0  -0.3747
  N  N763  1  0.211000  0.843700  0.454100  1.0  -0.3317
  N  N764  1  0.230600  0.578100  0.473000  1.0  -0.3747
  N  N765  1  0.711000  0.343700  0.454100  1.0  -0.3317
  N  N766  1  0.730600  0.078100  0.473000  1.0  -0.3747
  N  N767  1  0.711000  0.843700  0.954100  1.0  -0.3317
  N  N768  1  0.730600  0.578100  0.973000  1.0  -0.3747
  N  N769  1  0.211000  0.906300  0.295900  1.0  -0.3338
  N  N770  1  0.230600  0.171900  0.277000  1.0  -0.3732
  N  N771  1  0.211000  0.406300  0.795900  1.0  -0.3338
  N  N772  1  0.230600  0.671900  0.777000  1.0  -0.3732
  N  N773  1  0.711000  0.906300  0.795900  1.0  -0.3338
  N  N774  1  0.730600  0.171900  0.777000  1.0  -0.3732
  N  N775  1  0.711000  0.406300  0.295900  1.0  -0.3338
  N  N776  1  0.730600  0.671900  0.277000  1.0  -0.3732
  N  N777  1  0.039000  0.343700  0.295900  1.0  -0.3334
  N  N778  1  0.019400  0.078100  0.277000  1.0  -0.3722
  N  N779  1  0.039000  0.843700  0.795900  1.0  -0.3334
  N  N780  1  0.019400  0.578100  0.777000  1.0  -0.3722
  N  N781  1  0.539000  0.343700  0.795900  1.0  -0.3334
  N  N782  1  0.519400  0.078100  0.777000  1.0  -0.3722
  N  N783  1  0.539000  0.843700  0.295900  1.0  -0.3334
  N  N784  1  0.519400  0.578100  0.277000  1.0  -0.3722
