# generated using pymatgen
data_Zn2C28N8Cl5
_symmetry_space_group_name_H-M   'P 1'
_cell_length_a   38.76570000
_cell_length_b   38.76570000
_cell_length_c   56.45410000
_cell_angle_alpha   90.00000000
_cell_angle_beta   90.00000000
_cell_angle_gamma   90.00000000
_symmetry_Int_Tables_number   1
_chemical_formula_structural   Zn2C28N8Cl5
_chemical_formula_sum   'Zn128 C1792 N512 Cl320'
_cell_volume   84838.06397280
_cell_formula_units_Z   64
loop_
 _symmetry_equiv_pos_site_id
 _symmetry_equiv_pos_as_xyz
  1  'x, y, z'
loop_
 _atom_site_type_symbol
 _atom_site_label
 _atom_site_symmetry_multiplicity
 _atom_site_fract_x
 _atom_site_fract_y
 _atom_site_fract_z
 _atom_site_occupancy
 _atom_site_charge
  Zn  Zn1  1  0.316800  0.424300  0.337900  1.0  0.8566
  Zn  Zn2  1  0.177000  0.424200  0.372600  1.0  1.038
  Zn  Zn3  1  0.219800  0.326200  0.297700  1.0  0.8684
  Zn  Zn4  1  0.073500  0.423500  0.448100  1.0  1.0585
  Zn  Zn5  1  0.816800  0.924300  0.837900  1.0  0.8566
  Zn  Zn6  1  0.677000  0.924200  0.872600  1.0  1.038
  Zn  Zn7  1  0.719800  0.826200  0.797700  1.0  0.8684
  Zn  Zn8  1  0.573500  0.923500  0.948100  1.0  1.0585
  Zn  Zn9  1  0.683200  0.575700  0.337900  1.0  0.8569
  Zn  Zn10  1  0.823000  0.575800  0.372600  1.0  1.038
  Zn  Zn11  1  0.780200  0.673800  0.297700  1.0  0.8683
  Zn  Zn12  1  0.926500  0.576500  0.448100  1.0  1.0584
  Zn  Zn13  1  0.183200  0.075700  0.837900  1.0  0.8569
  Zn  Zn14  1  0.323000  0.075800  0.872600  1.0  1.038
  Zn  Zn15  1  0.280200  0.173800  0.797700  1.0  0.8683
  Zn  Zn16  1  0.426500  0.076500  0.948100  1.0  1.0584
  Zn  Zn17  1  0.575700  0.316800  0.337900  1.0  0.8569
  Zn  Zn18  1  0.575800  0.177000  0.372600  1.0  1.0382
  Zn  Zn19  1  0.673800  0.219800  0.297700  1.0  0.8684
  Zn  Zn20  1  0.576500  0.073500  0.448100  1.0  1.0587
  Zn  Zn21  1  0.075700  0.816800  0.837900  1.0  0.8569
  Zn  Zn22  1  0.075800  0.677000  0.872600  1.0  1.0382
  Zn  Zn23  1  0.173800  0.719800  0.797700  1.0  0.8684
  Zn  Zn24  1  0.076500  0.573500  0.948100  1.0  1.0587
  Zn  Zn25  1  0.424300  0.683200  0.337900  1.0  0.8569
  Zn  Zn26  1  0.424200  0.823000  0.372600  1.0  1.0386
  Zn  Zn27  1  0.326200  0.780200  0.297700  1.0  0.8682
  Zn  Zn28  1  0.423500  0.926500  0.448100  1.0  1.0582
  Zn  Zn29  1  0.924300  0.183200  0.837900  1.0  0.8569
  Zn  Zn30  1  0.924200  0.323000  0.872600  1.0  1.0386
  Zn  Zn31  1  0.826200  0.280200  0.797700  1.0  0.8682
  Zn  Zn32  1  0.923500  0.426500  0.948100  1.0  1.0582
  Zn  Zn33  1  0.683200  0.424300  0.662100  1.0  0.8566
  Zn  Zn34  1  0.823000  0.424200  0.627400  1.0  1.0383
  Zn  Zn35  1  0.780200  0.326200  0.702300  1.0  0.868
  Zn  Zn36  1  0.926500  0.423500  0.551900  1.0  1.0587
  Zn  Zn37  1  0.183200  0.924300  0.162100  1.0  0.8566
  Zn  Zn38  1  0.323000  0.924200  0.127400  1.0  1.0383
  Zn  Zn39  1  0.280200  0.826200  0.202300  1.0  0.868
  Zn  Zn40  1  0.426500  0.923500  0.051900  1.0  1.0587
  Zn  Zn41  1  0.316800  0.575700  0.662100  1.0  0.8563
  Zn  Zn42  1  0.177000  0.575800  0.627400  1.0  1.0378
  Zn  Zn43  1  0.219800  0.673800  0.702300  1.0  0.8689
  Zn  Zn44  1  0.073500  0.576500  0.551900  1.0  1.0586
  Zn  Zn45  1  0.816800  0.075700  0.162100  1.0  0.8563
  Zn  Zn46  1  0.677000  0.075800  0.127400  1.0  1.0378
  Zn  Zn47  1  0.719800  0.173800  0.202300  1.0  0.8689
  Zn  Zn48  1  0.573500  0.076500  0.051900  1.0  1.0586
  Zn  Zn49  1  0.424300  0.316800  0.662100  1.0  0.8566
  Zn  Zn50  1  0.424200  0.177000  0.627400  1.0  1.0387
  Zn  Zn51  1  0.326200  0.219800  0.702300  1.0  0.8677
  Zn  Zn52  1  0.423500  0.073500  0.551900  1.0  1.0582
  Zn  Zn53  1  0.924300  0.816800  0.162100  1.0  0.8566
  Zn  Zn54  1  0.924200  0.677000  0.127400  1.0  1.0387
  Zn  Zn55  1  0.826200  0.719800  0.202300  1.0  0.8677
  Zn  Zn56  1  0.923500  0.573500  0.051900  1.0  1.0582
  Zn  Zn57  1  0.575700  0.683200  0.662100  1.0  0.8567
  Zn  Zn58  1  0.575800  0.823000  0.627400  1.0  1.0383
  Zn  Zn59  1  0.673800  0.780200  0.702300  1.0  0.869
  Zn  Zn60  1  0.576500  0.926500  0.551900  1.0  1.0588
  Zn  Zn61  1  0.075700  0.183200  0.162100  1.0  0.8567
  Zn  Zn62  1  0.075800  0.323000  0.127400  1.0  1.0383
  Zn  Zn63  1  0.173800  0.280200  0.202300  1.0  0.869
  Zn  Zn64  1  0.076500  0.426500  0.051900  1.0  1.0588
  Zn  Zn65  1  0.683200  0.575700  0.662100  1.0  0.8566
  Zn  Zn66  1  0.823000  0.575800  0.627400  1.0  1.0381
  Zn  Zn67  1  0.780200  0.673800  0.702300  1.0  0.8681
  Zn  Zn68  1  0.926500  0.576500  0.551900  1.0  1.0586
  Zn  Zn69  1  0.183200  0.075700  0.162100  1.0  0.8566
  Zn  Zn70  1  0.323000  0.075800  0.127400  1.0  1.0381
  Zn  Zn71  1  0.280200  0.173800  0.202300  1.0  0.8681
  Zn  Zn72  1  0.426500  0.076500  0.051900  1.0  1.0586
  Zn  Zn73  1  0.316800  0.424300  0.662100  1.0  0.8563
  Zn  Zn74  1  0.177000  0.424200  0.627400  1.0  1.0382
  Zn  Zn75  1  0.219800  0.326200  0.702300  1.0  0.8685
  Zn  Zn76  1  0.073500  0.423500  0.551900  1.0  1.0586
  Zn  Zn77  1  0.816800  0.924300  0.162100  1.0  0.8563
  Zn  Zn78  1  0.677000  0.924200  0.127400  1.0  1.0382
  Zn  Zn79  1  0.719800  0.826200  0.202300  1.0  0.8685
  Zn  Zn80  1  0.573500  0.923500  0.051900  1.0  1.0586
  Zn  Zn81  1  0.424300  0.683200  0.662100  1.0  0.8566
  Zn  Zn82  1  0.424200  0.823000  0.627400  1.0  1.0387
  Zn  Zn83  1  0.326200  0.780200  0.702300  1.0  0.8682
  Zn  Zn84  1  0.423500  0.926500  0.551900  1.0  1.0583
  Zn  Zn85  1  0.924300  0.183200  0.162100  1.0  0.8566
  Zn  Zn86  1  0.924200  0.323000  0.127400  1.0  1.0387
  Zn  Zn87  1  0.826200  0.280200  0.202300  1.0  0.8682
  Zn  Zn88  1  0.923500  0.426500  0.051900  1.0  1.0583
  Zn  Zn89  1  0.575700  0.316800  0.662100  1.0  0.8566
  Zn  Zn90  1  0.575800  0.177000  0.627400  1.0  1.0385
  Zn  Zn91  1  0.673800  0.219800  0.702300  1.0  0.8684
  Zn  Zn92  1  0.576500  0.073500  0.551900  1.0  1.0589
  Zn  Zn93  1  0.075700  0.816800  0.162100  1.0  0.8566
  Zn  Zn94  1  0.075800  0.677000  0.127400  1.0  1.0385
  Zn  Zn95  1  0.173800  0.719800  0.202300  1.0  0.8684
  Zn  Zn96  1  0.076500  0.573500  0.051900  1.0  1.0589
  Zn  Zn97  1  0.316800  0.575700  0.337900  1.0  0.8566
  Zn  Zn98  1  0.177000  0.575800  0.372600  1.0  1.0377
  Zn  Zn99  1  0.219800  0.673800  0.297700  1.0  0.8689
  Zn  Zn100  1  0.073500  0.576500  0.448100  1.0  1.0584
  Zn  Zn101  1  0.816800  0.075700  0.837900  1.0  0.8566
  Zn  Zn102  1  0.677000  0.075800  0.872600  1.0  1.0377
  Zn  Zn103  1  0.719800  0.173800  0.797700  1.0  0.8689
  Zn  Zn104  1  0.573500  0.076500  0.948100  1.0  1.0584
  Zn  Zn105  1  0.683200  0.424300  0.337900  1.0  0.8569
  Zn  Zn106  1  0.823000  0.424200  0.372600  1.0  1.0381
  Zn  Zn107  1  0.780200  0.326200  0.297700  1.0  0.868
  Zn  Zn108  1  0.926500  0.423500  0.448100  1.0  1.0586
  Zn  Zn109  1  0.183200  0.924300  0.837900  1.0  0.8569
  Zn  Zn110  1  0.323000  0.924200  0.872600  1.0  1.0381
  Zn  Zn111  1  0.280200  0.826200  0.797700  1.0  0.868
  Zn  Zn112  1  0.426500  0.923500  0.948100  1.0  1.0586
  Zn  Zn113  1  0.575700  0.683200  0.337900  1.0  0.8569
  Zn  Zn114  1  0.575800  0.823000  0.372600  1.0  1.0382
  Zn  Zn115  1  0.673800  0.780200  0.297700  1.0  0.8688
  Zn  Zn116  1  0.576500  0.926500  0.448100  1.0  1.0587
  Zn  Zn117  1  0.075700  0.183200  0.837900  1.0  0.8569
  Zn  Zn118  1  0.075800  0.323000  0.872600  1.0  1.0382
  Zn  Zn119  1  0.173800  0.280200  0.797700  1.0  0.8688
  Zn  Zn120  1  0.076500  0.426500  0.948100  1.0  1.0587
  Zn  Zn121  1  0.424300  0.316800  0.337900  1.0  0.8568
  Zn  Zn122  1  0.424200  0.177000  0.372600  1.0  1.0385
  Zn  Zn123  1  0.326200  0.219800  0.297700  1.0  0.8679
  Zn  Zn124  1  0.423500  0.073500  0.448100  1.0  1.0581
  Zn  Zn125  1  0.924300  0.816800  0.837900  1.0  0.8568
  Zn  Zn126  1  0.924200  0.677000  0.872600  1.0  1.0385
  Zn  Zn127  1  0.826200  0.719800  0.797700  1.0  0.8679
  Zn  Zn128  1  0.923500  0.573500  0.948100  1.0  1.0581
  C  C129  1  0.357000  0.479100  0.314700  1.0  0.0709
  C  C130  1  0.383300  0.463700  0.300700  1.0  -0.0297
  C  C131  1  0.399800  0.485500  0.284400  1.0  0.2676
  C  C132  1  0.278600  0.370400  0.314000  1.0  0.1162
  C  C133  1  0.282700  0.410700  0.291800  1.0  0.0997
  C  C134  1  0.291700  0.440800  0.280000  1.0  0.0301
  C  C135  1  0.278500  0.447600  0.257600  1.0  -0.0298
  C  C136  1  0.256300  0.424100  0.246900  1.0  -1e-04
  C  C137  1  0.247300  0.393900  0.258700  1.0  -0.0183
  C  C138  1  0.260500  0.387200  0.281100  1.0  0.1107
  C  C139  1  0.250100  0.437900  0.358900  1.0  0.0366
  C  C140  1  0.243600  0.409700  0.394700  1.0  0.0998
  C  C141  1  0.239700  0.393800  0.416600  1.0  0.0842
  C  C142  1  0.267700  0.377800  0.427300  1.0  0.0364
  C  C143  1  0.299700  0.377900  0.416200  1.0  -0.031
  C  C144  1  0.303700  0.393800  0.394400  1.0  0.0706
  C  C145  1  0.275600  0.409700  0.383600  1.0  0.1916
  C  C146  1  0.163500  0.344800  0.260300  1.0  0.2331
  C  C147  1  0.149600  0.373000  0.273100  1.0  0.0179
  C  C148  1  0.125200  0.387500  0.259100  1.0  0.1752
  C  C149  1  0.232100  0.258900  0.322300  1.0  0.0231
  C  C150  1  0.204100  0.258900  0.341400  1.0  -0.0133
  C  C151  1  0.205000  0.228500  0.355000  1.0  0.1706
  C  C152  1  0.198600  0.372300  0.335000  1.0  0.1058
  C  C153  1  0.155700  0.341500  0.327600  1.0  0.1675
  C  C154  1  0.133000  0.316700  0.319100  1.0  0.0237
  C  C155  1  0.098900  0.316300  0.326700  1.0  -0.0214
  C  C156  1  0.087500  0.340900  0.342900  1.0  0.0179
  C  C157  1  0.110200  0.365700  0.351400  1.0  0.0448
  C  C158  1  0.144300  0.366000  0.343800  1.0  0.0765
  C  C159  1  0.138000  0.480300  0.345100  1.0  0.1674
  C  C160  1  0.118300  0.459800  0.333500  1.0  0.1469
  C  C161  1  0.101800  0.481600  0.319900  1.0  0.1533
  C  C162  1  0.124200  0.423800  0.410800  1.0  0.0583
  C  C163  1  0.146400  0.374600  0.405200  1.0  0.0696
  C  C164  1  0.162900  0.343400  0.401100  1.0  0.0351
  C  C165  1  0.154200  0.314400  0.414300  1.0  0.0193
  C  C166  1  0.128900  0.316600  0.431600  1.0  -0.0161
  C  C167  1  0.112300  0.347900  0.435800  1.0  0.0092
  C  C168  1  0.121000  0.376800  0.422600  1.0  0.2098
  C  C169  1  0.381800  0.409100  0.362000  1.0  0.0152
  C  C170  1  0.383700  0.439000  0.380300  1.0  0.0376
  C  C171  1  0.411300  0.436100  0.394200  1.0  0.1249
  C  C172  1  0.059300  0.484800  0.413000  1.0  0.0791
  C  C173  1  0.050500  0.463500  0.394000  1.0  0.0913
  C  C174  1  0.043400  0.480400  0.373300  1.0  -0.0763
  C  C175  1  0.128000  0.423400  0.487900  1.0  0.0437
  C  C176  1  0.158100  0.409700  0.475400  1.0  0.0623
  C  C177  1  0.185600  0.403500  0.487600  1.0  0.0677
  C  C178  1  0.017300  0.378300  0.468400  1.0  0.0088
  C  C179  1  0.031300  0.354800  0.484600  1.0  -0.0281
  C  C180  1  0.018400  0.321300  0.487100  1.0  0.1026
  C  C181  1  0.857000  0.979100  0.814700  1.0  0.0709
  C  C182  1  0.883300  0.963700  0.800700  1.0  -0.0297
  C  C183  1  0.899800  0.985500  0.784400  1.0  0.2676
  C  C184  1  0.778600  0.870400  0.814000  1.0  0.1162
  C  C185  1  0.782700  0.910700  0.791800  1.0  0.0997
  C  C186  1  0.791700  0.940800  0.780000  1.0  0.0301
  C  C187  1  0.778500  0.947600  0.757600  1.0  -0.0298
  C  C188  1  0.756300  0.924100  0.746900  1.0  -1e-04
  C  C189  1  0.747300  0.893900  0.758700  1.0  -0.0183
  C  C190  1  0.760500  0.887200  0.781100  1.0  0.1107
  C  C191  1  0.750100  0.937900  0.858900  1.0  0.0366
  C  C192  1  0.743600  0.909700  0.894700  1.0  0.0998
  C  C193  1  0.739700  0.893800  0.916600  1.0  0.0842
  C  C194  1  0.767700  0.877800  0.927300  1.0  0.0364
  C  C195  1  0.799700  0.877900  0.916200  1.0  -0.031
  C  C196  1  0.803700  0.893800  0.894400  1.0  0.0706
  C  C197  1  0.775600  0.909700  0.883600  1.0  0.1916
  C  C198  1  0.663500  0.844800  0.760300  1.0  0.2331
  C  C199  1  0.649600  0.873000  0.773100  1.0  0.0179
  C  C200  1  0.625200  0.887500  0.759100  1.0  0.1752
  C  C201  1  0.732100  0.758900  0.822300  1.0  0.0231
  C  C202  1  0.704100  0.758900  0.841400  1.0  -0.0133
  C  C203  1  0.705000  0.728500  0.855000  1.0  0.1706
  C  C204  1  0.698600  0.872300  0.835000  1.0  0.1058
  C  C205  1  0.655700  0.841500  0.827600  1.0  0.1675
  C  C206  1  0.633000  0.816700  0.819100  1.0  0.0237
  C  C207  1  0.598900  0.816300  0.826700  1.0  -0.0214
  C  C208  1  0.587500  0.840900  0.842900  1.0  0.0179
  C  C209  1  0.610200  0.865700  0.851400  1.0  0.0448
  C  C210  1  0.644300  0.866000  0.843800  1.0  0.0765
  C  C211  1  0.638000  0.980300  0.845100  1.0  0.1674
  C  C212  1  0.618300  0.959800  0.833500  1.0  0.1469
  C  C213  1  0.601800  0.981600  0.819900  1.0  0.1533
  C  C214  1  0.624200  0.923800  0.910800  1.0  0.0583
  C  C215  1  0.646400  0.874600  0.905200  1.0  0.0696
  C  C216  1  0.662900  0.843400  0.901100  1.0  0.0351
  C  C217  1  0.654200  0.814400  0.914300  1.0  0.0193
  C  C218  1  0.628900  0.816600  0.931600  1.0  -0.0161
  C  C219  1  0.612300  0.847900  0.935800  1.0  0.0092
  C  C220  1  0.621000  0.876800  0.922600  1.0  0.2098
  C  C221  1  0.881800  0.909100  0.862000  1.0  0.0152
  C  C222  1  0.883700  0.939000  0.880300  1.0  0.0376
  C  C223  1  0.911300  0.936100  0.894200  1.0  0.1249
  C  C224  1  0.559300  0.984800  0.913000  1.0  0.0791
  C  C225  1  0.550500  0.963500  0.894000  1.0  0.0913
  C  C226  1  0.543400  0.980400  0.873300  1.0  -0.0757
  C  C227  1  0.628000  0.923400  0.987900  1.0  0.0437
  C  C228  1  0.658100  0.909700  0.975400  1.0  0.0623
  C  C229  1  0.685600  0.903500  0.987600  1.0  0.0677
  C  C230  1  0.517300  0.878300  0.968400  1.0  0.0088
  C  C231  1  0.531300  0.854800  0.984600  1.0  -0.0281
  C  C232  1  0.518400  0.821300  0.987100  1.0  0.1026
  C  C233  1  0.643000  0.520900  0.314700  1.0  0.069
  C  C234  1  0.616700  0.536300  0.300700  1.0  -0.0311
  C  C235  1  0.600200  0.514500  0.284400  1.0  0.2664
  C  C236  1  0.721400  0.629600  0.314000  1.0  0.1172
  C  C237  1  0.717300  0.589300  0.291800  1.0  0.1002
  C  C238  1  0.708300  0.559200  0.280000  1.0  0.0278
  C  C239  1  0.721500  0.552400  0.257600  1.0  -0.0281
  C  C240  1  0.743700  0.575900  0.246900  1.0  -0.0015
  C  C241  1  0.752700  0.606100  0.258700  1.0  -0.019
  C  C242  1  0.739500  0.612800  0.281100  1.0  0.1113
  C  C243  1  0.749900  0.562100  0.358900  1.0  0.0394
  C  C244  1  0.756400  0.590300  0.394700  1.0  0.1002
  C  C245  1  0.760300  0.606200  0.416600  1.0  0.0834
  C  C246  1  0.732300  0.622200  0.427300  1.0  0.0363
  C  C247  1  0.700300  0.622100  0.416200  1.0  -0.0301
  C  C248  1  0.696300  0.606200  0.394400  1.0  0.0733
  C  C249  1  0.724400  0.590300  0.383600  1.0  0.1904
  C  C250  1  0.836500  0.655200  0.260300  1.0  0.2332
  C  C251  1  0.850400  0.627000  0.273100  1.0  0.0175
  C  C252  1  0.874800  0.612500  0.259100  1.0  0.1776
  C  C253  1  0.767900  0.741100  0.322300  1.0  0.0226
  C  C254  1  0.795900  0.741100  0.341400  1.0  -0.013
  C  C255  1  0.795000  0.771500  0.355000  1.0  0.1709
  C  C256  1  0.801400  0.627700  0.335000  1.0  0.1029
  C  C257  1  0.844300  0.658500  0.327600  1.0  0.1688
  C  C258  1  0.867000  0.683300  0.319100  1.0  0.0247
  C  C259  1  0.901100  0.683700  0.326700  1.0  -0.0196
  C  C260  1  0.912500  0.659100  0.342900  1.0  0.0162
  C  C261  1  0.889800  0.634300  0.351400  1.0  0.046
  C  C262  1  0.855700  0.634000  0.343800  1.0  0.076
  C  C263  1  0.862000  0.519700  0.345100  1.0  0.1683
  C  C264  1  0.881700  0.540200  0.333500  1.0  0.15
  C  C265  1  0.898200  0.518400  0.319900  1.0  0.1521
  C  C266  1  0.875800  0.576200  0.410800  1.0  0.0568
  C  C267  1  0.853600  0.625400  0.405200  1.0  0.0697
  C  C268  1  0.837100  0.656600  0.401100  1.0  0.0378
  C  C269  1  0.845800  0.685600  0.414300  1.0  0.0193
  C  C270  1  0.871100  0.683400  0.431600  1.0  -0.0121
  C  C271  1  0.887700  0.652100  0.435800  1.0  0.0108
  C  C272  1  0.879000  0.623200  0.422600  1.0  0.2113
  C  C273  1  0.618200  0.590900  0.362000  1.0  0.0142
  C  C274  1  0.616300  0.561000  0.380300  1.0  0.0407
  C  C275  1  0.588700  0.563900  0.394200  1.0  0.1267
  C  C276  1  0.940700  0.515200  0.413000  1.0  0.079
  C  C277  1  0.949500  0.536500  0.394000  1.0  0.09
  C  C278  1  0.956600  0.519600  0.373300  1.0  -0.0748
  C  C279  1  0.872000  0.576600  0.487900  1.0  0.0435
  C  C280  1  0.841900  0.590300  0.475400  1.0  0.0614
  C  C281  1  0.814400  0.596500  0.487600  1.0  0.0682
  C  C282  1  0.982700  0.621700  0.468400  1.0  0.008
  C  C283  1  0.968700  0.645200  0.484600  1.0  -0.0315
  C  C284  1  0.981600  0.678700  0.487100  1.0  0.0981
  C  C285  1  0.143000  0.020900  0.814700  1.0  0.069
  C  C286  1  0.116700  0.036300  0.800700  1.0  -0.0311
  C  C287  1  0.100200  0.014500  0.784400  1.0  0.2664
  C  C288  1  0.221400  0.129600  0.814000  1.0  0.1172
  C  C289  1  0.217300  0.089300  0.791800  1.0  0.1002
  C  C290  1  0.208300  0.059200  0.780000  1.0  0.0278
  C  C291  1  0.221500  0.052400  0.757600  1.0  -0.0281
  C  C292  1  0.243700  0.075900  0.746900  1.0  -0.0015
  C  C293  1  0.252700  0.106100  0.758700  1.0  -0.019
  C  C294  1  0.239500  0.112800  0.781100  1.0  0.1113
  C  C295  1  0.249900  0.062100  0.858900  1.0  0.0394
  C  C296  1  0.256400  0.090300  0.894700  1.0  0.1002
  C  C297  1  0.260300  0.106200  0.916600  1.0  0.0834
  C  C298  1  0.232300  0.122200  0.927300  1.0  0.0363
  C  C299  1  0.200300  0.122100  0.916200  1.0  -0.0301
  C  C300  1  0.196300  0.106200  0.894400  1.0  0.0733
  C  C301  1  0.224400  0.090300  0.883600  1.0  0.1904
  C  C302  1  0.336500  0.155200  0.760300  1.0  0.2332
  C  C303  1  0.350400  0.127000  0.773100  1.0  0.0175
  C  C304  1  0.374800  0.112500  0.759100  1.0  0.1776
  C  C305  1  0.267900  0.241100  0.822300  1.0  0.0226
  C  C306  1  0.295900  0.241100  0.841400  1.0  -0.013
  C  C307  1  0.295000  0.271500  0.855000  1.0  0.1709
  C  C308  1  0.301400  0.127700  0.835000  1.0  0.1029
  C  C309  1  0.344300  0.158500  0.827600  1.0  0.1688
  C  C310  1  0.367000  0.183300  0.819100  1.0  0.0247
  C  C311  1  0.401100  0.183700  0.826700  1.0  -0.0196
  C  C312  1  0.412500  0.159100  0.842900  1.0  0.0162
  C  C313  1  0.389800  0.134300  0.851400  1.0  0.046
  C  C314  1  0.355700  0.134000  0.843800  1.0  0.076
  C  C315  1  0.362000  0.019700  0.845100  1.0  0.1683
  C  C316  1  0.381700  0.040200  0.833500  1.0  0.15
  C  C317  1  0.398200  0.018400  0.819900  1.0  0.1521
  C  C318  1  0.375800  0.076200  0.910800  1.0  0.0568
  C  C319  1  0.353600  0.125400  0.905200  1.0  0.0697
  C  C320  1  0.337100  0.156600  0.901100  1.0  0.0378
  C  C321  1  0.345800  0.185600  0.914300  1.0  0.0193
  C  C322  1  0.371100  0.183400  0.931600  1.0  -0.0121
  C  C323  1  0.387700  0.152100  0.935800  1.0  0.0108
  C  C324  1  0.379000  0.123200  0.922600  1.0  0.2113
  C  C325  1  0.118200  0.090900  0.862000  1.0  0.0142
  C  C326  1  0.116300  0.061000  0.880300  1.0  0.0407
  C  C327  1  0.088700  0.063900  0.894200  1.0  0.1267
  C  C328  1  0.440700  0.015200  0.913000  1.0  0.079
  C  C329  1  0.449500  0.036500  0.894000  1.0  0.09
  C  C330  1  0.456600  0.019600  0.873300  1.0  -0.0748
  C  C331  1  0.372000  0.076600  0.987900  1.0  0.0435
  C  C332  1  0.341900  0.090300  0.975400  1.0  0.0614
  C  C333  1  0.314400  0.096500  0.987600  1.0  0.0682
  C  C334  1  0.482700  0.121700  0.968400  1.0  0.008
  C  C335  1  0.468700  0.145200  0.984600  1.0  -0.0315
  C  C336  1  0.481600  0.178700  0.987100  1.0  0.0981
  C  C337  1  0.520900  0.357000  0.314700  1.0  0.0718
  C  C338  1  0.536300  0.383300  0.300700  1.0  -0.0263
  C  C339  1  0.514500  0.399800  0.284400  1.0  0.2658
  C  C340  1  0.629600  0.278600  0.314000  1.0  0.1156
  C  C341  1  0.589300  0.282700  0.291800  1.0  0.1003
  C  C342  1  0.559200  0.291700  0.280000  1.0  0.0288
  C  C343  1  0.552400  0.278500  0.257600  1.0  -0.029
  C  C344  1  0.575900  0.256300  0.246900  1.0  -0.0014
  C  C345  1  0.606100  0.247300  0.258700  1.0  -0.0176
  C  C346  1  0.612800  0.260500  0.281100  1.0  0.1093
  C  C347  1  0.562100  0.250100  0.358900  1.0  0.037
  C  C348  1  0.590300  0.243600  0.394700  1.0  0.0995
  C  C349  1  0.606200  0.239700  0.416600  1.0  0.0825
  C  C350  1  0.622200  0.267700  0.427300  1.0  0.0372
  C  C351  1  0.622100  0.299700  0.416200  1.0  -0.0294
  C  C352  1  0.606200  0.303700  0.394400  1.0  0.0706
  C  C353  1  0.590300  0.275600  0.383600  1.0  0.1917
  C  C354  1  0.655200  0.163500  0.260300  1.0  0.2331
  C  C355  1  0.627000  0.149600  0.273100  1.0  0.0195
  C  C356  1  0.612500  0.125200  0.259100  1.0  0.1716
  C  C357  1  0.741100  0.232100  0.322300  1.0  0.0214
  C  C358  1  0.741100  0.204100  0.341400  1.0  -0.0145
  C  C359  1  0.771500  0.205000  0.355000  1.0  0.1696
  C  C360  1  0.627700  0.198600  0.335000  1.0  0.1018
  C  C361  1  0.658500  0.155700  0.327600  1.0  0.1692
  C  C362  1  0.683300  0.133000  0.319100  1.0  0.0261
  C  C363  1  0.683700  0.098900  0.326700  1.0  -0.0203
  C  C364  1  0.659100  0.087500  0.342900  1.0  0.0164
  C  C365  1  0.634300  0.110200  0.351400  1.0  0.049
  C  C366  1  0.634000  0.144300  0.343800  1.0  0.0757
  C  C367  1  0.519700  0.138000  0.345100  1.0  0.1656
  C  C368  1  0.540200  0.118300  0.333500  1.0  0.1617
  C  C369  1  0.518400  0.101800  0.319900  1.0  0.1563
  C  C370  1  0.576200  0.124200  0.410800  1.0  0.0586
  C  C371  1  0.625400  0.146400  0.405200  1.0  0.0685
  C  C372  1  0.656600  0.162900  0.401100  1.0  0.0365
  C  C373  1  0.685600  0.154200  0.414300  1.0  0.0149
  C  C374  1  0.683400  0.128900  0.431600  1.0  -0.0158
  C  C375  1  0.652100  0.112300  0.435800  1.0  0.0125
  C  C376  1  0.623200  0.121000  0.422600  1.0  0.2124
  C  C377  1  0.590900  0.381800  0.362000  1.0  0.0144
  C  C378  1  0.561000  0.383700  0.380300  1.0  0.0376
  C  C379  1  0.563900  0.411300  0.394200  1.0  0.1282
  C  C380  1  0.515200  0.059300  0.413000  1.0  0.0744
  C  C381  1  0.536500  0.050500  0.394000  1.0  0.1069
  C  C382  1  0.519600  0.043400  0.373300  1.0  -0.0723
  C  C383  1  0.576600  0.128000  0.487900  1.0  0.0448
  C  C384  1  0.590300  0.158100  0.475400  1.0  0.0635
  C  C385  1  0.596500  0.185600  0.487600  1.0  0.0698
  C  C386  1  0.621700  0.017300  0.468400  1.0  0.0054
  C  C387  1  0.645200  0.031300  0.484600  1.0  -0.0295
  C  C388  1  0.678700  0.018400  0.487100  1.0  0.0964
  C  C389  1  0.020900  0.857000  0.814700  1.0  0.0718
  C  C390  1  0.036300  0.883300  0.800700  1.0  -0.0263
  C  C391  1  0.014500  0.899800  0.784400  1.0  0.2658
  C  C392  1  0.129600  0.778600  0.814000  1.0  0.1156
  C  C393  1  0.089300  0.782700  0.791800  1.0  0.1003
  C  C394  1  0.059200  0.791700  0.780000  1.0  0.0288
  C  C395  1  0.052400  0.778500  0.757600  1.0  -0.029
  C  C396  1  0.075900  0.756300  0.746900  1.0  -0.0014
  C  C397  1  0.106100  0.747300  0.758700  1.0  -0.0176
  C  C398  1  0.112800  0.760500  0.781100  1.0  0.1093
  C  C399  1  0.062100  0.750100  0.858900  1.0  0.037
  C  C400  1  0.090300  0.743600  0.894700  1.0  0.0995
  C  C401  1  0.106200  0.739700  0.916600  1.0  0.0825
  C  C402  1  0.122200  0.767700  0.927300  1.0  0.0372
  C  C403  1  0.122100  0.799700  0.916200  1.0  -0.0294
  C  C404  1  0.106200  0.803700  0.894400  1.0  0.0706
  C  C405  1  0.090300  0.775600  0.883600  1.0  0.1917
  C  C406  1  0.155200  0.663500  0.760300  1.0  0.2331
  C  C407  1  0.127000  0.649600  0.773100  1.0  0.0195
  C  C408  1  0.112500  0.625200  0.759100  1.0  0.1716
  C  C409  1  0.241100  0.732100  0.822300  1.0  0.0214
  C  C410  1  0.241100  0.704100  0.841400  1.0  -0.0145
  C  C411  1  0.271500  0.705000  0.855000  1.0  0.1696
  C  C412  1  0.127700  0.698600  0.835000  1.0  0.1018
  C  C413  1  0.158500  0.655700  0.827600  1.0  0.1692
  C  C414  1  0.183300  0.633000  0.819100  1.0  0.0261
  C  C415  1  0.183700  0.598900  0.826700  1.0  -0.0203
  C  C416  1  0.159100  0.587500  0.842900  1.0  0.0164
  C  C417  1  0.134300  0.610200  0.851400  1.0  0.049
  C  C418  1  0.134000  0.644300  0.843800  1.0  0.0757
  C  C419  1  0.019700  0.638000  0.845100  1.0  0.1656
  C  C420  1  0.040200  0.618300  0.833500  1.0  0.1617
  C  C421  1  0.018400  0.601800  0.819900  1.0  0.1563
  C  C422  1  0.076200  0.624200  0.910800  1.0  0.0586
  C  C423  1  0.125400  0.646400  0.905200  1.0  0.0685
  C  C424  1  0.156600  0.662900  0.901100  1.0  0.0365
  C  C425  1  0.185600  0.654200  0.914300  1.0  0.0149
  C  C426  1  0.183400  0.628900  0.931600  1.0  -0.0158
  C  C427  1  0.152100  0.612300  0.935800  1.0  0.0125
  C  C428  1  0.123200  0.621000  0.922600  1.0  0.2124
  C  C429  1  0.090900  0.881800  0.862000  1.0  0.0144
  C  C430  1  0.061000  0.883700  0.880300  1.0  0.0376
  C  C431  1  0.063900  0.911300  0.894200  1.0  0.1282
  C  C432  1  0.015200  0.559300  0.913000  1.0  0.0744
  C  C433  1  0.036500  0.550500  0.894000  1.0  0.1069
  C  C434  1  0.019600  0.543400  0.873300  1.0  -0.0723
  C  C435  1  0.076600  0.628000  0.987900  1.0  0.0448
  C  C436  1  0.090300  0.658100  0.975400  1.0  0.0635
  C  C437  1  0.096500  0.685600  0.987600  1.0  0.0698
  C  C438  1  0.121700  0.517300  0.968400  1.0  0.0054
  C  C439  1  0.145200  0.531300  0.984600  1.0  -0.0295
  C  C440  1  0.178700  0.518400  0.987100  1.0  0.0964
  C  C441  1  0.479100  0.643000  0.314700  1.0  0.0715
  C  C442  1  0.463700  0.616700  0.300700  1.0  -0.0286
  C  C443  1  0.485500  0.600200  0.284400  1.0  0.2666
  C  C444  1  0.370400  0.721400  0.314000  1.0  0.1147
  C  C445  1  0.410700  0.717300  0.291800  1.0  0.0996
  C  C446  1  0.440800  0.708300  0.280000  1.0  0.0288
  C  C447  1  0.447600  0.721500  0.257600  1.0  -0.0298
  C  C448  1  0.424100  0.743700  0.246900  1.0  0.0006
  C  C449  1  0.393900  0.752700  0.258700  1.0  -0.0186
  C  C450  1  0.387200  0.739500  0.281100  1.0  0.1105
  C  C451  1  0.437900  0.749900  0.358900  1.0  0.0359
  C  C452  1  0.409700  0.756400  0.394700  1.0  0.0993
  C  C453  1  0.393800  0.760300  0.416600  1.0  0.0821
  C  C454  1  0.377800  0.732300  0.427300  1.0  0.037
  C  C455  1  0.377900  0.700300  0.416200  1.0  -0.0313
  C  C456  1  0.393800  0.696300  0.394400  1.0  0.0703
  C  C457  1  0.409700  0.724400  0.383600  1.0  0.1909
  C  C458  1  0.344800  0.836500  0.260300  1.0  0.2342
  C  C459  1  0.373000  0.850400  0.273100  1.0  0.0199
  C  C460  1  0.387500  0.874800  0.259100  1.0  0.1702
  C  C461  1  0.258900  0.767900  0.322300  1.0  0.0223
  C  C462  1  0.258900  0.795900  0.341400  1.0  -0.0126
  C  C463  1  0.228500  0.795000  0.355000  1.0  0.1674
  C  C464  1  0.372300  0.801400  0.335000  1.0  0.1035
  C  C465  1  0.341500  0.844300  0.327600  1.0  0.1682
  C  C466  1  0.316700  0.867000  0.319100  1.0  0.0264
  C  C467  1  0.316300  0.901100  0.326700  1.0  -0.0188
  C  C468  1  0.340900  0.912500  0.342900  1.0  0.0149
  C  C469  1  0.365700  0.889800  0.351400  1.0  0.0443
  C  C470  1  0.366000  0.855700  0.343800  1.0  0.0772
  C  C471  1  0.480300  0.862000  0.345100  1.0  0.1661
  C  C472  1  0.459800  0.881700  0.333500  1.0  0.1584
  C  C473  1  0.481600  0.898200  0.319900  1.0  0.1547
  C  C474  1  0.423800  0.875800  0.410800  1.0  0.0643
  C  C475  1  0.374600  0.853600  0.405200  1.0  0.0686
  C  C476  1  0.343400  0.837100  0.401100  1.0  0.0351
  C  C477  1  0.314400  0.845800  0.414300  1.0  0.0177
  C  C478  1  0.316600  0.871100  0.431600  1.0  -0.0166
  C  C479  1  0.347900  0.887700  0.435800  1.0  0.011
  C  C480  1  0.376800  0.879000  0.422600  1.0  0.2105
  C  C481  1  0.409100  0.618200  0.362000  1.0  0.0152
  C  C482  1  0.439000  0.616300  0.380300  1.0  0.0378
  C  C483  1  0.436100  0.588700  0.394200  1.0  0.1286
  C  C484  1  0.484800  0.940700  0.413000  1.0  0.0766
  C  C485  1  0.463500  0.949500  0.394000  1.0  0.0963
  C  C486  1  0.480400  0.956600  0.373300  1.0  -0.0756
  C  C487  1  0.423400  0.872000  0.487900  1.0  0.044
  C  C488  1  0.409700  0.841900  0.475400  1.0  0.0632
  C  C489  1  0.403500  0.814400  0.487600  1.0  0.0672
  C  C490  1  0.378300  0.982700  0.468400  1.0  0.0044
  C  C491  1  0.354800  0.968700  0.484600  1.0  -0.0315
  C  C492  1  0.321300  0.981600  0.487100  1.0  0.1003
  C  C493  1  0.979100  0.143000  0.814700  1.0  0.0715
  C  C494  1  0.963700  0.116700  0.800700  1.0  -0.0286
  C  C495  1  0.985500  0.100200  0.784400  1.0  0.2666
  C  C496  1  0.870400  0.221400  0.814000  1.0  0.1147
  C  C497  1  0.910700  0.217300  0.791800  1.0  0.0996
  C  C498  1  0.940800  0.208300  0.780000  1.0  0.0288
  C  C499  1  0.947600  0.221500  0.757600  1.0  -0.0298
  C  C500  1  0.924100  0.243700  0.746900  1.0  0.0006
  C  C501  1  0.893900  0.252700  0.758700  1.0  -0.0186
  C  C502  1  0.887200  0.239500  0.781100  1.0  0.1105
  C  C503  1  0.937900  0.249900  0.858900  1.0  0.0359
  C  C504  1  0.909700  0.256400  0.894700  1.0  0.0993
  C  C505  1  0.893800  0.260300  0.916600  1.0  0.0821
  C  C506  1  0.877800  0.232300  0.927300  1.0  0.037
  C  C507  1  0.877900  0.200300  0.916200  1.0  -0.0313
  C  C508  1  0.893800  0.196300  0.894400  1.0  0.0703
  C  C509  1  0.909700  0.224400  0.883600  1.0  0.1909
  C  C510  1  0.844800  0.336500  0.760300  1.0  0.2342
  C  C511  1  0.873000  0.350400  0.773100  1.0  0.0199
  C  C512  1  0.887500  0.374800  0.759100  1.0  0.1702
  C  C513  1  0.758900  0.267900  0.822300  1.0  0.0223
  C  C514  1  0.758900  0.295900  0.841400  1.0  -0.0126
  C  C515  1  0.728500  0.295000  0.855000  1.0  0.1674
  C  C516  1  0.872300  0.301400  0.835000  1.0  0.1035
  C  C517  1  0.841500  0.344300  0.827600  1.0  0.1682
  C  C518  1  0.816700  0.367000  0.819100  1.0  0.0264
  C  C519  1  0.816300  0.401100  0.826700  1.0  -0.0188
  C  C520  1  0.840900  0.412500  0.842900  1.0  0.0149
  C  C521  1  0.865700  0.389800  0.851400  1.0  0.0443
  C  C522  1  0.866000  0.355700  0.843800  1.0  0.0772
  C  C523  1  0.980300  0.362000  0.845100  1.0  0.1661
  C  C524  1  0.959800  0.381700  0.833500  1.0  0.1584
  C  C525  1  0.981600  0.398200  0.819900  1.0  0.1547
  C  C526  1  0.923800  0.375800  0.910800  1.0  0.0643
  C  C527  1  0.874600  0.353600  0.905200  1.0  0.0686
  C  C528  1  0.843400  0.337100  0.901100  1.0  0.0351
  C  C529  1  0.814400  0.345800  0.914300  1.0  0.0177
  C  C530  1  0.816600  0.371100  0.931600  1.0  -0.0166
  C  C531  1  0.847900  0.387700  0.935800  1.0  0.011
  C  C532  1  0.876800  0.379000  0.922600  1.0  0.2105
  C  C533  1  0.909100  0.118200  0.862000  1.0  0.0152
  C  C534  1  0.939000  0.116300  0.880300  1.0  0.0378
  C  C535  1  0.936100  0.088700  0.894200  1.0  0.1286
  C  C536  1  0.984800  0.440700  0.913000  1.0  0.0766
  C  C537  1  0.963500  0.449500  0.894000  1.0  0.0963
  C  C538  1  0.980400  0.456600  0.873300  1.0  -0.0756
  C  C539  1  0.923400  0.372000  0.987900  1.0  0.044
  C  C540  1  0.909700  0.341900  0.975400  1.0  0.0632
  C  C541  1  0.903500  0.314400  0.987600  1.0  0.0672
  C  C542  1  0.878300  0.482700  0.968400  1.0  0.0044
  C  C543  1  0.854800  0.468700  0.984600  1.0  -0.0315
  C  C544  1  0.821300  0.481600  0.987100  1.0  0.1003
  C  C545  1  0.643000  0.479100  0.685300  1.0  0.0696
  C  C546  1  0.616700  0.463700  0.699300  1.0  -0.0302
  C  C547  1  0.600200  0.485500  0.715600  1.0  0.2666
  C  C548  1  0.721400  0.370400  0.686000  1.0  0.1174
  C  C549  1  0.717300  0.410700  0.708200  1.0  0.1001
  C  C550  1  0.708300  0.440800  0.720000  1.0  0.0292
  C  C551  1  0.721500  0.447600  0.742400  1.0  -0.0291
  C  C552  1  0.743700  0.424100  0.753100  1.0  -0.0007
  C  C553  1  0.752700  0.393900  0.741300  1.0  -0.0175
  C  C554  1  0.739500  0.387200  0.718900  1.0  0.1105
  C  C555  1  0.749900  0.437900  0.641100  1.0  0.033
  C  C556  1  0.756400  0.409700  0.605300  1.0  0.0989
  C  C557  1  0.760300  0.393800  0.583400  1.0  0.0844
  C  C558  1  0.732300  0.377800  0.572700  1.0  0.0338
  C  C559  1  0.700300  0.377900  0.583800  1.0  -0.0288
  C  C560  1  0.696300  0.393800  0.605600  1.0  0.0722
  C  C561  1  0.724400  0.409700  0.616400  1.0  0.1904
  C  C562  1  0.836500  0.344800  0.739700  1.0  0.2335
  C  C563  1  0.850400  0.373000  0.726900  1.0  0.0198
  C  C564  1  0.874800  0.387500  0.740900  1.0  0.1758
  C  C565  1  0.767900  0.258900  0.677700  1.0  0.0228
  C  C566  1  0.795900  0.258900  0.658600  1.0  -0.012
  C  C567  1  0.795000  0.228500  0.645000  1.0  0.1718
  C  C568  1  0.801400  0.372300  0.665000  1.0  0.1032
  C  C569  1  0.844300  0.341500  0.672400  1.0  0.169
  C  C570  1  0.867000  0.316700  0.680900  1.0  0.0232
  C  C571  1  0.901100  0.316300  0.673300  1.0  -0.0208
  C  C572  1  0.912500  0.340900  0.657100  1.0  0.0162
  C  C573  1  0.889800  0.365700  0.648600  1.0  0.0448
  C  C574  1  0.855700  0.366000  0.656200  1.0  0.0773
  C  C575  1  0.862000  0.480300  0.654900  1.0  0.169
  C  C576  1  0.881700  0.459800  0.666500  1.0  0.1481
  C  C577  1  0.898200  0.481600  0.680100  1.0  0.1524
  C  C578  1  0.875800  0.423800  0.589200  1.0  0.0589
  C  C579  1  0.853600  0.374600  0.594800  1.0  0.0676
  C  C580  1  0.837100  0.343400  0.598900  1.0  0.0367
  C  C581  1  0.845800  0.314400  0.585700  1.0  0.0175
  C  C582  1  0.871100  0.316600  0.568400  1.0  -0.0143
  C  C583  1  0.887700  0.347900  0.564200  1.0  0.0123
  C  C584  1  0.879000  0.376800  0.577400  1.0  0.212
  C  C585  1  0.618200  0.409100  0.638000  1.0  0.0145
  C  C586  1  0.616300  0.439000  0.619700  1.0  0.0396
  C  C587  1  0.588700  0.436100  0.605800  1.0  0.1263
  C  C588  1  0.940700  0.484800  0.587000  1.0  0.0793
  C  C589  1  0.949500  0.463500  0.606000  1.0  0.0908
  C  C590  1  0.956600  0.480400  0.626700  1.0  -0.0753
  C  C591  1  0.872000  0.423400  0.512100  1.0  0.0445
  C  C592  1  0.841900  0.409700  0.524600  1.0  0.0597
  C  C593  1  0.814400  0.403500  0.512400  1.0  0.0666
  C  C594  1  0.982700  0.378300  0.531600  1.0  0.009
  C  C595  1  0.968700  0.354800  0.515400  1.0  -0.0338
  C  C596  1  0.981600  0.321300  0.512900  1.0  0.096
  C  C597  1  0.143000  0.979100  0.185300  1.0  0.0696
  C  C598  1  0.116700  0.963700  0.199300  1.0  -0.0302
  C  C599  1  0.100200  0.985500  0.215600  1.0  0.2666
  C  C600  1  0.221400  0.870400  0.186000  1.0  0.1174
  C  C601  1  0.217300  0.910700  0.208200  1.0  0.1001
  C  C602  1  0.208300  0.940800  0.220000  1.0  0.0292
  C  C603  1  0.221500  0.947600  0.242400  1.0  -0.0291
  C  C604  1  0.243700  0.924100  0.253100  1.0  -0.0007
  C  C605  1  0.252700  0.893900  0.241300  1.0  -0.0175
  C  C606  1  0.239500  0.887200  0.218900  1.0  0.1105
  C  C607  1  0.249900  0.937900  0.141100  1.0  0.033
  C  C608  1  0.256400  0.909700  0.105300  1.0  0.0989
  C  C609  1  0.260300  0.893800  0.083400  1.0  0.0844
  C  C610  1  0.232300  0.877800  0.072700  1.0  0.0338
  C  C611  1  0.200300  0.877900  0.083800  1.0  -0.0288
  C  C612  1  0.196300  0.893800  0.105600  1.0  0.0722
  C  C613  1  0.224400  0.909700  0.116400  1.0  0.1904
  C  C614  1  0.336500  0.844800  0.239700  1.0  0.2335
  C  C615  1  0.350400  0.873000  0.226900  1.0  0.0198
  C  C616  1  0.374800  0.887500  0.240900  1.0  0.1758
  C  C617  1  0.267900  0.758900  0.177700  1.0  0.0228
  C  C618  1  0.295900  0.758900  0.158600  1.0  -0.012
  C  C619  1  0.295000  0.728500  0.145000  1.0  0.1718
  C  C620  1  0.301400  0.872300  0.165000  1.0  0.1032
  C  C621  1  0.344300  0.841500  0.172400  1.0  0.169
  C  C622  1  0.367000  0.816700  0.180900  1.0  0.0232
  C  C623  1  0.401100  0.816300  0.173300  1.0  -0.0208
  C  C624  1  0.412500  0.840900  0.157100  1.0  0.0162
  C  C625  1  0.389800  0.865700  0.148600  1.0  0.0448
  C  C626  1  0.355700  0.866000  0.156200  1.0  0.0773
  C  C627  1  0.362000  0.980300  0.154900  1.0  0.169
  C  C628  1  0.381700  0.959800  0.166500  1.0  0.1481
  C  C629  1  0.398200  0.981600  0.180100  1.0  0.1524
  C  C630  1  0.375800  0.923800  0.089200  1.0  0.0589
  C  C631  1  0.353600  0.874600  0.094800  1.0  0.0676
  C  C632  1  0.337100  0.843400  0.098900  1.0  0.0367
  C  C633  1  0.345800  0.814400  0.085700  1.0  0.0175
  C  C634  1  0.371100  0.816600  0.068400  1.0  -0.0143
  C  C635  1  0.387700  0.847900  0.064200  1.0  0.0123
  C  C636  1  0.379000  0.876800  0.077400  1.0  0.212
  C  C637  1  0.118200  0.909100  0.138000  1.0  0.0145
  C  C638  1  0.116300  0.939000  0.119700  1.0  0.0396
  C  C639  1  0.088700  0.936100  0.105800  1.0  0.1263
  C  C640  1  0.440700  0.984800  0.087000  1.0  0.0793
  C  C641  1  0.449500  0.963500  0.106000  1.0  0.0908
  C  C642  1  0.456600  0.980400  0.126700  1.0  -0.0753
  C  C643  1  0.372000  0.923400  0.012100  1.0  0.0445
  C  C644  1  0.341900  0.909700  0.024600  1.0  0.0597
  C  C645  1  0.314400  0.903500  0.012400  1.0  0.0666
  C  C646  1  0.482700  0.878300  0.031600  1.0  0.009
  C  C647  1  0.468700  0.854800  0.015400  1.0  -0.0338
  C  C648  1  0.481600  0.821300  0.012900  1.0  0.096
  C  C649  1  0.357000  0.520900  0.685300  1.0  0.0704
  C  C650  1  0.383300  0.536300  0.699300  1.0  -0.0297
  C  C651  1  0.399800  0.514500  0.715600  1.0  0.2679
  C  C652  1  0.278600  0.629600  0.686000  1.0  0.1177
  C  C653  1  0.282700  0.589300  0.708200  1.0  0.1011
  C  C654  1  0.291700  0.559200  0.720000  1.0  0.0311
  C  C655  1  0.278500  0.552400  0.742400  1.0  -0.0297
  C  C656  1  0.256300  0.575900  0.753100  1.0  0.0005
  C  C657  1  0.247300  0.606100  0.741300  1.0  -0.0201
  C  C658  1  0.260500  0.612800  0.718900  1.0  0.1107
  C  C659  1  0.250100  0.562100  0.641100  1.0  0.0332
  C  C660  1  0.243600  0.590300  0.605300  1.0  0.0983
  C  C661  1  0.239700  0.606200  0.583400  1.0  0.0847
  C  C662  1  0.267700  0.622200  0.572700  1.0  0.0329
  C  C663  1  0.299700  0.622100  0.583800  1.0  -0.0318
  C  C664  1  0.303700  0.606200  0.605600  1.0  0.0705
  C  C665  1  0.275600  0.590300  0.616400  1.0  0.1925
  C  C666  1  0.163500  0.655200  0.739700  1.0  0.2331
  C  C667  1  0.149600  0.627000  0.726900  1.0  0.0201
  C  C668  1  0.125200  0.612500  0.740900  1.0  0.1788
  C  C669  1  0.232100  0.741100  0.677700  1.0  0.024
  C  C670  1  0.204100  0.741100  0.658600  1.0  -0.0123
  C  C671  1  0.205000  0.771500  0.645000  1.0  0.1718
  C  C672  1  0.198600  0.627700  0.665000  1.0  0.1076
  C  C673  1  0.155700  0.658500  0.672400  1.0  0.1679
  C  C674  1  0.133000  0.683300  0.680900  1.0  0.0244
  C  C675  1  0.098900  0.683700  0.673300  1.0  -0.0194
  C  C676  1  0.087500  0.659100  0.657100  1.0  0.0186
  C  C677  1  0.110200  0.634300  0.648600  1.0  0.0476
  C  C678  1  0.144300  0.634000  0.656200  1.0  0.0773
  C  C679  1  0.138000  0.519700  0.654900  1.0  0.1675
  C  C680  1  0.118300  0.540200  0.666500  1.0  0.1502
  C  C681  1  0.101800  0.518400  0.680100  1.0  0.1494
  C  C682  1  0.124200  0.576200  0.589200  1.0  0.0554
  C  C683  1  0.146400  0.625400  0.594800  1.0  0.0681
  C  C684  1  0.162900  0.656600  0.598900  1.0  0.0351
  C  C685  1  0.154200  0.685600  0.585700  1.0  0.0189
  C  C686  1  0.128900  0.683400  0.568400  1.0  -0.012
  C  C687  1  0.112300  0.652100  0.564200  1.0  0.0121
  C  C688  1  0.121000  0.623200  0.577400  1.0  0.2106
  C  C689  1  0.381800  0.590900  0.638000  1.0  0.0154
  C  C690  1  0.383700  0.561000  0.619700  1.0  0.0369
  C  C691  1  0.411300  0.563900  0.605800  1.0  0.1266
  C  C692  1  0.059300  0.515200  0.587000  1.0  0.0789
  C  C693  1  0.050500  0.536500  0.606000  1.0  0.0917
  C  C694  1  0.043400  0.519600  0.626700  1.0  -0.0773
  C  C695  1  0.128000  0.576600  0.512100  1.0  0.0449
  C  C696  1  0.158100  0.590300  0.524600  1.0  0.0603
  C  C697  1  0.185600  0.596500  0.512400  1.0  0.0672
  C  C698  1  0.017300  0.621700  0.531600  1.0  0.0085
  C  C699  1  0.031300  0.645200  0.515400  1.0  -0.0276
  C  C700  1  0.018400  0.678700  0.512900  1.0  0.0952
  C  C701  1  0.857000  0.020900  0.185300  1.0  0.0704
  C  C702  1  0.883300  0.036300  0.199300  1.0  -0.0297
  C  C703  1  0.899800  0.014500  0.215600  1.0  0.2679
  C  C704  1  0.778600  0.129600  0.186000  1.0  0.1177
  C  C705  1  0.782700  0.089300  0.208200  1.0  0.1011
  C  C706  1  0.791700  0.059200  0.220000  1.0  0.0311
  C  C707  1  0.778500  0.052400  0.242400  1.0  -0.0297
  C  C708  1  0.756300  0.075900  0.253100  1.0  0.0005
  C  C709  1  0.747300  0.106100  0.241300  1.0  -0.0201
  C  C710  1  0.760500  0.112800  0.218900  1.0  0.1107
  C  C711  1  0.750100  0.062100  0.141100  1.0  0.0332
  C  C712  1  0.743600  0.090300  0.105300  1.0  0.0983
  C  C713  1  0.739700  0.106200  0.083400  1.0  0.0847
  C  C714  1  0.767700  0.122200  0.072700  1.0  0.0329
  C  C715  1  0.799700  0.122100  0.083800  1.0  -0.0318
  C  C716  1  0.803700  0.106200  0.105600  1.0  0.0705
  C  C717  1  0.775600  0.090300  0.116400  1.0  0.1925
  C  C718  1  0.663500  0.155200  0.239700  1.0  0.2331
  C  C719  1  0.649600  0.127000  0.226900  1.0  0.0201
  C  C720  1  0.625200  0.112500  0.240900  1.0  0.1788
  C  C721  1  0.732100  0.241100  0.177700  1.0  0.024
  C  C722  1  0.704100  0.241100  0.158600  1.0  -0.0123
  C  C723  1  0.705000  0.271500  0.145000  1.0  0.1718
  C  C724  1  0.698600  0.127700  0.165000  1.0  0.1076
  C  C725  1  0.655700  0.158500  0.172400  1.0  0.1679
  C  C726  1  0.633000  0.183300  0.180900  1.0  0.0244
  C  C727  1  0.598900  0.183700  0.173300  1.0  -0.0194
  C  C728  1  0.587500  0.159100  0.157100  1.0  0.0186
  C  C729  1  0.610200  0.134300  0.148600  1.0  0.0476
  C  C730  1  0.644300  0.134000  0.156200  1.0  0.0773
  C  C731  1  0.638000  0.019700  0.154900  1.0  0.1675
  C  C732  1  0.618300  0.040200  0.166500  1.0  0.1502
  C  C733  1  0.601800  0.018400  0.180100  1.0  0.1494
  C  C734  1  0.624200  0.076200  0.089200  1.0  0.0554
  C  C735  1  0.646400  0.125400  0.094800  1.0  0.0681
  C  C736  1  0.662900  0.156600  0.098900  1.0  0.0351
  C  C737  1  0.654200  0.185600  0.085700  1.0  0.0189
  C  C738  1  0.628900  0.183400  0.068400  1.0  -0.012
  C  C739  1  0.612300  0.152100  0.064200  1.0  0.0121
  C  C740  1  0.621000  0.123200  0.077400  1.0  0.2106
  C  C741  1  0.881800  0.090900  0.138000  1.0  0.0154
  C  C742  1  0.883700  0.061000  0.119700  1.0  0.0369
  C  C743  1  0.911300  0.063900  0.105800  1.0  0.1266
  C  C744  1  0.559300  0.015200  0.087000  1.0  0.0789
  C  C745  1  0.550500  0.036500  0.106000  1.0  0.0917
  C  C746  1  0.543400  0.019600  0.126700  1.0  -0.0773
  C  C747  1  0.628000  0.076600  0.012100  1.0  0.0449
  C  C748  1  0.658100  0.090300  0.024600  1.0  0.0603
  C  C749  1  0.685600  0.096500  0.012400  1.0  0.0672
  C  C750  1  0.517300  0.121700  0.031600  1.0  0.0085
  C  C751  1  0.531300  0.145200  0.015400  1.0  -0.0276
  C  C752  1  0.518400  0.178700  0.012900  1.0  0.0952
  C  C753  1  0.479100  0.357000  0.685300  1.0  0.0716
  C  C754  1  0.463700  0.383300  0.699300  1.0  -0.0272
  C  C755  1  0.485500  0.399800  0.715600  1.0  0.2671
  C  C756  1  0.370400  0.278600  0.686000  1.0  0.1177
  C  C757  1  0.410700  0.282700  0.708200  1.0  0.1006
  C  C758  1  0.440800  0.291700  0.720000  1.0  0.0291
  C  C759  1  0.447600  0.278500  0.742400  1.0  -0.0306
  C  C760  1  0.424100  0.256300  0.753100  1.0  0.0009
  C  C761  1  0.393900  0.247300  0.741300  1.0  -0.0184
  C  C762  1  0.387200  0.260500  0.718900  1.0  0.1098
  C  C763  1  0.437900  0.250100  0.641100  1.0  0.0326
  C  C764  1  0.409700  0.243600  0.605300  1.0  0.0972
  C  C765  1  0.393800  0.239700  0.583400  1.0  0.0829
  C  C766  1  0.377800  0.267700  0.572700  1.0  0.0345
  C  C767  1  0.377900  0.299700  0.583800  1.0  -0.0293
  C  C768  1  0.393800  0.303700  0.605600  1.0  0.0701
  C  C769  1  0.409700  0.275600  0.616400  1.0  0.1923
  C  C770  1  0.344800  0.163500  0.739700  1.0  0.2347
  C  C771  1  0.373000  0.149600  0.726900  1.0  0.0222
  C  C772  1  0.387500  0.125200  0.740900  1.0  0.1709
  C  C773  1  0.258900  0.232100  0.677700  1.0  0.0227
  C  C774  1  0.258900  0.204100  0.658600  1.0  -0.0121
  C  C775  1  0.228500  0.205000  0.645000  1.0  0.17
  C  C776  1  0.372300  0.198600  0.665000  1.0  0.1029
  C  C777  1  0.341500  0.155700  0.672400  1.0  0.1687
  C  C778  1  0.316700  0.133000  0.680900  1.0  0.0265
  C  C779  1  0.316300  0.098900  0.673300  1.0  -0.0201
  C  C780  1  0.340900  0.087500  0.657100  1.0  0.0175
  C  C781  1  0.365700  0.110200  0.648600  1.0  0.049
  C  C782  1  0.366000  0.144300  0.656200  1.0  0.0781
  C  C783  1  0.480300  0.138000  0.654900  1.0  0.1672
  C  C784  1  0.459800  0.118300  0.666500  1.0  0.1582
  C  C785  1  0.481600  0.101800  0.680100  1.0  0.153
  C  C786  1  0.423800  0.124200  0.589200  1.0  0.0647
  C  C787  1  0.374600  0.146400  0.594800  1.0  0.0669
  C  C788  1  0.343400  0.162900  0.598900  1.0  0.0363
  C  C789  1  0.314400  0.154200  0.585700  1.0  0.0168
  C  C790  1  0.316600  0.128900  0.568400  1.0  -0.0177
  C  C791  1  0.347900  0.112300  0.564200  1.0  0.0126
  C  C792  1  0.376800  0.121000  0.577400  1.0  0.2109
  C  C793  1  0.409100  0.381800  0.638000  1.0  0.0148
  C  C794  1  0.439000  0.383700  0.619700  1.0  0.0367
  C  C795  1  0.436100  0.411300  0.605800  1.0  0.129
  C  C796  1  0.484800  0.059300  0.587000  1.0  0.0768
  C  C797  1  0.463500  0.050500  0.606000  1.0  0.0975
  C  C798  1  0.480400  0.043400  0.626700  1.0  -0.0769
  C  C799  1  0.423400  0.128000  0.512100  1.0  0.0451
  C  C800  1  0.409700  0.158100  0.524600  1.0  0.0617
  C  C801  1  0.403500  0.185600  0.512400  1.0  0.0679
  C  C802  1  0.378300  0.017300  0.531600  1.0  0.005
  C  C803  1  0.354800  0.031300  0.515400  1.0  -0.0313
  C  C804  1  0.321300  0.018400  0.512900  1.0  0.0959
  C  C805  1  0.979100  0.857000  0.185300  1.0  0.0716
  C  C806  1  0.963700  0.883300  0.199300  1.0  -0.0272
  C  C807  1  0.985500  0.899800  0.215600  1.0  0.2671
  C  C808  1  0.870400  0.778600  0.186000  1.0  0.1177
  C  C809  1  0.910700  0.782700  0.208200  1.0  0.1006
  C  C810  1  0.940800  0.791700  0.220000  1.0  0.0291
  C  C811  1  0.947600  0.778500  0.242400  1.0  -0.0306
  C  C812  1  0.924100  0.756300  0.253100  1.0  0.0009
  C  C813  1  0.893900  0.747300  0.241300  1.0  -0.0184
  C  C814  1  0.887200  0.760500  0.218900  1.0  0.1098
  C  C815  1  0.937900  0.750100  0.141100  1.0  0.0326
  C  C816  1  0.909700  0.743600  0.105300  1.0  0.0972
  C  C817  1  0.893800  0.739700  0.083400  1.0  0.0829
  C  C818  1  0.877800  0.767700  0.072700  1.0  0.0345
  C  C819  1  0.877900  0.799700  0.083800  1.0  -0.0293
  C  C820  1  0.893800  0.803700  0.105600  1.0  0.0701
  C  C821  1  0.909700  0.775600  0.116400  1.0  0.1923
  C  C822  1  0.844800  0.663500  0.239700  1.0  0.2347
  C  C823  1  0.873000  0.649600  0.226900  1.0  0.0222
  C  C824  1  0.887500  0.625200  0.240900  1.0  0.1709
  C  C825  1  0.758900  0.732100  0.177700  1.0  0.0227
  C  C826  1  0.758900  0.704100  0.158600  1.0  -0.0121
  C  C827  1  0.728500  0.705000  0.145000  1.0  0.17
  C  C828  1  0.872300  0.698600  0.165000  1.0  0.1029
  C  C829  1  0.841500  0.655700  0.172400  1.0  0.1687
  C  C830  1  0.816700  0.633000  0.180900  1.0  0.0265
  C  C831  1  0.816300  0.598900  0.173300  1.0  -0.0201
  C  C832  1  0.840900  0.587500  0.157100  1.0  0.0175
  C  C833  1  0.865700  0.610200  0.148600  1.0  0.049
  C  C834  1  0.866000  0.644300  0.156200  1.0  0.0781
  C  C835  1  0.980300  0.638000  0.154900  1.0  0.1672
  C  C836  1  0.959800  0.618300  0.166500  1.0  0.1582
  C  C837  1  0.981600  0.601800  0.180100  1.0  0.153
  C  C838  1  0.923800  0.624200  0.089200  1.0  0.0647
  C  C839  1  0.874600  0.646400  0.094800  1.0  0.0669
  C  C840  1  0.843400  0.662900  0.098900  1.0  0.0363
  C  C841  1  0.814400  0.654200  0.085700  1.0  0.0168
  C  C842  1  0.816600  0.628900  0.068400  1.0  -0.0177
  C  C843  1  0.847900  0.612300  0.064200  1.0  0.0126
  C  C844  1  0.876800  0.621000  0.077400  1.0  0.2109
  C  C845  1  0.909100  0.881800  0.138000  1.0  0.0148
  C  C846  1  0.939000  0.883700  0.119700  1.0  0.0367
  C  C847  1  0.936100  0.911300  0.105800  1.0  0.129
  C  C848  1  0.984800  0.559300  0.087000  1.0  0.0768
  C  C849  1  0.963500  0.550500  0.106000  1.0  0.0975
  C  C850  1  0.980400  0.543400  0.126700  1.0  -0.0769
  C  C851  1  0.923400  0.628000  0.012100  1.0  0.0451
  C  C852  1  0.909700  0.658100  0.024600  1.0  0.0617
  C  C853  1  0.903500  0.685600  0.012400  1.0  0.0679
  C  C854  1  0.878300  0.517300  0.031600  1.0  0.005
  C  C855  1  0.854800  0.531300  0.015400  1.0  -0.0313
  C  C856  1  0.821300  0.518400  0.012900  1.0  0.0959
  C  C857  1  0.520900  0.643000  0.685300  1.0  0.0721
  C  C858  1  0.536300  0.616700  0.699300  1.0  -0.0247
  C  C859  1  0.514500  0.600200  0.715600  1.0  0.2674
  C  C860  1  0.629600  0.721400  0.686000  1.0  0.1165
  C  C861  1  0.589300  0.717300  0.708200  1.0  0.1013
  C  C862  1  0.559200  0.708300  0.720000  1.0  0.0302
  C  C863  1  0.552400  0.721500  0.742400  1.0  -0.0312
  C  C864  1  0.575900  0.743700  0.753100  1.0  0.0002
  C  C865  1  0.606100  0.752700  0.741300  1.0  -0.0198
  C  C866  1  0.612800  0.739500  0.718900  1.0  0.1095
  C  C867  1  0.562100  0.749900  0.641100  1.0  0.0313
  C  C868  1  0.590300  0.756400  0.605300  1.0  0.098
  C  C869  1  0.606200  0.760300  0.583400  1.0  0.0823
  C  C870  1  0.622200  0.732300  0.572700  1.0  0.0329
  C  C871  1  0.622100  0.700300  0.583800  1.0  -0.0305
  C  C872  1  0.606200  0.696300  0.605600  1.0  0.0703
  C  C873  1  0.590300  0.724400  0.616400  1.0  0.1913
  C  C874  1  0.655200  0.836500  0.739700  1.0  0.2333
  C  C875  1  0.627000  0.850400  0.726900  1.0  0.0233
  C  C876  1  0.612500  0.874800  0.740900  1.0  0.1727
  C  C877  1  0.741100  0.767900  0.677700  1.0  0.0217
  C  C878  1  0.741100  0.795900  0.658600  1.0  -0.013
  C  C879  1  0.771500  0.795000  0.645000  1.0  0.1696
  C  C880  1  0.627700  0.801400  0.665000  1.0  0.1021
  C  C881  1  0.658500  0.844300  0.672400  1.0  0.1687
  C  C882  1  0.683300  0.867000  0.680900  1.0  0.0266
  C  C883  1  0.683700  0.901100  0.673300  1.0  -0.0201
  C  C884  1  0.659100  0.912500  0.657100  1.0  0.0143
  C  C885  1  0.634300  0.889800  0.648600  1.0  0.0486
  C  C886  1  0.634000  0.855700  0.656200  1.0  0.0766
  C  C887  1  0.519700  0.862000  0.654900  1.0  0.166
  C  C888  1  0.540200  0.881700  0.666500  1.0  0.1622
  C  C889  1  0.518400  0.898200  0.680100  1.0  0.1544
  C  C890  1  0.576200  0.875800  0.589200  1.0  0.059
  C  C891  1  0.625400  0.853600  0.594800  1.0  0.0678
  C  C892  1  0.656600  0.837100  0.598900  1.0  0.037
  C  C893  1  0.685600  0.845800  0.585700  1.0  0.0173
  C  C894  1  0.683400  0.871100  0.568400  1.0  -0.0169
  C  C895  1  0.652100  0.887700  0.564200  1.0  0.0142
  C  C896  1  0.623200  0.879000  0.577400  1.0  0.2128
  C  C897  1  0.590900  0.618200  0.638000  1.0  0.0148
  C  C898  1  0.561000  0.616300  0.619700  1.0  0.0375
  C  C899  1  0.563900  0.588700  0.605800  1.0  0.1289
  C  C900  1  0.515200  0.940700  0.587000  1.0  0.0741
  C  C901  1  0.536500  0.949500  0.606000  1.0  0.1071
  C  C902  1  0.519600  0.956600  0.626700  1.0  -0.0727
  C  C903  1  0.576600  0.872000  0.512100  1.0  0.0447
  C  C904  1  0.590300  0.841900  0.524600  1.0  0.062
  C  C905  1  0.596500  0.814400  0.512400  1.0  0.0675
  C  C906  1  0.621700  0.982700  0.531600  1.0  0.006
  C  C907  1  0.645200  0.968700  0.515400  1.0  -0.0321
  C  C908  1  0.678700  0.981600  0.512900  1.0  0.0967
  C  C909  1  0.020900  0.143000  0.185300  1.0  0.0721
  C  C910  1  0.036300  0.116700  0.199300  1.0  -0.0247
  C  C911  1  0.014500  0.100200  0.215600  1.0  0.2674
  C  C912  1  0.129600  0.221400  0.186000  1.0  0.1165
  C  C913  1  0.089300  0.217300  0.208200  1.0  0.1013
  C  C914  1  0.059200  0.208300  0.220000  1.0  0.0302
  C  C915  1  0.052400  0.221500  0.242400  1.0  -0.0312
  C  C916  1  0.075900  0.243700  0.253100  1.0  0.0002
  C  C917  1  0.106100  0.252700  0.241300  1.0  -0.0198
  C  C918  1  0.112800  0.239500  0.218900  1.0  0.1095
  C  C919  1  0.062100  0.249900  0.141100  1.0  0.0313
  C  C920  1  0.090300  0.256400  0.105300  1.0  0.098
  C  C921  1  0.106200  0.260300  0.083400  1.0  0.0823
  C  C922  1  0.122200  0.232300  0.072700  1.0  0.0329
  C  C923  1  0.122100  0.200300  0.083800  1.0  -0.0305
  C  C924  1  0.106200  0.196300  0.105600  1.0  0.0703
  C  C925  1  0.090300  0.224400  0.116400  1.0  0.1913
  C  C926  1  0.155200  0.336500  0.239700  1.0  0.2333
  C  C927  1  0.127000  0.350400  0.226900  1.0  0.0233
  C  C928  1  0.112500  0.374800  0.240900  1.0  0.1727
  C  C929  1  0.241100  0.267900  0.177700  1.0  0.0217
  C  C930  1  0.241100  0.295900  0.158600  1.0  -0.013
  C  C931  1  0.271500  0.295000  0.145000  1.0  0.1696
  C  C932  1  0.127700  0.301400  0.165000  1.0  0.1021
  C  C933  1  0.158500  0.344300  0.172400  1.0  0.1687
  C  C934  1  0.183300  0.367000  0.180900  1.0  0.0266
  C  C935  1  0.183700  0.401100  0.173300  1.0  -0.0201
  C  C936  1  0.159100  0.412500  0.157100  1.0  0.0143
  C  C937  1  0.134300  0.389800  0.148600  1.0  0.0486
  C  C938  1  0.134000  0.355700  0.156200  1.0  0.0766
  C  C939  1  0.019700  0.362000  0.154900  1.0  0.166
  C  C940  1  0.040200  0.381700  0.166500  1.0  0.1622
  C  C941  1  0.018400  0.398200  0.180100  1.0  0.1544
  C  C942  1  0.076200  0.375800  0.089200  1.0  0.059
  C  C943  1  0.125400  0.353600  0.094800  1.0  0.0678
  C  C944  1  0.156600  0.337100  0.098900  1.0  0.037
  C  C945  1  0.185600  0.345800  0.085700  1.0  0.0173
  C  C946  1  0.183400  0.371100  0.068400  1.0  -0.0169
  C  C947  1  0.152100  0.387700  0.064200  1.0  0.0142
  C  C948  1  0.123200  0.379000  0.077400  1.0  0.2128
  C  C949  1  0.090900  0.118200  0.138000  1.0  0.0148
  C  C950  1  0.061000  0.116300  0.119700  1.0  0.0375
  C  C951  1  0.063900  0.088700  0.105800  1.0  0.1289
  C  C952  1  0.015200  0.440700  0.087000  1.0  0.0741
  C  C953  1  0.036500  0.449500  0.106000  1.0  0.1071
  C  C954  1  0.019600  0.456600  0.126700  1.0  -0.0733
  C  C955  1  0.076600  0.372000  0.012100  1.0  0.0447
  C  C956  1  0.090300  0.341900  0.024600  1.0  0.062
  C  C957  1  0.096500  0.314400  0.012400  1.0  0.0675
  C  C958  1  0.121700  0.482700  0.031600  1.0  0.006
  C  C959  1  0.145200  0.468700  0.015400  1.0  -0.0321
  C  C960  1  0.178700  0.481600  0.012900  1.0  0.0967
  C  C961  1  0.643000  0.520900  0.685300  1.0  0.0687
  C  C962  1  0.616700  0.536300  0.699300  1.0  -0.0305
  C  C963  1  0.600200  0.514500  0.715600  1.0  0.2682
  C  C964  1  0.721400  0.629600  0.686000  1.0  0.1177
  C  C965  1  0.717300  0.589300  0.708200  1.0  0.101
  C  C966  1  0.708300  0.559200  0.720000  1.0  0.0285
  C  C967  1  0.721500  0.552400  0.742400  1.0  -0.0303
  C  C968  1  0.743700  0.575900  0.753100  1.0  -0.001
  C  C969  1  0.752700  0.606100  0.741300  1.0  -0.0197
  C  C970  1  0.739500  0.612800  0.718900  1.0  0.1106
  C  C971  1  0.749900  0.562100  0.641100  1.0  0.0349
  C  C972  1  0.756400  0.590300  0.605300  1.0  0.0991
  C  C973  1  0.760300  0.606200  0.583400  1.0  0.0843
  C  C974  1  0.732300  0.622200  0.572700  1.0  0.0342
  C  C975  1  0.700300  0.622100  0.583800  1.0  -0.0288
  C  C976  1  0.696300  0.606200  0.605600  1.0  0.073
  C  C977  1  0.724400  0.590300  0.616400  1.0  0.191
  C  C978  1  0.836500  0.655200  0.739700  1.0  0.2336
  C  C979  1  0.850400  0.627000  0.726900  1.0  0.0202
  C  C980  1  0.874800  0.612500  0.740900  1.0  0.1788
  C  C981  1  0.767900  0.741100  0.677700  1.0  0.0209
  C  C982  1  0.795900  0.741100  0.658600  1.0  -0.0125
  C  C983  1  0.795000  0.771500  0.645000  1.0  0.1655
  C  C984  1  0.801400  0.627700  0.665000  1.0  0.103
  C  C985  1  0.844300  0.658500  0.672400  1.0  0.1687
  C  C986  1  0.867000  0.683300  0.680900  1.0  0.0246
  C  C987  1  0.901100  0.683700  0.673300  1.0  -0.0197
  C  C988  1  0.912500  0.659100  0.657100  1.0  0.0163
  C  C989  1  0.889800  0.634300  0.648600  1.0  0.0466
  C  C990  1  0.855700  0.634000  0.656200  1.0  0.0769
  C  C991  1  0.862000  0.519700  0.654900  1.0  0.1691
  C  C992  1  0.881700  0.540200  0.666500  1.0  0.1509
  C  C993  1  0.898200  0.518400  0.680100  1.0  0.1508
  C  C994  1  0.875800  0.576200  0.589200  1.0  0.0566
  C  C995  1  0.853600  0.625400  0.594800  1.0  0.0676
  C  C996  1  0.837100  0.656600  0.598900  1.0  0.0371
  C  C997  1  0.845800  0.685600  0.585700  1.0  0.0194
  C  C998  1  0.871100  0.683400  0.568400  1.0  -0.0122
  C  C999  1  0.887700  0.652100  0.564200  1.0  0.0111
  C  C1000  1  0.879000  0.623200  0.577400  1.0  0.2123
  C  C1001  1  0.618200  0.590900  0.638000  1.0  0.0137
  C  C1002  1  0.616300  0.561000  0.619700  1.0  0.0403
  C  C1003  1  0.588700  0.563900  0.605800  1.0  0.1268
  C  C1004  1  0.940700  0.515200  0.587000  1.0  0.0801
  C  C1005  1  0.949500  0.536500  0.606000  1.0  0.0906
  C  C1006  1  0.956600  0.519600  0.626700  1.0  -0.077
  C  C1007  1  0.872000  0.576600  0.512100  1.0  0.0449
  C  C1008  1  0.841900  0.590300  0.524600  1.0  0.0599
  C  C1009  1  0.814400  0.596500  0.512400  1.0  0.0675
  C  C1010  1  0.982700  0.621700  0.531600  1.0  0.0088
  C  C1011  1  0.968700  0.645200  0.515400  1.0  -0.0334
  C  C1012  1  0.981600  0.678700  0.512900  1.0  0.0945
  C  C1013  1  0.143000  0.020900  0.185300  1.0  0.0687
  C  C1014  1  0.116700  0.036300  0.199300  1.0  -0.0305
  C  C1015  1  0.100200  0.014500  0.215600  1.0  0.2682
  C  C1016  1  0.221400  0.129600  0.186000  1.0  0.1177
  C  C1017  1  0.217300  0.089300  0.208200  1.0  0.101
  C  C1018  1  0.208300  0.059200  0.220000  1.0  0.0285
  C  C1019  1  0.221500  0.052400  0.242400  1.0  -0.0303
  C  C1020  1  0.243700  0.075900  0.253100  1.0  -0.001
  C  C1021  1  0.252700  0.106100  0.241300  1.0  -0.0197
  C  C1022  1  0.239500  0.112800  0.218900  1.0  0.1106
  C  C1023  1  0.249900  0.062100  0.141100  1.0  0.0349
  C  C1024  1  0.256400  0.090300  0.105300  1.0  0.0991
  C  C1025  1  0.260300  0.106200  0.083400  1.0  0.0843
  C  C1026  1  0.232300  0.122200  0.072700  1.0  0.0342
  C  C1027  1  0.200300  0.122100  0.083800  1.0  -0.0288
  C  C1028  1  0.196300  0.106200  0.105600  1.0  0.073
  C  C1029  1  0.224400  0.090300  0.116400  1.0  0.191
  C  C1030  1  0.336500  0.155200  0.239700  1.0  0.2336
  C  C1031  1  0.350400  0.127000  0.226900  1.0  0.0202
  C  C1032  1  0.374800  0.112500  0.240900  1.0  0.1788
  C  C1033  1  0.267900  0.241100  0.177700  1.0  0.0209
  C  C1034  1  0.295900  0.241100  0.158600  1.0  -0.0125
  C  C1035  1  0.295000  0.271500  0.145000  1.0  0.1655
  C  C1036  1  0.301400  0.127700  0.165000  1.0  0.103
  C  C1037  1  0.344300  0.158500  0.172400  1.0  0.1687
  C  C1038  1  0.367000  0.183300  0.180900  1.0  0.0246
  C  C1039  1  0.401100  0.183700  0.173300  1.0  -0.0197
  C  C1040  1  0.412500  0.159100  0.157100  1.0  0.0163
  C  C1041  1  0.389800  0.134300  0.148600  1.0  0.0466
  C  C1042  1  0.355700  0.134000  0.156200  1.0  0.0769
  C  C1043  1  0.362000  0.019700  0.154900  1.0  0.1691
  C  C1044  1  0.381700  0.040200  0.166500  1.0  0.1509
  C  C1045  1  0.398200  0.018400  0.180100  1.0  0.1508
  C  C1046  1  0.375800  0.076200  0.089200  1.0  0.0566
  C  C1047  1  0.353600  0.125400  0.094800  1.0  0.0676
  C  C1048  1  0.337100  0.156600  0.098900  1.0  0.0371
  C  C1049  1  0.345800  0.185600  0.085700  1.0  0.0194
  C  C1050  1  0.371100  0.183400  0.068400  1.0  -0.0122
  C  C1051  1  0.387700  0.152100  0.064200  1.0  0.0111
  C  C1052  1  0.379000  0.123200  0.077400  1.0  0.2123
  C  C1053  1  0.118200  0.090900  0.138000  1.0  0.0137
  C  C1054  1  0.116300  0.061000  0.119700  1.0  0.0403
  C  C1055  1  0.088700  0.063900  0.105800  1.0  0.1268
  C  C1056  1  0.440700  0.015200  0.087000  1.0  0.0801
  C  C1057  1  0.449500  0.036500  0.106000  1.0  0.0906
  C  C1058  1  0.456600  0.019600  0.126700  1.0  -0.077
  C  C1059  1  0.372000  0.076600  0.012100  1.0  0.0449
  C  C1060  1  0.341900  0.090300  0.024600  1.0  0.0599
  C  C1061  1  0.314400  0.096500  0.012400  1.0  0.0675
  C  C1062  1  0.482700  0.121700  0.031600  1.0  0.0088
  C  C1063  1  0.468700  0.145200  0.015400  1.0  -0.0334
  C  C1064  1  0.481600  0.178700  0.012900  1.0  0.0945
  C  C1065  1  0.357000  0.479100  0.685300  1.0  0.0705
  C  C1066  1  0.383300  0.463700  0.699300  1.0  -0.0298
  C  C1067  1  0.399800  0.485500  0.715600  1.0  0.2676
  C  C1068  1  0.278600  0.370400  0.686000  1.0  0.1171
  C  C1069  1  0.282700  0.410700  0.708200  1.0  0.1002
  C  C1070  1  0.291700  0.440800  0.720000  1.0  0.0307
  C  C1071  1  0.278500  0.447600  0.742400  1.0  -0.0288
  C  C1072  1  0.256300  0.424100  0.753100  1.0  0.0013
  C  C1073  1  0.247300  0.393900  0.741300  1.0  -0.018
  C  C1074  1  0.260500  0.387200  0.718900  1.0  0.1106
  C  C1075  1  0.250100  0.437900  0.641100  1.0  0.0319
  C  C1076  1  0.243600  0.409700  0.605300  1.0  0.098
  C  C1077  1  0.239700  0.393800  0.583400  1.0  0.0845
  C  C1078  1  0.267700  0.377800  0.572700  1.0  0.0324
  C  C1079  1  0.299700  0.377900  0.583800  1.0  -0.0308
  C  C1080  1  0.303700  0.393800  0.605600  1.0  0.0706
  C  C1081  1  0.275600  0.409700  0.616400  1.0  0.1922
  C  C1082  1  0.163500  0.344800  0.739700  1.0  0.2334
  C  C1083  1  0.149600  0.373000  0.726900  1.0  0.0192
  C  C1084  1  0.125200  0.387500  0.740900  1.0  0.1762
  C  C1085  1  0.232100  0.258900  0.677700  1.0  0.0214
  C  C1086  1  0.204100  0.258900  0.658600  1.0  -0.0124
  C  C1087  1  0.205000  0.228500  0.645000  1.0  0.1654
  C  C1088  1  0.198600  0.372300  0.665000  1.0  0.1061
  C  C1089  1  0.155700  0.341500  0.672400  1.0  0.1678
  C  C1090  1  0.133000  0.316700  0.680900  1.0  0.0244
  C  C1091  1  0.098900  0.316300  0.673300  1.0  -0.0216
  C  C1092  1  0.087500  0.340900  0.657100  1.0  0.0186
  C  C1093  1  0.110200  0.365700  0.648600  1.0  0.0453
  C  C1094  1  0.144300  0.366000  0.656200  1.0  0.0773
  C  C1095  1  0.138000  0.480300  0.654900  1.0  0.1674
  C  C1096  1  0.118300  0.459800  0.666500  1.0  0.1471
  C  C1097  1  0.101800  0.481600  0.680100  1.0  0.1507
  C  C1098  1  0.124200  0.423800  0.589200  1.0  0.0584
  C  C1099  1  0.146400  0.374600  0.594800  1.0  0.0682
  C  C1100  1  0.162900  0.343400  0.598900  1.0  0.0365
  C  C1101  1  0.154200  0.314400  0.585700  1.0  0.019
  C  C1102  1  0.128900  0.316600  0.568400  1.0  -0.0158
  C  C1103  1  0.112300  0.347900  0.564200  1.0  0.0123
  C  C1104  1  0.121000  0.376800  0.577400  1.0  0.2101
  C  C1105  1  0.381800  0.409100  0.638000  1.0  0.0146
  C  C1106  1  0.383700  0.439000  0.619700  1.0  0.0373
  C  C1107  1  0.411300  0.436100  0.605800  1.0  0.1257
  C  C1108  1  0.059300  0.484800  0.587000  1.0  0.0805
  C  C1109  1  0.050500  0.463500  0.606000  1.0  0.0923
  C  C1110  1  0.043400  0.480400  0.626700  1.0  -0.0796
  C  C1111  1  0.128000  0.423400  0.512100  1.0  0.0451
  C  C1112  1  0.158100  0.409700  0.524600  1.0  0.0603
  C  C1113  1  0.185600  0.403500  0.512400  1.0  0.0672
  C  C1114  1  0.017300  0.378300  0.531600  1.0  0.0093
  C  C1115  1  0.031300  0.354800  0.515400  1.0  -0.0284
  C  C1116  1  0.018400  0.321300  0.512900  1.0  0.098
  C  C1117  1  0.857000  0.979100  0.185300  1.0  0.0705
  C  C1118  1  0.883300  0.963700  0.199300  1.0  -0.0298
  C  C1119  1  0.899800  0.985500  0.215600  1.0  0.2676
  C  C1120  1  0.778600  0.870400  0.186000  1.0  0.1171
  C  C1121  1  0.782700  0.910700  0.208200  1.0  0.1002
  C  C1122  1  0.791700  0.940800  0.220000  1.0  0.0307
  C  C1123  1  0.778500  0.947600  0.242400  1.0  -0.0288
  C  C1124  1  0.756300  0.924100  0.253100  1.0  0.0013
  C  C1125  1  0.747300  0.893900  0.241300  1.0  -0.018
  C  C1126  1  0.760500  0.887200  0.218900  1.0  0.1106
  C  C1127  1  0.750100  0.937900  0.141100  1.0  0.0319
  C  C1128  1  0.743600  0.909700  0.105300  1.0  0.098
  C  C1129  1  0.739700  0.893800  0.083400  1.0  0.0845
  C  C1130  1  0.767700  0.877800  0.072700  1.0  0.0324
  C  C1131  1  0.799700  0.877900  0.083800  1.0  -0.0308
  C  C1132  1  0.803700  0.893800  0.105600  1.0  0.0706
  C  C1133  1  0.775600  0.909700  0.116400  1.0  0.1922
  C  C1134  1  0.663500  0.844800  0.239700  1.0  0.2334
  C  C1135  1  0.649600  0.873000  0.226900  1.0  0.0192
  C  C1136  1  0.625200  0.887500  0.240900  1.0  0.1762
  C  C1137  1  0.732100  0.758900  0.177700  1.0  0.0214
  C  C1138  1  0.704100  0.758900  0.158600  1.0  -0.0124
  C  C1139  1  0.705000  0.728500  0.145000  1.0  0.1654
  C  C1140  1  0.698600  0.872300  0.165000  1.0  0.1061
  C  C1141  1  0.655700  0.841500  0.172400  1.0  0.1678
  C  C1142  1  0.633000  0.816700  0.180900  1.0  0.0244
  C  C1143  1  0.598900  0.816300  0.173300  1.0  -0.0216
  C  C1144  1  0.587500  0.840900  0.157100  1.0  0.0186
  C  C1145  1  0.610200  0.865700  0.148600  1.0  0.0453
  C  C1146  1  0.644300  0.866000  0.156200  1.0  0.0773
  C  C1147  1  0.638000  0.980300  0.154900  1.0  0.1674
  C  C1148  1  0.618300  0.959800  0.166500  1.0  0.1471
  C  C1149  1  0.601800  0.981600  0.180100  1.0  0.1507
  C  C1150  1  0.624200  0.923800  0.089200  1.0  0.0584
  C  C1151  1  0.646400  0.874600  0.094800  1.0  0.0682
  C  C1152  1  0.662900  0.843400  0.098900  1.0  0.0365
  C  C1153  1  0.654200  0.814400  0.085700  1.0  0.019
  C  C1154  1  0.628900  0.816600  0.068400  1.0  -0.0158
  C  C1155  1  0.612300  0.847900  0.064200  1.0  0.0123
  C  C1156  1  0.621000  0.876800  0.077400  1.0  0.2101
  C  C1157  1  0.881800  0.909100  0.138000  1.0  0.0146
  C  C1158  1  0.883700  0.939000  0.119700  1.0  0.0373
  C  C1159  1  0.911300  0.936100  0.105800  1.0  0.1257
  C  C1160  1  0.559300  0.984800  0.087000  1.0  0.0805
  C  C1161  1  0.550500  0.963500  0.106000  1.0  0.0923
  C  C1162  1  0.543400  0.980400  0.126700  1.0  -0.0796
  C  C1163  1  0.628000  0.923400  0.012100  1.0  0.0451
  C  C1164  1  0.658100  0.909700  0.024600  1.0  0.0603
  C  C1165  1  0.685600  0.903500  0.012400  1.0  0.0672
  C  C1166  1  0.517300  0.878300  0.031600  1.0  0.0093
  C  C1167  1  0.531300  0.854800  0.015400  1.0  -0.0284
  C  C1168  1  0.518400  0.821300  0.012900  1.0  0.098
  C  C1169  1  0.479100  0.643000  0.685300  1.0  0.071
  C  C1170  1  0.463700  0.616700  0.699300  1.0  -0.0278
  C  C1171  1  0.485500  0.600200  0.715600  1.0  0.2673
  C  C1172  1  0.370400  0.721400  0.686000  1.0  0.1167
  C  C1173  1  0.410700  0.717300  0.708200  1.0  0.1008
  C  C1174  1  0.440800  0.708300  0.720000  1.0  0.0297
  C  C1175  1  0.447600  0.721500  0.742400  1.0  -0.0303
  C  C1176  1  0.424100  0.743700  0.753100  1.0  0.0015
  C  C1177  1  0.393900  0.752700  0.741300  1.0  -0.0204
  C  C1178  1  0.387200  0.739500  0.718900  1.0  0.11
  C  C1179  1  0.437900  0.749900  0.641100  1.0  0.031
  C  C1180  1  0.409700  0.756400  0.605300  1.0  0.0972
  C  C1181  1  0.393800  0.760300  0.583400  1.0  0.0825
  C  C1182  1  0.377800  0.732300  0.572700  1.0  0.0342
  C  C1183  1  0.377900  0.700300  0.583800  1.0  -0.03
  C  C1184  1  0.393800  0.696300  0.605600  1.0  0.0703
  C  C1185  1  0.409700  0.724400  0.616400  1.0  0.1911
  C  C1186  1  0.344800  0.836500  0.739700  1.0  0.2347
  C  C1187  1  0.373000  0.850400  0.726900  1.0  0.0224
  C  C1188  1  0.387500  0.874800  0.740900  1.0  0.1709
  C  C1189  1  0.258900  0.767900  0.677700  1.0  0.0206
  C  C1190  1  0.258900  0.795900  0.658600  1.0  -0.0109
  C  C1191  1  0.228500  0.795000  0.645000  1.0  0.1629
  C  C1192  1  0.372300  0.801400  0.665000  1.0  0.1039
  C  C1193  1  0.341500  0.844300  0.672400  1.0  0.1685
  C  C1194  1  0.316700  0.867000  0.680900  1.0  0.0265
  C  C1195  1  0.316300  0.901100  0.673300  1.0  -0.0192
  C  C1196  1  0.340900  0.912500  0.657100  1.0  0.0149
  C  C1197  1  0.365700  0.889800  0.648600  1.0  0.0453
  C  C1198  1  0.366000  0.855700  0.656200  1.0  0.0783
  C  C1199  1  0.480300  0.862000  0.654900  1.0  0.1663
  C  C1200  1  0.459800  0.881700  0.666500  1.0  0.1583
  C  C1201  1  0.481600  0.898200  0.680100  1.0  0.1521
  C  C1202  1  0.423800  0.875800  0.589200  1.0  0.0644
  C  C1203  1  0.374600  0.853600  0.594800  1.0  0.0671
  C  C1204  1  0.343400  0.837100  0.598900  1.0  0.0361
  C  C1205  1  0.314400  0.845800  0.585700  1.0  0.0177
  C  C1206  1  0.316600  0.871100  0.568400  1.0  -0.0162
  C  C1207  1  0.347900  0.887700  0.564200  1.0  0.013
  C  C1208  1  0.376800  0.879000  0.577400  1.0  0.2111
  C  C1209  1  0.409100  0.618200  0.638000  1.0  0.0147
  C  C1210  1  0.439000  0.616300  0.619700  1.0  0.0373
  C  C1211  1  0.436100  0.588700  0.605800  1.0  0.1291
  C  C1212  1  0.484800  0.940700  0.587000  1.0  0.0782
  C  C1213  1  0.463500  0.949500  0.606000  1.0  0.0969
  C  C1214  1  0.480400  0.956600  0.626700  1.0  -0.0784
  C  C1215  1  0.423400  0.872000  0.512100  1.0  0.0458
  C  C1216  1  0.409700  0.841900  0.524600  1.0  0.0618
  C  C1217  1  0.403500  0.814400  0.512400  1.0  0.0664
  C  C1218  1  0.378300  0.982700  0.531600  1.0  0.0054
  C  C1219  1  0.354800  0.968700  0.515400  1.0  -0.0328
  C  C1220  1  0.321300  0.981600  0.512900  1.0  0.0955
  C  C1221  1  0.979100  0.143000  0.185300  1.0  0.071
  C  C1222  1  0.963700  0.116700  0.199300  1.0  -0.0278
  C  C1223  1  0.985500  0.100200  0.215600  1.0  0.2673
  C  C1224  1  0.870400  0.221400  0.186000  1.0  0.1167
  C  C1225  1  0.910700  0.217300  0.208200  1.0  0.1008
  C  C1226  1  0.940800  0.208300  0.220000  1.0  0.0297
  C  C1227  1  0.947600  0.221500  0.242400  1.0  -0.0303
  C  C1228  1  0.924100  0.243700  0.253100  1.0  0.0015
  C  C1229  1  0.893900  0.252700  0.241300  1.0  -0.0204
  C  C1230  1  0.887200  0.239500  0.218900  1.0  0.11
  C  C1231  1  0.937900  0.249900  0.141100  1.0  0.031
  C  C1232  1  0.909700  0.256400  0.105300  1.0  0.0972
  C  C1233  1  0.893800  0.260300  0.083400  1.0  0.0825
  C  C1234  1  0.877800  0.232300  0.072700  1.0  0.0342
  C  C1235  1  0.877900  0.200300  0.083800  1.0  -0.03
  C  C1236  1  0.893800  0.196300  0.105600  1.0  0.0703
  C  C1237  1  0.909700  0.224400  0.116400  1.0  0.1911
  C  C1238  1  0.844800  0.336500  0.239700  1.0  0.2347
  C  C1239  1  0.873000  0.350400  0.226900  1.0  0.0224
  C  C1240  1  0.887500  0.374800  0.240900  1.0  0.1709
  C  C1241  1  0.758900  0.267900  0.177700  1.0  0.0206
  C  C1242  1  0.758900  0.295900  0.158600  1.0  -0.0109
  C  C1243  1  0.728500  0.295000  0.145000  1.0  0.1629
  C  C1244  1  0.872300  0.301400  0.165000  1.0  0.1039
  C  C1245  1  0.841500  0.344300  0.172400  1.0  0.1685
  C  C1246  1  0.816700  0.367000  0.180900  1.0  0.0265
  C  C1247  1  0.816300  0.401100  0.173300  1.0  -0.0192
  C  C1248  1  0.840900  0.412500  0.157100  1.0  0.0149
  C  C1249  1  0.865700  0.389800  0.148600  1.0  0.0453
  C  C1250  1  0.866000  0.355700  0.156200  1.0  0.0783
  C  C1251  1  0.980300  0.362000  0.154900  1.0  0.1663
  C  C1252  1  0.959800  0.381700  0.166500  1.0  0.1583
  C  C1253  1  0.981600  0.398200  0.180100  1.0  0.1521
  C  C1254  1  0.923800  0.375800  0.089200  1.0  0.0644
  C  C1255  1  0.874600  0.353600  0.094800  1.0  0.0671
  C  C1256  1  0.843400  0.337100  0.098900  1.0  0.0361
  C  C1257  1  0.814400  0.345800  0.085700  1.0  0.0177
  C  C1258  1  0.816600  0.371100  0.068400  1.0  -0.0162
  C  C1259  1  0.847900  0.387700  0.064200  1.0  0.013
  C  C1260  1  0.876800  0.379000  0.077400  1.0  0.2111
  C  C1261  1  0.909100  0.118200  0.138000  1.0  0.0147
  C  C1262  1  0.939000  0.116300  0.119700  1.0  0.0373
  C  C1263  1  0.936100  0.088700  0.105800  1.0  0.1291
  C  C1264  1  0.984800  0.440700  0.087000  1.0  0.0782
  C  C1265  1  0.963500  0.449500  0.106000  1.0  0.0969
  C  C1266  1  0.980400  0.456600  0.126700  1.0  -0.0784
  C  C1267  1  0.923400  0.372000  0.012100  1.0  0.0458
  C  C1268  1  0.909700  0.341900  0.024600  1.0  0.0618
  C  C1269  1  0.903500  0.314400  0.012400  1.0  0.0664
  C  C1270  1  0.878300  0.482700  0.031600  1.0  0.0054
  C  C1271  1  0.854800  0.468700  0.015400  1.0  -0.0328
  C  C1272  1  0.821300  0.481600  0.012900  1.0  0.0955
  C  C1273  1  0.520900  0.357000  0.685300  1.0  0.0715
  C  C1274  1  0.536300  0.383300  0.699300  1.0  -0.0258
  C  C1275  1  0.514500  0.399800  0.715600  1.0  0.268
  C  C1276  1  0.629600  0.278600  0.686000  1.0  0.1173
  C  C1277  1  0.589300  0.282700  0.708200  1.0  0.1009
  C  C1278  1  0.559200  0.291700  0.720000  1.0  0.03
  C  C1279  1  0.552400  0.278500  0.742400  1.0  -0.0308
  C  C1280  1  0.575900  0.256300  0.753100  1.0  -0.0002
  C  C1281  1  0.606100  0.247300  0.741300  1.0  -0.0176
  C  C1282  1  0.612800  0.260500  0.718900  1.0  0.1093
  C  C1283  1  0.562100  0.250100  0.641100  1.0  0.0317
  C  C1284  1  0.590300  0.243600  0.605300  1.0  0.0978
  C  C1285  1  0.606200  0.239700  0.583400  1.0  0.0829
  C  C1286  1  0.622200  0.267700  0.572700  1.0  0.0333
  C  C1287  1  0.622100  0.299700  0.583800  1.0  -0.0302
  C  C1288  1  0.606200  0.303700  0.605600  1.0  0.0699
  C  C1289  1  0.590300  0.275600  0.616400  1.0  0.1923
  C  C1290  1  0.655200  0.163500  0.739700  1.0  0.2337
  C  C1291  1  0.627000  0.149600  0.726900  1.0  0.0228
  C  C1292  1  0.612500  0.125200  0.740900  1.0  0.1727
  C  C1293  1  0.741100  0.232100  0.677700  1.0  0.0197
  C  C1294  1  0.741100  0.204100  0.658600  1.0  -0.0137
  C  C1295  1  0.771500  0.205000  0.645000  1.0  0.1636
  C  C1296  1  0.627700  0.198600  0.665000  1.0  0.1019
  C  C1297  1  0.658500  0.155700  0.672400  1.0  0.1693
  C  C1298  1  0.683300  0.133000  0.680900  1.0  0.0267
  C  C1299  1  0.683700  0.098900  0.673300  1.0  -0.0203
  C  C1300  1  0.659100  0.087500  0.657100  1.0  0.0169
  C  C1301  1  0.634300  0.110200  0.648600  1.0  0.0501
  C  C1302  1  0.634000  0.144300  0.656200  1.0  0.0763
  C  C1303  1  0.519700  0.138000  0.654900  1.0  0.1655
  C  C1304  1  0.540200  0.118300  0.666500  1.0  0.1622
  C  C1305  1  0.518400  0.101800  0.680100  1.0  0.1552
  C  C1306  1  0.576200  0.124200  0.589200  1.0  0.0589
  C  C1307  1  0.625400  0.146400  0.594800  1.0  0.0672
  C  C1308  1  0.656600  0.162900  0.598900  1.0  0.0363
  C  C1309  1  0.685600  0.154200  0.585700  1.0  0.0143
  C  C1310  1  0.683400  0.128900  0.568400  1.0  -0.0168
  C  C1311  1  0.652100  0.112300  0.564200  1.0  0.0147
  C  C1312  1  0.623200  0.121000  0.577400  1.0  0.2127
  C  C1313  1  0.590900  0.381800  0.638000  1.0  0.0136
  C  C1314  1  0.561000  0.383700  0.619700  1.0  0.0374
  C  C1315  1  0.563900  0.411300  0.605800  1.0  0.1291
  C  C1316  1  0.515200  0.059300  0.587000  1.0  0.076
  C  C1317  1  0.536500  0.050500  0.606000  1.0  0.1075
  C  C1318  1  0.519600  0.043400  0.626700  1.0  -0.0747
  C  C1319  1  0.576600  0.128000  0.512100  1.0  0.0453
  C  C1320  1  0.590300  0.158100  0.524600  1.0  0.0617
  C  C1321  1  0.596500  0.185600  0.512400  1.0  0.069
  C  C1322  1  0.621700  0.017300  0.531600  1.0  0.006
  C  C1323  1  0.645200  0.031300  0.515400  1.0  -0.0304
  C  C1324  1  0.678700  0.018400  0.512900  1.0  0.0941
  C  C1325  1  0.020900  0.857000  0.185300  1.0  0.0715
  C  C1326  1  0.036300  0.883300  0.199300  1.0  -0.0258
  C  C1327  1  0.014500  0.899800  0.215600  1.0  0.268
  C  C1328  1  0.129600  0.778600  0.186000  1.0  0.1173
  C  C1329  1  0.089300  0.782700  0.208200  1.0  0.1009
  C  C1330  1  0.059200  0.791700  0.220000  1.0  0.03
  C  C1331  1  0.052400  0.778500  0.242400  1.0  -0.0308
  C  C1332  1  0.075900  0.756300  0.253100  1.0  -0.0002
  C  C1333  1  0.106100  0.747300  0.241300  1.0  -0.0176
  C  C1334  1  0.112800  0.760500  0.218900  1.0  0.1093
  C  C1335  1  0.062100  0.750100  0.141100  1.0  0.0317
  C  C1336  1  0.090300  0.743600  0.105300  1.0  0.0978
  C  C1337  1  0.106200  0.739700  0.083400  1.0  0.0829
  C  C1338  1  0.122200  0.767700  0.072700  1.0  0.0333
  C  C1339  1  0.122100  0.799700  0.083800  1.0  -0.0302
  C  C1340  1  0.106200  0.803700  0.105600  1.0  0.0699
  C  C1341  1  0.090300  0.775600  0.116400  1.0  0.1923
  C  C1342  1  0.155200  0.663500  0.239700  1.0  0.2337
  C  C1343  1  0.127000  0.649600  0.226900  1.0  0.0228
  C  C1344  1  0.112500  0.625200  0.240900  1.0  0.1727
  C  C1345  1  0.241100  0.732100  0.177700  1.0  0.0197
  C  C1346  1  0.241100  0.704100  0.158600  1.0  -0.0137
  C  C1347  1  0.271500  0.705000  0.145000  1.0  0.1636
  C  C1348  1  0.127700  0.698600  0.165000  1.0  0.1019
  C  C1349  1  0.158500  0.655700  0.172400  1.0  0.1693
  C  C1350  1  0.183300  0.633000  0.180900  1.0  0.0267
  C  C1351  1  0.183700  0.598900  0.173300  1.0  -0.0203
  C  C1352  1  0.159100  0.587500  0.157100  1.0  0.0169
  C  C1353  1  0.134300  0.610200  0.148600  1.0  0.0501
  C  C1354  1  0.134000  0.644300  0.156200  1.0  0.0763
  C  C1355  1  0.019700  0.638000  0.154900  1.0  0.1655
  C  C1356  1  0.040200  0.618300  0.166500  1.0  0.1622
  C  C1357  1  0.018400  0.601800  0.180100  1.0  0.1552
  C  C1358  1  0.076200  0.624200  0.089200  1.0  0.0589
  C  C1359  1  0.125400  0.646400  0.094800  1.0  0.0672
  C  C1360  1  0.156600  0.662900  0.098900  1.0  0.0363
  C  C1361  1  0.185600  0.654200  0.085700  1.0  0.0143
  C  C1362  1  0.183400  0.628900  0.068400  1.0  -0.0168
  C  C1363  1  0.152100  0.612300  0.064200  1.0  0.0147
  C  C1364  1  0.123200  0.621000  0.077400  1.0  0.2127
  C  C1365  1  0.090900  0.881800  0.138000  1.0  0.0136
  C  C1366  1  0.061000  0.883700  0.119700  1.0  0.0374
  C  C1367  1  0.063900  0.911300  0.105800  1.0  0.1291
  C  C1368  1  0.015200  0.559300  0.087000  1.0  0.076
  C  C1369  1  0.036500  0.550500  0.106000  1.0  0.1075
  C  C1370  1  0.019600  0.543400  0.126700  1.0  -0.0747
  C  C1371  1  0.076600  0.628000  0.012100  1.0  0.0453
  C  C1372  1  0.090300  0.658100  0.024600  1.0  0.0617
  C  C1373  1  0.096500  0.685600  0.012400  1.0  0.069
  C  C1374  1  0.121700  0.517300  0.031600  1.0  0.006
  C  C1375  1  0.145200  0.531300  0.015400  1.0  -0.0304
  C  C1376  1  0.178700  0.518400  0.012900  1.0  0.0941
  C  C1377  1  0.357000  0.520900  0.314700  1.0  0.0694
  C  C1378  1  0.383300  0.536300  0.300700  1.0  -0.0303
  C  C1379  1  0.399800  0.514500  0.284400  1.0  0.2677
  C  C1380  1  0.278600  0.629600  0.314000  1.0  0.1169
  C  C1381  1  0.282700  0.589300  0.291800  1.0  0.1001
  C  C1382  1  0.291700  0.559200  0.280000  1.0  0.0307
  C  C1383  1  0.278500  0.552400  0.257600  1.0  -0.0284
  C  C1384  1  0.256300  0.575900  0.246900  1.0  -0.0007
  C  C1385  1  0.247300  0.606100  0.258700  1.0  -0.0187
  C  C1386  1  0.260500  0.612800  0.281100  1.0  0.111
  C  C1387  1  0.250100  0.562100  0.358900  1.0  0.0383
  C  C1388  1  0.243600  0.590300  0.394700  1.0  0.0999
  C  C1389  1  0.239700  0.606200  0.416600  1.0  0.0844
  C  C1390  1  0.267700  0.622200  0.427300  1.0  0.0367
  C  C1391  1  0.299700  0.622100  0.416200  1.0  -0.0317
  C  C1392  1  0.303700  0.606200  0.394400  1.0  0.0707
  C  C1393  1  0.275600  0.590300  0.383600  1.0  0.1917
  C  C1394  1  0.163500  0.655200  0.260300  1.0  0.2328
  C  C1395  1  0.149600  0.627000  0.273100  1.0  0.018
  C  C1396  1  0.125200  0.612500  0.259100  1.0  0.1776
  C  C1397  1  0.232100  0.741100  0.322300  1.0  0.0215
  C  C1398  1  0.204100  0.741100  0.341400  1.0  -0.0124
  C  C1399  1  0.205000  0.771500  0.355000  1.0  0.1638
  C  C1400  1  0.198600  0.627700  0.335000  1.0  0.1072
  C  C1401  1  0.155700  0.658500  0.327600  1.0  0.1678
  C  C1402  1  0.133000  0.683300  0.319100  1.0  0.0244
  C  C1403  1  0.098900  0.683700  0.326700  1.0  -0.0188
  C  C1404  1  0.087500  0.659100  0.342900  1.0  0.0179
  C  C1405  1  0.110200  0.634300  0.351400  1.0  0.0465
  C  C1406  1  0.144300  0.634000  0.343800  1.0  0.0764
  C  C1407  1  0.138000  0.519700  0.345100  1.0  0.1673
  C  C1408  1  0.118300  0.540200  0.333500  1.0  0.1493
  C  C1409  1  0.101800  0.518400  0.319900  1.0  0.1513
  C  C1410  1  0.124200  0.576200  0.410800  1.0  0.0555
  C  C1411  1  0.146400  0.625400  0.405200  1.0  0.0699
  C  C1412  1  0.162900  0.656600  0.401100  1.0  0.0352
  C  C1413  1  0.154200  0.685600  0.414300  1.0  0.0189
  C  C1414  1  0.128900  0.683400  0.431600  1.0  -0.0122
  C  C1415  1  0.112300  0.652100  0.435800  1.0  0.0113
  C  C1416  1  0.121000  0.623200  0.422600  1.0  0.2098
  C  C1417  1  0.381800  0.590900  0.362000  1.0  0.0143
  C  C1418  1  0.383700  0.561000  0.380300  1.0  0.0376
  C  C1419  1  0.411300  0.563900  0.394200  1.0  0.1269
  C  C1420  1  0.059300  0.515200  0.413000  1.0  0.0799
  C  C1421  1  0.050500  0.536500  0.394000  1.0  0.0911
  C  C1422  1  0.043400  0.519600  0.373300  1.0  -0.0795
  C  C1423  1  0.128000  0.576600  0.487900  1.0  0.0446
  C  C1424  1  0.158100  0.590300  0.475400  1.0  0.0625
  C  C1425  1  0.185600  0.596500  0.487600  1.0  0.0677
  C  C1426  1  0.017300  0.621700  0.468400  1.0  0.0075
  C  C1427  1  0.031300  0.645200  0.484600  1.0  -0.0267
  C  C1428  1  0.018400  0.678700  0.487100  1.0  0.0966
  C  C1429  1  0.857000  0.020900  0.814700  1.0  0.0694
  C  C1430  1  0.883300  0.036300  0.800700  1.0  -0.0303
  C  C1431  1  0.899800  0.014500  0.784400  1.0  0.2677
  C  C1432  1  0.778600  0.129600  0.814000  1.0  0.1169
  C  C1433  1  0.782700  0.089300  0.791800  1.0  0.1001
  C  C1434  1  0.791700  0.059200  0.780000  1.0  0.0307
  C  C1435  1  0.778500  0.052400  0.757600  1.0  -0.0284
  C  C1436  1  0.756300  0.075900  0.746900  1.0  -0.0007
  C  C1437  1  0.747300  0.106100  0.758700  1.0  -0.0187
  C  C1438  1  0.760500  0.112800  0.781100  1.0  0.111
  C  C1439  1  0.750100  0.062100  0.858900  1.0  0.0383
  C  C1440  1  0.743600  0.090300  0.894700  1.0  0.0999
  C  C1441  1  0.739700  0.106200  0.916600  1.0  0.0844
  C  C1442  1  0.767700  0.122200  0.927300  1.0  0.0367
  C  C1443  1  0.799700  0.122100  0.916200  1.0  -0.0317
  C  C1444  1  0.803700  0.106200  0.894400  1.0  0.0707
  C  C1445  1  0.775600  0.090300  0.883600  1.0  0.1917
  C  C1446  1  0.663500  0.155200  0.760300  1.0  0.2328
  C  C1447  1  0.649600  0.127000  0.773100  1.0  0.018
  C  C1448  1  0.625200  0.112500  0.759100  1.0  0.1776
  C  C1449  1  0.732100  0.241100  0.822300  1.0  0.0215
  C  C1450  1  0.704100  0.241100  0.841400  1.0  -0.0124
  C  C1451  1  0.705000  0.271500  0.855000  1.0  0.1638
  C  C1452  1  0.698600  0.127700  0.835000  1.0  0.1072
  C  C1453  1  0.655700  0.158500  0.827600  1.0  0.1678
  C  C1454  1  0.633000  0.183300  0.819100  1.0  0.0244
  C  C1455  1  0.598900  0.183700  0.826700  1.0  -0.0188
  C  C1456  1  0.587500  0.159100  0.842900  1.0  0.0179
  C  C1457  1  0.610200  0.134300  0.851400  1.0  0.0465
  C  C1458  1  0.644300  0.134000  0.843800  1.0  0.0764
  C  C1459  1  0.638000  0.019700  0.845100  1.0  0.1673
  C  C1460  1  0.618300  0.040200  0.833500  1.0  0.1493
  C  C1461  1  0.601800  0.018400  0.819900  1.0  0.1513
  C  C1462  1  0.624200  0.076200  0.910800  1.0  0.0555
  C  C1463  1  0.646400  0.125400  0.905200  1.0  0.0699
  C  C1464  1  0.662900  0.156600  0.901100  1.0  0.0352
  C  C1465  1  0.654200  0.185600  0.914300  1.0  0.0189
  C  C1466  1  0.628900  0.183400  0.931600  1.0  -0.0122
  C  C1467  1  0.612300  0.152100  0.935800  1.0  0.0113
  C  C1468  1  0.621000  0.123200  0.922600  1.0  0.2098
  C  C1469  1  0.881800  0.090900  0.862000  1.0  0.0143
  C  C1470  1  0.883700  0.061000  0.880300  1.0  0.0376
  C  C1471  1  0.911300  0.063900  0.894200  1.0  0.1269
  C  C1472  1  0.559300  0.015200  0.913000  1.0  0.0799
  C  C1473  1  0.550500  0.036500  0.894000  1.0  0.0911
  C  C1474  1  0.543400  0.019600  0.873300  1.0  -0.0795
  C  C1475  1  0.628000  0.076600  0.987900  1.0  0.0446
  C  C1476  1  0.658100  0.090300  0.975400  1.0  0.0625
  C  C1477  1  0.685600  0.096500  0.987600  1.0  0.0677
  C  C1478  1  0.517300  0.121700  0.968400  1.0  0.0075
  C  C1479  1  0.531300  0.145200  0.984600  1.0  -0.0267
  C  C1480  1  0.518400  0.178700  0.987100  1.0  0.0966
  C  C1481  1  0.643000  0.479100  0.314700  1.0  0.069
  C  C1482  1  0.616700  0.463700  0.300700  1.0  -0.0311
  C  C1483  1  0.600200  0.485500  0.284400  1.0  0.2666
  C  C1484  1  0.721400  0.370400  0.314000  1.0  0.117
  C  C1485  1  0.717300  0.410700  0.291800  1.0  0.0999
  C  C1486  1  0.708300  0.440800  0.280000  1.0  0.0284
  C  C1487  1  0.721500  0.447600  0.257600  1.0  -0.0291
  C  C1488  1  0.743700  0.424100  0.246900  1.0  -0.0011
  C  C1489  1  0.752700  0.393900  0.258700  1.0  -0.0176
  C  C1490  1  0.739500  0.387200  0.281100  1.0  0.1111
  C  C1491  1  0.749900  0.437900  0.358900  1.0  0.037
  C  C1492  1  0.756400  0.409700  0.394700  1.0  0.1004
  C  C1493  1  0.760300  0.393800  0.416600  1.0  0.0835
  C  C1494  1  0.732300  0.377800  0.427300  1.0  0.0362
  C  C1495  1  0.700300  0.377900  0.416200  1.0  -0.0306
  C  C1496  1  0.696300  0.393800  0.394400  1.0  0.0726
  C  C1497  1  0.724400  0.409700  0.383600  1.0  0.19
  C  C1498  1  0.836500  0.344800  0.260300  1.0  0.2335
  C  C1499  1  0.850400  0.373000  0.273100  1.0  0.0177
  C  C1500  1  0.874800  0.387500  0.259100  1.0  0.1752
  C  C1501  1  0.767900  0.258900  0.322300  1.0  0.0202
  C  C1502  1  0.795900  0.258900  0.341400  1.0  -0.0122
  C  C1503  1  0.795000  0.228500  0.355000  1.0  0.1645
  C  C1504  1  0.801400  0.372300  0.335000  1.0  0.1033
  C  C1505  1  0.844300  0.341500  0.327600  1.0  0.1687
  C  C1506  1  0.867000  0.316700  0.319100  1.0  0.0228
  C  C1507  1  0.901100  0.316300  0.326700  1.0  -0.0208
  C  C1508  1  0.912500  0.340900  0.342900  1.0  0.016
  C  C1509  1  0.889800  0.365700  0.351400  1.0  0.0448
  C  C1510  1  0.855700  0.366000  0.343800  1.0  0.0764
  C  C1511  1  0.862000  0.480300  0.345100  1.0  0.1677
  C  C1512  1  0.881700  0.459800  0.333500  1.0  0.148
  C  C1513  1  0.898200  0.481600  0.319900  1.0  0.1542
  C  C1514  1  0.875800  0.423800  0.410800  1.0  0.0589
  C  C1515  1  0.853600  0.374600  0.405200  1.0  0.0693
  C  C1516  1  0.837100  0.343400  0.401100  1.0  0.036
  C  C1517  1  0.845800  0.314400  0.414300  1.0  0.0178
  C  C1518  1  0.871100  0.316600  0.431600  1.0  -0.0146
  C  C1519  1  0.887700  0.347900  0.435800  1.0  0.01
  C  C1520  1  0.879000  0.376800  0.422600  1.0  0.2116
  C  C1521  1  0.618200  0.409100  0.362000  1.0  0.0138
  C  C1522  1  0.616300  0.439000  0.380300  1.0  0.0398
  C  C1523  1  0.588700  0.436100  0.394200  1.0  0.1254
  C  C1524  1  0.940700  0.484800  0.413000  1.0  0.0806
  C  C1525  1  0.949500  0.463500  0.394000  1.0  0.0901
  C  C1526  1  0.956600  0.480400  0.373300  1.0  -0.076
  C  C1527  1  0.872000  0.423400  0.487900  1.0  0.045
  C  C1528  1  0.841900  0.409700  0.475400  1.0  0.0612
  C  C1529  1  0.814400  0.403500  0.487600  1.0  0.0675
  C  C1530  1  0.982700  0.378300  0.468400  1.0  0.0086
  C  C1531  1  0.968700  0.354800  0.484600  1.0  -0.0328
  C  C1532  1  0.981600  0.321300  0.487100  1.0  0.1008
  C  C1533  1  0.143000  0.979100  0.814700  1.0  0.069
  C  C1534  1  0.116700  0.963700  0.800700  1.0  -0.0311
  C  C1535  1  0.100200  0.985500  0.784400  1.0  0.2666
  C  C1536  1  0.221400  0.870400  0.814000  1.0  0.117
  C  C1537  1  0.217300  0.910700  0.791800  1.0  0.0999
  C  C1538  1  0.208300  0.940800  0.780000  1.0  0.0284
  C  C1539  1  0.221500  0.947600  0.757600  1.0  -0.0291
  C  C1540  1  0.243700  0.924100  0.746900  1.0  -0.0011
  C  C1541  1  0.252700  0.893900  0.758700  1.0  -0.0176
  C  C1542  1  0.239500  0.887200  0.781100  1.0  0.1111
  C  C1543  1  0.249900  0.937900  0.858900  1.0  0.037
  C  C1544  1  0.256400  0.909700  0.894700  1.0  0.1004
  C  C1545  1  0.260300  0.893800  0.916600  1.0  0.0835
  C  C1546  1  0.232300  0.877800  0.927300  1.0  0.0362
  C  C1547  1  0.200300  0.877900  0.916200  1.0  -0.0306
  C  C1548  1  0.196300  0.893800  0.894400  1.0  0.0726
  C  C1549  1  0.224400  0.909700  0.883600  1.0  0.19
  C  C1550  1  0.336500  0.844800  0.760300  1.0  0.2335
  C  C1551  1  0.350400  0.873000  0.773100  1.0  0.0177
  C  C1552  1  0.374800  0.887500  0.759100  1.0  0.1752
  C  C1553  1  0.267900  0.758900  0.822300  1.0  0.0202
  C  C1554  1  0.295900  0.758900  0.841400  1.0  -0.0122
  C  C1555  1  0.295000  0.728500  0.855000  1.0  0.1645
  C  C1556  1  0.301400  0.872300  0.835000  1.0  0.1033
  C  C1557  1  0.344300  0.841500  0.827600  1.0  0.1687
  C  C1558  1  0.367000  0.816700  0.819100  1.0  0.0228
  C  C1559  1  0.401100  0.816300  0.826700  1.0  -0.0208
  C  C1560  1  0.412500  0.840900  0.842900  1.0  0.016
  C  C1561  1  0.389800  0.865700  0.851400  1.0  0.0448
  C  C1562  1  0.355700  0.866000  0.843800  1.0  0.0764
  C  C1563  1  0.362000  0.980300  0.845100  1.0  0.1677
  C  C1564  1  0.381700  0.959800  0.833500  1.0  0.148
  C  C1565  1  0.398200  0.981600  0.819900  1.0  0.1542
  C  C1566  1  0.375800  0.923800  0.910800  1.0  0.0589
  C  C1567  1  0.353600  0.874600  0.905200  1.0  0.0693
  C  C1568  1  0.337100  0.843400  0.901100  1.0  0.036
  C  C1569  1  0.345800  0.814400  0.914300  1.0  0.0178
  C  C1570  1  0.371100  0.816600  0.931600  1.0  -0.0146
  C  C1571  1  0.387700  0.847900  0.935800  1.0  0.01
  C  C1572  1  0.379000  0.876800  0.922600  1.0  0.2116
  C  C1573  1  0.118200  0.909100  0.862000  1.0  0.0138
  C  C1574  1  0.116300  0.939000  0.880300  1.0  0.0398
  C  C1575  1  0.088700  0.936100  0.894200  1.0  0.1254
  C  C1576  1  0.440700  0.984800  0.913000  1.0  0.0806
  C  C1577  1  0.449500  0.963500  0.894000  1.0  0.0901
  C  C1578  1  0.456600  0.980400  0.873300  1.0  -0.076
  C  C1579  1  0.372000  0.923400  0.987900  1.0  0.045
  C  C1580  1  0.341900  0.909700  0.975400  1.0  0.0612
  C  C1581  1  0.314400  0.903500  0.987600  1.0  0.0675
  C  C1582  1  0.482700  0.878300  0.968400  1.0  0.0086
  C  C1583  1  0.468700  0.854800  0.984600  1.0  -0.0328
  C  C1584  1  0.481600  0.821300  0.987100  1.0  0.1008
  C  C1585  1  0.520900  0.643000  0.314700  1.0  0.0717
  C  C1586  1  0.536300  0.616700  0.300700  1.0  -0.0248
  C  C1587  1  0.514500  0.600200  0.284400  1.0  0.2676
  C  C1588  1  0.629600  0.721400  0.314000  1.0  0.1155
  C  C1589  1  0.589300  0.717300  0.291800  1.0  0.1004
  C  C1590  1  0.559200  0.708300  0.280000  1.0  0.0292
  C  C1591  1  0.552400  0.721500  0.257600  1.0  -0.0291
  C  C1592  1  0.575900  0.743700  0.246900  1.0  -0.0003
  C  C1593  1  0.606100  0.752700  0.258700  1.0  -0.0189
  C  C1594  1  0.612800  0.739500  0.281100  1.0  0.1103
  C  C1595  1  0.562100  0.749900  0.358900  1.0  0.0367
  C  C1596  1  0.590300  0.756400  0.394700  1.0  0.0997
  C  C1597  1  0.606200  0.760300  0.416600  1.0  0.082
  C  C1598  1  0.622200  0.732300  0.427300  1.0  0.0368
  C  C1599  1  0.622100  0.700300  0.416200  1.0  -0.0302
  C  C1600  1  0.606200  0.696300  0.394400  1.0  0.0703
  C  C1601  1  0.590300  0.724400  0.383600  1.0  0.1912
  C  C1602  1  0.655200  0.836500  0.260300  1.0  0.233
  C  C1603  1  0.627000  0.850400  0.273100  1.0  0.0199
  C  C1604  1  0.612500  0.874800  0.259100  1.0  0.1714
  C  C1605  1  0.741100  0.767900  0.322300  1.0  0.0192
  C  C1606  1  0.741100  0.795900  0.341400  1.0  -0.0138
  C  C1607  1  0.771500  0.795000  0.355000  1.0  0.1618
  C  C1608  1  0.627700  0.801400  0.335000  1.0  0.1018
  C  C1609  1  0.658500  0.844300  0.327600  1.0  0.1687
  C  C1610  1  0.683300  0.867000  0.319100  1.0  0.026
  C  C1611  1  0.683700  0.901100  0.326700  1.0  -0.0202
  C  C1612  1  0.659100  0.912500  0.342900  1.0  0.0142
  C  C1613  1  0.634300  0.889800  0.351400  1.0  0.0476
  C  C1614  1  0.634000  0.855700  0.343800  1.0  0.0758
  C  C1615  1  0.519700  0.862000  0.345100  1.0  0.1656
  C  C1616  1  0.540200  0.881700  0.333500  1.0  0.1619
  C  C1617  1  0.518400  0.898200  0.319900  1.0  0.1551
  C  C1618  1  0.576200  0.875800  0.410800  1.0  0.0589
  C  C1619  1  0.625400  0.853600  0.405200  1.0  0.0693
  C  C1620  1  0.656600  0.837100  0.401100  1.0  0.0359
  C  C1621  1  0.685600  0.845800  0.414300  1.0  0.0175
  C  C1622  1  0.683400  0.871100  0.431600  1.0  -0.016
  C  C1623  1  0.652100  0.887700  0.435800  1.0  0.0132
  C  C1624  1  0.623200  0.879000  0.422600  1.0  0.2123
  C  C1625  1  0.590900  0.618200  0.362000  1.0  0.0142
  C  C1626  1  0.561000  0.616300  0.380300  1.0  0.0384
  C  C1627  1  0.563900  0.588700  0.394200  1.0  0.1283
  C  C1628  1  0.515200  0.940700  0.413000  1.0  0.0755
  C  C1629  1  0.536500  0.949500  0.394000  1.0  0.1068
  C  C1630  1  0.519600  0.956600  0.373300  1.0  -0.0753
  C  C1631  1  0.576600  0.872000  0.487900  1.0  0.0446
  C  C1632  1  0.590300  0.841900  0.475400  1.0  0.0634
  C  C1633  1  0.596500  0.814400  0.487600  1.0  0.0685
  C  C1634  1  0.621700  0.982700  0.468400  1.0  0.0045
  C  C1635  1  0.645200  0.968700  0.484600  1.0  -0.0317
  C  C1636  1  0.678700  0.981600  0.487100  1.0  0.1003
  C  C1637  1  0.020900  0.143000  0.814700  1.0  0.0717
  C  C1638  1  0.036300  0.116700  0.800700  1.0  -0.0248
  C  C1639  1  0.014500  0.100200  0.784400  1.0  0.2676
  C  C1640  1  0.129600  0.221400  0.814000  1.0  0.1155
  C  C1641  1  0.089300  0.217300  0.791800  1.0  0.1004
  C  C1642  1  0.059200  0.208300  0.780000  1.0  0.0292
  C  C1643  1  0.052400  0.221500  0.757600  1.0  -0.0291
  C  C1644  1  0.075900  0.243700  0.746900  1.0  -0.0003
  C  C1645  1  0.106100  0.252700  0.758700  1.0  -0.0189
  C  C1646  1  0.112800  0.239500  0.781100  1.0  0.1103
  C  C1647  1  0.062100  0.249900  0.858900  1.0  0.0367
  C  C1648  1  0.090300  0.256400  0.894700  1.0  0.0997
  C  C1649  1  0.106200  0.260300  0.916600  1.0  0.082
  C  C1650  1  0.122200  0.232300  0.927300  1.0  0.0368
  C  C1651  1  0.122100  0.200300  0.916200  1.0  -0.0302
  C  C1652  1  0.106200  0.196300  0.894400  1.0  0.0703
  C  C1653  1  0.090300  0.224400  0.883600  1.0  0.1912
  C  C1654  1  0.155200  0.336500  0.760300  1.0  0.233
  C  C1655  1  0.127000  0.350400  0.773100  1.0  0.0199
  C  C1656  1  0.112500  0.374800  0.759100  1.0  0.1714
  C  C1657  1  0.241100  0.267900  0.822300  1.0  0.0192
  C  C1658  1  0.241100  0.295900  0.841400  1.0  -0.0138
  C  C1659  1  0.271500  0.295000  0.855000  1.0  0.1618
  C  C1660  1  0.127700  0.301400  0.835000  1.0  0.1018
  C  C1661  1  0.158500  0.344300  0.827600  1.0  0.1687
  C  C1662  1  0.183300  0.367000  0.819100  1.0  0.026
  C  C1663  1  0.183700  0.401100  0.826700  1.0  -0.0202
  C  C1664  1  0.159100  0.412500  0.842900  1.0  0.0142
  C  C1665  1  0.134300  0.389800  0.851400  1.0  0.0476
  C  C1666  1  0.134000  0.355700  0.843800  1.0  0.0758
  C  C1667  1  0.019700  0.362000  0.845100  1.0  0.1656
  C  C1668  1  0.040200  0.381700  0.833500  1.0  0.1619
  C  C1669  1  0.018400  0.398200  0.819900  1.0  0.1551
  C  C1670  1  0.076200  0.375800  0.910800  1.0  0.0589
  C  C1671  1  0.125400  0.353600  0.905200  1.0  0.0693
  C  C1672  1  0.156600  0.337100  0.901100  1.0  0.0359
  C  C1673  1  0.185600  0.345800  0.914300  1.0  0.0175
  C  C1674  1  0.183400  0.371100  0.931600  1.0  -0.016
  C  C1675  1  0.152100  0.387700  0.935800  1.0  0.0132
  C  C1676  1  0.123200  0.379000  0.922600  1.0  0.2123
  C  C1677  1  0.090900  0.118200  0.862000  1.0  0.0142
  C  C1678  1  0.061000  0.116300  0.880300  1.0  0.0384
  C  C1679  1  0.063900  0.088700  0.894200  1.0  0.1283
  C  C1680  1  0.015200  0.440700  0.913000  1.0  0.0755
  C  C1681  1  0.036500  0.449500  0.894000  1.0  0.1068
  C  C1682  1  0.019600  0.456600  0.873300  1.0  -0.0753
  C  C1683  1  0.076600  0.372000  0.987900  1.0  0.0446
  C  C1684  1  0.090300  0.341900  0.975400  1.0  0.0634
  C  C1685  1  0.096500  0.314400  0.987600  1.0  0.0685
  C  C1686  1  0.121700  0.482700  0.968400  1.0  0.0045
  C  C1687  1  0.145200  0.468700  0.984600  1.0  -0.0317
  C  C1688  1  0.178700  0.481600  0.987100  1.0  0.1003
  C  C1689  1  0.479100  0.357000  0.314700  1.0  0.0705
  C  C1690  1  0.463700  0.383300  0.300700  1.0  -0.0282
  C  C1691  1  0.485500  0.399800  0.284400  1.0  0.267
  C  C1692  1  0.370400  0.278600  0.314000  1.0  0.1151
  C  C1693  1  0.410700  0.282700  0.291800  1.0  0.0996
  C  C1694  1  0.440800  0.291700  0.280000  1.0  0.0277
  C  C1695  1  0.447600  0.278500  0.257600  1.0  -0.0306
  C  C1696  1  0.424100  0.256300  0.246900  1.0  -1e-04
  C  C1697  1  0.393900  0.247300  0.258700  1.0  -0.0185
  C  C1698  1  0.387200  0.260500  0.281100  1.0  0.1096
  C  C1699  1  0.437900  0.250100  0.358900  1.0  0.0371
  C  C1700  1  0.409700  0.243600  0.394700  1.0  0.0991
  C  C1701  1  0.393800  0.239700  0.416600  1.0  0.0825
  C  C1702  1  0.377800  0.267700  0.427300  1.0  0.0372
  C  C1703  1  0.377900  0.299700  0.416200  1.0  -0.0298
  C  C1704  1  0.393800  0.303700  0.394400  1.0  0.0708
  C  C1705  1  0.409700  0.275600  0.383600  1.0  0.1917
  C  C1706  1  0.344800  0.163500  0.260300  1.0  0.2343
  C  C1707  1  0.373000  0.149600  0.273100  1.0  0.0195
  C  C1708  1  0.387500  0.125200  0.259100  1.0  0.1702
  C  C1709  1  0.258900  0.232100  0.322300  1.0  0.0203
  C  C1710  1  0.258900  0.204100  0.341400  1.0  -0.0121
  C  C1711  1  0.228500  0.205000  0.355000  1.0  0.1627
  C  C1712  1  0.372300  0.198600  0.335000  1.0  0.1028
  C  C1713  1  0.341500  0.155700  0.327600  1.0  0.1683
  C  C1714  1  0.316700  0.133000  0.319100  1.0  0.0267
  C  C1715  1  0.316300  0.098900  0.326700  1.0  -0.0199
  C  C1716  1  0.340900  0.087500  0.342900  1.0  0.0171
  C  C1717  1  0.365700  0.110200  0.351400  1.0  0.048
  C  C1718  1  0.366000  0.144300  0.343800  1.0  0.0771
  C  C1719  1  0.480300  0.138000  0.345100  1.0  0.1663
  C  C1720  1  0.459800  0.118300  0.333500  1.0  0.1582
  C  C1721  1  0.481600  0.101800  0.319900  1.0  0.1559
  C  C1722  1  0.423800  0.124200  0.410800  1.0  0.0645
  C  C1723  1  0.374600  0.146400  0.405200  1.0  0.0683
  C  C1724  1  0.343400  0.162900  0.401100  1.0  0.0368
  C  C1725  1  0.314400  0.154200  0.414300  1.0  0.0172
  C  C1726  1  0.316600  0.128900  0.431600  1.0  -0.0173
  C  C1727  1  0.347900  0.112300  0.435800  1.0  0.01
  C  C1728  1  0.376800  0.121000  0.422600  1.0  0.2102
  C  C1729  1  0.409100  0.381800  0.362000  1.0  0.0136
  C  C1730  1  0.439000  0.383700  0.380300  1.0  0.0369
  C  C1731  1  0.436100  0.411300  0.394200  1.0  0.1283
  C  C1732  1  0.484800  0.059300  0.413000  1.0  0.078
  C  C1733  1  0.463500  0.050500  0.394000  1.0  0.0969
  C  C1734  1  0.480400  0.043400  0.373300  1.0  -0.078
  C  C1735  1  0.423400  0.128000  0.487900  1.0  0.0453
  C  C1736  1  0.409700  0.158100  0.475400  1.0  0.0638
  C  C1737  1  0.403500  0.185600  0.487600  1.0  0.0688
  C  C1738  1  0.378300  0.017300  0.468400  1.0  0.0046
  C  C1739  1  0.354800  0.031300  0.484600  1.0  -0.0299
  C  C1740  1  0.321300  0.018400  0.487100  1.0  0.0994
  C  C1741  1  0.979100  0.857000  0.814700  1.0  0.0705
  C  C1742  1  0.963700  0.883300  0.800700  1.0  -0.0282
  C  C1743  1  0.985500  0.899800  0.784400  1.0  0.267
  C  C1744  1  0.870400  0.778600  0.814000  1.0  0.1151
  C  C1745  1  0.910700  0.782700  0.791800  1.0  0.0996
  C  C1746  1  0.940800  0.791700  0.780000  1.0  0.0277
  C  C1747  1  0.947600  0.778500  0.757600  1.0  -0.0306
  C  C1748  1  0.924100  0.756300  0.746900  1.0  -1e-04
  C  C1749  1  0.893900  0.747300  0.758700  1.0  -0.0185
  C  C1750  1  0.887200  0.760500  0.781100  1.0  0.1096
  C  C1751  1  0.937900  0.750100  0.858900  1.0  0.0371
  C  C1752  1  0.909700  0.743600  0.894700  1.0  0.0991
  C  C1753  1  0.893800  0.739700  0.916600  1.0  0.0825
  C  C1754  1  0.877800  0.767700  0.927300  1.0  0.0372
  C  C1755  1  0.877900  0.799700  0.916200  1.0  -0.0298
  C  C1756  1  0.893800  0.803700  0.894400  1.0  0.0708
  C  C1757  1  0.909700  0.775600  0.883600  1.0  0.1917
  C  C1758  1  0.844800  0.663500  0.760300  1.0  0.2343
  C  C1759  1  0.873000  0.649600  0.773100  1.0  0.0195
  C  C1760  1  0.887500  0.625200  0.759100  1.0  0.1702
  C  C1761  1  0.758900  0.732100  0.822300  1.0  0.0203
  C  C1762  1  0.758900  0.704100  0.841400  1.0  -0.0121
  C  C1763  1  0.728500  0.705000  0.855000  1.0  0.1627
  C  C1764  1  0.872300  0.698600  0.835000  1.0  0.1028
  C  C1765  1  0.841500  0.655700  0.827600  1.0  0.1683
  C  C1766  1  0.816700  0.633000  0.819100  1.0  0.0267
  C  C1767  1  0.816300  0.598900  0.826700  1.0  -0.0199
  C  C1768  1  0.840900  0.587500  0.842900  1.0  0.0171
  C  C1769  1  0.865700  0.610200  0.851400  1.0  0.048
  C  C1770  1  0.866000  0.644300  0.843800  1.0  0.0771
  C  C1771  1  0.980300  0.638000  0.845100  1.0  0.1663
  C  C1772  1  0.959800  0.618300  0.833500  1.0  0.1582
  C  C1773  1  0.981600  0.601800  0.819900  1.0  0.1559
  C  C1774  1  0.923800  0.624200  0.910800  1.0  0.0645
  C  C1775  1  0.874600  0.646400  0.905200  1.0  0.0683
  C  C1776  1  0.843400  0.662900  0.901100  1.0  0.0368
  C  C1777  1  0.814400  0.654200  0.914300  1.0  0.0172
  C  C1778  1  0.816600  0.628900  0.931600  1.0  -0.0173
  C  C1779  1  0.847900  0.612300  0.935800  1.0  0.01
  C  C1780  1  0.876800  0.621000  0.922600  1.0  0.2102
  C  C1781  1  0.909100  0.881800  0.862000  1.0  0.0136
  C  C1782  1  0.939000  0.883700  0.880300  1.0  0.0369
  C  C1783  1  0.936100  0.911300  0.894200  1.0  0.1283
  C  C1784  1  0.984800  0.559300  0.913000  1.0  0.078
  C  C1785  1  0.963500  0.550500  0.894000  1.0  0.0969
  C  C1786  1  0.980400  0.543400  0.873300  1.0  -0.078
  C  C1787  1  0.923400  0.628000  0.987900  1.0  0.0453
  C  C1788  1  0.909700  0.658100  0.975400  1.0  0.0638
  C  C1789  1  0.903500  0.685600  0.987600  1.0  0.0688
  C  C1790  1  0.878300  0.517300  0.968400  1.0  0.0046
  C  C1791  1  0.854800  0.531300  0.984600  1.0  -0.0299
  C  C1792  1  0.821300  0.518400  0.987100  1.0  0.0994
  C  C1793  1  0.271500  0.271500  0.295800  1.0  0.0927
  C  C1794  1  0.369500  0.369500  0.333600  1.0  0.0551
  C  C1795  1  0.771500  0.771500  0.795800  1.0  0.0927
  C  C1796  1  0.869500  0.869500  0.833600  1.0  0.0551
  C  C1797  1  0.728500  0.728500  0.295800  1.0  0.0908
  C  C1798  1  0.630500  0.630500  0.333600  1.0  0.0556
  C  C1799  1  0.228500  0.228500  0.795800  1.0  0.0908
  C  C1800  1  0.130500  0.130500  0.833600  1.0  0.0556
  C  C1801  1  0.728500  0.271500  0.295800  1.0  0.0931
  C  C1802  1  0.630500  0.369500  0.333600  1.0  0.0547
  C  C1803  1  0.228500  0.771500  0.795800  1.0  0.0931
  C  C1804  1  0.130500  0.869500  0.833600  1.0  0.0547
  C  C1805  1  0.271500  0.728500  0.295800  1.0  0.0913
  C  C1806  1  0.369500  0.630500  0.333600  1.0  0.0558
  C  C1807  1  0.771500  0.228500  0.795800  1.0  0.0913
  C  C1808  1  0.869500  0.130500  0.833600  1.0  0.0558
  C  C1809  1  0.728500  0.271500  0.704200  1.0  0.0905
  C  C1810  1  0.630500  0.369500  0.666400  1.0  0.0536
  C  C1811  1  0.228500  0.771500  0.204200  1.0  0.0905
  C  C1812  1  0.130500  0.869500  0.166400  1.0  0.0536
  C  C1813  1  0.271500  0.728500  0.704200  1.0  0.0893
  C  C1814  1  0.369500  0.630500  0.666400  1.0  0.0554
  C  C1815  1  0.771500  0.228500  0.204200  1.0  0.0893
  C  C1816  1  0.869500  0.130500  0.166400  1.0  0.0554
  C  C1817  1  0.271500  0.271500  0.704200  1.0  0.0907
  C  C1818  1  0.369500  0.369500  0.666400  1.0  0.0539
  C  C1819  1  0.771500  0.771500  0.204200  1.0  0.0907
  C  C1820  1  0.869500  0.869500  0.166400  1.0  0.0539
  C  C1821  1  0.728500  0.728500  0.704200  1.0  0.0884
  C  C1822  1  0.630500  0.630500  0.666400  1.0  0.0549
  C  C1823  1  0.228500  0.228500  0.204200  1.0  0.0884
  C  C1824  1  0.130500  0.130500  0.166400  1.0  0.0549
  C  C1825  1  0.311100  0.500000  0.339900  1.0  0.0444
  C  C1826  1  0.175800  0.500000  0.373400  1.0  -0.0476
  C  C1827  1  0.069800  0.500000  0.446600  1.0  0.1499
  C  C1828  1  0.811100  0.000000  0.839900  1.0  0.0444
  C  C1829  1  0.675800  0.000000  0.873400  1.0  -0.0476
  C  C1830  1  0.569800  0.000000  0.946600  1.0  0.1499
  C  C1831  1  0.688900  0.500000  0.339900  1.0  0.0467
  C  C1832  1  0.824200  0.500000  0.373400  1.0  -0.0477
  C  C1833  1  0.930200  0.500000  0.446600  1.0  0.1504
  C  C1834  1  0.188900  0.000000  0.839900  1.0  0.0467
  C  C1835  1  0.324200  0.000000  0.873400  1.0  -0.0477
  C  C1836  1  0.430200  0.000000  0.946600  1.0  0.1504
  C  C1837  1  0.500000  0.311100  0.339900  1.0  0.0439
  C  C1838  1  0.500000  0.175800  0.373400  1.0  -0.0494
  C  C1839  1  0.500000  0.069800  0.446600  1.0  0.1496
  C  C1840  1  0.000000  0.811100  0.839900  1.0  0.0439
  C  C1841  1  0.000000  0.675800  0.873400  1.0  -0.0494
  C  C1842  1  0.000000  0.569800  0.946600  1.0  0.1496
  C  C1843  1  0.500000  0.688900  0.339900  1.0  0.0465
  C  C1844  1  0.500000  0.824200  0.373400  1.0  -0.0519
  C  C1845  1  0.500000  0.930200  0.446600  1.0  0.1496
  C  C1846  1  0.000000  0.188900  0.839900  1.0  0.0465
  C  C1847  1  0.000000  0.324200  0.873400  1.0  -0.0519
  C  C1848  1  0.000000  0.430200  0.946600  1.0  0.1496
  C  C1849  1  0.688900  0.500000  0.660100  1.0  0.0486
  C  C1850  1  0.824200  0.500000  0.626600  1.0  -0.0451
  C  C1851  1  0.930200  0.500000  0.553400  1.0  0.1508
  C  C1852  1  0.188900  0.000000  0.160100  1.0  0.0486
  C  C1853  1  0.324200  0.000000  0.126600  1.0  -0.0451
  C  C1854  1  0.430200  0.000000  0.053400  1.0  0.1508
  C  C1855  1  0.311100  0.500000  0.660100  1.0  0.0473
  C  C1856  1  0.175800  0.500000  0.626600  1.0  -0.0454
  C  C1857  1  0.069800  0.500000  0.553400  1.0  0.1496
  C  C1858  1  0.811100  0.000000  0.160100  1.0  0.0473
  C  C1859  1  0.675800  0.000000  0.126600  1.0  -0.0454
  C  C1860  1  0.569800  0.000000  0.053400  1.0  0.1496
  C  C1861  1  0.500000  0.311100  0.660100  1.0  0.0467
  C  C1862  1  0.500000  0.175800  0.626600  1.0  -0.049
  C  C1863  1  0.500000  0.069800  0.553400  1.0  0.1498
  C  C1864  1  0.000000  0.811100  0.160100  1.0  0.0467
  C  C1865  1  0.000000  0.675800  0.126600  1.0  -0.049
  C  C1866  1  0.000000  0.569800  0.053400  1.0  0.1498
  C  C1867  1  0.500000  0.688900  0.660100  1.0  0.0482
  C  C1868  1  0.500000  0.824200  0.626600  1.0  -0.0486
  C  C1869  1  0.500000  0.930200  0.553400  1.0  0.1492
  C  C1870  1  0.000000  0.188900  0.160100  1.0  0.0482
  C  C1871  1  0.000000  0.324200  0.126600  1.0  -0.0486
  C  C1872  1  0.000000  0.430200  0.053400  1.0  0.1492
  C  C1873  1  0.198200  0.301800  0.250000  1.0  0.1187
  C  C1874  1  0.801800  0.698200  0.250000  1.0  0.118
  C  C1875  1  0.698200  0.198200  0.250000  1.0  0.1205
  C  C1876  1  0.301800  0.801800  0.250000  1.0  0.1161
  C  C1877  1  0.801800  0.301800  0.750000  1.0  0.1161
  C  C1878  1  0.198200  0.698200  0.750000  1.0  0.1205
  C  C1879  1  0.301800  0.198200  0.750000  1.0  0.118
  C  C1880  1  0.698200  0.801800  0.750000  1.0  0.1187
  C  C1881  1  0.801800  0.698200  0.750000  1.0  0.118
  C  C1882  1  0.301800  0.198200  0.250000  1.0  0.118
  C  C1883  1  0.198200  0.301800  0.750000  1.0  0.1187
  C  C1884  1  0.301800  0.801800  0.750000  1.0  0.1161
  C  C1885  1  0.698200  0.198200  0.750000  1.0  0.1205
  C  C1886  1  0.198200  0.698200  0.250000  1.0  0.1205
  C  C1887  1  0.801800  0.301800  0.250000  1.0  0.1161
  C  C1888  1  0.698200  0.801800  0.250000  1.0  0.1187
  C  C1889  1  0.075700  0.427800  0.500000  1.0  0.0932
  C  C1890  1  0.575700  0.927800  0.000000  1.0  0.0932
  C  C1891  1  0.924300  0.572200  0.500000  1.0  0.098
  C  C1892  1  0.424300  0.072200  0.000000  1.0  0.098
  C  C1893  1  0.572200  0.075700  0.500000  1.0  0.09
  C  C1894  1  0.072200  0.575700  0.000000  1.0  0.09
  C  C1895  1  0.427800  0.924300  0.500000  1.0  0.0912
  C  C1896  1  0.927800  0.424300  0.000000  1.0  0.0912
  C  C1897  1  0.924300  0.427800  0.500000  1.0  0.098
  C  C1898  1  0.424300  0.927800  0.000000  1.0  0.098
  C  C1899  1  0.075700  0.572200  0.500000  1.0  0.0925
  C  C1900  1  0.575700  0.072200  0.000000  1.0  0.0925
  C  C1901  1  0.427800  0.075700  0.500000  1.0  0.0893
  C  C1902  1  0.927800  0.575700  0.000000  1.0  0.0893
  C  C1903  1  0.572200  0.924300  0.500000  1.0  0.091
  C  C1904  1  0.072200  0.424300  0.000000  1.0  0.091
  C  C1905  1  0.000000  0.414200  0.442700  1.0  0.2035
  C  C1906  1  0.500000  0.914200  0.942700  1.0  0.2035
  C  C1907  1  0.000000  0.585800  0.442700  1.0  0.2048
  C  C1908  1  0.500000  0.085800  0.942700  1.0  0.2048
  C  C1909  1  0.585800  0.000000  0.442700  1.0  0.2105
  C  C1910  1  0.085800  0.500000  0.942700  1.0  0.2105
  C  C1911  1  0.414200  0.000000  0.442700  1.0  0.2086
  C  C1912  1  0.914200  0.500000  0.942700  1.0  0.2086
  C  C1913  1  0.000000  0.414200  0.557300  1.0  0.2038
  C  C1914  1  0.500000  0.914200  0.057300  1.0  0.2038
  C  C1915  1  0.000000  0.585800  0.557300  1.0  0.2021
  C  C1916  1  0.500000  0.085800  0.057300  1.0  0.2021
  C  C1917  1  0.414200  0.000000  0.557300  1.0  0.2081
  C  C1918  1  0.914200  0.500000  0.057300  1.0  0.2081
  C  C1919  1  0.585800  0.000000  0.557300  1.0  0.209
  C  C1920  1  0.085800  0.500000  0.057300  1.0  0.209
  N  N1921  1  0.328900  0.472900  0.329700  1.0  -0.1577
  N  N1922  1  0.293100  0.401300  0.310800  1.0  -0.1985
  N  N1923  1  0.258600  0.361300  0.295300  1.0  -0.2955
  N  N1924  1  0.283600  0.425100  0.363800  1.0  -0.3801
  N  N1925  1  0.229200  0.427000  0.376600  1.0  -0.3026
  N  N1926  1  0.192100  0.323300  0.267600  1.0  -0.2863
  N  N1927  1  0.241600  0.282200  0.304900  1.0  -0.1962
  N  N1928  1  0.171100  0.387800  0.347100  1.0  -0.3585
  N  N1929  1  0.189400  0.344900  0.322300  1.0  -0.3504
  N  N1930  1  0.162100  0.468600  0.363500  1.0  -0.3666
  N  N1931  1  0.103100  0.405000  0.425900  1.0  -0.3623
  N  N1932  1  0.151200  0.407100  0.398700  1.0  -0.391
  N  N1933  1  0.359300  0.397000  0.345400  1.0  -0.2587
  N  N1934  1  0.065000  0.470700  0.435200  1.0  -0.3925
  N  N1935  1  0.030000  0.402000  0.448800  1.0  -0.361
  N  N1936  1  0.093500  0.425700  0.479800  1.0  -0.3752
  N  N1937  1  0.828900  0.972900  0.829700  1.0  -0.1577
  N  N1938  1  0.793100  0.901300  0.810800  1.0  -0.1985
  N  N1939  1  0.758600  0.861300  0.795300  1.0  -0.2955
  N  N1940  1  0.783600  0.925100  0.863800  1.0  -0.3801
  N  N1941  1  0.729200  0.927000  0.876600  1.0  -0.3026
  N  N1942  1  0.692100  0.823300  0.767600  1.0  -0.2863
  N  N1943  1  0.741600  0.782200  0.804900  1.0  -0.1962
  N  N1944  1  0.671100  0.887800  0.847100  1.0  -0.3585
  N  N1945  1  0.689400  0.844900  0.822300  1.0  -0.3504
  N  N1946  1  0.662100  0.968600  0.863500  1.0  -0.3666
  N  N1947  1  0.603100  0.905000  0.925900  1.0  -0.3623
  N  N1948  1  0.651200  0.907100  0.898700  1.0  -0.391
  N  N1949  1  0.859300  0.897000  0.845400  1.0  -0.2587
  N  N1950  1  0.565000  0.970700  0.935200  1.0  -0.3925
  N  N1951  1  0.530000  0.902000  0.948800  1.0  -0.361
  N  N1952  1  0.593500  0.925700  0.979800  1.0  -0.3752
  N  N1953  1  0.671100  0.527100  0.329700  1.0  -0.1568
  N  N1954  1  0.706900  0.598700  0.310800  1.0  -0.2004
  N  N1955  1  0.741400  0.638700  0.295300  1.0  -0.2976
  N  N1956  1  0.716400  0.574900  0.363800  1.0  -0.3816
  N  N1957  1  0.770800  0.573000  0.376600  1.0  -0.3017
  N  N1958  1  0.807900  0.676700  0.267600  1.0  -0.2858
  N  N1959  1  0.758400  0.717800  0.304900  1.0  -0.1959
  N  N1960  1  0.828900  0.612200  0.347100  1.0  -0.3573
  N  N1961  1  0.810600  0.655100  0.322300  1.0  -0.3511
  N  N1962  1  0.837900  0.531400  0.363500  1.0  -0.3664
  N  N1963  1  0.896900  0.595000  0.425900  1.0  -0.3608
  N  N1964  1  0.848800  0.592900  0.398700  1.0  -0.389
  N  N1965  1  0.640700  0.603000  0.345400  1.0  -0.2591
  N  N1966  1  0.935000  0.529300  0.435200  1.0  -0.3935
  N  N1967  1  0.970000  0.598000  0.448800  1.0  -0.3621
  N  N1968  1  0.906500  0.574300  0.479800  1.0  -0.3746
  N  N1969  1  0.171100  0.027100  0.829700  1.0  -0.1568
  N  N1970  1  0.206900  0.098700  0.810800  1.0  -0.2004
  N  N1971  1  0.241400  0.138700  0.795300  1.0  -0.2976
  N  N1972  1  0.216400  0.074900  0.863800  1.0  -0.3816
  N  N1973  1  0.270800  0.073000  0.876600  1.0  -0.3017
  N  N1974  1  0.307900  0.176700  0.767600  1.0  -0.2858
  N  N1975  1  0.258400  0.217800  0.804900  1.0  -0.1959
  N  N1976  1  0.328900  0.112200  0.847100  1.0  -0.3573
  N  N1977  1  0.310600  0.155100  0.822300  1.0  -0.3511
  N  N1978  1  0.337900  0.031400  0.863500  1.0  -0.3664
  N  N1979  1  0.396900  0.095000  0.925900  1.0  -0.3608
  N  N1980  1  0.348800  0.092900  0.898700  1.0  -0.389
  N  N1981  1  0.140700  0.103000  0.845400  1.0  -0.2591
  N  N1982  1  0.435000  0.029300  0.935200  1.0  -0.3935
  N  N1983  1  0.470000  0.098000  0.948800  1.0  -0.3621
  N  N1984  1  0.406500  0.074300  0.979800  1.0  -0.3746
  N  N1985  1  0.527100  0.328900  0.329700  1.0  -0.157
  N  N1986  1  0.598700  0.293100  0.310800  1.0  -0.1986
  N  N1987  1  0.638700  0.258600  0.295300  1.0  -0.296
  N  N1988  1  0.574900  0.283600  0.363800  1.0  -0.3825
  N  N1989  1  0.573000  0.229200  0.376600  1.0  -0.3038
  N  N1990  1  0.676700  0.192100  0.267600  1.0  -0.2869
  N  N1991  1  0.717800  0.241600  0.304900  1.0  -0.1972
  N  N1992  1  0.612200  0.171100  0.347100  1.0  -0.3576
  N  N1993  1  0.655100  0.189400  0.322300  1.0  -0.3525
  N  N1994  1  0.531400  0.162100  0.363500  1.0  -0.3661
  N  N1995  1  0.595000  0.103100  0.425900  1.0  -0.3612
  N  N1996  1  0.592900  0.151200  0.398700  1.0  -0.3894
  N  N1997  1  0.603000  0.359300  0.345400  1.0  -0.259
  N  N1998  1  0.529300  0.065000  0.435200  1.0  -0.392
  N  N1999  1  0.598000  0.030000  0.448800  1.0  -0.3636
  N  N2000  1  0.574300  0.093500  0.479800  1.0  -0.3748
  N  N2001  1  0.027100  0.828900  0.829700  1.0  -0.157
  N  N2002  1  0.098700  0.793100  0.810800  1.0  -0.1986
  N  N2003  1  0.138700  0.758600  0.795300  1.0  -0.296
  N  N2004  1  0.074900  0.783600  0.863800  1.0  -0.3825
  N  N2005  1  0.073000  0.729200  0.876600  1.0  -0.3038
  N  N2006  1  0.176700  0.692100  0.767600  1.0  -0.2869
  N  N2007  1  0.217800  0.741600  0.804900  1.0  -0.1972
  N  N2008  1  0.112200  0.671100  0.847100  1.0  -0.3576
  N  N2009  1  0.155100  0.689400  0.822300  1.0  -0.3525
  N  N2010  1  0.031400  0.662100  0.863500  1.0  -0.3661
  N  N2011  1  0.095000  0.603100  0.925900  1.0  -0.3612
  N  N2012  1  0.092900  0.651200  0.898700  1.0  -0.3894
  N  N2013  1  0.103000  0.859300  0.845400  1.0  -0.259
  N  N2014  1  0.029300  0.565000  0.935200  1.0  -0.392
  N  N2015  1  0.098000  0.530000  0.948800  1.0  -0.3636
  N  N2016  1  0.074300  0.593500  0.979800  1.0  -0.3748
  N  N2017  1  0.472900  0.671100  0.329700  1.0  -0.1574
  N  N2018  1  0.401300  0.706900  0.310800  1.0  -0.197
  N  N2019  1  0.361300  0.741400  0.295300  1.0  -0.2962
  N  N2020  1  0.425100  0.716400  0.363800  1.0  -0.3823
  N  N2021  1  0.427000  0.770800  0.376600  1.0  -0.3031
  N  N2022  1  0.323300  0.807900  0.267600  1.0  -0.2862
  N  N2023  1  0.282200  0.758400  0.304900  1.0  -0.197
  N  N2024  1  0.387800  0.828900  0.347100  1.0  -0.3579
  N  N2025  1  0.344900  0.810600  0.322300  1.0  -0.352
  N  N2026  1  0.468600  0.837900  0.363500  1.0  -0.3668
  N  N2027  1  0.405000  0.896900  0.425900  1.0  -0.3597
  N  N2028  1  0.407100  0.848800  0.398700  1.0  -0.3889
  N  N2029  1  0.397000  0.640700  0.345400  1.0  -0.2591
  N  N2030  1  0.470700  0.935000  0.435200  1.0  -0.391
  N  N2031  1  0.402000  0.970000  0.448800  1.0  -0.365
  N  N2032  1  0.425700  0.906500  0.479800  1.0  -0.3746
  N  N2033  1  0.972900  0.171100  0.829700  1.0  -0.1574
  N  N2034  1  0.901300  0.206900  0.810800  1.0  -0.197
  N  N2035  1  0.861300  0.241400  0.795300  1.0  -0.2962
  N  N2036  1  0.925100  0.216400  0.863800  1.0  -0.3823
  N  N2037  1  0.927000  0.270800  0.876600  1.0  -0.3031
  N  N2038  1  0.823300  0.307900  0.767600  1.0  -0.2862
  N  N2039  1  0.782200  0.258400  0.804900  1.0  -0.197
  N  N2040  1  0.887800  0.328900  0.847100  1.0  -0.3579
  N  N2041  1  0.844900  0.310600  0.822300  1.0  -0.352
  N  N2042  1  0.968600  0.337900  0.863500  1.0  -0.3668
  N  N2043  1  0.905000  0.396900  0.925900  1.0  -0.3597
  N  N2044  1  0.907100  0.348800  0.898700  1.0  -0.3889
  N  N2045  1  0.897000  0.140700  0.845400  1.0  -0.2591
  N  N2046  1  0.970700  0.435000  0.935200  1.0  -0.391
  N  N2047  1  0.902000  0.470000  0.948800  1.0  -0.365
  N  N2048  1  0.925700  0.406500  0.979800  1.0  -0.3746
  N  N2049  1  0.671100  0.472900  0.670300  1.0  -0.1567
  N  N2050  1  0.706900  0.401300  0.689200  1.0  -0.1986
  N  N2051  1  0.741400  0.361300  0.704700  1.0  -0.2954
  N  N2052  1  0.716400  0.425100  0.636200  1.0  -0.3816
  N  N2053  1  0.770800  0.427000  0.623400  1.0  -0.3032
  N  N2054  1  0.807900  0.323300  0.732400  1.0  -0.2875
  N  N2055  1  0.758400  0.282200  0.695100  1.0  -0.1964
  N  N2056  1  0.828900  0.387800  0.652900  1.0  -0.3578
  N  N2057  1  0.810600  0.344900  0.677700  1.0  -0.3523
  N  N2058  1  0.837900  0.468600  0.636500  1.0  -0.3668
  N  N2059  1  0.896900  0.405000  0.574100  1.0  -0.3612
  N  N2060  1  0.848800  0.407100  0.601300  1.0  -0.3908
  N  N2061  1  0.640700  0.397000  0.654600  1.0  -0.2585
  N  N2062  1  0.935000  0.470700  0.564800  1.0  -0.3928
  N  N2063  1  0.970000  0.402000  0.551200  1.0  -0.3624
  N  N2064  1  0.906500  0.425700  0.520200  1.0  -0.373
  N  N2065  1  0.171100  0.972900  0.170300  1.0  -0.1567
  N  N2066  1  0.206900  0.901300  0.189200  1.0  -0.1986
  N  N2067  1  0.241400  0.861300  0.204700  1.0  -0.2954
  N  N2068  1  0.216400  0.925100  0.136200  1.0  -0.3816
  N  N2069  1  0.270800  0.927000  0.123400  1.0  -0.3032
  N  N2070  1  0.307900  0.823300  0.232400  1.0  -0.2875
  N  N2071  1  0.258400  0.782200  0.195100  1.0  -0.1964
  N  N2072  1  0.328900  0.887800  0.152900  1.0  -0.3578
  N  N2073  1  0.310600  0.844900  0.177700  1.0  -0.3523
  N  N2074  1  0.337900  0.968600  0.136500  1.0  -0.3668
  N  N2075  1  0.396900  0.905000  0.074100  1.0  -0.3612
  N  N2076  1  0.348800  0.907100  0.101300  1.0  -0.3908
  N  N2077  1  0.140700  0.897000  0.154600  1.0  -0.2585
  N  N2078  1  0.435000  0.970700  0.064800  1.0  -0.3928
  N  N2079  1  0.470000  0.902000  0.051200  1.0  -0.3624
  N  N2080  1  0.406500  0.925700  0.020200  1.0  -0.373
  N  N2081  1  0.328900  0.527100  0.670300  1.0  -0.1581
  N  N2082  1  0.293100  0.598700  0.689200  1.0  -0.197
  N  N2083  1  0.258600  0.638700  0.704700  1.0  -0.2958
  N  N2084  1  0.283600  0.574900  0.636200  1.0  -0.3802
  N  N2085  1  0.229200  0.573000  0.623400  1.0  -0.3007
  N  N2086  1  0.192100  0.676700  0.732400  1.0  -0.287
  N  N2087  1  0.241600  0.717800  0.695100  1.0  -0.1961
  N  N2088  1  0.171100  0.612200  0.652900  1.0  -0.3565
  N  N2089  1  0.189400  0.655100  0.677700  1.0  -0.3505
  N  N2090  1  0.162100  0.531400  0.636500  1.0  -0.3658
  N  N2091  1  0.103100  0.595000  0.574100  1.0  -0.3632
  N  N2092  1  0.151200  0.592900  0.601300  1.0  -0.3897
  N  N2093  1  0.359300  0.603000  0.654600  1.0  -0.2591
  N  N2094  1  0.065000  0.529300  0.564800  1.0  -0.3932
  N  N2095  1  0.030000  0.598000  0.551200  1.0  -0.3602
  N  N2096  1  0.093500  0.574300  0.520200  1.0  -0.3741
  N  N2097  1  0.828900  0.027100  0.170300  1.0  -0.1581
  N  N2098  1  0.793100  0.098700  0.189200  1.0  -0.197
  N  N2099  1  0.758600  0.138700  0.204700  1.0  -0.2958
  N  N2100  1  0.783600  0.074900  0.136200  1.0  -0.3802
  N  N2101  1  0.729200  0.073000  0.123400  1.0  -0.3007
  N  N2102  1  0.692100  0.176700  0.232400  1.0  -0.287
  N  N2103  1  0.741600  0.217800  0.195100  1.0  -0.1961
  N  N2104  1  0.671100  0.112200  0.152900  1.0  -0.3565
  N  N2105  1  0.689400  0.155100  0.177700  1.0  -0.3505
  N  N2106  1  0.662100  0.031400  0.136500  1.0  -0.3658
  N  N2107  1  0.603100  0.095000  0.074100  1.0  -0.3632
  N  N2108  1  0.651200  0.092900  0.101300  1.0  -0.3897
  N  N2109  1  0.859300  0.103000  0.154600  1.0  -0.2591
  N  N2110  1  0.565000  0.029300  0.064800  1.0  -0.3932
  N  N2111  1  0.530000  0.098000  0.051200  1.0  -0.3602
  N  N2112  1  0.593500  0.074300  0.020200  1.0  -0.3741
  N  N2113  1  0.472900  0.328900  0.670300  1.0  -0.1576
  N  N2114  1  0.401300  0.293100  0.689200  1.0  -0.197
  N  N2115  1  0.361300  0.258600  0.704700  1.0  -0.2959
  N  N2116  1  0.425100  0.283600  0.636200  1.0  -0.3828
  N  N2117  1  0.427000  0.229200  0.623400  1.0  -0.3005
  N  N2118  1  0.323300  0.192100  0.732400  1.0  -0.2885
  N  N2119  1  0.282200  0.241600  0.695100  1.0  -0.197
  N  N2120  1  0.387800  0.171100  0.652900  1.0  -0.3575
  N  N2121  1  0.344900  0.189400  0.677700  1.0  -0.3529
  N  N2122  1  0.468600  0.162100  0.636500  1.0  -0.3673
  N  N2123  1  0.405000  0.103100  0.574100  1.0  -0.3598
  N  N2124  1  0.407100  0.151200  0.601300  1.0  -0.3912
  N  N2125  1  0.397000  0.359300  0.654600  1.0  -0.2576
  N  N2126  1  0.470700  0.065000  0.564800  1.0  -0.3906
  N  N2127  1  0.402000  0.030000  0.551200  1.0  -0.3644
  N  N2128  1  0.425700  0.093500  0.520200  1.0  -0.3731
  N  N2129  1  0.972900  0.828900  0.170300  1.0  -0.1576
  N  N2130  1  0.901300  0.793100  0.189200  1.0  -0.197
  N  N2131  1  0.861300  0.758600  0.204700  1.0  -0.2959
  N  N2132  1  0.925100  0.783600  0.136200  1.0  -0.3828
  N  N2133  1  0.927000  0.729200  0.123400  1.0  -0.3005
  N  N2134  1  0.823300  0.692100  0.232400  1.0  -0.2885
  N  N2135  1  0.782200  0.741600  0.195100  1.0  -0.197
  N  N2136  1  0.887800  0.671100  0.152900  1.0  -0.3575
  N  N2137  1  0.844900  0.689400  0.177700  1.0  -0.3529
  N  N2138  1  0.968600  0.662100  0.136500  1.0  -0.3673
  N  N2139  1  0.905000  0.603100  0.074100  1.0  -0.3598
  N  N2140  1  0.907100  0.651200  0.101300  1.0  -0.3912
  N  N2141  1  0.897000  0.859300  0.154600  1.0  -0.2576
  N  N2142  1  0.970700  0.565000  0.064800  1.0  -0.3906
  N  N2143  1  0.902000  0.530000  0.051200  1.0  -0.3644
  N  N2144  1  0.925700  0.593500  0.020200  1.0  -0.3731
  N  N2145  1  0.527100  0.671100  0.670300  1.0  -0.1571
  N  N2146  1  0.598700  0.706900  0.689200  1.0  -0.1957
  N  N2147  1  0.638700  0.741400  0.704700  1.0  -0.2966
  N  N2148  1  0.574900  0.716400  0.636200  1.0  -0.3824
  N  N2149  1  0.573000  0.770800  0.623400  1.0  -0.3028
  N  N2150  1  0.676700  0.807900  0.732400  1.0  -0.2868
  N  N2151  1  0.717800  0.758400  0.695100  1.0  -0.1973
  N  N2152  1  0.612200  0.828900  0.652900  1.0  -0.3569
  N  N2153  1  0.655100  0.810600  0.677700  1.0  -0.352
  N  N2154  1  0.531400  0.837900  0.636500  1.0  -0.3651
  N  N2155  1  0.595000  0.896900  0.574100  1.0  -0.3618
  N  N2156  1  0.592900  0.848800  0.601300  1.0  -0.3893
  N  N2157  1  0.603000  0.640700  0.654600  1.0  -0.2598
  N  N2158  1  0.529300  0.935000  0.564800  1.0  -0.3918
  N  N2159  1  0.598000  0.970000  0.551200  1.0  -0.3636
  N  N2160  1  0.574300  0.906500  0.520200  1.0  -0.3731
  N  N2161  1  0.027100  0.171100  0.170300  1.0  -0.1571
  N  N2162  1  0.098700  0.206900  0.189200  1.0  -0.1957
  N  N2163  1  0.138700  0.241400  0.204700  1.0  -0.2966
  N  N2164  1  0.074900  0.216400  0.136200  1.0  -0.3824
  N  N2165  1  0.073000  0.270800  0.123400  1.0  -0.3028
  N  N2166  1  0.176700  0.307900  0.232400  1.0  -0.2868
  N  N2167  1  0.217800  0.258400  0.195100  1.0  -0.1973
  N  N2168  1  0.112200  0.328900  0.152900  1.0  -0.3569
  N  N2169  1  0.155100  0.310600  0.177700  1.0  -0.352
  N  N2170  1  0.031400  0.337900  0.136500  1.0  -0.3651
  N  N2171  1  0.095000  0.396900  0.074100  1.0  -0.3618
  N  N2172  1  0.092900  0.348800  0.101300  1.0  -0.3893
  N  N2173  1  0.103000  0.140700  0.154600  1.0  -0.2598
  N  N2174  1  0.029300  0.435000  0.064800  1.0  -0.3918
  N  N2175  1  0.098000  0.470000  0.051200  1.0  -0.3636
  N  N2176  1  0.074300  0.406500  0.020200  1.0  -0.3731
  N  N2177  1  0.671100  0.527100  0.670300  1.0  -0.1571
  N  N2178  1  0.706900  0.598700  0.689200  1.0  -0.1984
  N  N2179  1  0.741400  0.638700  0.704700  1.0  -0.2972
  N  N2180  1  0.716400  0.574900  0.636200  1.0  -0.3817
  N  N2181  1  0.770800  0.573000  0.623400  1.0  -0.301
  N  N2182  1  0.807900  0.676700  0.732400  1.0  -0.2871
  N  N2183  1  0.758400  0.717800  0.695100  1.0  -0.1962
  N  N2184  1  0.828900  0.612200  0.652900  1.0  -0.3565
  N  N2185  1  0.810600  0.655100  0.677700  1.0  -0.3517
  N  N2186  1  0.837900  0.531400  0.636500  1.0  -0.3664
  N  N2187  1  0.896900  0.595000  0.574100  1.0  -0.3612
  N  N2188  1  0.848800  0.592900  0.601300  1.0  -0.3899
  N  N2189  1  0.640700  0.603000  0.654600  1.0  -0.2589
  N  N2190  1  0.935000  0.529300  0.564800  1.0  -0.3931
  N  N2191  1  0.970000  0.598000  0.551200  1.0  -0.3621
  N  N2192  1  0.906500  0.574300  0.520200  1.0  -0.3733
  N  N2193  1  0.171100  0.027100  0.170300  1.0  -0.1571
  N  N2194  1  0.206900  0.098700  0.189200  1.0  -0.1984
  N  N2195  1  0.241400  0.138700  0.204700  1.0  -0.2972
  N  N2196  1  0.216400  0.074900  0.136200  1.0  -0.3817
  N  N2197  1  0.270800  0.073000  0.123400  1.0  -0.301
  N  N2198  1  0.307900  0.176700  0.232400  1.0  -0.2871
  N  N2199  1  0.258400  0.217800  0.195100  1.0  -0.1962
  N  N2200  1  0.328900  0.112200  0.152900  1.0  -0.3565
  N  N2201  1  0.310600  0.155100  0.177700  1.0  -0.3517
  N  N2202  1  0.337900  0.031400  0.136500  1.0  -0.3664
  N  N2203  1  0.396900  0.095000  0.074100  1.0  -0.3612
  N  N2204  1  0.348800  0.092900  0.101300  1.0  -0.3899
  N  N2205  1  0.140700  0.103000  0.154600  1.0  -0.2589
  N  N2206  1  0.435000  0.029300  0.064800  1.0  -0.3931
  N  N2207  1  0.470000  0.098000  0.051200  1.0  -0.3621
  N  N2208  1  0.406500  0.074300  0.020200  1.0  -0.3733
  N  N2209  1  0.328900  0.472900  0.670300  1.0  -0.158
  N  N2210  1  0.293100  0.401300  0.689200  1.0  -0.1973
  N  N2211  1  0.258600  0.361300  0.704700  1.0  -0.2951
  N  N2212  1  0.283600  0.425100  0.636200  1.0  -0.3803
  N  N2213  1  0.229200  0.427000  0.623400  1.0  -0.3017
  N  N2214  1  0.192100  0.323300  0.732400  1.0  -0.287
  N  N2215  1  0.241600  0.282200  0.695100  1.0  -0.1965
  N  N2216  1  0.171100  0.387800  0.652900  1.0  -0.358
  N  N2217  1  0.189400  0.344900  0.677700  1.0  -0.3509
  N  N2218  1  0.162100  0.468600  0.636500  1.0  -0.3662
  N  N2219  1  0.103100  0.405000  0.574100  1.0  -0.363
  N  N2220  1  0.151200  0.407100  0.601300  1.0  -0.3912
  N  N2221  1  0.359300  0.397000  0.654600  1.0  -0.2582
  N  N2222  1  0.065000  0.470700  0.564800  1.0  -0.3929
  N  N2223  1  0.030000  0.402000  0.551200  1.0  -0.3604
  N  N2224  1  0.093500  0.425700  0.520200  1.0  -0.3736
  N  N2225  1  0.828900  0.972900  0.170300  1.0  -0.158
  N  N2226  1  0.793100  0.901300  0.189200  1.0  -0.1973
  N  N2227  1  0.758600  0.861300  0.204700  1.0  -0.2951
  N  N2228  1  0.783600  0.925100  0.136200  1.0  -0.3803
  N  N2229  1  0.729200  0.927000  0.123400  1.0  -0.3017
  N  N2230  1  0.692100  0.823300  0.232400  1.0  -0.287
  N  N2231  1  0.741600  0.782200  0.195100  1.0  -0.1965
  N  N2232  1  0.671100  0.887800  0.152900  1.0  -0.358
  N  N2233  1  0.689400  0.844900  0.177700  1.0  -0.3509
  N  N2234  1  0.662100  0.968600  0.136500  1.0  -0.3662
  N  N2235  1  0.603100  0.905000  0.074100  1.0  -0.363
  N  N2236  1  0.651200  0.907100  0.101300  1.0  -0.3912
  N  N2237  1  0.859300  0.897000  0.154600  1.0  -0.2582
  N  N2238  1  0.565000  0.970700  0.064800  1.0  -0.3929
  N  N2239  1  0.530000  0.902000  0.051200  1.0  -0.3604
  N  N2240  1  0.593500  0.925700  0.020200  1.0  -0.3736
  N  N2241  1  0.472900  0.671100  0.670300  1.0  -0.1574
  N  N2242  1  0.401300  0.706900  0.689200  1.0  -0.1955
  N  N2243  1  0.361300  0.741400  0.704700  1.0  -0.2961
  N  N2244  1  0.425100  0.716400  0.636200  1.0  -0.3823
  N  N2245  1  0.427000  0.770800  0.623400  1.0  -0.3022
  N  N2246  1  0.323300  0.807900  0.732400  1.0  -0.2873
  N  N2247  1  0.282200  0.758400  0.695100  1.0  -0.1972
  N  N2248  1  0.387800  0.828900  0.652900  1.0  -0.3573
  N  N2249  1  0.344900  0.810600  0.677700  1.0  -0.3529
  N  N2250  1  0.468600  0.837900  0.636500  1.0  -0.3672
  N  N2251  1  0.405000  0.896900  0.574100  1.0  -0.3604
  N  N2252  1  0.407100  0.848800  0.601300  1.0  -0.3897
  N  N2253  1  0.397000  0.640700  0.654600  1.0  -0.2592
  N  N2254  1  0.470700  0.935000  0.564800  1.0  -0.3908
  N  N2255  1  0.402000  0.970000  0.551200  1.0  -0.3648
  N  N2256  1  0.425700  0.906500  0.520200  1.0  -0.3731
  N  N2257  1  0.972900  0.171100  0.170300  1.0  -0.1574
  N  N2258  1  0.901300  0.206900  0.189200  1.0  -0.1955
  N  N2259  1  0.861300  0.241400  0.204700  1.0  -0.2961
  N  N2260  1  0.925100  0.216400  0.136200  1.0  -0.3823
  N  N2261  1  0.927000  0.270800  0.123400  1.0  -0.3022
  N  N2262  1  0.823300  0.307900  0.232400  1.0  -0.2873
  N  N2263  1  0.782200  0.258400  0.195100  1.0  -0.1972
  N  N2264  1  0.887800  0.328900  0.152900  1.0  -0.3573
  N  N2265  1  0.844900  0.310600  0.177700  1.0  -0.3529
  N  N2266  1  0.968600  0.337900  0.136500  1.0  -0.3672
  N  N2267  1  0.905000  0.396900  0.074100  1.0  -0.3604
  N  N2268  1  0.907100  0.348800  0.101300  1.0  -0.3897
  N  N2269  1  0.897000  0.140700  0.154600  1.0  -0.2592
  N  N2270  1  0.970700  0.435000  0.064800  1.0  -0.3908
  N  N2271  1  0.902000  0.470000  0.051200  1.0  -0.3648
  N  N2272  1  0.925700  0.406500  0.020200  1.0  -0.3731
  N  N2273  1  0.527100  0.328900  0.670300  1.0  -0.1571
  N  N2274  1  0.598700  0.293100  0.689200  1.0  -0.1968
  N  N2275  1  0.638700  0.258600  0.704700  1.0  -0.2958
  N  N2276  1  0.574900  0.283600  0.636200  1.0  -0.3825
  N  N2277  1  0.573000  0.229200  0.623400  1.0  -0.3029
  N  N2278  1  0.676700  0.192100  0.732400  1.0  -0.2884
  N  N2279  1  0.717800  0.241600  0.695100  1.0  -0.1973
  N  N2280  1  0.612200  0.171100  0.652900  1.0  -0.3567
  N  N2281  1  0.655100  0.189400  0.677700  1.0  -0.3525
  N  N2282  1  0.531400  0.162100  0.636500  1.0  -0.3657
  N  N2283  1  0.595000  0.103100  0.574100  1.0  -0.3617
  N  N2284  1  0.592900  0.151200  0.601300  1.0  -0.3902
  N  N2285  1  0.603000  0.359300  0.654600  1.0  -0.2585
  N  N2286  1  0.529300  0.065000  0.564800  1.0  -0.392
  N  N2287  1  0.598000  0.030000  0.551200  1.0  -0.3631
  N  N2288  1  0.574300  0.093500  0.520200  1.0  -0.3732
  N  N2289  1  0.027100  0.828900  0.170300  1.0  -0.1571
  N  N2290  1  0.098700  0.793100  0.189200  1.0  -0.1968
  N  N2291  1  0.138700  0.758600  0.204700  1.0  -0.2958
  N  N2292  1  0.074900  0.783600  0.136200  1.0  -0.3825
  N  N2293  1  0.073000  0.729200  0.123400  1.0  -0.3029
  N  N2294  1  0.176700  0.692100  0.232400  1.0  -0.2884
  N  N2295  1  0.217800  0.741600  0.195100  1.0  -0.1973
  N  N2296  1  0.112200  0.671100  0.152900  1.0  -0.3567
  N  N2297  1  0.155100  0.689400  0.177700  1.0  -0.3525
  N  N2298  1  0.031400  0.662100  0.136500  1.0  -0.3657
  N  N2299  1  0.095000  0.603100  0.074100  1.0  -0.3617
  N  N2300  1  0.092900  0.651200  0.101300  1.0  -0.3902
  N  N2301  1  0.103000  0.859300  0.154600  1.0  -0.2585
  N  N2302  1  0.029300  0.565000  0.064800  1.0  -0.392
  N  N2303  1  0.098000  0.530000  0.051200  1.0  -0.3631
  N  N2304  1  0.074300  0.593500  0.020200  1.0  -0.3732
  N  N2305  1  0.328900  0.527100  0.329700  1.0  -0.1578
  N  N2306  1  0.293100  0.598700  0.310800  1.0  -0.1982
  N  N2307  1  0.258600  0.638700  0.295300  1.0  -0.2964
  N  N2308  1  0.283600  0.574900  0.363800  1.0  -0.3802
  N  N2309  1  0.229200  0.573000  0.376600  1.0  -0.3014
  N  N2310  1  0.192100  0.676700  0.267600  1.0  -0.2863
  N  N2311  1  0.241600  0.717800  0.304900  1.0  -0.196
  N  N2312  1  0.171100  0.612200  0.347100  1.0  -0.3574
  N  N2313  1  0.189400  0.655100  0.322300  1.0  -0.3503
  N  N2314  1  0.162100  0.531400  0.363500  1.0  -0.366
  N  N2315  1  0.103100  0.595000  0.425900  1.0  -0.3624
  N  N2316  1  0.151200  0.592900  0.398700  1.0  -0.3888
  N  N2317  1  0.359300  0.603000  0.345400  1.0  -0.2595
  N  N2318  1  0.065000  0.529300  0.435200  1.0  -0.3935
  N  N2319  1  0.030000  0.598000  0.448800  1.0  -0.3607
  N  N2320  1  0.093500  0.574300  0.479800  1.0  -0.3755
  N  N2321  1  0.828900  0.027100  0.829700  1.0  -0.1578
  N  N2322  1  0.793100  0.098700  0.810800  1.0  -0.1982
  N  N2323  1  0.758600  0.138700  0.795300  1.0  -0.2964
  N  N2324  1  0.783600  0.074900  0.863800  1.0  -0.3802
  N  N2325  1  0.729200  0.073000  0.876600  1.0  -0.3014
  N  N2326  1  0.692100  0.176700  0.767600  1.0  -0.2863
  N  N2327  1  0.741600  0.217800  0.804900  1.0  -0.196
  N  N2328  1  0.671100  0.112200  0.847100  1.0  -0.3574
  N  N2329  1  0.689400  0.155100  0.822300  1.0  -0.3503
  N  N2330  1  0.662100  0.031400  0.863500  1.0  -0.366
  N  N2331  1  0.603100  0.095000  0.925900  1.0  -0.3624
  N  N2332  1  0.651200  0.092900  0.898700  1.0  -0.3888
  N  N2333  1  0.859300  0.103000  0.845400  1.0  -0.2595
  N  N2334  1  0.565000  0.029300  0.935200  1.0  -0.3935
  N  N2335  1  0.530000  0.098000  0.948800  1.0  -0.3607
  N  N2336  1  0.593500  0.074300  0.979800  1.0  -0.3755
  N  N2337  1  0.671100  0.472900  0.329700  1.0  -0.1565
  N  N2338  1  0.706900  0.401300  0.310800  1.0  -0.2008
  N  N2339  1  0.741400  0.361300  0.295300  1.0  -0.296
  N  N2340  1  0.716400  0.425100  0.363800  1.0  -0.3811
  N  N2341  1  0.770800  0.427000  0.376600  1.0  -0.304
  N  N2342  1  0.807900  0.323300  0.267600  1.0  -0.2864
  N  N2343  1  0.758400  0.282200  0.304900  1.0  -0.1961
  N  N2344  1  0.828900  0.387800  0.347100  1.0  -0.3583
  N  N2345  1  0.810600  0.344900  0.322300  1.0  -0.3514
  N  N2346  1  0.837900  0.468600  0.363500  1.0  -0.3666
  N  N2347  1  0.896900  0.405000  0.425900  1.0  -0.361
  N  N2348  1  0.848800  0.407100  0.398700  1.0  -0.3905
  N  N2349  1  0.640700  0.397000  0.345400  1.0  -0.2589
  N  N2350  1  0.935000  0.470700  0.435200  1.0  -0.3925
  N  N2351  1  0.970000  0.402000  0.448800  1.0  -0.3625
  N  N2352  1  0.906500  0.425700  0.479800  1.0  -0.3744
  N  N2353  1  0.171100  0.972900  0.829700  1.0  -0.1565
  N  N2354  1  0.206900  0.901300  0.810800  1.0  -0.2008
  N  N2355  1  0.241400  0.861300  0.795300  1.0  -0.296
  N  N2356  1  0.216400  0.925100  0.863800  1.0  -0.3811
  N  N2357  1  0.270800  0.927000  0.876600  1.0  -0.304
  N  N2358  1  0.307900  0.823300  0.767600  1.0  -0.2864
  N  N2359  1  0.258400  0.782200  0.804900  1.0  -0.1961
  N  N2360  1  0.328900  0.887800  0.847100  1.0  -0.3583
  N  N2361  1  0.310600  0.844900  0.822300  1.0  -0.3514
  N  N2362  1  0.337900  0.968600  0.863500  1.0  -0.3666
  N  N2363  1  0.396900  0.905000  0.925900  1.0  -0.361
  N  N2364  1  0.348800  0.907100  0.898700  1.0  -0.3905
  N  N2365  1  0.140700  0.897000  0.845400  1.0  -0.2589
  N  N2366  1  0.435000  0.970700  0.935200  1.0  -0.3925
  N  N2367  1  0.470000  0.902000  0.948800  1.0  -0.3625
  N  N2368  1  0.406500  0.925700  0.979800  1.0  -0.3744
  N  N2369  1  0.527100  0.671100  0.329700  1.0  -0.1572
  N  N2370  1  0.598700  0.706900  0.310800  1.0  -0.1974
  N  N2371  1  0.638700  0.741400  0.295300  1.0  -0.2965
  N  N2372  1  0.574900  0.716400  0.363800  1.0  -0.3823
  N  N2373  1  0.573000  0.770800  0.376600  1.0  -0.3039
  N  N2374  1  0.676700  0.807900  0.267600  1.0  -0.2861
  N  N2375  1  0.717800  0.758400  0.304900  1.0  -0.197
  N  N2376  1  0.612200  0.828900  0.347100  1.0  -0.3578
  N  N2377  1  0.655100  0.810600  0.322300  1.0  -0.3514
  N  N2378  1  0.531400  0.837900  0.363500  1.0  -0.3651
  N  N2379  1  0.595000  0.896900  0.425900  1.0  -0.3609
  N  N2380  1  0.592900  0.848800  0.398700  1.0  -0.3884
  N  N2381  1  0.603000  0.640700  0.345400  1.0  -0.2596
  N  N2382  1  0.529300  0.935000  0.435200  1.0  -0.3919
  N  N2383  1  0.598000  0.970000  0.448800  1.0  -0.3639
  N  N2384  1  0.574300  0.906500  0.479800  1.0  -0.3749
  N  N2385  1  0.027100  0.171100  0.829700  1.0  -0.1572
  N  N2386  1  0.098700  0.206900  0.810800  1.0  -0.1974
  N  N2387  1  0.138700  0.241400  0.795300  1.0  -0.2965
  N  N2388  1  0.074900  0.216400  0.863800  1.0  -0.3823
  N  N2389  1  0.073000  0.270800  0.876600  1.0  -0.3039
  N  N2390  1  0.176700  0.307900  0.767600  1.0  -0.2861
  N  N2391  1  0.217800  0.258400  0.804900  1.0  -0.197
  N  N2392  1  0.112200  0.328900  0.847100  1.0  -0.3578
  N  N2393  1  0.155100  0.310600  0.822300  1.0  -0.3514
  N  N2394  1  0.031400  0.337900  0.863500  1.0  -0.3651
  N  N2395  1  0.095000  0.396900  0.925900  1.0  -0.3609
  N  N2396  1  0.092900  0.348800  0.898700  1.0  -0.3884
  N  N2397  1  0.103000  0.140700  0.845400  1.0  -0.2596
  N  N2398  1  0.029300  0.435000  0.935200  1.0  -0.3919
  N  N2399  1  0.098000  0.470000  0.948800  1.0  -0.3639
  N  N2400  1  0.074300  0.406500  0.979800  1.0  -0.3749
  N  N2401  1  0.472900  0.328900  0.329700  1.0  -0.1572
  N  N2402  1  0.401300  0.293100  0.310800  1.0  -0.1983
  N  N2403  1  0.361300  0.258600  0.295300  1.0  -0.2963
  N  N2404  1  0.425100  0.283600  0.363800  1.0  -0.3831
  N  N2405  1  0.427000  0.229200  0.376600  1.0  -0.3014
  N  N2406  1  0.323300  0.192100  0.267600  1.0  -0.2868
  N  N2407  1  0.282200  0.241600  0.304900  1.0  -0.1969
  N  N2408  1  0.387800  0.171100  0.347100  1.0  -0.3582
  N  N2409  1  0.344900  0.189400  0.322300  1.0  -0.3528
  N  N2410  1  0.468600  0.162100  0.363500  1.0  -0.3672
  N  N2411  1  0.405000  0.103100  0.425900  1.0  -0.3594
  N  N2412  1  0.407100  0.151200  0.398700  1.0  -0.3907
  N  N2413  1  0.397000  0.359300  0.345400  1.0  -0.2582
  N  N2414  1  0.470700  0.065000  0.435200  1.0  -0.3908
  N  N2415  1  0.402000  0.030000  0.448800  1.0  -0.3649
  N  N2416  1  0.425700  0.093500  0.479800  1.0  -0.3746
  N  N2417  1  0.972900  0.828900  0.829700  1.0  -0.1572
  N  N2418  1  0.901300  0.793100  0.810800  1.0  -0.1983
  N  N2419  1  0.861300  0.758600  0.795300  1.0  -0.2963
  N  N2420  1  0.925100  0.783600  0.863800  1.0  -0.3831
  N  N2421  1  0.927000  0.729200  0.876600  1.0  -0.3014
  N  N2422  1  0.823300  0.692100  0.767600  1.0  -0.2868
  N  N2423  1  0.782200  0.741600  0.804900  1.0  -0.1969
  N  N2424  1  0.887800  0.671100  0.847100  1.0  -0.3582
  N  N2425  1  0.844900  0.689400  0.822300  1.0  -0.3528
  N  N2426  1  0.968600  0.662100  0.863500  1.0  -0.3672
  N  N2427  1  0.905000  0.603100  0.925900  1.0  -0.3594
  N  N2428  1  0.907100  0.651200  0.898700  1.0  -0.3907
  N  N2429  1  0.897000  0.859300  0.845400  1.0  -0.2582
  N  N2430  1  0.970700  0.565000  0.935200  1.0  -0.3908
  N  N2431  1  0.902000  0.530000  0.948800  1.0  -0.3649
  N  N2432  1  0.925700  0.593500  0.979800  1.0  -0.3746
  Cl  Cl2433  1  0.225000  0.438700  0.221400  1.0  -0.2952
  Cl  Cl2434  1  0.247400  0.347700  0.447500  1.0  -0.2803
  Cl  Cl2435  1  0.102800  0.422100  0.271900  1.0  -0.2641
  Cl  Cl2436  1  0.169700  0.227200  0.375200  1.0  -0.2308
  Cl  Cl2437  1  0.045200  0.341400  0.354500  1.0  -0.178
  Cl  Cl2438  1  0.068900  0.461800  0.300600  1.0  -0.2906
  Cl  Cl2439  1  0.136200  0.277800  0.452600  1.0  -0.2908
  Cl  Cl2440  1  0.412800  0.467300  0.418100  1.0  -0.2696
  Cl  Cl2441  1  0.031400  0.447000  0.351700  1.0  -0.3054
  Cl  Cl2442  1  0.232300  0.408900  0.478200  1.0  -0.2501
  Cl  Cl2443  1  0.725000  0.938700  0.721400  1.0  -0.2952
  Cl  Cl2444  1  0.747400  0.847700  0.947500  1.0  -0.2803
  Cl  Cl2445  1  0.602800  0.922100  0.771900  1.0  -0.2641
  Cl  Cl2446  1  0.669700  0.727200  0.875200  1.0  -0.2308
  Cl  Cl2447  1  0.545200  0.841400  0.854500  1.0  -0.178
  Cl  Cl2448  1  0.568900  0.961800  0.800600  1.0  -0.2906
  Cl  Cl2449  1  0.636200  0.777800  0.952600  1.0  -0.2908
  Cl  Cl2450  1  0.912800  0.967300  0.918100  1.0  -0.2696
  Cl  Cl2451  1  0.531400  0.947000  0.851700  1.0  -0.3054
  Cl  Cl2452  1  0.732300  0.908900  0.978200  1.0  -0.2501
  Cl  Cl2453  1  0.775000  0.561300  0.221400  1.0  -0.2965
  Cl  Cl2454  1  0.752600  0.652300  0.447500  1.0  -0.2784
  Cl  Cl2455  1  0.897200  0.577900  0.271900  1.0  -0.2666
  Cl  Cl2456  1  0.830300  0.772800  0.375200  1.0  -0.2315
  Cl  Cl2457  1  0.954800  0.658600  0.354500  1.0  -0.1797
  Cl  Cl2458  1  0.931100  0.538200  0.300600  1.0  -0.291
  Cl  Cl2459  1  0.863800  0.722200  0.452600  1.0  -0.2906
  Cl  Cl2460  1  0.587200  0.532700  0.418100  1.0  -0.2702
  Cl  Cl2461  1  0.968600  0.553000  0.351700  1.0  -0.3051
  Cl  Cl2462  1  0.767700  0.591100  0.478200  1.0  -0.249
  Cl  Cl2463  1  0.275000  0.061300  0.721400  1.0  -0.2965
  Cl  Cl2464  1  0.252600  0.152300  0.947500  1.0  -0.2784
  Cl  Cl2465  1  0.397200  0.077900  0.771900  1.0  -0.2666
  Cl  Cl2466  1  0.330300  0.272800  0.875200  1.0  -0.2315
  Cl  Cl2467  1  0.454800  0.158600  0.854500  1.0  -0.1797
  Cl  Cl2468  1  0.431100  0.038200  0.800600  1.0  -0.291
  Cl  Cl2469  1  0.363800  0.222200  0.952600  1.0  -0.2906
  Cl  Cl2470  1  0.087200  0.032700  0.918100  1.0  -0.2702
  Cl  Cl2471  1  0.468600  0.053000  0.851700  1.0  -0.3051
  Cl  Cl2472  1  0.267700  0.091100  0.978200  1.0  -0.249
  Cl  Cl2473  1  0.561300  0.225000  0.221400  1.0  -0.2976
  Cl  Cl2474  1  0.652300  0.247400  0.447500  1.0  -0.2828
  Cl  Cl2475  1  0.577900  0.102800  0.271900  1.0  -0.2656
  Cl  Cl2476  1  0.772800  0.169700  0.375200  1.0  -0.2307
  Cl  Cl2477  1  0.658600  0.045200  0.354500  1.0  -0.1786
  Cl  Cl2478  1  0.538200  0.068900  0.300600  1.0  -0.2891
  Cl  Cl2479  1  0.722200  0.136200  0.452600  1.0  -0.2898
  Cl  Cl2480  1  0.532700  0.412800  0.418100  1.0  -0.2714
  Cl  Cl2481  1  0.553000  0.031400  0.351700  1.0  -0.306
  Cl  Cl2482  1  0.591100  0.232300  0.478200  1.0  -0.2461
  Cl  Cl2483  1  0.061300  0.725000  0.721400  1.0  -0.2976
  Cl  Cl2484  1  0.152300  0.747400  0.947500  1.0  -0.2828
  Cl  Cl2485  1  0.077900  0.602800  0.771900  1.0  -0.2656
  Cl  Cl2486  1  0.272800  0.669700  0.875200  1.0  -0.2307
  Cl  Cl2487  1  0.158600  0.545200  0.854500  1.0  -0.1786
  Cl  Cl2488  1  0.038200  0.568900  0.800600  1.0  -0.2891
  Cl  Cl2489  1  0.222200  0.636200  0.952600  1.0  -0.2898
  Cl  Cl2490  1  0.032700  0.912800  0.918100  1.0  -0.2714
  Cl  Cl2491  1  0.053000  0.531400  0.851700  1.0  -0.306
  Cl  Cl2492  1  0.091100  0.732300  0.978200  1.0  -0.2461
  Cl  Cl2493  1  0.438700  0.775000  0.221400  1.0  -0.2959
  Cl  Cl2494  1  0.347700  0.752600  0.447500  1.0  -0.28
  Cl  Cl2495  1  0.422100  0.897200  0.271900  1.0  -0.2662
  Cl  Cl2496  1  0.227200  0.830300  0.375200  1.0  -0.2315
  Cl  Cl2497  1  0.341400  0.954800  0.354500  1.0  -0.1787
  Cl  Cl2498  1  0.461800  0.931100  0.300600  1.0  -0.2856
  Cl  Cl2499  1  0.277800  0.863800  0.452600  1.0  -0.2898
  Cl  Cl2500  1  0.467300  0.587200  0.418100  1.0  -0.2694
  Cl  Cl2501  1  0.447000  0.968600  0.351700  1.0  -0.306
  Cl  Cl2502  1  0.408900  0.767700  0.478200  1.0  -0.2488
  Cl  Cl2503  1  0.938700  0.275000  0.721400  1.0  -0.2959
  Cl  Cl2504  1  0.847700  0.252600  0.947500  1.0  -0.28
  Cl  Cl2505  1  0.922100  0.397200  0.771900  1.0  -0.2662
  Cl  Cl2506  1  0.727200  0.330300  0.875200  1.0  -0.2315
  Cl  Cl2507  1  0.841400  0.454800  0.854500  1.0  -0.1787
  Cl  Cl2508  1  0.961800  0.431100  0.800600  1.0  -0.2856
  Cl  Cl2509  1  0.777800  0.363800  0.952600  1.0  -0.2898
  Cl  Cl2510  1  0.967300  0.087200  0.918100  1.0  -0.2694
  Cl  Cl2511  1  0.947000  0.468600  0.851700  1.0  -0.306
  Cl  Cl2512  1  0.908900  0.267700  0.978200  1.0  -0.2488
  Cl  Cl2513  1  0.775000  0.438700  0.778600  1.0  -0.2979
  Cl  Cl2514  1  0.752600  0.347700  0.552500  1.0  -0.2811
  Cl  Cl2515  1  0.897200  0.422100  0.728100  1.0  -0.2642
  Cl  Cl2516  1  0.830300  0.227200  0.624800  1.0  -0.2287
  Cl  Cl2517  1  0.954800  0.341400  0.645500  1.0  -0.1779
  Cl  Cl2518  1  0.931100  0.461800  0.699400  1.0  -0.2945
  Cl  Cl2519  1  0.863800  0.277800  0.547400  1.0  -0.2914
  Cl  Cl2520  1  0.587200  0.467300  0.581900  1.0  -0.2695
  Cl  Cl2521  1  0.968600  0.447000  0.648300  1.0  -0.3082
  Cl  Cl2522  1  0.767700  0.408900  0.521800  1.0  -0.2486
  Cl  Cl2523  1  0.275000  0.938700  0.278600  1.0  -0.2979
  Cl  Cl2524  1  0.252600  0.847700  0.052500  1.0  -0.2811
  Cl  Cl2525  1  0.397200  0.922100  0.228100  1.0  -0.2642
  Cl  Cl2526  1  0.330300  0.727200  0.124800  1.0  -0.2287
  Cl  Cl2527  1  0.454800  0.841400  0.145500  1.0  -0.1779
  Cl  Cl2528  1  0.431100  0.961800  0.199400  1.0  -0.2945
  Cl  Cl2529  1  0.363800  0.777800  0.047400  1.0  -0.2914
  Cl  Cl2530  1  0.087200  0.967300  0.081900  1.0  -0.2695
  Cl  Cl2531  1  0.468600  0.947000  0.148300  1.0  -0.3082
  Cl  Cl2532  1  0.267700  0.908900  0.021800  1.0  -0.2486
  Cl  Cl2533  1  0.225000  0.561300  0.778600  1.0  -0.2959
  Cl  Cl2534  1  0.247400  0.652300  0.552500  1.0  -0.2774
  Cl  Cl2535  1  0.102800  0.577900  0.728100  1.0  -0.2649
  Cl  Cl2536  1  0.169700  0.772800  0.624800  1.0  -0.2291
  Cl  Cl2537  1  0.045200  0.658600  0.645500  1.0  -0.1772
  Cl  Cl2538  1  0.068900  0.538200  0.699400  1.0  -0.292
  Cl  Cl2539  1  0.136200  0.722200  0.547400  1.0  -0.2919
  Cl  Cl2540  1  0.412800  0.532700  0.581900  1.0  -0.2699
  Cl  Cl2541  1  0.031400  0.553000  0.648300  1.0  -0.307
  Cl  Cl2542  1  0.232300  0.591100  0.521800  1.0  -0.2518
  Cl  Cl2543  1  0.725000  0.061300  0.278600  1.0  -0.2959
  Cl  Cl2544  1  0.747400  0.152300  0.052500  1.0  -0.2774
  Cl  Cl2545  1  0.602800  0.077900  0.228100  1.0  -0.2649
  Cl  Cl2546  1  0.669700  0.272800  0.124800  1.0  -0.2291
  Cl  Cl2547  1  0.545200  0.158600  0.145500  1.0  -0.1772
  Cl  Cl2548  1  0.568900  0.038200  0.199400  1.0  -0.292
  Cl  Cl2549  1  0.636200  0.222200  0.047400  1.0  -0.2919
  Cl  Cl2550  1  0.912800  0.032700  0.081900  1.0  -0.2699
  Cl  Cl2551  1  0.531400  0.053000  0.148300  1.0  -0.307
  Cl  Cl2552  1  0.732300  0.091100  0.021800  1.0  -0.2518
  Cl  Cl2553  1  0.438700  0.225000  0.778600  1.0  -0.298
  Cl  Cl2554  1  0.347700  0.247400  0.552500  1.0  -0.2814
  Cl  Cl2555  1  0.422100  0.102800  0.728100  1.0  -0.2664
  Cl  Cl2556  1  0.227200  0.169700  0.624800  1.0  -0.2302
  Cl  Cl2557  1  0.341400  0.045200  0.645500  1.0  -0.1779
  Cl  Cl2558  1  0.461800  0.068900  0.699400  1.0  -0.2899
  Cl  Cl2559  1  0.277800  0.136200  0.547400  1.0  -0.2902
  Cl  Cl2560  1  0.467300  0.412800  0.581900  1.0  -0.2687
  Cl  Cl2561  1  0.447000  0.031400  0.648300  1.0  -0.3064
  Cl  Cl2562  1  0.408900  0.232300  0.521800  1.0  -0.2452
  Cl  Cl2563  1  0.938700  0.725000  0.278600  1.0  -0.298
  Cl  Cl2564  1  0.847700  0.747400  0.052500  1.0  -0.2814
  Cl  Cl2565  1  0.922100  0.602800  0.228100  1.0  -0.2664
  Cl  Cl2566  1  0.727200  0.669700  0.124800  1.0  -0.2302
  Cl  Cl2567  1  0.841400  0.545200  0.145500  1.0  -0.1779
  Cl  Cl2568  1  0.961800  0.568900  0.199400  1.0  -0.2899
  Cl  Cl2569  1  0.777800  0.636200  0.047400  1.0  -0.2902
  Cl  Cl2570  1  0.967300  0.912800  0.081900  1.0  -0.2687
  Cl  Cl2571  1  0.947000  0.531400  0.148300  1.0  -0.3064
  Cl  Cl2572  1  0.908900  0.732300  0.021800  1.0  -0.2452
  Cl  Cl2573  1  0.561300  0.775000  0.778600  1.0  -0.2964
  Cl  Cl2574  1  0.652300  0.752600  0.552500  1.0  -0.2799
  Cl  Cl2575  1  0.577900  0.897200  0.728100  1.0  -0.2637
  Cl  Cl2576  1  0.772800  0.830300  0.624800  1.0  -0.2302
  Cl  Cl2577  1  0.658600  0.954800  0.645500  1.0  -0.1789
  Cl  Cl2578  1  0.538200  0.931100  0.699400  1.0  -0.2873
  Cl  Cl2579  1  0.722200  0.863800  0.547400  1.0  -0.29
  Cl  Cl2580  1  0.532700  0.587200  0.581900  1.0  -0.2696
  Cl  Cl2581  1  0.553000  0.968600  0.648300  1.0  -0.3085
  Cl  Cl2582  1  0.591100  0.767700  0.521800  1.0  -0.2486
  Cl  Cl2583  1  0.061300  0.275000  0.278600  1.0  -0.2964
  Cl  Cl2584  1  0.152300  0.252600  0.052500  1.0  -0.2799
  Cl  Cl2585  1  0.077900  0.397200  0.228100  1.0  -0.2637
  Cl  Cl2586  1  0.272800  0.330300  0.124800  1.0  -0.2302
  Cl  Cl2587  1  0.158600  0.454800  0.145500  1.0  -0.1789
  Cl  Cl2588  1  0.038200  0.431100  0.199400  1.0  -0.2873
  Cl  Cl2589  1  0.222200  0.363800  0.047400  1.0  -0.29
  Cl  Cl2590  1  0.032700  0.087200  0.081900  1.0  -0.2696
  Cl  Cl2591  1  0.053000  0.468600  0.148300  1.0  -0.3085
  Cl  Cl2592  1  0.091100  0.267700  0.021800  1.0  -0.2486
  Cl  Cl2593  1  0.775000  0.561300  0.778600  1.0  -0.2968
  Cl  Cl2594  1  0.752600  0.652300  0.552500  1.0  -0.2784
  Cl  Cl2595  1  0.897200  0.577900  0.728100  1.0  -0.2656
  Cl  Cl2596  1  0.830300  0.772800  0.624800  1.0  -0.2292
  Cl  Cl2597  1  0.954800  0.658600  0.645500  1.0  -0.1802
  Cl  Cl2598  1  0.931100  0.538200  0.699400  1.0  -0.2922
  Cl  Cl2599  1  0.863800  0.722200  0.547400  1.0  -0.2919
  Cl  Cl2600  1  0.587200  0.532700  0.581900  1.0  -0.2695
  Cl  Cl2601  1  0.968600  0.553000  0.648300  1.0  -0.3066
  Cl  Cl2602  1  0.767700  0.591100  0.521800  1.0  -0.2502
  Cl  Cl2603  1  0.275000  0.061300  0.278600  1.0  -0.2968
  Cl  Cl2604  1  0.252600  0.152300  0.052500  1.0  -0.2784
  Cl  Cl2605  1  0.397200  0.077900  0.228100  1.0  -0.2656
  Cl  Cl2606  1  0.330300  0.272800  0.124800  1.0  -0.2292
  Cl  Cl2607  1  0.454800  0.158600  0.145500  1.0  -0.1802
  Cl  Cl2608  1  0.431100  0.038200  0.199400  1.0  -0.2922
  Cl  Cl2609  1  0.363800  0.222200  0.047400  1.0  -0.2919
  Cl  Cl2610  1  0.087200  0.032700  0.081900  1.0  -0.2695
  Cl  Cl2611  1  0.468600  0.053000  0.148300  1.0  -0.3066
  Cl  Cl2612  1  0.267700  0.091100  0.021800  1.0  -0.2502
  Cl  Cl2613  1  0.225000  0.438700  0.778600  1.0  -0.297
  Cl  Cl2614  1  0.247400  0.347700  0.552500  1.0  -0.2799
  Cl  Cl2615  1  0.102800  0.422100  0.728100  1.0  -0.2636
  Cl  Cl2616  1  0.169700  0.227200  0.624800  1.0  -0.2287
  Cl  Cl2617  1  0.045200  0.341400  0.645500  1.0  -0.1785
  Cl  Cl2618  1  0.068900  0.461800  0.699400  1.0  -0.2927
  Cl  Cl2619  1  0.136200  0.277800  0.547400  1.0  -0.2917
  Cl  Cl2620  1  0.412800  0.467300  0.581900  1.0  -0.2694
  Cl  Cl2621  1  0.031400  0.447000  0.648300  1.0  -0.3074
  Cl  Cl2622  1  0.232300  0.408900  0.521800  1.0  -0.252
  Cl  Cl2623  1  0.725000  0.938700  0.278600  1.0  -0.297
  Cl  Cl2624  1  0.747400  0.847700  0.052500  1.0  -0.2799
  Cl  Cl2625  1  0.602800  0.922100  0.228100  1.0  -0.2636
  Cl  Cl2626  1  0.669700  0.727200  0.124800  1.0  -0.2287
  Cl  Cl2627  1  0.545200  0.841400  0.145500  1.0  -0.1785
  Cl  Cl2628  1  0.568900  0.961800  0.199400  1.0  -0.2927
  Cl  Cl2629  1  0.636200  0.777800  0.047400  1.0  -0.2917
  Cl  Cl2630  1  0.912800  0.967300  0.081900  1.0  -0.2694
  Cl  Cl2631  1  0.531400  0.947000  0.148300  1.0  -0.3074
  Cl  Cl2632  1  0.732300  0.908900  0.021800  1.0  -0.252
  Cl  Cl2633  1  0.438700  0.775000  0.778600  1.0  -0.2964
  Cl  Cl2634  1  0.347700  0.752600  0.552500  1.0  -0.28
  Cl  Cl2635  1  0.422100  0.897200  0.728100  1.0  -0.2654
  Cl  Cl2636  1  0.227200  0.830300  0.624800  1.0  -0.2308
  Cl  Cl2637  1  0.341400  0.954800  0.645500  1.0  -0.1806
  Cl  Cl2638  1  0.461800  0.931100  0.699400  1.0  -0.2876
  Cl  Cl2639  1  0.277800  0.863800  0.547400  1.0  -0.2904
  Cl  Cl2640  1  0.467300  0.587200  0.581900  1.0  -0.2689
  Cl  Cl2641  1  0.447000  0.968600  0.648300  1.0  -0.3074
  Cl  Cl2642  1  0.408900  0.767700  0.521800  1.0  -0.2493
  Cl  Cl2643  1  0.938700  0.275000  0.278600  1.0  -0.2964
  Cl  Cl2644  1  0.847700  0.252600  0.052500  1.0  -0.28
  Cl  Cl2645  1  0.922100  0.397200  0.228100  1.0  -0.2654
  Cl  Cl2646  1  0.727200  0.330300  0.124800  1.0  -0.2308
  Cl  Cl2647  1  0.841400  0.454800  0.145500  1.0  -0.1806
  Cl  Cl2648  1  0.961800  0.431100  0.199400  1.0  -0.2876
  Cl  Cl2649  1  0.777800  0.363800  0.047400  1.0  -0.2904
  Cl  Cl2650  1  0.967300  0.087200  0.081900  1.0  -0.2689
  Cl  Cl2651  1  0.947000  0.468600  0.148300  1.0  -0.3074
  Cl  Cl2652  1  0.908900  0.267700  0.021800  1.0  -0.2493
  Cl  Cl2653  1  0.561300  0.225000  0.778600  1.0  -0.2981
  Cl  Cl2654  1  0.652300  0.247400  0.552500  1.0  -0.2824
  Cl  Cl2655  1  0.577900  0.102800  0.728100  1.0  -0.265
  Cl  Cl2656  1  0.772800  0.169700  0.624800  1.0  -0.2296
  Cl  Cl2657  1  0.658600  0.045200  0.645500  1.0  -0.1796
  Cl  Cl2658  1  0.538200  0.068900  0.699400  1.0  -0.2904
  Cl  Cl2659  1  0.722200  0.136200  0.547400  1.0  -0.2899
  Cl  Cl2660  1  0.532700  0.412800  0.581900  1.0  -0.2701
  Cl  Cl2661  1  0.553000  0.031400  0.648300  1.0  -0.3087
  Cl  Cl2662  1  0.591100  0.232300  0.521800  1.0  -0.2464
  Cl  Cl2663  1  0.061300  0.725000  0.278600  1.0  -0.2981
  Cl  Cl2664  1  0.152300  0.747400  0.052500  1.0  -0.2824
  Cl  Cl2665  1  0.077900  0.602800  0.228100  1.0  -0.265
  Cl  Cl2666  1  0.272800  0.669700  0.124800  1.0  -0.2296
  Cl  Cl2667  1  0.158600  0.545200  0.145500  1.0  -0.1796
  Cl  Cl2668  1  0.038200  0.568900  0.199400  1.0  -0.2904
  Cl  Cl2669  1  0.222200  0.636200  0.047400  1.0  -0.2899
  Cl  Cl2670  1  0.032700  0.912800  0.081900  1.0  -0.2701
  Cl  Cl2671  1  0.053000  0.531400  0.148300  1.0  -0.3087
  Cl  Cl2672  1  0.091100  0.732300  0.021800  1.0  -0.2464
  Cl  Cl2673  1  0.225000  0.561300  0.221400  1.0  -0.2951
  Cl  Cl2674  1  0.247400  0.652300  0.447500  1.0  -0.2772
  Cl  Cl2675  1  0.102800  0.577900  0.271900  1.0  -0.2656
  Cl  Cl2676  1  0.169700  0.772800  0.375200  1.0  -0.2313
  Cl  Cl2677  1  0.045200  0.658600  0.354500  1.0  -0.1804
  Cl  Cl2678  1  0.068900  0.538200  0.300600  1.0  -0.2897
  Cl  Cl2679  1  0.136200  0.722200  0.452600  1.0  -0.2906
  Cl  Cl2680  1  0.412800  0.532700  0.418100  1.0  -0.2703
  Cl  Cl2681  1  0.031400  0.553000  0.351700  1.0  -0.306
  Cl  Cl2682  1  0.232300  0.591100  0.478200  1.0  -0.252
  Cl  Cl2683  1  0.725000  0.061300  0.721400  1.0  -0.2951
  Cl  Cl2684  1  0.747400  0.152300  0.947500  1.0  -0.2772
  Cl  Cl2685  1  0.602800  0.077900  0.771900  1.0  -0.2656
  Cl  Cl2686  1  0.669700  0.272800  0.875200  1.0  -0.2313
  Cl  Cl2687  1  0.545200  0.158600  0.854500  1.0  -0.1804
  Cl  Cl2688  1  0.568900  0.038200  0.800600  1.0  -0.2897
  Cl  Cl2689  1  0.636200  0.222200  0.952600  1.0  -0.2906
  Cl  Cl2690  1  0.912800  0.032700  0.918100  1.0  -0.2703
  Cl  Cl2691  1  0.531400  0.053000  0.851700  1.0  -0.306
  Cl  Cl2692  1  0.732300  0.091100  0.978200  1.0  -0.252
  Cl  Cl2693  1  0.775000  0.438700  0.221400  1.0  -0.2965
  Cl  Cl2694  1  0.752600  0.347700  0.447500  1.0  -0.2818
  Cl  Cl2695  1  0.897200  0.422100  0.271900  1.0  -0.2648
  Cl  Cl2696  1  0.830300  0.227200  0.375200  1.0  -0.2311
  Cl  Cl2697  1  0.954800  0.341400  0.354500  1.0  -0.181
  Cl  Cl2698  1  0.931100  0.461800  0.300600  1.0  -0.2932
  Cl  Cl2699  1  0.863800  0.277800  0.452600  1.0  -0.2906
  Cl  Cl2700  1  0.587200  0.467300  0.418100  1.0  -0.2691
  Cl  Cl2701  1  0.968600  0.447000  0.351700  1.0  -0.3065
  Cl  Cl2702  1  0.767700  0.408900  0.478200  1.0  -0.249
  Cl  Cl2703  1  0.275000  0.938700  0.721400  1.0  -0.2965
  Cl  Cl2704  1  0.252600  0.847700  0.947500  1.0  -0.2818
  Cl  Cl2705  1  0.397200  0.922100  0.771900  1.0  -0.2648
  Cl  Cl2706  1  0.330300  0.727200  0.875200  1.0  -0.2311
  Cl  Cl2707  1  0.454800  0.841400  0.854500  1.0  -0.181
  Cl  Cl2708  1  0.431100  0.961800  0.800600  1.0  -0.2932
  Cl  Cl2709  1  0.363800  0.777800  0.952600  1.0  -0.2906
  Cl  Cl2710  1  0.087200  0.967300  0.918100  1.0  -0.2691
  Cl  Cl2711  1  0.468600  0.947000  0.851700  1.0  -0.3065
  Cl  Cl2712  1  0.267700  0.908900  0.978200  1.0  -0.249
  Cl  Cl2713  1  0.561300  0.775000  0.221400  1.0  -0.2958
  Cl  Cl2714  1  0.652300  0.752600  0.447500  1.0  -0.2803
  Cl  Cl2715  1  0.577900  0.897200  0.271900  1.0  -0.2644
  Cl  Cl2716  1  0.772800  0.830300  0.375200  1.0  -0.231
  Cl  Cl2717  1  0.658600  0.954800  0.354500  1.0  -0.1804
  Cl  Cl2718  1  0.538200  0.931100  0.300600  1.0  -0.2863
  Cl  Cl2719  1  0.722200  0.863800  0.452600  1.0  -0.2899
  Cl  Cl2720  1  0.532700  0.587200  0.418100  1.0  -0.2719
  Cl  Cl2721  1  0.553000  0.968600  0.351700  1.0  -0.3061
  Cl  Cl2722  1  0.591100  0.767700  0.478200  1.0  -0.2499
  Cl  Cl2723  1  0.061300  0.275000  0.721400  1.0  -0.2958
  Cl  Cl2724  1  0.152300  0.252600  0.947500  1.0  -0.2803
  Cl  Cl2725  1  0.077900  0.397200  0.771900  1.0  -0.2644
  Cl  Cl2726  1  0.272800  0.330300  0.875200  1.0  -0.231
  Cl  Cl2727  1  0.158600  0.454800  0.854500  1.0  -0.1804
  Cl  Cl2728  1  0.038200  0.431100  0.800600  1.0  -0.2863
  Cl  Cl2729  1  0.222200  0.363800  0.952600  1.0  -0.2899
  Cl  Cl2730  1  0.032700  0.087200  0.918100  1.0  -0.2719
  Cl  Cl2731  1  0.053000  0.468600  0.851700  1.0  -0.3061
  Cl  Cl2732  1  0.091100  0.267700  0.978200  1.0  -0.2499
  Cl  Cl2733  1  0.438700  0.225000  0.221400  1.0  -0.2973
  Cl  Cl2734  1  0.347700  0.247400  0.447500  1.0  -0.2815
  Cl  Cl2735  1  0.422100  0.102800  0.271900  1.0  -0.2671
  Cl  Cl2736  1  0.227200  0.169700  0.375200  1.0  -0.231
  Cl  Cl2737  1  0.341400  0.045200  0.354500  1.0  -0.1802
  Cl  Cl2738  1  0.461800  0.068900  0.300600  1.0  -0.2878
  Cl  Cl2739  1  0.277800  0.136200  0.452600  1.0  -0.2896
  Cl  Cl2740  1  0.467300  0.412800  0.418100  1.0  -0.2699
  Cl  Cl2741  1  0.447000  0.031400  0.351700  1.0  -0.305
  Cl  Cl2742  1  0.408900  0.232300  0.478200  1.0  -0.2465
  Cl  Cl2743  1  0.938700  0.725000  0.721400  1.0  -0.2973
  Cl  Cl2744  1  0.847700  0.747400  0.947500  1.0  -0.2815
  Cl  Cl2745  1  0.922100  0.602800  0.771900  1.0  -0.2671
  Cl  Cl2746  1  0.727200  0.669700  0.875200  1.0  -0.231
  Cl  Cl2747  1  0.841400  0.545200  0.854500  1.0  -0.1802
  Cl  Cl2748  1  0.961800  0.568900  0.800600  1.0  -0.2878
  Cl  Cl2749  1  0.777800  0.636200  0.952600  1.0  -0.2896
  Cl  Cl2750  1  0.967300  0.912800  0.918100  1.0  -0.2699
  Cl  Cl2751  1  0.947000  0.531400  0.851700  1.0  -0.305
  Cl  Cl2752  1  0.908900  0.732300  0.978200  1.0  -0.2465
