# generated using pymatgen
data_Dy26Cu3H120C171N24ClO137
_symmetry_space_group_name_H-M   'P 1'
_cell_length_a   24.42400000
_cell_length_b   24.45300000
_cell_length_c   24.45300000
_cell_angle_alpha   94.02520000
_cell_angle_beta   92.91980000
_cell_angle_gamma   87.08020000
_symmetry_Int_Tables_number   1
_chemical_formula_structural   Dy26Cu3H120C171N24ClO137
_chemical_formula_sum   'Dy52 Cu6 H240 C342 N48 Cl2 O274'
_cell_volume   14532.92292107
_cell_formula_units_Z   2
loop_
 _symmetry_equiv_pos_site_id
 _symmetry_equiv_pos_as_xyz
  1  'x, y, z'
loop_
 _atom_site_type_symbol
 _atom_site_label
 _atom_site_symmetry_multiplicity
 _atom_site_fract_x
 _atom_site_fract_y
 _atom_site_fract_z
 _atom_site_occupancy
 _atom_site_charge
  Dy  Dy1  1  0.035020  0.223370  0.181810  1.0  2.246
  Dy  Dy2  1  0.892520  0.452830  0.871710  1.0  2.2618
  Dy  Dy3  1  0.670250  0.931420  0.651580  1.0  2.2799
  Dy  Dy4  1  0.376730  0.836130  0.764430  1.0  2.2823
  Dy  Dy5  1  0.392520  0.128290  0.547170  1.0  2.2626
  Dy  Dy6  1  0.255320  0.015150  0.674810  1.0  2.2747
  Dy  Dy7  1  0.260980  0.855660  0.659480  1.0  2.2968
  Dy  Dy8  1  0.203380  0.972800  0.387340  1.0  2.2506
  Dy  Dy9  1  0.084830  0.520800  0.217980  1.0  2.2848
  Dy  Dy10  1  0.349270  0.715020  0.485680  1.0  2.2991
  Dy  Dy11  1  0.632240  0.067960  0.395980  1.0  2.3007
  Dy  Dy12  1  0.560140  0.044510  0.695690  1.0  2.2587
  Dy  Dy13  1  0.703380  0.612660  0.027200  1.0  2.2535
  Dy  Dy14  1  0.249070  0.936930  0.528630  1.0  2.234
  Dy  Dy15  1  0.841170  0.556780  0.985080  1.0  2.2682
  Dy  Dy16  1  0.466490  0.965220  0.779660  1.0  2.2977
  Dy  Dy17  1  0.823550  0.587230  0.135050  1.0  2.2773
  Dy  Dy18  1  0.631280  0.648120  0.526520  1.0  2.3008
  Dy  Dy19  1  0.360050  0.731360  0.643960  1.0  2.2631
  Dy  Dy20  1  0.980290  0.636760  0.170860  1.0  2.2657
  Dy  Dy21  1  0.260150  0.740240  0.755620  1.0  2.2722
  Dy  Dy22  1  0.491780  0.702940  0.564300  1.0  2.2483
  Dy  Dy23  1  0.170250  0.348420  0.068580  1.0  2.2799
  Dy  Dy24  1  0.966490  0.220340  0.034780  1.0  2.2971
  Dy  Dy25  1  0.090230  0.571360  0.071780  1.0  2.2603
  Dy  Dy26  1  0.992640  0.556150  0.946510  1.0  2.2893
  Dy  Dy27  1  0.480290  0.829140  0.363240  1.0  2.2649
  Dy  Dy28  1  0.849270  0.514320  0.284980  1.0  2.2957
  Dy  Dy29  1  0.860050  0.356040  0.268640  1.0  2.2626
  Dy  Dy30  1  0.911320  0.298180  0.917240  1.0  2.2592
  Dy  Dy31  1  0.323550  0.864950  0.412770  1.0  2.2768
  Dy  Dy32  1  0.755320  0.325190  0.984850  1.0  2.2728
  Dy  Dy33  1  0.760980  0.340520  0.144340  1.0  2.2951
  Dy  Dy34  1  0.509560  0.104940  0.830540  1.0  2.2458
  Dy  Dy35  1  0.876730  0.235570  0.163870  1.0  2.2758
  Dy  Dy36  1  0.749070  0.471370  0.063070  1.0  2.2318
  Dy  Dy37  1  0.492640  0.053490  0.443850  1.0  2.2896
  Dy  Dy38  1  0.009560  0.169460  0.895060  1.0  2.2381
  Dy  Dy39  1  0.110710  0.369570  0.224690  1.0  2.3013
  Dy  Dy40  1  0.610710  0.775310  0.630430  1.0  2.3013
  Dy  Dy41  1  0.114370  0.454310  0.966230  1.0  2.2715
  Dy  Dy42  1  0.411320  0.082760  0.701820  1.0  2.26
  Dy  Dy43  1  0.341170  0.014920  0.443220  1.0  2.2675
  Dy  Dy44  1  0.131280  0.473480  0.351880  1.0  2.3067
  Dy  Dy45  1  0.060140  0.304310  0.955490  1.0  2.2574
  Dy  Dy46  1  0.760150  0.244380  0.259760  1.0  2.2739
  Dy  Dy47  1  0.132240  0.604020  0.932040  1.0  2.3001
  Dy  Dy48  1  0.991780  0.435700  0.297060  1.0  2.2482
  Dy  Dy49  1  0.584830  0.782020  0.479200  1.0  2.2851
  Dy  Dy50  1  0.590230  0.928220  0.428640  1.0  2.2599
  Dy  Dy51  1  0.614370  0.033770  0.545690  1.0  2.2698
  Dy  Dy52  1  0.535020  0.818190  0.776630  1.0  2.247
  Cu  Cu53  1  0.943290  0.136290  0.461830  1.0  0.4074
  Cu  Cu54  1  0.864080  0.416960  0.575700  1.0  0.4508
  Cu  Cu55  1  0.364080  0.424300  0.583040  1.0  0.4494
  Cu  Cu56  1  0.546350  0.433530  0.347370  1.0  0.39
  Cu  Cu57  1  0.443290  0.538170  0.863710  1.0  0.409
  Cu  Cu58  1  0.046350  0.652630  0.566470  1.0  0.3896
  H  H59  1  0.087300  0.003100  0.587900  1.0  0.0558
  H  H60  1  0.825100  0.067000  0.816400  1.0  0.1206
  H  H61  1  0.014000  0.023500  0.049700  1.0  0.1584
  H  H62  1  0.018100  0.697700  0.810100  1.0  0.1455
  H  H63  1  0.081700  0.464000  0.523200  1.0  0.1131
  H  H64  1  0.348000  0.547800  0.622400  1.0  0.0401
  H  H65  1  0.493600  0.500900  0.270700  1.0  0.0605
  H  H66  1  0.056700  0.446300  0.611900  1.0  0.1059
  H  H67  1  0.027700  0.214200  0.525400  1.0  0.0401
  H  H68  1  0.231500  0.565100  0.731700  1.0  0.1103
  H  H69  1  0.299000  0.918400  0.136200  1.0  0.1084
  H  H70  1  0.436500  0.501300  0.032900  1.0  0.0824
  H  H71  1  0.514000  0.950300  0.976500  1.0  0.1574
  H  H72  1  0.562100  0.634000  0.327800  1.0  0.1041
  H  H73  1  0.221300  0.101700  0.261300  1.0  0.1213
  H  H74  1  0.212400  0.656600  0.419400  1.0  0.0786
  H  H75  1  0.063100  0.811500  0.103100  1.0  0.1623
  H  H76  1  0.987000  0.650100  0.777500  1.0  0.1513
  H  H77  1  0.108500  0.541400  0.575600  1.0  0.0689
  H  H78  1  0.862300  0.564500  0.440100  1.0  0.1213
  H  H79  1  0.130700  0.450100  0.782500  1.0  0.083
  H  H80  1  0.058400  0.538900  0.733700  1.0  0.0816
  H  H81  1  0.459600  0.173000  0.316600  1.0  0.1481
  H  H82  1  0.951600  0.041500  0.042500  1.0  0.1354
  H  H83  1  0.053300  0.068200  0.452400  1.0  0.0905
  H  H84  1  0.239400  0.230100  0.941100  1.0  0.0985
  H  H85  1  0.828500  0.125000  0.896800  1.0  0.0862
  H  H86  1  0.656600  0.541600  0.844400  1.0  0.0467
  H  H87  1  0.966800  0.444600  0.627600  1.0  0.0722
  H  H88  1  0.774300  0.288300  0.778900  1.0  0.1436
  H  H89  1  0.362300  0.559900  0.435500  1.0  0.1215
  H  H90  1  0.726500  0.195400  0.535400  1.0  0.1102
  H  H91  1  0.959600  0.683400  0.827000  1.0  0.1481
  H  H92  1  0.798400  0.945100  0.017700  1.0  0.1157
  H  H93  1  0.731500  0.268300  0.434900  1.0  0.1096
  H  H94  1  0.868800  0.913000  0.122000  1.0  0.0936
  H  H95  1  0.891500  0.050900  0.189900  1.0  0.1033
  H  H96  1  0.164600  0.286500  0.380500  1.0  0.0929
  H  H97  1  0.391500  0.810100  0.949100  1.0  0.102
  H  H98  1  0.769700  0.708100  0.616500  1.0  0.1234
  H  H99  1  0.255400  0.541600  0.519000  1.0  0.098
  H  H100  1  0.485100  0.676500  0.009100  1.0  0.0763
  H  H101  1  0.936100  0.606300  0.584100  1.0  0.1018
  H  H102  1  0.455200  0.426100  0.898500  1.0  0.0911
  H  H103  1  0.304900  0.881700  0.917900  1.0  0.0951
  H  H104  1  0.445200  0.602400  0.973600  1.0  0.1056
  H  H105  1  0.919500  0.312200  0.580600  1.0  0.0789
  H  H106  1  0.324700  0.701200  0.268600  1.0  0.1799
  H  H107  1  0.933600  0.785800  0.194400  1.0  0.1079
  H  H108  1  0.274300  0.221100  0.711700  1.0  0.1431
  H  H109  1  0.422600  0.598100  0.759900  1.0  0.1148
  H  H110  1  0.570700  0.482000  0.710000  1.0  0.1184
  H  H111  1  0.213700  0.472300  0.705300  1.0  0.1104
  H  H112  1  0.981700  0.010000  0.993600  1.0  0.1358
  H  H113  1  0.344800  0.390700  0.054100  1.0  0.0982
  H  H114  1  0.466800  0.372400  0.555400  1.0  0.0704
  H  H115  1  0.792100  0.444200  0.762600  1.0  0.1231
  H  H116  1  0.096900  0.376400  0.641600  1.0  0.1711
  H  H117  1  0.165600  0.682300  0.542900  1.0  0.0963
  H  H118  1  0.739400  0.058900  0.769900  1.0  0.099
  H  H119  1  0.308200  0.919400  0.234400  1.0  0.1117
  H  H120  1  0.226500  0.464600  0.804600  1.0  0.1085
  H  H121  1  0.177500  0.738000  0.110200  1.0  0.1582
  H  H122  1  0.487000  0.222500  0.349900  1.0  0.1502
  H  H123  1  0.769700  0.495800  0.555600  1.0  0.1107
  H  H124  1  0.690700  0.538300  0.758700  1.0  0.117
  H  H125  1  0.346100  0.285600  0.426800  1.0  0.0795
  H  H126  1  0.393200  0.333333  0.500100  1.0  0.1098
  H  H127  1  0.936500  0.967100  0.498700  1.0  0.0801
  H  H128  1  0.811600  0.234300  0.781700  1.0  0.1412
  H  H129  1  0.748500  0.232900  0.790300  1.0  0.1486
  H  H130  1  0.368800  0.878000  0.087000  1.0  0.094
  H  H131  1  0.417400  0.281900  0.905500  1.0  0.1614
  H  H132  1  0.527700  0.474600  0.785800  1.0  0.0388
  H  H133  1  0.001000  0.809700  0.083700  1.0  0.1596
  H  H134  1  0.435300  0.047800  0.250000  1.0  0.1495
  H  H135  1  0.283200  0.525300  0.977100  1.0  0.1157
  H  H136  1  0.912800  0.813900  0.433300  1.0  0.0705
  H  H137  1  0.631600  0.230300  0.411700  1.0  0.1274
  H  H138  1  0.433600  0.805600  0.214200  1.0  0.1079
  H  H139  1  0.954700  0.240100  0.639100  1.0  0.1158
  H  H140  1  0.156600  0.155600  0.458400  1.0  0.0467
  H  H141  1  0.311600  0.218300  0.765700  1.0  0.14
  H  H142  1  0.824700  0.731400  0.298800  1.0  0.1815
  H  H143  1  0.093100  0.698100  0.664300  1.0  0.0921
  H  H144  1  0.269700  0.383500  0.291900  1.0  0.1227
  H  H145  1  0.555900  0.221300  0.687500  1.0  0.0605
  H  H146  1  0.137200  0.443800  0.685800  1.0  0.1147
  H  H147  1  0.911600  0.156800  0.706400  1.0  0.1366
  H  H148  1  0.411600  0.293600  0.843200  1.0  0.1382
  H  H149  1  0.504300  0.335600  0.437800  1.0  0.1165
  H  H150  1  0.412800  0.566700  0.186100  1.0  0.0699
  H  H151  1  0.501000  0.916300  0.190300  1.0  0.1552
  H  H152  1  0.723900  0.931800  0.273800  1.0  0.1394
  H  H153  1  0.839800  0.856600  0.639800  1.0  0.1208
  H  H154  1  0.325100  0.183600  0.933000  1.0  0.1227
  H  H155  1  0.796800  0.079300  0.320900  1.0  0.0983
  H  H156  1  0.917400  0.094500  0.718100  1.0  0.1643
  H  H157  1  0.780400  0.785600  0.508200  1.0  0.0706
  H  H158  1  0.924000  0.450900  0.471700  1.0  0.088
  H  H159  1  0.804900  0.082100  0.118300  1.0  0.0958
  H  H160  1  0.662700  0.637300  0.196900  1.0  0.1157
  H  H161  1  0.863600  0.075800  0.968200  1.0  0.0747
  H  H162  1  0.339800  0.360200  0.143400  1.0  0.1232
  H  H163  1  0.824900  0.111100  0.428700  1.0  0.0938
  H  H164  1  0.752400  0.398800  0.775200  1.0  0.1422
  H  H165  1  0.050100  0.336900  0.440500  1.0  0.1026
  H  H166  1  0.436100  0.415900  0.393700  1.0  0.1014
  H  H167  1  0.637200  0.314200  0.556200  1.0  0.1161
  H  H168  1  0.893700  0.748500  0.998700  1.0  0.1476
  H  H169  1  0.269700  0.444400  0.504200  1.0  0.1101
  H  H170  1  0.292100  0.237400  0.555800  1.0  0.1235
  H  H171  1  0.926200  0.814400  0.624600  1.0  0.1063
  H  H172  1  0.553300  0.547600  0.931800  1.0  0.091
  H  H173  1  0.305800  0.407300  0.804100  1.0  0.0934
  H  H174  1  0.605200  0.694200  0.856000  1.0  0.1185
  H  H175  1  0.360200  0.628600  0.305200  1.0  0.128
  H  H176  1  0.454700  0.360900  0.759900  1.0  0.1141
  H  H177  1  0.516600  0.549400  0.387400  1.0  0.0665
  H  H178  1  0.545000  0.947500  0.227700  1.0  0.1633
  H  H179  1  0.220200  0.176000  0.210000  1.0  0.1254
  H  H180  1  0.775100  0.756900  0.751100  1.0  0.0765
  H  H181  1  0.893200  0.499900  0.666667  1.0  0.1097
  H  H182  1  0.307500  0.665300  0.020300  1.0  0.1184
  H  H183  1  0.360800  0.719500  0.070500  1.0  0.0865
  H  H184  1  0.630100  0.592300  0.376100  1.0  0.2762
  H  H185  1  0.372800  0.062900  0.256500  1.0  0.1509
  H  H186  1  0.328500  0.103200  0.875000  1.0  0.0858
  H  H187  1  0.013700  0.803000  0.449000  1.0  0.1182
  H  H188  1  0.945200  0.026400  0.397600  1.0  0.1045
  H  H189  1  0.630700  0.217500  0.549900  1.0  0.0836
  H  H190  1  0.016600  0.612600  0.450600  1.0  0.0661
  H  H191  1  0.513700  0.551000  0.197000  1.0  0.1193
  H  H192  1  0.720200  0.790000  0.824000  1.0  0.1247
  H  H193  1  0.045000  0.772300  0.052500  1.0  0.1624
  H  H194  1  0.890000  0.196500  0.556500  1.0  0.1063
  H  H195  1  0.298400  0.982300  0.054900  1.0  0.1154
  H  H196  1  0.713700  0.294700  0.527700  1.0  0.1106
  H  H197  1  0.481700  0.006400  0.990000  1.0  0.1358
  H  H198  1  0.782900  0.627800  0.667800  1.0  0.1146
  H  H199  1  0.864200  0.404600  0.706800  1.0  0.1125
  H  H200  1  0.593100  0.335700  0.301900  1.0  0.0942
  H  H201  1  0.778400  0.901300  0.412900  1.0  0.1066
  H  H202  1  0.296800  0.679100  0.920700  1.0  0.0971
  H  H203  1  0.620600  0.403300  0.251700  1.0  0.0977
  H  H204  1  0.390000  0.443500  0.803500  1.0  0.1062
  H  H205  1  0.505800  0.377300  0.968700  1.0  0.1118
  H  H206  1  0.004300  0.562200  0.664400  1.0  0.1169
  H  H207  1  0.369000  0.464200  0.434000  1.0  0.0772
  H  H208  1  0.858400  0.980500  0.960500  1.0  0.1206
  H  H209  1  0.426200  0.375400  0.185600  1.0  0.1053
  H  H210  1  0.805800  0.195900  0.592700  1.0  0.0938
  H  H211  1  0.131600  0.588300  0.769700  1.0  0.1278
  H  H212  1  0.550100  0.559500  0.663100  1.0  0.1016
  H  H213  1  0.120600  0.748300  0.596700  1.0  0.096
  H  H214  1  0.005800  0.031300  0.622700  1.0  0.1095
  H  H215  1  0.424000  0.528300  0.549100  1.0  0.0881
  H  H216  1  0.248500  0.209700  0.767100  1.0  0.1468
  H  H217  1  0.363900  0.266800  0.870800  1.0  0.1533
  H  H218  1  0.869000  0.566000  0.535800  1.0  0.0769
  H  H219  1  0.872800  0.743500  0.937100  1.0  0.1522
  H  H220  1  0.195400  0.647900  0.220300  1.0  0.1473
  H  H221  1  0.286900  0.575800  0.338400  1.0  0.1074
  H  H222  1  0.370700  0.555400  0.991400  1.0  0.112
  H  H223  1  0.721300  0.738700  0.898300  1.0  0.1197
  H  H224  1  0.518100  0.189900  0.302300  1.0  0.1439
  H  H225  1  0.985100  0.990900  0.323500  1.0  0.0721
  H  H226  1  0.223900  0.726200  0.068200  1.0  0.1376
  H  H227  1  0.097900  0.845200  0.469800  1.0  0.1128
  H  H228  1  0.664600  0.619500  0.713500  1.0  0.0936
  H  H229  1  0.517300  0.743200  0.958000  1.0  0.1219
  H  H230  1  0.587300  0.412100  0.996900  1.0  0.0548
  H  H231  1  0.848000  0.377600  0.452200  1.0  0.039
  H  H232  1  0.955200  0.101500  0.573900  1.0  0.0908
  H  H233  1  0.070700  0.290000  0.518000  1.0  0.1191
  H  H234  1  0.844800  0.945900  0.609300  1.0  0.0992
  H  H235  1  0.278400  0.587100  0.098700  1.0  0.1068
  H  H236  1  0.372600  0.502500  0.230900  1.0  0.115
  H  H237  1  0.596900  0.358400  0.623600  1.0  0.1731
  H  H238  1  0.563100  0.896900  0.188500  1.0  0.1618
  H  H239  1  0.252400  0.224800  0.601200  1.0  0.142
  H  H240  1  0.581700  0.476800  0.536000  1.0  0.1136
  H  H241  1  0.993600  0.729300  0.499100  1.0  0.0618
  H  H242  1  0.419500  0.419400  0.687800  1.0  0.0807
  H  H243  1  0.275100  0.248900  0.243100  1.0  0.076
  H  H244  1  0.228400  0.244500  0.544900  1.0  0.1372
  H  H245  1  0.267800  0.419300  0.639900  1.0  0.1045
  H  H246  1  0.695400  0.779700  0.352100  1.0  0.1487
  H  H247  1  0.808200  0.765600  0.080600  1.0  0.1117
  H  H248  1  0.190700  0.241300  0.461700  1.0  0.116
  H  H249  1  0.558400  0.266300  0.461100  1.0  0.0816
  H  H250  1  0.062100  0.672200  0.366000  1.0  0.1052
  H  H251  1  0.431900  0.400800  0.280800  1.0  0.102
  H  H252  1  0.458500  0.650600  0.830400  1.0  0.0656
  H  H253  1  0.171300  0.762000  0.052200  1.0  0.1453
  H  H254  1  0.728400  0.455100  0.755500  1.0  0.1364
  H  H255  1  0.668900  0.169100  0.877100  1.0  0.1143
  H  H256  1  0.358400  0.039500  0.019500  1.0  0.1228
  H  H257  1  0.186300  0.496200  0.553600  1.0  0.1119
  H  H258  1  0.922600  0.240100  0.401900  1.0  0.1136
  H  H259  1  0.755400  0.481000  0.458400  1.0  0.0983
  H  H260  1  0.799000  0.863800  0.081600  1.0  0.1086
  H  H261  1  0.130100  0.623900  0.407700  1.0  0.2771
  H  H262  1  0.324900  0.571300  0.888900  1.0  0.0932
  H  H263  1  0.451600  0.957500  0.958500  1.0  0.1365
  H  H264  1  0.677500  0.889800  0.262000  1.0  0.1569
  H  H265  1  0.168900  0.122900  0.830900  1.0  0.1134
  H  H266  1  0.445500  0.266300  0.744300  1.0  0.1047
  H  H267  1  0.945500  0.255700  0.733700  1.0  0.1048
  H  H268  1  0.807500  0.979700  0.334700  1.0  0.1191
  H  H269  1  0.931900  0.719200  0.599200  1.0  0.1006
  H  H270  1  0.282900  0.332200  0.372200  1.0  0.1148
  H  H271  1  0.783200  0.022900  0.474700  1.0  0.1156
  H  H272  1  0.958500  0.169600  0.349400  1.0  0.0653
  H  H273  1  0.671300  0.947800  0.238000  1.0  0.1451
  H  H274  1  0.860200  0.694800  0.371400  1.0  0.1281
  H  H275  1  0.597900  0.530200  0.154800  1.0  0.114
  H  H276  1  0.811500  0.619000  0.821200  1.0  0.0861
  H  H277  1  0.665600  0.457100  0.317700  1.0  0.0958
  H  H278  1  0.162700  0.803100  0.362700  1.0  0.1166
  H  H279  1  0.280400  0.491800  0.214400  1.0  0.0711
  H  H280  1  0.712400  0.580600  0.343400  1.0  0.0782
  H  H281  1  0.846100  0.573200  0.714400  1.0  0.0795
  H  H282  1  0.863900  0.129200  0.733200  1.0  0.1537
  H  H283  1  0.364200  0.293200  0.595400  1.0  0.113
  H  H284  1  0.786900  0.661600  0.424200  1.0  0.1075
  H  H285  1  0.393700  0.001300  0.251500  1.0  0.1468
  H  H286  1  0.017300  0.042000  0.256800  1.0  0.1224
  H  H287  1  0.608500  0.424400  0.458600  1.0  0.0688
  H  H288  1  0.860800  0.929500  0.280500  1.0  0.0871
  H  H289  1  0.872600  0.769100  0.497500  1.0  0.1153
  H  H290  1  0.055900  0.312500  0.778700  1.0  0.0581
  H  H291  1  0.870700  0.008600  0.444600  1.0  0.1115
  H  H292  1  0.311500  0.178800  0.381000  1.0  0.0845
  H  H293  1  0.686300  0.446400  0.503800  1.0  0.1099
  H  H294  1  0.767800  0.360100  0.580700  1.0  0.1031
  H  H295  1  0.556700  0.388100  0.553700  1.0  0.1056
  H  H296  1  0.363600  0.031800  0.924200  1.0  0.0726
  H  H297  1  0.935300  0.750000  0.952200  1.0  0.15
  H  H298  1  0.105200  0.144000  0.305800  1.0  0.1189
  C  C299  1  0.938100  0.601100  0.546300  1.0  0.1368
  C  C300  1  0.858800  0.513100  0.654500  1.0  0.1056
  C  C301  1  0.290700  0.142100  0.733100  1.0  0.5979
  C  C302  1  0.984500  0.606600  0.467600  1.0  0.1767
  C  C303  1  0.703900  0.847400  0.458400  1.0  0.7055
  C  C304  1  0.260300  0.473700  0.821100  1.0  -0.1102
  C  C305  1  0.980800  0.293100  0.412900  1.0  -0.1404
  C  C306  1  0.911500  0.670000  0.961600  1.0  0.676
  C  C307  1  0.984500  0.081300  0.558300  1.0  0.1572
  C  C308  1  0.723300  0.710900  0.391500  1.0  -0.0396
  C  C309  1  0.485700  0.975600  0.963600  1.0  -0.4153
  C  C310  1  0.788400  0.330800  0.436200  1.0  -0.0622
  C  C311  1  0.737800  0.725200  0.866400  1.0  -0.0811
  C  C312  1  0.299500  0.382400  0.269600  1.0  0.0758
  C  C313  1  0.322700  0.635000  0.298600  1.0  -0.1804
  C  C314  1  0.844200  0.818900  0.632300  1.0  -0.1243
  C  C315  1  0.718200  0.589200  0.579000  1.0  0.665
  C  C316  1  0.465800  0.656200  0.868000  1.0  0.1368
  C  C317  1  0.395000  0.378100  0.206100  1.0  -0.1133
  C  C318  1  0.029300  0.307900  0.448500  1.0  -0.0727
  C  C319  1  0.980900  0.029000  0.328000  1.0  -0.1061
  C  C320  1  0.800100  0.785130  0.630930  1.0  0.0197
  C  C321  1  0.292200  0.344400  0.408200  1.0  -0.1146
  C  C322  1  0.953600  0.249600  0.423400  1.0  0.122
  C  C323  1  0.336900  0.958600  0.912200  1.0  -0.0365
  C  C324  1  0.016500  0.042500  0.589500  1.0  -0.1545
  C  C325  1  0.095800  0.375800  0.850000  1.0  0.7141
  C  C326  1  0.848600  0.961500  0.576300  1.0  0.1823
  C  C327  1  0.480800  0.587100  0.706900  1.0  -0.141
  C  C328  1  0.224200  0.561000  0.531400  1.0  -0.0782
  C  C329  1  0.797000  0.871800  0.428600  1.0  0.0518
  C  C330  1  0.945500  0.583200  0.372600  1.0  0.6868
  C  C331  1  0.136900  0.657400  0.394400  1.0  -0.0882
  C  C332  1  0.668000  0.442600  0.168200  1.0  0.6937
  C  C333  1  0.342200  0.011300  0.997900  1.0  -0.1649
  C  C334  1  0.574700  0.903900  0.706500  1.0  0.6549
  C  C335  1  0.349300  0.003500  0.941700  1.0  -0.087
  C  C336  1  0.863800  0.774300  0.147100  1.0  -0.0602
  C  C337  1  0.931200  0.281000  0.709600  1.0  -0.0524
  C  C338  1  0.159300  0.684700  0.739900  1.0  0.6269
  C  C339  1  0.156800  0.249900  0.383100  1.0  -0.0832
  C  C340  1  0.480700  0.778200  0.675400  1.0  0.6362
  C  C341  1  0.741400  0.310800  0.510800  1.0  -0.1324
  C  C342  1  0.245500  0.355000  0.186200  1.0  0.6911
  C  C343  1  0.019800  0.459400  0.427200  1.0  0.6699
  C  C344  1  0.303300  0.449400  0.014200  1.0  -0.1444
  C  C345  1  0.793900  0.086000  0.829200  1.0  -0.1508
  C  C346  1  0.868000  0.876500  0.130300  1.0  0.1231
  C  C347  1  0.881600  0.372300  0.692700  1.0  0.119
  C  C348  1  0.025600  0.747600  0.508800  1.0  0.1845
  C  C349  1  0.393800  0.539800  0.424800  1.0  -0.1584
  C  C350  1  0.084700  0.665600  0.679000  1.0  0.1473
  C  C351  1  0.308400  0.444500  0.813900  1.0  -0.1001
  C  C352  1  0.487600  0.705300  0.885700  1.0  -0.0659
  C  C353  1  0.585900  0.508700  0.181300  1.0  -0.0371
  C  C354  1  0.297200  0.624800  0.676200  1.0  0.6969
  C  C355  1  0.296800  0.677800  0.273000  1.0  -0.0625
  C  C356  1  0.631100  0.661200  0.777800  1.0  -0.1141
  C  C357  1  0.795700  0.122200  0.876000  1.0  0.1433
  C  C358  1  0.477500  0.408500  0.556500  1.0  0.1438
  C  C359  1  0.131100  0.222200  0.338800  1.0  -0.1151
  C  C360  1  0.636900  0.605600  0.342600  1.0  -0.0876
  C  C361  1  0.808400  0.186100  0.555500  1.0  -0.1
  C  C362  1  0.836900  0.087800  0.041400  1.0  -0.0375
  C  C363  1  0.361900  0.521200  0.002000  1.0  -0.1207
  C  C364  1  0.406200  0.826400  0.196400  1.0  0.0875
  C  C365  1  0.828100  0.789500  0.104100  1.0  -0.0749
  C  C366  1  0.701300  0.616300  0.269900  1.0  -0.0849
  C  C367  1  0.636000  0.437500  0.438700  1.0  0.1745
  C  C368  1  0.608400  0.258300  0.398500  1.0  -0.1947
  C  C369  1  0.222500  0.549300  0.886100  1.0  0.6132
  C  C370  1  0.937500  0.272100  0.654100  1.0  -0.1386
  C  C371  1  0.300100  0.369070  0.214870  1.0  0.0194
  C  C372  1  0.097700  0.377100  0.679700  1.0  0.0835
  C  C373  1  0.074700  0.293500  0.096100  1.0  0.6542
  C  C374  1  0.855500  0.966200  0.273400  1.0  0.1311
  C  C375  1  0.355500  0.726600  0.033800  1.0  0.1353
  C  C376  1  0.682400  0.450200  0.466200  1.0  -0.0948
  C  C377  1  0.327000  0.898200  0.154000  1.0  -0.1314
  C  C378  1  0.685300  0.598700  0.322300  1.0  -0.0568
  C  C379  1  0.286000  0.412700  0.487700  1.0  0.1574
  C  C380  1  0.875300  0.038100  0.219900  1.0  0.1589
  C  C381  1  0.760300  0.178900  0.526300  1.0  -0.1068
  C  C382  1  0.267000  0.652600  0.516600  1.0  0.6797
  C  C383  1  0.543100  0.507500  0.720500  1.0  -0.0852
  C  C384  1  0.157000  0.679900  0.048900  1.0  0.7127
  C  C385  1  0.786000  0.512300  0.587300  1.0  0.1515
  C  C386  1  0.903000  0.130000  0.731200  1.0  -0.4205
  C  C387  1  0.381600  0.307300  0.627700  1.0  0.1231
  C  C388  1  0.344400  0.744500  0.921700  1.0  -0.1131
  C  C389  1  0.817600  0.458400  0.184800  1.0  0.8199
  C  C390  1  0.242400  0.197200  0.919800  1.0  -0.0659
  C  C391  1  0.397300  0.482800  0.420600  1.0  -0.0845
  C  C392  1  0.309400  0.974400  0.019200  1.0  0.1347
  C  C393  1  0.720300  0.468800  0.381200  1.0  -0.142
  C  C394  1  0.201300  0.730100  0.383700  1.0  -0.0838
  C  C395  1  0.318300  0.702200  0.943600  1.0  -0.0522
  C  C396  1  0.695200  0.105800  0.825000  1.0  -0.1243
  C  C397  1  0.525200  0.863400  0.269800  1.0  0.4701
  C  C398  1  0.453600  0.576600  0.750400  1.0  0.1212
  C  C399  1  0.747300  0.998500  0.573300  1.0  0.6672
  C  C400  1  0.185300  0.677700  0.401300  1.0  -0.0572
  C  C401  1  0.264500  0.389500  0.435900  1.0  -0.1569
  C  C402  1  0.112500  0.445200  0.107800  1.0  0.8427
  C  C403  1  0.220300  0.618800  0.531200  1.0  -0.1415
  C  C404  1  0.769900  0.733400  0.778600  1.0  0.1689
  C  C405  1  0.769000  0.143000  0.481000  1.0  -0.0678
  C  C406  1  0.368000  0.869700  0.123500  1.0  0.1248
  C  C407  1  0.004200  0.451900  0.485300  1.0  -0.1165
  C  C408  1  0.288400  0.563800  0.669200  1.0  -0.0626
  C  C409  1  0.462900  0.635000  0.678200  1.0  0.7046
  C  C410  1  0.185000  0.731200  0.072000  1.0  -0.4338
  C  C411  1  0.411500  0.038400  0.330000  1.0  0.6793
  C  C412  1  0.402300  0.486400  0.027000  1.0  0.0872
  C  C413  1  0.263700  0.543900  0.157300  1.0  -0.0631
  C  C414  1  0.638800  0.098700  0.797900  1.0  0.6729
  C  C415  1  0.085900  0.818700  0.491300  1.0  -0.0409
  C  C416  1  0.001200  0.148800  0.252000  1.0  0.7017
  C  C417  1  0.977500  0.443500  0.591500  1.0  0.1458
  C  C418  1  0.942200  0.488000  0.779600  1.0  0.5814
  C  C419  1  0.238700  0.175600  0.244200  1.0  -0.1597
  C  C420  1  0.821500  0.132300  0.461700  1.0  0.178
  C  C421  1  0.659300  0.260100  0.315300  1.0  0.6306
  C  C422  1  0.431200  0.290400  0.719000  1.0  -0.0526
  C  C423  1  0.256000  0.163900  0.539500  1.0  0.1802
  C  C424  1  0.790700  0.266900  0.857900  1.0  0.6
  C  C425  1  0.899300  0.738600  0.607400  1.0  0.1049
  C  C426  1  0.809400  0.980800  0.025600  1.0  0.1319
  C  C427  1  0.344200  0.367700  0.181100  1.0  -0.1195
  C  C428  1  0.877200  0.826200  0.441000  1.0  0.1447
  C  C429  1  0.096900  0.686200  0.367400  1.0  0.0884
  C  C430  1  0.544800  0.511700  0.937300  1.0  0.1533
  C  C431  1  0.534800  0.912300  0.211700  1.0  -0.2746
  C  C432  1  0.742400  0.080200  0.802800  1.0  -0.0676
  C  C433  1  0.940500  0.588200  0.435400  1.0  -0.1929
  C  C434  1  0.952000  0.447200  0.498600  1.0  0.1809
  C  C435  1  0.438100  0.453700  0.398900  1.0  0.1374
  C  C436  1  0.269900  0.221400  0.266600  1.0  0.1689
  C  C437  1  0.030500  0.448300  0.583100  1.0  -0.155
  C  C438  1  0.247300  0.426700  0.001500  1.0  0.6647
  C  C439  1  0.822700  0.701400  0.365000  1.0  -0.1765
  C  C440  1  0.220500  0.653100  0.249900  1.0  0.1387
  C  C441  1  0.360700  0.463400  0.819400  1.0  0.1145
  C  C442  1  0.987600  0.114300  0.294700  1.0  -0.0646
  C  C443  1  0.499200  0.713300  0.941900  1.0  -0.1141
  C  C444  1  0.775200  0.350800  0.544200  1.0  0.1304
  C  C445  1  0.894900  0.343700  0.789300  1.0  0.6413
  C  C446  1  0.529300  0.551500  0.692100  1.0  -0.0749
  C  C447  1  0.897300  0.579400  0.517200  1.0  -0.0836
  C  C448  1  0.169600  0.644300  0.543900  1.0  0.1515
  C  C449  1  0.280300  0.203400  0.745600  1.0  -0.4084
  C  C450  1  0.860700  0.180600  0.536600  1.0  0.1157
  C  C451  1  0.906200  0.803600  0.173600  1.0  0.0939
  C  C452  1  0.333400  0.320800  0.438600  1.0  -0.0777
  C  C453  1  0.343300  0.755300  0.864300  1.0  0.6622
  C  C454  1  0.792200  0.591800  0.655600  1.0  -0.1119
  C  C455  1  0.679400  0.700400  0.430600  1.0  0.6096
  C  C456  1  0.809400  0.062400  0.084800  1.0  0.1608
  C  C457  1  0.138800  0.202100  0.901300  1.0  0.6732
  C  C458  1  0.584700  0.321000  0.334400  1.0  0.1506
  C  C459  1  0.827000  0.846000  0.101800  1.0  -0.1311
  C  C460  1  0.158000  0.765600  0.362400  1.0  0.1693
  C  C461  1  0.297000  0.571400  0.128200  1.0  0.0523
  C  C462  1  0.699200  0.146900  0.866700  1.0  0.1225
  C  C463  1  0.445500  0.627400  0.416800  1.0  0.6823
  C  C464  1  0.958200  0.049200  0.372800  1.0  0.1005
  C  C465  1  0.962900  0.321800  0.365000  1.0  0.7088
  C  C466  1  0.295700  0.124000  0.877800  1.0  0.1437
  C  C467  1  0.018700  0.629400  0.850400  1.0  0.7328
  C  C468  1  0.861900  0.998000  0.478800  1.0  -0.1184
  C  C469  1  0.843300  0.135700  0.244700  1.0  0.6567
  C  C470  1  0.254200  0.750000  0.389800  1.0  0.6735
  C  C471  1  0.600000  0.434000  0.240800  1.0  0.1062
  C  C472  1  0.615700  0.461300  0.196100  1.0  -0.1494
  C  C473  1  0.685000  0.928000  0.268800  1.0  -0.4348
  C  C474  1  0.799500  0.730400  0.617600  1.0  0.0743
  C  C475  1  0.596900  0.632600  0.313800  1.0  0.0885
  C  C476  1  0.833400  0.561400  0.679200  1.0  -0.0773
  C  C477  1  0.037400  0.792100  0.477500  1.0  -0.1359
  C  C478  1  0.780300  0.254400  0.796600  1.0  -0.4102
  C  C479  1  0.076800  0.032700  0.517300  1.0  0.1276
  C  C480  1  0.757300  0.437500  0.776900  1.0  -0.4044
  C  C481  1  0.333200  0.038200  0.583000  1.0  0.8171
  C  C482  1  0.249000  0.544300  0.703900  1.0  -0.0756
  C  C483  1  0.612500  0.892200  0.554800  1.0  0.8428
  C  C484  1  0.136000  0.561300  0.562500  1.0  0.1737
  C  C485  1  0.262800  0.137800  0.329800  1.0  -0.0903
  C  C486  1  0.269000  0.519000  0.857000  1.0  -0.0675
  C  C487  1  0.493700  0.186900  0.331500  1.0  -0.4782
  C  C488  1  0.352400  0.954400  0.710400  1.0  0.8399
  C  C489  1  0.375300  0.780100  0.961900  1.0  0.1611
  C  C490  1  0.484500  0.532400  0.393400  1.0  0.1817
  C  C491  1  0.365800  0.841500  0.287500  1.0  0.6977
  C  C492  1  0.935100  0.149000  0.802200  1.0  0.2763
  C  C493  1  0.377200  0.559000  0.173800  1.0  0.1405
  C  C494  1  0.842200  0.002100  0.988700  1.0  -0.1619
  C  C495  1  0.537400  0.522500  0.207900  1.0  -0.1375
  C  C496  1  0.504200  0.514700  0.548100  1.0  -0.1164
  C  C497  1  0.115700  0.803900  0.538700  1.0  -0.1453
  C  C498  1  0.615300  0.279000  0.348200  1.0  0.1181
  C  C499  1  0.564600  0.281600  0.428400  1.0  -0.1082
  C  C500  1  0.985700  0.036400  0.024400  1.0  -0.4097
  C  C501  1  0.592600  0.208500  0.620500  1.0  -0.1262
  C  C502  1  0.179400  0.569400  0.299600  1.0  0.6092
  C  C503  1  0.818300  0.056400  0.297800  1.0  -0.0498
  C  C504  1  0.738700  0.755800  0.824400  1.0  -0.1645
  C  C505  1  0.852400  0.289600  0.045600  1.0  0.8395
  C  C506  1  0.720500  0.750100  0.346900  1.0  0.14
  C  C507  1  0.525600  0.491200  0.252400  1.0  0.1872
  C  C508  1  0.199200  0.133300  0.853100  1.0  0.1193
  C  C509  1  0.965800  0.132000  0.343800  1.0  0.1328
  C  C510  1  0.452000  0.501400  0.552800  1.0  0.1812
  C  C511  1  0.414600  0.381800  0.682400  1.0  0.1722
  C  C512  1  0.311400  0.504500  0.993900  1.0  -0.0969
  C  C513  1  0.595800  0.150000  0.624200  1.0  0.7092
  C  C514  1  0.893800  0.575200  0.460200  1.0  -0.1577
  C  C515  1  0.518700  0.149600  0.370600  1.0  0.735
  C  C516  1  0.761400  0.631900  0.903900  1.0  0.6987
  C  C517  1  0.620000  0.296000  0.582200  1.0  -0.0627
  C  C518  1  0.402400  0.037500  0.265700  1.0  -0.4861
  C  C519  1  0.399300  0.392600  0.261400  1.0  0.1079
  C  C520  1  0.562800  0.433200  0.976000  1.0  -0.1013
  C  C521  1  0.261400  0.096100  0.368100  1.0  0.7008
  C  C522  1  0.824700  0.995100  0.306900  1.0  -0.1276
  C  C523  1  0.516500  0.410500  0.957500  1.0  -0.1586
  C  C524  1  0.628900  0.505100  0.997500  1.0  0.6894
  C  C525  1  0.062800  0.024000  0.566800  1.0  -0.0944
  C  C526  1  0.317600  0.815200  0.541600  1.0  0.8217
  C  C527  1  0.442200  0.220400  0.512000  1.0  0.5793
  C  C528  1  0.519800  0.572800  0.540600  1.0  0.6709
  C  C529  1  0.352800  0.522200  0.204800  1.0  -0.1368
  C  C530  1  0.865800  0.712500  0.158500  1.0  0.7032
  C  C531  1  0.942100  0.539600  0.221600  1.0  0.6009
  C  C532  1  0.619000  0.663600  0.835400  1.0  0.0859
  C  C533  1  0.279200  0.602100  0.312900  1.0  -0.0774
  C  C534  1  0.779200  0.687100  0.397900  1.0  -0.074
  C  C535  1  0.043100  0.279500  0.492500  1.0  -0.085
  C  C536  1  0.458200  0.627200  0.950800  1.0  0.0988
  C  C537  1  0.319700  0.531500  0.638300  1.0  0.1708
  C  C538  1  0.501200  0.748000  0.851200  1.0  0.6989
  C  C539  1  0.749000  0.296100  0.455700  1.0  -0.073
  C  C540  1  0.324700  0.693100  0.004900  1.0  -0.1289
  C  C541  1  0.763700  0.842700  0.456100  1.0  -0.0623
  C  C542  1  0.128900  0.002500  0.494900  1.0  0.6908
  C  C543  1  0.767000  0.483400  0.347400  1.0  0.6799
  C  C544  1  0.852800  0.795200  0.477800  1.0  -0.14
  C  C545  1  0.168000  0.831800  0.557400  1.0  0.6928
  C  C546  1  0.849300  0.058300  0.996500  1.0  -0.0854
  C  C547  1  0.754200  0.610200  0.250000  1.0  0.6722
  C  C548  1  0.124300  0.250700  0.286100  1.0  0.6534
  C  C549  1  0.072200  0.338500  0.759700  1.0  0.1236
  C  C550  1  0.796800  0.727000  0.322200  1.0  -0.0635
  C  C551  1  0.001900  0.094200  0.003000  1.0  0.5604
  C  C552  1  0.275200  0.455800  0.649200  1.0  0.1248
  C  C553  1  0.902300  0.973000  0.513600  1.0  0.0874
  C  C554  1  0.656800  0.616900  0.750100  1.0  -0.0813
  C  C555  1  0.171600  0.225500  0.431300  1.0  -0.1643
  C  C556  1  0.999200  0.058100  0.286700  1.0  -0.11
  C  C557  1  0.195200  0.175000  0.894200  1.0  -0.1201
  C  C558  1  0.293900  0.170800  0.914000  1.0  -0.1483
  C  C559  1  0.182400  0.533800  0.549800  1.0  -0.0983
  C  C560  1  0.624300  0.713900  0.749300  1.0  0.6592
  C  C561  1  0.819700  0.361700  0.468500  1.0  0.1735
  C  C562  1  0.859200  0.140500  0.055500  1.0  0.6534
  C  C563  1  0.576800  0.482700  0.967300  1.0  0.127
  C  C564  1  0.034800  0.788300  0.087700  1.0  -0.2695
  C  C565  1  0.914600  0.317600  0.618200  1.0  0.1765
  C  C566  1  0.115300  0.651800  0.721000  1.0  0.1216
  C  C567  1  0.321500  0.538300  0.867700  1.0  0.1759
  C  C568  1  0.811400  0.006100  0.495500  1.0  -0.0985
  C  C569  1  0.980700  0.324600  0.221800  1.0  0.6362
  C  C570  1  0.844400  0.078300  0.255500  1.0  -0.1133
  C  C571  1  0.616500  0.237800  0.579800  1.0  -0.08
  C  C572  1  0.532100  0.322300  0.415100  1.0  0.1067
  C  C573  1  0.435100  0.197800  0.851000  1.0  0.2789
  C  C574  1  0.108400  0.601500  0.741700  1.0  -0.1944
  C  C575  1  0.803300  0.985800  0.550600  1.0  -0.1438
  C  C576  1  0.652700  0.574000  0.826400  1.0  0.1654
  C  C577  1  0.064600  0.571600  0.718400  1.0  -0.1056
  C  C578  1  0.045800  0.456200  0.529800  1.0  -0.1004
  C  C579  1  0.241400  0.489200  0.689200  1.0  -0.134
  C  C580  1  0.120000  0.417800  0.704000  1.0  -0.0655
  C  C581  1  0.895000  0.793900  0.621900  1.0  -0.1162
  C  C582  1  0.671600  0.568700  0.774500  1.0  -0.1675
  C  C583  1  0.402600  0.271100  0.670700  1.0  -0.1314
  C  C584  1  0.657000  0.951100  0.320100  1.0  0.7132
  C  C585  1  0.044800  0.062700  0.488300  1.0  0.1538
  C  C586  1  0.722500  0.113900  0.450700  1.0  0.6122
  C  C587  1  0.116500  0.420200  0.762200  1.0  -0.0843
  C  C588  1  0.403000  0.268800  0.870000  1.0  -0.4138
  C  C589  1  0.359200  0.944500  0.859500  1.0  0.6595
  C  C590  1  0.218200  0.421000  0.410800  1.0  0.6645
  C  C591  1  0.530500  0.416900  0.551700  1.0  -0.154
  C  C592  1  0.597700  0.320300  0.622900  1.0  0.0829
  C  C593  1  0.032100  0.584900  0.677700  1.0  0.1088
  C  C594  1  0.291300  0.180000  0.347800  1.0  0.1416
  C  C595  1  0.440500  0.564600  0.411800  1.0  -0.1914
  C  C596  1  0.394900  0.210700  0.656300  1.0  0.6369
  C  C597  1  0.902400  0.734300  0.962500  1.0  -0.4818
  C  C598  1  0.797000  0.805800  0.483400  1.0  -0.0729
  C  C599  1  0.092600  0.379500  0.791500  1.0  -0.1259
  C  C600  1  0.791300  0.652200  0.820000  1.0  0.1389
  C  C601  1  0.545800  0.470200  0.543800  1.0  -0.1017
  C  C602  1  0.223300  0.608500  0.289100  1.0  -0.0405
  C  C603  1  0.756000  0.460500  0.836100  1.0  0.184
  C  C604  1  0.480900  0.672000  0.971000  1.0  -0.102
  C  C605  1  0.152700  0.173600  0.426000  1.0  0.1653
  C  C606  1  0.833200  0.417000  0.961800  1.0  0.8171
  C  C607  1  0.025200  0.730200  0.136600  1.0  0.4725
  C  C608  1  0.100000  0.759200  0.566000  1.0  0.1041
  C  C609  1  0.297000  0.516600  0.194200  1.0  -0.0735
  C  C610  1  0.669600  0.456100  0.355700  1.0  0.1515
  C  C611  1  0.447400  0.931100  0.424900  1.0  0.629
  C  C612  1  0.442100  0.778400  0.460400  1.0  0.6006
  C  C613  1  0.501900  0.997000  0.905800  1.0  0.5596
  C  C614  1  0.762800  0.670200  0.862200  1.0  -0.0916
  C  C615  1  0.797200  0.323800  0.375200  1.0  0.6999
  C  C616  1  0.993700  0.668500  0.813100  1.0  -0.478
  C  C617  1  0.237800  0.133600  0.274800  1.0  -0.0826
  C  C618  1  0.489100  0.068500  0.587300  1.0  0.6433
  C  C619  1  0.764500  0.564100  0.610500  1.0  -0.1562
  C  C620  1  0.572200  0.240300  0.661500  1.0  0.1282
  C  C621  1  0.484500  0.441700  0.918700  1.0  0.1609
  C  C622  1  0.328100  0.895900  0.210500  1.0  -0.0745
  C  C623  1  0.437500  0.345900  0.727900  1.0  -0.1432
  C  C624  1  0.309400  0.915200  0.937600  1.0  0.1628
  C  C625  1  0.658000  0.637600  0.234400  1.0  0.168
  C  C626  1  0.745500  0.813800  0.645000  1.0  0.6912
  C  C627  1  0.348600  0.423700  0.038500  1.0  0.183
  C  C628  1  0.515200  0.503000  0.764200  1.0  0.1842
  C  C629  1  0.203900  0.541600  0.152600  1.0  0.706
  C  C630  1  0.257300  0.223100  0.562500  1.0  -0.4058
  C  C631  1  0.358800  0.345500  0.486900  1.0  0.104
  C  C632  1  0.119000  0.164600  0.336400  1.0  0.0809
  C  C633  1  0.015200  0.235800  0.497000  1.0  0.1831
  C  C634  1  0.724200  0.468600  0.439000  1.0  -0.0775
  C  C635  1  0.902600  0.329300  0.728900  1.0  -0.121
  C  C636  1  0.989100  0.412700  0.931500  1.0  0.6437
  C  C637  1  0.947400  0.575100  0.068900  1.0  0.6324
  C  C638  1  0.363800  0.852900  0.225700  1.0  -0.0621
  C  C639  1  0.950900  0.418600  0.095000  1.0  0.8356
  C  C640  1  0.450900  0.905000  0.581400  1.0  0.8361
  N  N641  1  0.815600  0.372900  0.521500  1.0  -0.331
  N  N642  1  0.438800  0.448900  0.562700  1.0  -0.3508
  N  N643  1  0.368200  0.511800  0.848800  1.0  -0.3285
  N  N644  1  0.125100  0.616200  0.557800  1.0  -0.3544
  N  N645  1  0.996200  0.087900  0.509900  1.0  -0.3304
  N  N646  1  0.554700  0.452000  0.268800  1.0  -0.3073
  N  N647  1  0.483500  0.477900  0.383900  1.0  -0.3343
  N  N648  1  0.251000  0.703900  0.250500  1.0  -0.4011
  N  N649  1  0.360200  0.584000  0.131800  1.0  -0.3659
  N  N650  1  0.850000  0.716200  0.606800  1.0  -0.3549
  N  N651  1  0.860200  0.868200  0.416000  1.0  -0.3667
  N  N652  1  0.315600  0.478500  0.627100  1.0  -0.3311
  N  N653  1  0.791900  0.683200  0.771600  1.0  -0.3998
  N  N654  1  0.054700  0.731200  0.548000  1.0  -0.307
  N  N655  1  0.540000  0.347700  0.362100  1.0  -0.4656
  N  N656  1  0.750900  0.153300  0.892300  1.0  -0.3697
  N  N657  1  0.101800  0.740800  0.338000  1.0  -0.3603
  N  N658  1  0.040000  0.637900  0.652300  1.0  -0.4708
  N  N659  1  0.882100  0.981800  0.228000  1.0  -0.3691
  N  N660  1  0.070900  0.327400  0.703400  1.0  -0.2963
  N  N661  1  0.938800  0.437300  0.551100  1.0  -0.3514
  N  N662  1  0.400300  0.446100  0.040100  1.0  -0.2141
  N  N663  1  0.907000  0.859500  0.168500  1.0  -0.3183
  N  N664  1  0.889200  0.362700  0.634900  1.0  -0.3513
  N  N665  1  0.389200  0.365100  0.637300  1.0  -0.3522
  N  N666  1  0.831000  0.487700  0.612900  1.0  -0.3259
  N  N667  1  0.131900  0.146000  0.388000  1.0  -0.2747
  N  N668  1  0.407000  0.831500  0.140500  1.0  -0.3175
  N  N669  1  0.291900  0.228400  0.316800  1.0  -0.4002
  N  N670  1  0.954500  0.103700  0.381700  1.0  -0.297
  N  N671  1  0.790200  0.010200  0.077000  1.0  -0.3194
  N  N672  1  0.601800  0.662000  0.259200  1.0  -0.3614
  N  N673  1  0.625100  0.442200  0.383800  1.0  -0.3537
  N  N674  1  0.983500  0.616100  0.522100  1.0  -0.3339
  N  N675  1  0.350000  0.393200  0.283800  1.0  -0.3589
  N  N676  1  0.631900  0.612000  0.854000  1.0  -0.2739
  N  N677  1  0.290200  0.923000  0.989800  1.0  -0.3192
  N  N678  1  0.868200  0.151200  0.488200  1.0  -0.3281
  N  N679  1  0.250900  0.107700  0.846700  1.0  -0.365
  N  N680  1  0.454500  0.618300  0.896300  1.0  -0.2973
  N  N681  1  0.570900  0.296600  0.672600  1.0  -0.3014
  N  N682  1  0.972500  0.217600  0.468000  1.0  -0.3566
  N  N683  1  0.472500  0.532000  0.782400  1.0  -0.3591
  N  N684  1  0.900300  0.959900  0.553900  1.0  -0.212
  N  N685  1  0.331000  0.387100  0.512300  1.0  -0.3292
  N  N686  1  0.751000  0.749500  0.296100  1.0  -0.4042
  N  N687  1  0.382100  0.772000  0.018200  1.0  -0.3682
  N  N688  1  0.496200  0.490100  0.912100  1.0  -0.3306
  Cl  Cl689  1  0.508270  0.026900  0.133240  1.0  -0.5033
  Cl  Cl690  1  0.008270  0.866760  0.973100  1.0  -0.5043
  O  O691  1  0.764800  0.621500  0.203700  1.0  -0.6548
  O  O692  1  0.187500  0.819800  0.604400  1.0  -0.6978
  O  O693  1  0.264800  0.796300  0.378500  1.0  -0.654
  O  O694  1  0.638900  0.022100  0.642700  1.0  -0.7885
  O  O695  1  0.994100  0.359400  0.350800  1.0  -0.7016
  O  O696  1  0.251500  0.006000  0.469200  1.0  -0.7619
  O  O697  1  0.046800  0.507200  0.013000  1.0  -0.9246
  O  O698  1  0.457000  0.046500  0.352500  1.0  -0.646
  O  O699  1  0.853000  0.294900  0.995100  1.0  -0.7071
  O  O700  1  0.313400  0.812600  0.488600  1.0  -0.7793
  O  O701  1  0.713400  0.026700  0.551300  1.0  -0.6209
  O  O702  1  0.213300  0.929800  0.296200  1.0  -0.2825
  O  O703  1  0.633600  0.718700  0.702500  1.0  -0.6531
  O  O704  1  0.935800  0.498200  0.248200  1.0  -0.6948
  O  O705  1  0.499600  0.112100  0.733300  1.0  -0.8175
  O  O706  1  0.129100  0.409100  0.140100  1.0  -0.7241
  O  O707  1  0.761400  0.475900  0.297700  1.0  -0.5791
  O  O708  1  0.538600  0.159800  0.919400  1.0  -0.2956
  O  O709  1  0.302100  0.148900  0.521300  1.0  -0.6799
  O  O710  1  0.455600  0.092100  0.620700  1.0  -0.7791
  O  O711  1  0.797400  0.430200  0.139600  1.0  -0.7461
  O  O712  1  0.837700  0.255700  0.873700  1.0  -0.6528
  O  O713  1  0.713300  0.703800  0.070200  1.0  -0.2833
  O  O714  1  0.434700  0.153000  0.879400  1.0  -0.6354
  O  O715  1  0.403700  0.788900  0.426500  1.0  -0.7156
  O  O716  1  0.932500  0.207600  0.942200  1.0  -0.7137
  O  O717  1  0.839000  0.434500  0.223100  1.0  -0.6689
  O  O718  1  0.903700  0.573500  0.211100  1.0  -0.7162
  O  O719  1  0.339000  0.776900  0.565500  1.0  -0.6696
  O  O720  1  0.738900  0.865200  0.656800  1.0  -0.6676
  O  O721  1  0.404300  0.814700  0.304700  1.0  -0.6512
  O  O722  1  0.532400  0.041400  0.598800  1.0  -0.7494
  O  O723  1  0.491800  0.141200  0.410800  1.0  -0.6188
  O  O724  1  0.132200  0.017200  0.330400  1.0  -0.2571
  O  O725  1  0.306500  0.931700  0.694500  1.0  -0.7654
  O  O726  1  0.552300  0.695100  0.491700  1.0  -0.751
  O  O727  1  0.662200  0.001700  0.334300  1.0  -0.6846
  O  O728  1  0.757500  0.224400  0.988400  1.0  -0.243
  O  O729  1  0.631400  0.722000  0.419600  1.0  -0.6896
  O  O730  1  0.918500  0.310900  0.339300  1.0  -0.627
  O  O731  1  0.978500  0.179400  0.801600  1.0  -0.6202
  O  O732  1  0.079300  0.523600  0.911600  1.0  -0.7239
  O  O733  1  0.855800  0.463700  0.958500  1.0  -0.7145
  O  O734  1  0.283300  0.650300  0.722700  1.0  -0.7057
  O  O735  1  0.496400  0.911300  0.421100  1.0  -0.7942
  O  O736  1  0.168700  0.675600  0.888200  1.0  -0.3075
  O  O737  1  0.116300  0.557900  0.410100  1.0  -0.7293
  O  O738  1  0.675500  0.141900  0.450300  1.0  -0.6319
  O  O739  1  0.475400  0.072200  0.533600  1.0  -0.7335
  O  O740  1  0.668700  0.111800  0.324400  1.0  -0.3126
  O  O741  1  0.665300  0.291500  0.994100  1.0  -0.3223
  O  O742  1  0.572300  0.580200  0.547200  1.0  -0.7223
  O  O743  1  0.598100  0.870100  0.833700  1.0  -0.2702
  O  O744  1  0.030000  0.262400  0.098200  1.0  -0.6942
  O  O745  1  0.636800  0.556300  0.989900  1.0  -0.6473
  O  O746  1  0.098100  0.166300  0.129900  1.0  -0.2689
  O  O747  1  0.184400  0.884800  0.711600  1.0  -0.3134
  O  O748  1  0.893700  0.271900  0.073300  1.0  -0.6504
  O  O749  1  0.334900  0.930400  0.485800  1.0  -0.8319
  O  O750  1  0.353600  0.826100  0.669900  1.0  -0.9449
  O  O751  1  0.869600  0.646100  0.974900  1.0  -0.7087
  O  O752  1  0.615000  0.123700  0.582500  1.0  -0.6887
  O  O753  1  0.546800  0.987000  0.492800  1.0  -0.924
  O  O754  1  0.629100  0.859900  0.590900  1.0  -0.7246
  O  O755  1  0.082100  0.398300  0.312300  1.0  -0.8179
  O  O756  1  0.540000  0.785600  0.565000  1.0  -0.8203
  O  O757  1  0.782100  0.247700  0.167700  1.0  -0.7902
  O  O758  1  0.220200  0.108200  0.530000  1.0  -0.5644
  O  O759  1  0.497600  0.897900  0.302100  1.0  -0.5986
  O  O760  1  0.696900  0.671100  0.464100  1.0  -0.5947
  O  O761  1  0.596300  0.126900  0.811900  1.0  -0.6683
  O  O762  1  0.685200  0.473900  0.135100  1.0  -0.6911
  O  O763  1  0.038600  0.080600  0.840200  1.0  -0.2967
  O  O764  1  0.874200  0.387100  0.800700  1.0  -0.6284
  O  O765  1  0.700400  0.947600  0.742000  1.0  -0.2794
  O  O766  1  0.688800  0.217000  0.323600  1.0  -0.6272
  O  O767  1  0.203900  0.355000  0.218000  1.0  -0.6884
  O  O768  1  0.232300  0.054200  0.352400  1.0  -0.7059
  O  O769  1  0.565100  0.131300  0.363500  1.0  -0.6683
  O  O770  1  0.222500  0.936900  0.620100  1.0  -0.8577
  O  O771  1  0.649300  0.000100  0.458300  1.0  -0.7528
  O  O772  1  0.584000  0.946600  0.685200  1.0  -0.6546
  O  O773  1  0.410700  0.897900  0.399700  1.0  -0.7281
  O  O774  1  0.506500  0.958200  0.870600  1.0  -0.5935
  O  O775  1  0.720200  0.470000  0.891800  1.0  -0.5622
  O  O776  1  0.213400  0.448700  0.973300  1.0  -0.6213
  O  O777  1  0.356200  0.745000  0.739200  1.0  -0.7577
  O  O778  1  0.257500  0.011600  0.775600  1.0  -0.2441
  O  O779  1  0.188800  0.676400  0.783000  1.0  -0.6304
  O  O780  1  0.355800  0.041500  0.536300  1.0  -0.7142
  O  O781  1  0.975400  0.466400  0.927800  1.0  -0.7339
  O  O782  1  0.181900  0.557700  0.108100  1.0  -0.7056
  O  O783  1  0.180600  0.523600  0.189400  1.0  -0.6107
  O  O784  1  0.471000  0.187200  0.539800  1.0  -0.6648
  O  O785  1  0.628800  0.622700  0.091700  1.0  -0.2663
  O  O786  1  0.703900  0.782000  0.645000  1.0  -0.6874
  O  O787  1  0.734000  0.560200  0.101200  1.0  -0.7314
  O  O788  1  0.136800  0.010100  0.443700  1.0  -0.6515
  O  O789  1  0.840300  0.172400  0.097600  1.0  -0.656
  O  O790  1  0.487100  0.646800  0.400800  1.0  -0.5465
  O  O791  1  0.578000  0.131600  0.663600  1.0  -0.5787
  O  O792  1  0.558800  0.009000  0.388600  1.0  -0.7838
  O  O793  1  0.973100  0.305600  0.993600  1.0  -0.8092
  O  O794  1  0.958500  0.192000  0.128200  1.0  -0.8
  O  O795  1  0.326900  0.858800  0.314400  1.0  -0.6024
  O  O796  1  0.657500  0.475500  0.023500  1.0  -0.6174
  O  O797  1  0.808100  0.502000  0.372400  1.0  -0.6009
  O  O798  1  0.173200  0.723400  0.707800  1.0  -0.6234
  O  O799  1  0.807000  0.165100  0.275900  1.0  -0.6509
  O  O800  1  0.494100  0.649200  0.640600  1.0  -0.7018
  O  O801  1  0.456900  0.808500  0.716500  1.0  -0.7874
  O  O802  1  0.259100  0.105100  0.707300  1.0  -0.6689
  O  O803  1  0.435800  0.751800  0.501800  1.0  -0.695
  O  O804  1  0.353000  0.004900  0.705100  1.0  -0.7096
  O  O805  1  0.344600  0.076400  0.621200  1.0  -0.7853
  O  O806  1  0.042900  0.214000  0.977000  1.0  -0.8554
  O  O807  1  0.901400  0.543100  0.910500  1.0  -0.8638
  O  O808  1  0.199400  0.400900  0.364300  1.0  -0.6552
  O  O809  1  0.722500  0.379900  0.063100  1.0  -0.8578
  O  O810  1  0.418500  0.660700  0.689100  1.0  -0.6263
  O  O811  1  0.487300  0.739300  0.802700  1.0  -0.6291
  O  O812  1  0.084000  0.314800  0.053400  1.0  -0.6506
  O  O813  1  0.582100  0.687700  0.601700  1.0  -0.8185
  O  O814  1  0.701200  0.385100  0.937500  1.0  -0.3098
  O  O815  1  0.856200  0.260800  0.255000  1.0  -0.7577
  O  O816  1  0.058800  0.611400  0.991000  1.0  -0.7839
  O  O817  1  0.136700  0.250100  0.924500  1.0  -0.6464
  O  O818  1  0.798800  0.618300  0.047700  1.0  -0.8143
  O  O819  1  0.157500  0.976500  0.524500  1.0  -0.6178
  O  O820  1  0.297400  0.860400  0.569800  1.0  -0.7444
  O  O821  1  0.956900  0.283500  0.191500  1.0  -0.7877
  O  O822  1  0.030800  0.720700  0.184700  1.0  -0.6302
  O  O823  1  0.282100  0.832300  0.752300  1.0  -0.7894
  O  O824  1  0.579300  0.088400  0.476400  1.0  -0.723
  O  O825  1  0.267100  0.760100  0.663100  1.0  -0.727
  O  O826  1  0.853600  0.330100  0.173900  1.0  -0.9449
  O  O827  1  0.261400  0.702300  0.524100  1.0  -0.5787
  O  O828  1  0.732300  0.647600  0.945800  1.0  -0.7105
  O  O829  1  0.078000  0.336400  0.868400  1.0  -0.5793
  O  O830  1  0.131400  0.580400  0.278000  1.0  -0.6898
  O  O831  1  0.587500  0.876700  0.509500  1.0  -0.7528
  O  O832  1  0.898700  0.504400  0.790200  1.0  -0.566
  O  O833  1  0.240500  0.385200  0.031200  1.0  -0.69
  O  O834  1  0.484400  0.607700  0.532100  1.0  -0.5696
  O  O835  1  0.971000  0.460200  0.812800  1.0  -0.6646
  O  O836  1  0.030800  0.318100  0.223900  1.0  -0.6981
  O  O837  1  0.478500  0.198400  0.820600  1.0  -0.6234
  O  O838  1  0.573600  0.831900  0.400900  1.0  -0.7497
  O  O839  1  0.396700  0.683100  0.565300  1.0  -0.8821
  O  O840  1  0.903400  0.565200  0.347800  1.0  -0.7161
  O  O841  1  0.687500  0.395600  0.180200  1.0  -0.6965
  O  O842  1  0.298800  0.952300  0.381700  1.0  -0.8133
  O  O843  1  0.987300  0.197300  0.260700  1.0  -0.6304
  O  O844  1  0.238900  0.343200  0.134800  1.0  -0.6671
  O  O845  1  0.128800  0.437900  0.059500  1.0  -0.7071
  O  O846  1  0.783300  0.277300  0.349700  1.0  -0.7018
  O  O847  1  0.392800  0.975400  0.841600  1.0  -0.6829
  O  O848  1  0.530000  0.901800  0.737600  1.0  -0.6965
  O  O849  1  0.684400  0.288400  0.115200  1.0  -0.3113
  O  O850  1  0.032400  0.401200  0.958600  1.0  -0.7501
  O  O851  1  0.065100  0.636500  0.868700  1.0  -0.6704
  O  O852  1  0.731500  0.072300  0.419900  1.0  -0.5938
  O  O853  1  0.200400  0.258000  0.052400  1.0  -0.2796
  O  O854  1  0.767100  0.336900  0.239900  1.0  -0.7249
  O  O855  1  0.393700  0.926700  0.728100  1.0  -0.6517
  O  O856  1  0.680600  0.810600  0.476400  1.0  -0.6096
  O  O857  1  0.496400  0.048600  0.902200  1.0  -0.6988
  O  O858  1  0.933100  0.554900  0.023500  1.0  -0.6877
  O  O859  1  0.133600  0.297500  0.281300  1.0  -0.6522
  O  O860  1  0.308100  0.627600  0.498000  1.0  -0.6013
  O  O861  1  0.293400  0.094400  0.409400  1.0  -0.6287
  O  O862  1  0.433100  0.976500  0.445100  1.0  -0.6867
  O  O863  1  0.604000  0.754600  0.780200  1.0  -0.6929
  O  O864  1  0.185200  0.864900  0.526100  1.0  -0.6883
  O  O865  1  0.997600  0.697900  0.102100  1.0  -0.599
  O  O866  1  0.644900  0.741100  0.544500  1.0  -0.829
  O  O867  1  0.996400  0.578900  0.088700  1.0  -0.7938
  O  O868  1  0.234000  0.898800  0.439800  1.0  -0.7304
  O  O869  1  0.992800  0.656900  0.265300  1.0  -0.2495
  O  O870  1  0.530800  0.776100  0.681900  1.0  -0.6985
  O  O871  1  0.403400  0.652200  0.434800  1.0  -0.7168
  O  O872  1  0.706100  0.184400  0.206200  1.0  -0.3031
  O  O873  1  0.340300  0.902400  0.827600  1.0  -0.6574
  O  O874  1  0.104000  0.219800  0.245400  1.0  -0.6959
  O  O875  1  0.128800  0.658600  0.081800  1.0  -0.6543
  O  O876  1  0.432500  0.057800  0.792400  1.0  -0.7141
  O  O877  1  0.468700  0.263600  0.505800  1.0  -0.5394
  O  O878  1  0.453200  0.760400  0.635800  1.0  -0.6872
  O  O879  1  0.673200  0.292200  0.276600  1.0  -0.629
  O  O880  1  0.144900  0.455500  0.258900  1.0  -0.8291
  O  O881  1  0.165300  0.005900  0.708500  1.0  -0.3219
  O  O882  1  0.128800  0.908300  0.377300  1.0  -0.2682
  O  O883  1  0.096300  0.188100  0.873100  1.0  -0.6711
  O  O884  1  0.996400  0.097800  0.951400  1.0  -0.694
  O  O885  1  0.793400  0.589000  0.283000  1.0  -0.6755
  O  O886  1  0.697400  0.567200  0.538600  1.0  -0.6199
  O  O887  1  0.299800  0.001900  0.589500  1.0  -0.6632
  O  O888  1  0.530800  0.815300  0.279300  1.0  -0.6165
  O  O889  1  0.138900  0.357300  0.977900  1.0  -0.7889
  O  O890  1  0.751500  0.530800  0.994000  1.0  -0.763
  O  O891  1  0.802100  0.478700  0.851100  1.0  -0.6796
  O  O892  1  0.934700  0.120600  0.847000  1.0  -0.6358
  O  O893  1  0.759100  0.292700  0.894900  1.0  -0.6681
  O  O894  1  0.492800  0.734700  0.343100  1.0  -0.2506
  O  O895  1  0.616300  0.589900  0.442100  1.0  -0.7297
  O  O896  1  0.231500  0.580100  0.927700  1.0  -0.5962
  O  O897  1  0.896700  0.434700  0.316900  1.0  -0.8813
  O  O898  1  0.813400  0.511400  0.187400  1.0  -0.7789
  O  O899  1  0.398700  0.209800  0.495600  1.0  -0.5644
  O  O900  1  0.307000  0.724100  0.834900  1.0  -0.6509
  O  O901  1  0.632200  0.669600  0.982800  1.0  -0.2557
  O  O902  1  0.175500  0.549700  0.858100  1.0  -0.6331
  O  O903  1  0.699400  0.635700  0.599100  1.0  -0.6553
  O  O904  1  0.374200  0.199300  0.612900  1.0  -0.6286
  O  O905  1  0.826900  0.685600  0.141200  1.0  -0.6029
  O  O906  1  0.024400  0.129900  0.211100  1.0  -0.5834
  O  O907  1  0.957000  0.647500  0.953500  1.0  -0.6441
  O  O908  1  0.910700  0.600300  0.102100  1.0  -0.728
  O  O909  1  0.115000  0.417500  0.876300  1.0  -0.6897
  O  O910  1  0.904300  0.695300  0.185300  1.0  -0.6503
  O  O911  1  0.162200  0.665700  0.998300  1.0  -0.6855
  O  O912  1  0.605000  0.862400  0.700400  1.0  -0.7103
  O  O913  1  0.740500  0.968800  0.614800  1.0  -0.6935
  O  O914  1  0.869400  0.152100  0.209700  1.0  -0.6355
  O  O915  1  0.987100  0.599200  0.353200  1.0  -0.5462
  O  O916  1  0.681900  0.891900  0.442300  1.0  -0.7069
  O  O917  1  0.542900  0.023000  0.786000  1.0  -0.8552
  O  O918  1  0.816200  0.362500  0.352300  1.0  -0.6098
  O  O919  1  0.196900  0.535900  0.328900  1.0  -0.5988
  O  O920  1  0.401400  0.089500  0.456900  1.0  -0.8642
  O  O921  1  0.040000  0.435000  0.214400  1.0  -0.8203
  O  O922  1  0.984400  0.467900  0.392300  1.0  -0.5703
  O  O923  1  0.337700  0.126300  0.744300  1.0  -0.6521
  O  O924  1  0.912800  0.306500  0.820700  1.0  -0.6941
  O  O925  1  0.628800  0.940500  0.562100  1.0  -0.709
  O  O926  1  0.834900  0.514200  0.069600  1.0  -0.8328
  O  O927  1  0.052300  0.508300  0.304900  1.0  -0.7506
  O  O928  1  0.206100  0.793800  0.815600  1.0  -0.3037
  O  O929  1  0.473100  0.006400  0.694400  1.0  -0.8103
  O  O930  1  0.993400  0.549900  0.204900  1.0  -0.7223
  O  O931  1  0.197400  0.461400  0.432800  1.0  -0.6204
  O  O932  1  0.844600  0.378800  0.923600  1.0  -0.7862
  O  O933  1  0.006500  0.129400  0.041800  1.0  -0.5925
  O  O934  1  0.458500  0.871800  0.808000  1.0  -0.7978
  O  O935  1  0.105000  0.299600  0.137600  1.0  -0.7088
  O  O936  1  0.628800  0.918200  0.341400  1.0  -0.6544
  O  O937  1  0.799800  0.410500  0.998100  1.0  -0.6624
  O  O938  1  0.149300  0.541700  0.999900  1.0  -0.7528
  O  O939  1  0.369400  0.790300  0.847900  1.0  -0.636
  O  O940  1  0.524400  0.788900  0.870100  1.0  -0.5774
  O  O941  1  0.892800  0.158400  0.024600  1.0  -0.6822
  O  O942  1  0.636700  0.075500  0.749900  1.0  -0.6462
  O  O943  1  0.493400  0.795100  0.450100  1.0  -0.723
  O  O944  1  0.991800  0.589200  0.858800  1.0  -0.6207
  O  O945  1  0.955600  0.379300  0.907900  1.0  -0.7797
  O  O946  1  0.201200  0.062500  0.614900  1.0  -0.3093
  O  O947  1  0.806500  0.305500  0.068300  1.0  -0.765
  O  O948  1  0.953200  0.364200  0.239600  1.0  -0.6865
  O  O949  1  0.073600  0.599100  0.168100  1.0  -0.7505
  O  O950  1  0.999600  0.266700  0.887900  1.0  -0.8182
  O  O951  1  0.087500  0.490500  0.123300  1.0  -0.7512
  O  O952  1  0.293400  0.717000  0.411000  1.0  -0.6747
  O  O953  1  0.369600  0.025100  0.353900  1.0  -0.709
  O  O954  1  0.412800  0.179300  0.693500  1.0  -0.695
  O  O955  1  0.316200  0.647700  0.637500  1.0  -0.6103
  O  O956  1  0.072300  0.452800  0.419800  1.0  -0.7218
  O  O957  1  0.968700  0.494200  0.736400  1.0  -0.5404
  O  O958  1  0.793400  0.590600  0.905600  1.0  -0.6269
  O  O959  1  0.936200  0.459500  0.116500  1.0  -0.4011
  O  O960  1  0.931400  0.404900  0.056300  1.0  -0.452
  O  O961  1  0.989000  0.395500  0.111700  1.0  -0.3989
  O  O962  1  0.489000  0.888300  0.604500  1.0  -0.3993
  O  O963  1  0.431400  0.943700  0.595100  1.0  -0.4484
  O  O964  1  0.436200  0.883500  0.540500  1.0  -0.4038
