# generated using pymatgen
data_ZnH22C24(NO)4
_symmetry_space_group_name_H-M   'P 1'
_cell_length_a   22.34580000
_cell_length_b   29.76910000
_cell_length_c   33.37340000
_cell_angle_alpha   90.00000000
_cell_angle_beta   90.00000000
_cell_angle_gamma   90.00000000
_symmetry_Int_Tables_number   1
_chemical_formula_structural   ZnH22C24(NO)4
_chemical_formula_sum   'Zn32 H704 C768 N128 O128'
_cell_volume   22200.46474781
_cell_formula_units_Z   32
loop_
 _symmetry_equiv_pos_site_id
 _symmetry_equiv_pos_as_xyz
  1  'x, y, z'
loop_
 _atom_site_type_symbol
 _atom_site_label
 _atom_site_symmetry_multiplicity
 _atom_site_fract_x
 _atom_site_fract_y
 _atom_site_fract_z
 _atom_site_occupancy
 _atom_site_charge
  Zn  Zn1  1  0.000000  0.500000  0.383460  1.0  0.8705
  Zn  Zn2  1  0.000000  0.000000  0.883460  1.0  0.8705
  Zn  Zn3  1  0.500000  0.500000  0.883460  1.0  0.8705
  Zn  Zn4  1  0.500000  0.000000  0.383460  1.0  0.8705
  Zn  Zn5  1  0.250000  0.750000  0.633460  1.0  0.8705
  Zn  Zn6  1  0.250000  0.250000  0.133460  1.0  0.8705
  Zn  Zn7  1  0.750000  0.750000  0.133460  1.0  0.8705
  Zn  Zn8  1  0.750000  0.250000  0.633460  1.0  0.8705
  Zn  Zn9  1  0.500000  0.500000  0.500500  1.0  0.8607
  Zn  Zn10  1  0.500000  0.000000  0.000500  1.0  0.8607
  Zn  Zn11  1  0.000000  0.500000  0.000500  1.0  0.8607
  Zn  Zn12  1  0.000000  0.000000  0.500500  1.0  0.8607
  Zn  Zn13  1  0.750000  0.750000  0.750500  1.0  0.8607
  Zn  Zn14  1  0.750000  0.250000  0.250500  1.0  0.8607
  Zn  Zn15  1  0.250000  0.750000  0.250500  1.0  0.8607
  Zn  Zn16  1  0.250000  0.250000  0.750500  1.0  0.8607
  Zn  Zn17  1  0.752060  0.504890  0.687070  1.0  0.8561
  Zn  Zn18  1  0.752060  0.004890  0.187070  1.0  0.8561
  Zn  Zn19  1  0.252060  0.504890  0.187070  1.0  0.8561
  Zn  Zn20  1  0.252060  0.004890  0.687070  1.0  0.8561
  Zn  Zn21  1  0.497940  0.754890  0.937070  1.0  0.8548
  Zn  Zn22  1  0.497940  0.254890  0.437070  1.0  0.8548
  Zn  Zn23  1  0.997940  0.754890  0.437070  1.0  0.8548
  Zn  Zn24  1  0.997940  0.254890  0.937070  1.0  0.8548
  Zn  Zn25  1  0.247940  0.495110  0.687070  1.0  0.8555
  Zn  Zn26  1  0.247940  0.995110  0.187070  1.0  0.8555
  Zn  Zn27  1  0.747940  0.495110  0.187070  1.0  0.8555
  Zn  Zn28  1  0.747940  0.995110  0.687070  1.0  0.8555
  Zn  Zn29  1  0.002060  0.745110  0.937070  1.0  0.8563
  Zn  Zn30  1  0.002060  0.245110  0.437070  1.0  0.8563
  Zn  Zn31  1  0.502060  0.745110  0.437070  1.0  0.8563
  Zn  Zn32  1  0.502060  0.245110  0.937070  1.0  0.8563
  H  H33  1  0.895300  0.529200  0.431700  1.0  0.2816
  H  H34  1  0.813400  0.314000  0.525600  1.0  0.1113
  H  H35  1  0.842300  0.362900  0.474700  1.0  0.1028
  H  H36  1  0.918000  0.444500  0.555800  1.0  0.1182
  H  H37  1  0.895400  0.393800  0.605200  1.0  0.0938
  H  H38  1  0.978400  0.390500  0.409900  1.0  0.1344
  H  H39  1  0.962800  0.370800  0.452200  1.0  0.1275
  H  H40  1  0.018000  0.402800  0.447100  1.0  0.1391
  H  H41  1  0.847200  0.533000  0.510900  1.0  0.1215
  H  H42  1  0.807500  0.489700  0.512700  1.0  0.1356
  H  H43  1  0.800200  0.523700  0.477100  1.0  0.1393
  H  H44  1  0.895300  0.029200  0.931700  1.0  0.2816
  H  H45  1  0.813400  0.814000  0.025600  1.0  0.1113
  H  H46  1  0.842300  0.862900  0.974700  1.0  0.1028
  H  H47  1  0.918000  0.944500  0.055800  1.0  0.1182
  H  H48  1  0.895400  0.893800  0.105200  1.0  0.0938
  H  H49  1  0.978400  0.890500  0.909900  1.0  0.1344
  H  H50  1  0.962800  0.870800  0.952200  1.0  0.1275
  H  H51  1  0.018000  0.902800  0.947100  1.0  0.1391
  H  H52  1  0.847200  0.033000  0.010900  1.0  0.1215
  H  H53  1  0.807500  0.989700  0.012700  1.0  0.1356
  H  H54  1  0.800200  0.023700  0.977100  1.0  0.1393
  H  H55  1  0.395300  0.529200  0.931700  1.0  0.2816
  H  H56  1  0.313400  0.314000  0.025600  1.0  0.1113
  H  H57  1  0.342300  0.362900  0.974700  1.0  0.1028
  H  H58  1  0.418000  0.444500  0.055800  1.0  0.1182
  H  H59  1  0.395400  0.393800  0.105200  1.0  0.0938
  H  H60  1  0.478400  0.390500  0.909900  1.0  0.1344
  H  H61  1  0.462800  0.370800  0.952200  1.0  0.1275
  H  H62  1  0.518000  0.402800  0.947100  1.0  0.1391
  H  H63  1  0.347200  0.533000  0.010900  1.0  0.1215
  H  H64  1  0.307500  0.489700  0.012700  1.0  0.1356
  H  H65  1  0.300200  0.523700  0.977100  1.0  0.1393
  H  H66  1  0.395300  0.029200  0.431700  1.0  0.2816
  H  H67  1  0.313400  0.814000  0.525600  1.0  0.1113
  H  H68  1  0.342300  0.862900  0.474700  1.0  0.1028
  H  H69  1  0.418000  0.944500  0.555800  1.0  0.1182
  H  H70  1  0.395400  0.893800  0.605200  1.0  0.0938
  H  H71  1  0.478400  0.890500  0.409900  1.0  0.1344
  H  H72  1  0.462800  0.870800  0.452200  1.0  0.1275
  H  H73  1  0.518000  0.902800  0.447100  1.0  0.1391
  H  H74  1  0.347200  0.033000  0.510900  1.0  0.1215
  H  H75  1  0.307500  0.989700  0.512700  1.0  0.1356
  H  H76  1  0.300200  0.023700  0.477100  1.0  0.1393
  H  H77  1  0.104700  0.470800  0.431700  1.0  0.2813
  H  H78  1  0.186600  0.686000  0.525600  1.0  0.1121
  H  H79  1  0.157700  0.637100  0.474700  1.0  0.1028
  H  H80  1  0.082000  0.555500  0.555800  1.0  0.1181
  H  H81  1  0.104600  0.606200  0.605200  1.0  0.0939
  H  H82  1  0.021600  0.609500  0.409900  1.0  0.1347
  H  H83  1  0.037200  0.629200  0.452200  1.0  0.1268
  H  H84  1  0.982000  0.597200  0.447100  1.0  0.1386
  H  H85  1  0.152800  0.467000  0.510900  1.0  0.1214
  H  H86  1  0.192500  0.510300  0.512700  1.0  0.1354
  H  H87  1  0.199800  0.476300  0.477100  1.0  0.1396
  H  H88  1  0.104700  0.970800  0.931700  1.0  0.2813
  H  H89  1  0.186600  0.186000  0.025600  1.0  0.1121
  H  H90  1  0.157700  0.137100  0.974700  1.0  0.1028
  H  H91  1  0.082000  0.055500  0.055800  1.0  0.1181
  H  H92  1  0.104600  0.106200  0.105200  1.0  0.0939
  H  H93  1  0.021600  0.109500  0.909900  1.0  0.1347
  H  H94  1  0.037200  0.129200  0.952200  1.0  0.1268
  H  H95  1  0.982000  0.097200  0.947100  1.0  0.1386
  H  H96  1  0.152800  0.967000  0.010900  1.0  0.1214
  H  H97  1  0.192500  0.010300  0.012700  1.0  0.1354
  H  H98  1  0.199800  0.976300  0.977100  1.0  0.1396
  H  H99  1  0.604700  0.470800  0.931700  1.0  0.2813
  H  H100  1  0.686600  0.686000  0.025600  1.0  0.1121
  H  H101  1  0.657700  0.637100  0.974700  1.0  0.1028
  H  H102  1  0.582000  0.555500  0.055800  1.0  0.1181
  H  H103  1  0.604600  0.606200  0.105200  1.0  0.0939
  H  H104  1  0.521600  0.609500  0.909900  1.0  0.1347
  H  H105  1  0.537200  0.629200  0.952200  1.0  0.1268
  H  H106  1  0.482000  0.597200  0.947100  1.0  0.1386
  H  H107  1  0.652800  0.467000  0.010900  1.0  0.1214
  H  H108  1  0.692500  0.510300  0.012700  1.0  0.1354
  H  H109  1  0.699800  0.476300  0.977100  1.0  0.1396
  H  H110  1  0.604700  0.970800  0.431700  1.0  0.2813
  H  H111  1  0.686600  0.186000  0.525600  1.0  0.1121
  H  H112  1  0.657700  0.137100  0.474700  1.0  0.1028
  H  H113  1  0.582000  0.055500  0.555800  1.0  0.1181
  H  H114  1  0.604600  0.106200  0.605200  1.0  0.0939
  H  H115  1  0.521600  0.109500  0.409900  1.0  0.1347
  H  H116  1  0.537200  0.129200  0.452200  1.0  0.1268
  H  H117  1  0.482000  0.097200  0.447100  1.0  0.1386
  H  H118  1  0.652800  0.967000  0.510900  1.0  0.1214
  H  H119  1  0.692500  0.010300  0.512700  1.0  0.1354
  H  H120  1  0.699800  0.976300  0.477100  1.0  0.1396
  H  H121  1  0.145300  0.720800  0.681700  1.0  0.2816
  H  H122  1  0.063400  0.936000  0.775600  1.0  0.112
  H  H123  1  0.092300  0.887100  0.724700  1.0  0.1031
  H  H124  1  0.168000  0.805500  0.805800  1.0  0.1181
  H  H125  1  0.145400  0.856200  0.855200  1.0  0.0937
  H  H126  1  0.228400  0.859500  0.659900  1.0  0.1345
  H  H127  1  0.212800  0.879200  0.702200  1.0  0.1264
  H  H128  1  0.268000  0.847200  0.697100  1.0  0.1391
  H  H129  1  0.097200  0.717000  0.760900  1.0  0.1219
  H  H130  1  0.057500  0.760300  0.762700  1.0  0.1353
  H  H131  1  0.050200  0.726300  0.727100  1.0  0.1393
  H  H132  1  0.145300  0.220800  0.181700  1.0  0.2816
  H  H133  1  0.063400  0.436000  0.275600  1.0  0.112
  H  H134  1  0.092300  0.387100  0.224700  1.0  0.1031
  H  H135  1  0.168000  0.305500  0.305800  1.0  0.1181
  H  H136  1  0.145400  0.356200  0.355200  1.0  0.0937
  H  H137  1  0.228400  0.359500  0.159900  1.0  0.1345
  H  H138  1  0.212800  0.379200  0.202200  1.0  0.1264
  H  H139  1  0.268000  0.347200  0.197100  1.0  0.1391
  H  H140  1  0.097200  0.217000  0.260900  1.0  0.1219
  H  H141  1  0.057500  0.260300  0.262700  1.0  0.1353
  H  H142  1  0.050200  0.226300  0.227100  1.0  0.1393
  H  H143  1  0.645300  0.720800  0.181700  1.0  0.2816
  H  H144  1  0.563400  0.936000  0.275600  1.0  0.112
  H  H145  1  0.592300  0.887100  0.224700  1.0  0.1031
  H  H146  1  0.668000  0.805500  0.305800  1.0  0.1181
  H  H147  1  0.645400  0.856200  0.355200  1.0  0.0937
  H  H148  1  0.728400  0.859500  0.159900  1.0  0.1345
  H  H149  1  0.712800  0.879200  0.202200  1.0  0.1264
  H  H150  1  0.768000  0.847200  0.197100  1.0  0.1391
  H  H151  1  0.597200  0.717000  0.260900  1.0  0.1219
  H  H152  1  0.557500  0.760300  0.262700  1.0  0.1353
  H  H153  1  0.550200  0.726300  0.227100  1.0  0.1393
  H  H154  1  0.645300  0.220800  0.681700  1.0  0.2816
  H  H155  1  0.563400  0.436000  0.775600  1.0  0.112
  H  H156  1  0.592300  0.387100  0.724700  1.0  0.1031
  H  H157  1  0.668000  0.305500  0.805800  1.0  0.1181
  H  H158  1  0.645400  0.356200  0.855200  1.0  0.0937
  H  H159  1  0.728400  0.359500  0.659900  1.0  0.1345
  H  H160  1  0.712800  0.379200  0.702200  1.0  0.1264
  H  H161  1  0.768000  0.347200  0.697100  1.0  0.1391
  H  H162  1  0.597200  0.217000  0.760900  1.0  0.1219
  H  H163  1  0.557500  0.260300  0.762700  1.0  0.1353
  H  H164  1  0.550200  0.226300  0.727100  1.0  0.1393
  H  H165  1  0.354700  0.779200  0.681700  1.0  0.2805
  H  H166  1  0.436600  0.564000  0.775600  1.0  0.1116
  H  H167  1  0.407700  0.612900  0.724700  1.0  0.1026
  H  H168  1  0.332000  0.694500  0.805800  1.0  0.1183
  H  H169  1  0.354600  0.643800  0.855200  1.0  0.0939
  H  H170  1  0.271600  0.640500  0.659900  1.0  0.1345
  H  H171  1  0.287200  0.620800  0.702200  1.0  0.1278
  H  H172  1  0.232000  0.652800  0.697100  1.0  0.1386
  H  H173  1  0.402800  0.783000  0.760900  1.0  0.1212
  H  H174  1  0.442500  0.739700  0.762700  1.0  0.1359
  H  H175  1  0.449800  0.773700  0.727100  1.0  0.14
  H  H176  1  0.354700  0.279200  0.181700  1.0  0.2805
  H  H177  1  0.436600  0.064000  0.275600  1.0  0.1116
  H  H178  1  0.407700  0.112900  0.224700  1.0  0.1026
  H  H179  1  0.332000  0.194500  0.305800  1.0  0.1183
  H  H180  1  0.354600  0.143800  0.355200  1.0  0.0939
  H  H181  1  0.271600  0.140500  0.159900  1.0  0.1345
  H  H182  1  0.287200  0.120800  0.202200  1.0  0.1278
  H  H183  1  0.232000  0.152800  0.197100  1.0  0.1386
  H  H184  1  0.402800  0.283000  0.260900  1.0  0.1212
  H  H185  1  0.442500  0.239700  0.262700  1.0  0.1359
  H  H186  1  0.449800  0.273700  0.227100  1.0  0.14
  H  H187  1  0.854700  0.779200  0.181700  1.0  0.2805
  H  H188  1  0.936600  0.564000  0.275600  1.0  0.1116
  H  H189  1  0.907700  0.612900  0.224700  1.0  0.1026
  H  H190  1  0.832000  0.694500  0.305800  1.0  0.1183
  H  H191  1  0.854600  0.643800  0.355200  1.0  0.0939
  H  H192  1  0.771600  0.640500  0.159900  1.0  0.1345
  H  H193  1  0.787200  0.620800  0.202200  1.0  0.1278
  H  H194  1  0.732000  0.652800  0.197100  1.0  0.1386
  H  H195  1  0.902800  0.783000  0.260900  1.0  0.1212
  H  H196  1  0.942500  0.739700  0.262700  1.0  0.1359
  H  H197  1  0.949800  0.773700  0.227100  1.0  0.14
  H  H198  1  0.854700  0.279200  0.681700  1.0  0.2805
  H  H199  1  0.936600  0.064000  0.775600  1.0  0.1116
  H  H200  1  0.907700  0.112900  0.724700  1.0  0.1026
  H  H201  1  0.832000  0.194500  0.805800  1.0  0.1183
  H  H202  1  0.854600  0.143800  0.855200  1.0  0.0939
  H  H203  1  0.771600  0.140500  0.659900  1.0  0.1345
  H  H204  1  0.787200  0.120800  0.702200  1.0  0.1278
  H  H205  1  0.732000  0.152800  0.697100  1.0  0.1386
  H  H206  1  0.902800  0.283000  0.760900  1.0  0.1212
  H  H207  1  0.942500  0.239700  0.762700  1.0  0.1359
  H  H208  1  0.949800  0.273700  0.727100  1.0  0.14
  H  H209  1  0.370100  0.525300  0.497300  1.0  0.3137
  H  H210  1  0.291600  0.635200  0.321400  1.0  0.091
  H  H211  1  0.311400  0.585300  0.372500  1.0  0.1127
  H  H212  1  0.455800  0.657200  0.402300  1.0  0.0969
  H  H213  1  0.437000  0.706100  0.350900  1.0  0.1011
  H  H214  1  0.517300  0.600900  0.409300  1.0  0.1239
  H  H215  1  0.514900  0.550800  0.394800  1.0  0.1385
  H  H216  1  0.543200  0.562600  0.436500  1.0  0.1402
  H  H217  1  0.268000  0.560700  0.443200  1.0  0.1339
  H  H218  1  0.285000  0.610300  0.454100  1.0  0.1287
  H  H219  1  0.281100  0.573700  0.487800  1.0  0.1259
  H  H220  1  0.370100  0.025300  0.997300  1.0  0.3137
  H  H221  1  0.291600  0.135200  0.821400  1.0  0.091
  H  H222  1  0.311400  0.085300  0.872500  1.0  0.1127
  H  H223  1  0.455800  0.157200  0.902300  1.0  0.0969
  H  H224  1  0.437000  0.206100  0.850900  1.0  0.1011
  H  H225  1  0.517300  0.100900  0.909300  1.0  0.1239
  H  H226  1  0.514900  0.050800  0.894800  1.0  0.1385
  H  H227  1  0.543200  0.062600  0.936500  1.0  0.1402
  H  H228  1  0.268000  0.060700  0.943200  1.0  0.1339
  H  H229  1  0.285000  0.110300  0.954100  1.0  0.1287
  H  H230  1  0.281100  0.073700  0.987800  1.0  0.1259
  H  H231  1  0.870100  0.525300  0.997300  1.0  0.3137
  H  H232  1  0.791600  0.635200  0.821400  1.0  0.091
  H  H233  1  0.811400  0.585300  0.872500  1.0  0.1127
  H  H234  1  0.955800  0.657200  0.902300  1.0  0.0969
  H  H235  1  0.937000  0.706100  0.850900  1.0  0.1011
  H  H236  1  0.017300  0.600900  0.909300  1.0  0.1239
  H  H237  1  0.014900  0.550800  0.894800  1.0  0.1385
  H  H238  1  0.043200  0.562600  0.936500  1.0  0.1402
  H  H239  1  0.768000  0.560700  0.943200  1.0  0.1339
  H  H240  1  0.785000  0.610300  0.954100  1.0  0.1287
  H  H241  1  0.781100  0.573700  0.987800  1.0  0.1259
  H  H242  1  0.870100  0.025300  0.497300  1.0  0.3137
  H  H243  1  0.791600  0.135200  0.321400  1.0  0.091
  H  H244  1  0.811400  0.085300  0.372500  1.0  0.1127
  H  H245  1  0.955800  0.157200  0.402300  1.0  0.0969
  H  H246  1  0.937000  0.206100  0.350900  1.0  0.1011
  H  H247  1  0.017300  0.100900  0.409300  1.0  0.1239
  H  H248  1  0.014900  0.050800  0.394800  1.0  0.1385
  H  H249  1  0.043200  0.062600  0.436500  1.0  0.1402
  H  H250  1  0.768000  0.060700  0.443200  1.0  0.1339
  H  H251  1  0.785000  0.110300  0.454100  1.0  0.1287
  H  H252  1  0.781100  0.073700  0.487800  1.0  0.1259
  H  H253  1  0.629900  0.474700  0.497300  1.0  0.3137
  H  H254  1  0.708400  0.364800  0.321400  1.0  0.0903
  H  H255  1  0.688600  0.414700  0.372500  1.0  0.1119
  H  H256  1  0.544200  0.342800  0.402300  1.0  0.0984
  H  H257  1  0.563000  0.293900  0.350900  1.0  0.1013
  H  H258  1  0.482700  0.399100  0.409300  1.0  0.1239
  H  H259  1  0.485100  0.449200  0.394800  1.0  0.1381
  H  H260  1  0.456800  0.437400  0.436500  1.0  0.1395
  H  H261  1  0.732000  0.439300  0.443200  1.0  0.1341
  H  H262  1  0.715000  0.389700  0.454100  1.0  0.1263
  H  H263  1  0.718900  0.426300  0.487800  1.0  0.1267
  H  H264  1  0.629900  0.974700  0.997300  1.0  0.3137
  H  H265  1  0.708400  0.864800  0.821400  1.0  0.0903
  H  H266  1  0.688600  0.914700  0.872500  1.0  0.1119
  H  H267  1  0.544200  0.842800  0.902300  1.0  0.0984
  H  H268  1  0.563000  0.793900  0.850900  1.0  0.1013
  H  H269  1  0.482700  0.899100  0.909300  1.0  0.1239
  H  H270  1  0.485100  0.949200  0.894800  1.0  0.1381
  H  H271  1  0.456800  0.937400  0.936500  1.0  0.1395
  H  H272  1  0.732000  0.939300  0.943200  1.0  0.1341
  H  H273  1  0.715000  0.889700  0.954100  1.0  0.1263
  H  H274  1  0.718900  0.926300  0.987800  1.0  0.1267
  H  H275  1  0.129900  0.474700  0.997300  1.0  0.3137
  H  H276  1  0.208400  0.364800  0.821400  1.0  0.0903
  H  H277  1  0.188600  0.414700  0.872500  1.0  0.1119
  H  H278  1  0.044200  0.342800  0.902300  1.0  0.0984
  H  H279  1  0.063000  0.293900  0.850900  1.0  0.1013
  H  H280  1  0.982700  0.399100  0.909300  1.0  0.1239
  H  H281  1  0.985100  0.449200  0.894800  1.0  0.1381
  H  H282  1  0.956800  0.437400  0.936500  1.0  0.1395
  H  H283  1  0.232000  0.439300  0.943200  1.0  0.1341
  H  H284  1  0.215000  0.389700  0.954100  1.0  0.1263
  H  H285  1  0.218900  0.426300  0.987800  1.0  0.1267
  H  H286  1  0.129900  0.974700  0.497300  1.0  0.3137
  H  H287  1  0.208400  0.864800  0.321400  1.0  0.0903
  H  H288  1  0.188600  0.914700  0.372500  1.0  0.1119
  H  H289  1  0.044200  0.842800  0.402300  1.0  0.0984
  H  H290  1  0.063000  0.793900  0.350900  1.0  0.1013
  H  H291  1  0.982700  0.899100  0.409300  1.0  0.1239
  H  H292  1  0.985100  0.949200  0.394800  1.0  0.1381
  H  H293  1  0.956800  0.937400  0.436500  1.0  0.1395
  H  H294  1  0.232000  0.939300  0.443200  1.0  0.1341
  H  H295  1  0.215000  0.889700  0.454100  1.0  0.1263
  H  H296  1  0.218900  0.926300  0.487800  1.0  0.1267
  H  H297  1  0.620100  0.724700  0.747300  1.0  0.3127
  H  H298  1  0.541600  0.614800  0.571400  1.0  0.0912
  H  H299  1  0.561400  0.664700  0.622500  1.0  0.1121
  H  H300  1  0.705800  0.592800  0.652300  1.0  0.0971
  H  H301  1  0.687000  0.543900  0.600900  1.0  0.1012
  H  H302  1  0.767300  0.649100  0.659300  1.0  0.1243
  H  H303  1  0.764900  0.699200  0.644800  1.0  0.138
  H  H304  1  0.793200  0.687400  0.686500  1.0  0.1401
  H  H305  1  0.518000  0.689300  0.693200  1.0  0.1341
  H  H306  1  0.535000  0.639700  0.704100  1.0  0.1265
  H  H307  1  0.531100  0.676300  0.737800  1.0  0.126
  H  H308  1  0.620100  0.224700  0.247300  1.0  0.3127
  H  H309  1  0.541600  0.114800  0.071400  1.0  0.0912
  H  H310  1  0.561400  0.164700  0.122500  1.0  0.1121
  H  H311  1  0.705800  0.092800  0.152300  1.0  0.0971
  H  H312  1  0.687000  0.043900  0.100900  1.0  0.1012
  H  H313  1  0.767300  0.149100  0.159300  1.0  0.1243
  H  H314  1  0.764900  0.199200  0.144800  1.0  0.138
  H  H315  1  0.793200  0.187400  0.186500  1.0  0.1401
  H  H316  1  0.518000  0.189300  0.193200  1.0  0.1341
  H  H317  1  0.535000  0.139700  0.204100  1.0  0.1265
  H  H318  1  0.531100  0.176300  0.237800  1.0  0.126
  H  H319  1  0.120100  0.724700  0.247300  1.0  0.3127
  H  H320  1  0.041600  0.614800  0.071400  1.0  0.0912
  H  H321  1  0.061400  0.664700  0.122500  1.0  0.1121
  H  H322  1  0.205800  0.592800  0.152300  1.0  0.0971
  H  H323  1  0.187000  0.543900  0.100900  1.0  0.1012
  H  H324  1  0.267300  0.649100  0.159300  1.0  0.1243
  H  H325  1  0.264900  0.699200  0.144800  1.0  0.138
  H  H326  1  0.293200  0.687400  0.186500  1.0  0.1401
  H  H327  1  0.018000  0.689300  0.193200  1.0  0.1341
  H  H328  1  0.035000  0.639700  0.204100  1.0  0.1265
  H  H329  1  0.031100  0.676300  0.237800  1.0  0.126
  H  H330  1  0.120100  0.224700  0.747300  1.0  0.3127
  H  H331  1  0.041600  0.114800  0.571400  1.0  0.0912
  H  H332  1  0.061400  0.164700  0.622500  1.0  0.1121
  H  H333  1  0.205800  0.092800  0.652300  1.0  0.0971
  H  H334  1  0.187000  0.043900  0.600900  1.0  0.1012
  H  H335  1  0.267300  0.149100  0.659300  1.0  0.1243
  H  H336  1  0.264900  0.199200  0.644800  1.0  0.138
  H  H337  1  0.293200  0.187400  0.686500  1.0  0.1401
  H  H338  1  0.018000  0.189300  0.693200  1.0  0.1341
  H  H339  1  0.035000  0.139700  0.704100  1.0  0.1265
  H  H340  1  0.031100  0.176300  0.737800  1.0  0.126
  H  H341  1  0.879900  0.775300  0.747300  1.0  0.3149
  H  H342  1  0.958400  0.885200  0.571400  1.0  0.0904
  H  H343  1  0.938600  0.835300  0.622500  1.0  0.1128
  H  H344  1  0.794200  0.907200  0.652300  1.0  0.0983
  H  H345  1  0.813000  0.956100  0.600900  1.0  0.1015
  H  H346  1  0.732700  0.850900  0.659300  1.0  0.1242
  H  H347  1  0.735100  0.800800  0.644800  1.0  0.1386
  H  H348  1  0.706800  0.812600  0.686500  1.0  0.1395
  H  H349  1  0.982000  0.810700  0.693200  1.0  0.1337
  H  H350  1  0.965000  0.860300  0.704100  1.0  0.1291
  H  H351  1  0.968900  0.823700  0.737800  1.0  0.1263
  H  H352  1  0.879900  0.275300  0.247300  1.0  0.3149
  H  H353  1  0.958400  0.385200  0.071400  1.0  0.0904
  H  H354  1  0.938600  0.335300  0.122500  1.0  0.1128
  H  H355  1  0.794200  0.407200  0.152300  1.0  0.0983
  H  H356  1  0.813000  0.456100  0.100900  1.0  0.1015
  H  H357  1  0.732700  0.350900  0.159300  1.0  0.1242
  H  H358  1  0.735100  0.300800  0.144800  1.0  0.1386
  H  H359  1  0.706800  0.312600  0.186500  1.0  0.1395
  H  H360  1  0.982000  0.310700  0.193200  1.0  0.1337
  H  H361  1  0.965000  0.360300  0.204100  1.0  0.1291
  H  H362  1  0.968900  0.323700  0.237800  1.0  0.1263
  H  H363  1  0.379900  0.775300  0.247300  1.0  0.3149
  H  H364  1  0.458400  0.885200  0.071400  1.0  0.0904
  H  H365  1  0.438600  0.835300  0.122500  1.0  0.1128
  H  H366  1  0.294200  0.907200  0.152300  1.0  0.0983
  H  H367  1  0.313000  0.956100  0.100900  1.0  0.1015
  H  H368  1  0.232700  0.850900  0.159300  1.0  0.1242
  H  H369  1  0.235100  0.800800  0.144800  1.0  0.1386
  H  H370  1  0.206800  0.812600  0.186500  1.0  0.1395
  H  H371  1  0.482000  0.810700  0.193200  1.0  0.1337
  H  H372  1  0.465000  0.860300  0.204100  1.0  0.1291
  H  H373  1  0.468900  0.823700  0.237800  1.0  0.1263
  H  H374  1  0.379900  0.275300  0.747300  1.0  0.3149
  H  H375  1  0.458400  0.385200  0.571400  1.0  0.0904
  H  H376  1  0.438600  0.335300  0.622500  1.0  0.1128
  H  H377  1  0.294200  0.407200  0.652300  1.0  0.0983
  H  H378  1  0.313000  0.456100  0.600900  1.0  0.1015
  H  H379  1  0.232700  0.350900  0.659300  1.0  0.1242
  H  H380  1  0.235100  0.300800  0.644800  1.0  0.1386
  H  H381  1  0.206800  0.312600  0.686500  1.0  0.1395
  H  H382  1  0.482000  0.310700  0.693200  1.0  0.1337
  H  H383  1  0.465000  0.360300  0.704100  1.0  0.1291
  H  H384  1  0.468900  0.323700  0.737800  1.0  0.1263
  H  H385  1  0.867900  0.456700  0.676200  1.0  0.3143
  H  H386  1  0.620300  0.480900  0.686300  1.0  0.3117
  H  H387  1  0.966800  0.346100  0.846800  1.0  0.085
  H  H388  1  0.530800  0.370600  0.511100  1.0  0.0948
  H  H389  1  0.943900  0.397100  0.797600  1.0  0.1125
  H  H390  1  0.552600  0.422800  0.559100  1.0  0.0979
  H  H391  1  0.779800  0.343600  0.787500  1.0  0.094
  H  H392  1  0.702700  0.354800  0.586200  1.0  0.0867
  H  H393  1  0.801500  0.294400  0.838800  1.0  0.0983
  H  H394  1  0.680300  0.301800  0.538000  1.0  0.112
  H  H395  1  0.761200  0.452700  0.804000  1.0  0.154
  H  H396  1  0.724500  0.416500  0.780400  1.0  0.1242
  H  H397  1  0.721000  0.467200  0.767800  1.0  0.1324
  H  H398  1  0.782700  0.423300  0.612600  1.0  0.1292
  H  H399  1  0.773100  0.472800  0.597900  1.0  0.1301
  H  H400  1  0.748300  0.432600  0.572500  1.0  0.109
  H  H401  1  0.968400  0.413100  0.701400  1.0  0.1373
  H  H402  1  0.928900  0.377100  0.679700  1.0  0.1389
  H  H403  1  0.949600  0.369100  0.724000  1.0  0.1349
  H  H404  1  0.515900  0.445700  0.626900  1.0  0.1263
  H  H405  1  0.527300  0.444700  0.673200  1.0  0.1243
  H  H406  1  0.532000  0.400300  0.648100  1.0  0.1293
  H  H407  1  0.867900  0.956700  0.176200  1.0  0.3143
  H  H408  1  0.620300  0.980900  0.186300  1.0  0.3117
  H  H409  1  0.966800  0.846100  0.346800  1.0  0.085
  H  H410  1  0.530800  0.870600  0.011100  1.0  0.0948
  H  H411  1  0.943900  0.897100  0.297600  1.0  0.1125
  H  H412  1  0.552600  0.922800  0.059100  1.0  0.0979
  H  H413  1  0.779800  0.843600  0.287500  1.0  0.094
  H  H414  1  0.702700  0.854800  0.086200  1.0  0.0867
  H  H415  1  0.801500  0.794400  0.338800  1.0  0.0983
  H  H416  1  0.680300  0.801800  0.038000  1.0  0.112
  H  H417  1  0.761200  0.952700  0.304000  1.0  0.154
  H  H418  1  0.724500  0.916500  0.280400  1.0  0.1242
  H  H419  1  0.721000  0.967200  0.267800  1.0  0.1324
  H  H420  1  0.782700  0.923300  0.112600  1.0  0.1292
  H  H421  1  0.773100  0.972800  0.097900  1.0  0.1301
  H  H422  1  0.748300  0.932600  0.072500  1.0  0.109
  H  H423  1  0.968400  0.913100  0.201400  1.0  0.1373
  H  H424  1  0.928900  0.877100  0.179700  1.0  0.1389
  H  H425  1  0.949600  0.869100  0.224000  1.0  0.1349
  H  H426  1  0.515900  0.945700  0.126900  1.0  0.1263
  H  H427  1  0.527300  0.944700  0.173200  1.0  0.1243
  H  H428  1  0.532000  0.900300  0.148100  1.0  0.1293
  H  H429  1  0.367900  0.456700  0.176200  1.0  0.3143
  H  H430  1  0.120300  0.480900  0.186300  1.0  0.3117
  H  H431  1  0.466800  0.346100  0.346800  1.0  0.085
  H  H432  1  0.030800  0.370600  0.011100  1.0  0.0948
  H  H433  1  0.443900  0.397100  0.297600  1.0  0.1125
  H  H434  1  0.052600  0.422800  0.059100  1.0  0.0979
  H  H435  1  0.279800  0.343600  0.287500  1.0  0.094
  H  H436  1  0.202700  0.354800  0.086200  1.0  0.0867
  H  H437  1  0.301500  0.294400  0.338800  1.0  0.0983
  H  H438  1  0.180300  0.301800  0.038000  1.0  0.112
  H  H439  1  0.261200  0.452700  0.304000  1.0  0.154
  H  H440  1  0.224500  0.416500  0.280400  1.0  0.1242
  H  H441  1  0.221000  0.467200  0.267800  1.0  0.1324
  H  H442  1  0.282700  0.423300  0.112600  1.0  0.1292
  H  H443  1  0.273100  0.472800  0.097900  1.0  0.1301
  H  H444  1  0.248300  0.432600  0.072500  1.0  0.109
  H  H445  1  0.468400  0.413100  0.201400  1.0  0.1373
  H  H446  1  0.428900  0.377100  0.179700  1.0  0.1389
  H  H447  1  0.449600  0.369100  0.224000  1.0  0.1349
  H  H448  1  0.015900  0.445700  0.126900  1.0  0.1263
  H  H449  1  0.027300  0.444700  0.173200  1.0  0.1243
  H  H450  1  0.032000  0.400300  0.148100  1.0  0.1293
  H  H451  1  0.367900  0.956700  0.676200  1.0  0.3143
  H  H452  1  0.120300  0.980900  0.686300  1.0  0.3117
  H  H453  1  0.466800  0.846100  0.846800  1.0  0.085
  H  H454  1  0.030800  0.870600  0.511100  1.0  0.0948
  H  H455  1  0.443900  0.897100  0.797600  1.0  0.1125
  H  H456  1  0.052600  0.922800  0.559100  1.0  0.0979
  H  H457  1  0.279800  0.843600  0.787500  1.0  0.094
  H  H458  1  0.202700  0.854800  0.586200  1.0  0.0867
  H  H459  1  0.301500  0.794400  0.838800  1.0  0.0983
  H  H460  1  0.180300  0.801800  0.538000  1.0  0.112
  H  H461  1  0.261200  0.952700  0.804000  1.0  0.154
  H  H462  1  0.224500  0.916500  0.780400  1.0  0.1242
  H  H463  1  0.221000  0.967200  0.767800  1.0  0.1324
  H  H464  1  0.282700  0.923300  0.612600  1.0  0.1292
  H  H465  1  0.273100  0.972800  0.597900  1.0  0.1301
  H  H466  1  0.248300  0.932600  0.572500  1.0  0.109
  H  H467  1  0.468400  0.913100  0.701400  1.0  0.1373
  H  H468  1  0.428900  0.877100  0.679700  1.0  0.1389
  H  H469  1  0.449600  0.869100  0.724000  1.0  0.1349
  H  H470  1  0.015900  0.945700  0.626900  1.0  0.1263
  H  H471  1  0.027300  0.944700  0.673200  1.0  0.1243
  H  H472  1  0.032000  0.900300  0.648100  1.0  0.1293
  H  H473  1  0.382100  0.706700  0.926200  1.0  0.3143
  H  H474  1  0.629700  0.730900  0.936300  1.0  0.3126
  H  H475  1  0.283200  0.596100  0.096800  1.0  0.085
  H  H476  1  0.719200  0.620600  0.761100  1.0  0.0953
  H  H477  1  0.306100  0.647100  0.047600  1.0  0.1132
  H  H478  1  0.697400  0.672800  0.809100  1.0  0.0974
  H  H479  1  0.470200  0.593600  0.037500  1.0  0.0945
  H  H480  1  0.547300  0.604800  0.836200  1.0  0.0863
  H  H481  1  0.448500  0.544400  0.088800  1.0  0.0989
  H  H482  1  0.569700  0.551800  0.788000  1.0  0.1122
  H  H483  1  0.488800  0.702700  0.054000  1.0  0.1545
  H  H484  1  0.525500  0.666500  0.030400  1.0  0.124
  H  H485  1  0.529000  0.717200  0.017800  1.0  0.131
  H  H486  1  0.467300  0.673300  0.862600  1.0  0.1289
  H  H487  1  0.476900  0.722800  0.847900  1.0  0.1298
  H  H488  1  0.501700  0.682600  0.822500  1.0  0.1091
  H  H489  1  0.281600  0.663100  0.951400  1.0  0.1366
  H  H490  1  0.321100  0.627100  0.929700  1.0  0.1389
  H  H491  1  0.300400  0.619100  0.974000  1.0  0.1349
  H  H492  1  0.734100  0.695700  0.876900  1.0  0.1262
  H  H493  1  0.722700  0.694700  0.923200  1.0  0.1248
  H  H494  1  0.718000  0.650300  0.898100  1.0  0.1289
  H  H495  1  0.382100  0.206700  0.426200  1.0  0.3143
  H  H496  1  0.629700  0.230900  0.436300  1.0  0.3126
  H  H497  1  0.283200  0.096100  0.596800  1.0  0.085
  H  H498  1  0.719200  0.120600  0.261100  1.0  0.0953
  H  H499  1  0.306100  0.147100  0.547600  1.0  0.1132
  H  H500  1  0.697400  0.172800  0.309100  1.0  0.0974
  H  H501  1  0.470200  0.093600  0.537500  1.0  0.0945
  H  H502  1  0.547300  0.104800  0.336200  1.0  0.0863
  H  H503  1  0.448500  0.044400  0.588800  1.0  0.0989
  H  H504  1  0.569700  0.051800  0.288000  1.0  0.1122
  H  H505  1  0.488800  0.202700  0.554000  1.0  0.1545
  H  H506  1  0.525500  0.166500  0.530400  1.0  0.124
  H  H507  1  0.529000  0.217200  0.517800  1.0  0.131
  H  H508  1  0.467300  0.173300  0.362600  1.0  0.1289
  H  H509  1  0.476900  0.222800  0.347900  1.0  0.1298
  H  H510  1  0.501700  0.182600  0.322500  1.0  0.1091
  H  H511  1  0.281600  0.163100  0.451400  1.0  0.1366
  H  H512  1  0.321100  0.127100  0.429700  1.0  0.1389
  H  H513  1  0.300400  0.119100  0.474000  1.0  0.1349
  H  H514  1  0.734100  0.195700  0.376900  1.0  0.1262
  H  H515  1  0.722700  0.194700  0.423200  1.0  0.1248
  H  H516  1  0.718000  0.150300  0.398100  1.0  0.1289
  H  H517  1  0.882100  0.706700  0.426200  1.0  0.3143
  H  H518  1  0.129700  0.730900  0.436300  1.0  0.3126
  H  H519  1  0.783200  0.596100  0.596800  1.0  0.085
  H  H520  1  0.219200  0.620600  0.261100  1.0  0.0953
  H  H521  1  0.806100  0.647100  0.547600  1.0  0.1132
  H  H522  1  0.197400  0.672800  0.309100  1.0  0.0974
  H  H523  1  0.970200  0.593600  0.537500  1.0  0.0945
  H  H524  1  0.047300  0.604800  0.336200  1.0  0.0863
  H  H525  1  0.948500  0.544400  0.588800  1.0  0.0989
  H  H526  1  0.069700  0.551800  0.288000  1.0  0.1122
  H  H527  1  0.988800  0.702700  0.554000  1.0  0.1545
  H  H528  1  0.025500  0.666500  0.530400  1.0  0.124
  H  H529  1  0.029000  0.717200  0.517800  1.0  0.131
  H  H530  1  0.967300  0.673300  0.362600  1.0  0.1289
  H  H531  1  0.976900  0.722800  0.347900  1.0  0.1298
  H  H532  1  0.001700  0.682600  0.322500  1.0  0.1091
  H  H533  1  0.781600  0.663100  0.451400  1.0  0.1366
  H  H534  1  0.821100  0.627100  0.429700  1.0  0.1389
  H  H535  1  0.800400  0.619100  0.474000  1.0  0.1349
  H  H536  1  0.234100  0.695700  0.376900  1.0  0.1262
  H  H537  1  0.222700  0.694700  0.423200  1.0  0.1248
  H  H538  1  0.218000  0.650300  0.398100  1.0  0.1289
  H  H539  1  0.882100  0.206700  0.926200  1.0  0.3143
  H  H540  1  0.129700  0.230900  0.936300  1.0  0.3126
  H  H541  1  0.783200  0.096100  0.096800  1.0  0.085
  H  H542  1  0.219200  0.120600  0.761100  1.0  0.0953
  H  H543  1  0.806100  0.147100  0.047600  1.0  0.1132
  H  H544  1  0.197400  0.172800  0.809100  1.0  0.0974
  H  H545  1  0.970200  0.093600  0.037500  1.0  0.0945
  H  H546  1  0.047300  0.104800  0.836200  1.0  0.0863
  H  H547  1  0.948500  0.044400  0.088800  1.0  0.0989
  H  H548  1  0.069700  0.051800  0.788000  1.0  0.1122
  H  H549  1  0.988800  0.202700  0.054000  1.0  0.1545
  H  H550  1  0.025500  0.166500  0.030400  1.0  0.124
  H  H551  1  0.029000  0.217200  0.017800  1.0  0.131
  H  H552  1  0.967300  0.173300  0.862600  1.0  0.1289
  H  H553  1  0.976900  0.222800  0.847900  1.0  0.1298
  H  H554  1  0.001700  0.182600  0.822500  1.0  0.1091
  H  H555  1  0.781600  0.163100  0.951400  1.0  0.1366
  H  H556  1  0.821100  0.127100  0.929700  1.0  0.1389
  H  H557  1  0.800400  0.119100  0.974000  1.0  0.1349
  H  H558  1  0.234100  0.195700  0.876900  1.0  0.1262
  H  H559  1  0.222700  0.194700  0.923200  1.0  0.1248
  H  H560  1  0.218000  0.150300  0.898100  1.0  0.1289
  H  H561  1  0.132100  0.543300  0.676200  1.0  0.3158
  H  H562  1  0.379700  0.519100  0.686300  1.0  0.3133
  H  H563  1  0.033200  0.653900  0.846800  1.0  0.0846
  H  H564  1  0.469200  0.629400  0.511100  1.0  0.0957
  H  H565  1  0.056100  0.602900  0.797600  1.0  0.1124
  H  H566  1  0.447400  0.577200  0.559100  1.0  0.0975
  H  H567  1  0.220200  0.656400  0.787500  1.0  0.0945
  H  H568  1  0.297300  0.645200  0.586200  1.0  0.0864
  H  H569  1  0.198500  0.705600  0.838800  1.0  0.0983
  H  H570  1  0.319700  0.698200  0.538000  1.0  0.1128
  H  H571  1  0.238800  0.547300  0.804000  1.0  0.1543
  H  H572  1  0.275500  0.583500  0.780400  1.0  0.1251
  H  H573  1  0.279000  0.532800  0.767800  1.0  0.1322
  H  H574  1  0.217300  0.576700  0.612600  1.0  0.1289
  H  H575  1  0.226900  0.527200  0.597900  1.0  0.1283
  H  H576  1  0.251700  0.567400  0.572500  1.0  0.1088
  H  H577  1  0.031600  0.586900  0.701400  1.0  0.136
  H  H578  1  0.071100  0.622900  0.679700  1.0  0.1388
  H  H579  1  0.050400  0.630900  0.724000  1.0  0.1348
  H  H580  1  0.484100  0.554300  0.626900  1.0  0.1263
  H  H581  1  0.472700  0.555300  0.673200  1.0  0.1249
  H  H582  1  0.468000  0.599700  0.648100  1.0  0.1302
  H  H583  1  0.132100  0.043300  0.176200  1.0  0.3158
  H  H584  1  0.379700  0.019100  0.186300  1.0  0.3133
  H  H585  1  0.033200  0.153900  0.346800  1.0  0.0846
  H  H586  1  0.469200  0.129400  0.011100  1.0  0.0957
  H  H587  1  0.056100  0.102900  0.297600  1.0  0.1124
  H  H588  1  0.447400  0.077200  0.059100  1.0  0.0975
  H  H589  1  0.220200  0.156400  0.287500  1.0  0.0945
  H  H590  1  0.297300  0.145200  0.086200  1.0  0.0864
  H  H591  1  0.198500  0.205600  0.338800  1.0  0.0983
  H  H592  1  0.319700  0.198200  0.038000  1.0  0.1128
  H  H593  1  0.238800  0.047300  0.304000  1.0  0.1543
  H  H594  1  0.275500  0.083500  0.280400  1.0  0.1251
  H  H595  1  0.279000  0.032800  0.267800  1.0  0.1322
  H  H596  1  0.217300  0.076700  0.112600  1.0  0.1289
  H  H597  1  0.226900  0.027200  0.097900  1.0  0.1283
  H  H598  1  0.251700  0.067400  0.072500  1.0  0.1088
  H  H599  1  0.031600  0.086900  0.201400  1.0  0.136
  H  H600  1  0.071100  0.122900  0.179700  1.0  0.1388
  H  H601  1  0.050400  0.130900  0.224000  1.0  0.1348
  H  H602  1  0.484100  0.054300  0.126900  1.0  0.1263
  H  H603  1  0.472700  0.055300  0.173200  1.0  0.1249
  H  H604  1  0.468000  0.099700  0.148100  1.0  0.1302
  H  H605  1  0.632100  0.543300  0.176200  1.0  0.3158
  H  H606  1  0.879700  0.519100  0.186300  1.0  0.3133
  H  H607  1  0.533200  0.653900  0.346800  1.0  0.0846
  H  H608  1  0.969200  0.629400  0.011100  1.0  0.0957
  H  H609  1  0.556100  0.602900  0.297600  1.0  0.1124
  H  H610  1  0.947400  0.577200  0.059100  1.0  0.0975
  H  H611  1  0.720200  0.656400  0.287500  1.0  0.0945
  H  H612  1  0.797300  0.645200  0.086200  1.0  0.0864
  H  H613  1  0.698500  0.705600  0.338800  1.0  0.0983
  H  H614  1  0.819700  0.698200  0.038000  1.0  0.1128
  H  H615  1  0.738800  0.547300  0.304000  1.0  0.1543
  H  H616  1  0.775500  0.583500  0.280400  1.0  0.1251
  H  H617  1  0.779000  0.532800  0.267800  1.0  0.1322
  H  H618  1  0.717300  0.576700  0.112600  1.0  0.1289
  H  H619  1  0.726900  0.527200  0.097900  1.0  0.1283
  H  H620  1  0.751700  0.567400  0.072500  1.0  0.1088
  H  H621  1  0.531600  0.586900  0.201400  1.0  0.136
  H  H622  1  0.571100  0.622900  0.179700  1.0  0.1388
  H  H623  1  0.550400  0.630900  0.224000  1.0  0.1348
  H  H624  1  0.984100  0.554300  0.126900  1.0  0.1263
  H  H625  1  0.972700  0.555300  0.173200  1.0  0.1249
  H  H626  1  0.968000  0.599700  0.148100  1.0  0.1302
  H  H627  1  0.632100  0.043300  0.676200  1.0  0.3158
  H  H628  1  0.879700  0.019100  0.686300  1.0  0.3133
  H  H629  1  0.533200  0.153900  0.846800  1.0  0.0846
  H  H630  1  0.969200  0.129400  0.511100  1.0  0.0957
  H  H631  1  0.556100  0.102900  0.797600  1.0  0.1124
  H  H632  1  0.947400  0.077200  0.559100  1.0  0.0975
  H  H633  1  0.720200  0.156400  0.787500  1.0  0.0945
  H  H634  1  0.797300  0.145200  0.586200  1.0  0.0864
  H  H635  1  0.698500  0.205600  0.838800  1.0  0.0983
  H  H636  1  0.819700  0.198200  0.538000  1.0  0.1128
  H  H637  1  0.738800  0.047300  0.804000  1.0  0.1543
  H  H638  1  0.775500  0.083500  0.780400  1.0  0.1251
  H  H639  1  0.779000  0.032800  0.767800  1.0  0.1322
  H  H640  1  0.717300  0.076700  0.612600  1.0  0.1289
  H  H641  1  0.726900  0.027200  0.597900  1.0  0.1283
  H  H642  1  0.751700  0.067400  0.572500  1.0  0.1088
  H  H643  1  0.531600  0.086900  0.701400  1.0  0.136
  H  H644  1  0.571100  0.122900  0.679700  1.0  0.1388
  H  H645  1  0.550400  0.130900  0.724000  1.0  0.1348
  H  H646  1  0.984100  0.054300  0.626900  1.0  0.1263
  H  H647  1  0.972700  0.055300  0.673200  1.0  0.1249
  H  H648  1  0.968000  0.099700  0.648100  1.0  0.1302
  H  H649  1  0.117900  0.793300  0.926200  1.0  0.3151
  H  H650  1  0.870300  0.769100  0.936300  1.0  0.3123
  H  H651  1  0.216800  0.903900  0.096800  1.0  0.0849
  H  H652  1  0.780800  0.879400  0.761100  1.0  0.0953
  H  H653  1  0.193900  0.852900  0.047600  1.0  0.1129
  H  H654  1  0.802600  0.827200  0.809100  1.0  0.0975
  H  H655  1  0.029800  0.906400  0.037500  1.0  0.0942
  H  H656  1  0.952700  0.895200  0.836200  1.0  0.0867
  H  H657  1  0.051500  0.955600  0.088800  1.0  0.0984
  H  H658  1  0.930300  0.948200  0.788000  1.0  0.1124
  H  H659  1  0.011200  0.797300  0.054000  1.0  0.154
  H  H660  1  0.974500  0.833500  0.030400  1.0  0.1256
  H  H661  1  0.971000  0.782800  0.017800  1.0  0.1327
  H  H662  1  0.032700  0.826700  0.862600  1.0  0.1288
  H  H663  1  0.023100  0.777200  0.847900  1.0  0.129
  H  H664  1  0.998300  0.817400  0.822500  1.0  0.1088
  H  H665  1  0.218400  0.836900  0.951400  1.0  0.1361
  H  H666  1  0.178900  0.872900  0.929700  1.0  0.1392
  H  H667  1  0.199600  0.880900  0.974000  1.0  0.1343
  H  H668  1  0.765900  0.804300  0.876900  1.0  0.1263
  H  H669  1  0.777300  0.805300  0.923200  1.0  0.1247
  H  H670  1  0.782000  0.849700  0.898100  1.0  0.1301
  H  H671  1  0.117900  0.293300  0.426200  1.0  0.3151
  H  H672  1  0.870300  0.269100  0.436300  1.0  0.3123
  H  H673  1  0.216800  0.403900  0.596800  1.0  0.0849
  H  H674  1  0.780800  0.379400  0.261100  1.0  0.0953
  H  H675  1  0.193900  0.352900  0.547600  1.0  0.1129
  H  H676  1  0.802600  0.327200  0.309100  1.0  0.0975
  H  H677  1  0.029800  0.406400  0.537500  1.0  0.0942
  H  H678  1  0.952700  0.395200  0.336200  1.0  0.0867
  H  H679  1  0.051500  0.455600  0.588800  1.0  0.0984
  H  H680  1  0.930300  0.448200  0.288000  1.0  0.1124
  H  H681  1  0.011200  0.297300  0.554000  1.0  0.154
  H  H682  1  0.974500  0.333500  0.530400  1.0  0.1256
  H  H683  1  0.971000  0.282800  0.517800  1.0  0.1327
  H  H684  1  0.032700  0.326700  0.362600  1.0  0.1288
  H  H685  1  0.023100  0.277200  0.347900  1.0  0.129
  H  H686  1  0.998300  0.317400  0.322500  1.0  0.1088
  H  H687  1  0.218400  0.336900  0.451400  1.0  0.1361
  H  H688  1  0.178900  0.372900  0.429700  1.0  0.1392
  H  H689  1  0.199600  0.380900  0.474000  1.0  0.1343
  H  H690  1  0.765900  0.304300  0.376900  1.0  0.1263
  H  H691  1  0.777300  0.305300  0.423200  1.0  0.1247
  H  H692  1  0.782000  0.349700  0.398100  1.0  0.1301
  H  H693  1  0.617900  0.793300  0.426200  1.0  0.3151
  H  H694  1  0.370300  0.769100  0.436300  1.0  0.3123
  H  H695  1  0.716800  0.903900  0.596800  1.0  0.0849
  H  H696  1  0.280800  0.879400  0.261100  1.0  0.0953
  H  H697  1  0.693900  0.852900  0.547600  1.0  0.1129
  H  H698  1  0.302600  0.827200  0.309100  1.0  0.0975
  H  H699  1  0.529800  0.906400  0.537500  1.0  0.0942
  H  H700  1  0.452700  0.895200  0.336200  1.0  0.0867
  H  H701  1  0.551500  0.955600  0.588800  1.0  0.0984
  H  H702  1  0.430300  0.948200  0.288000  1.0  0.1124
  H  H703  1  0.511200  0.797300  0.554000  1.0  0.154
  H  H704  1  0.474500  0.833500  0.530400  1.0  0.1256
  H  H705  1  0.471000  0.782800  0.517800  1.0  0.1327
  H  H706  1  0.532700  0.826700  0.362600  1.0  0.1288
  H  H707  1  0.523100  0.777200  0.347900  1.0  0.129
  H  H708  1  0.498300  0.817400  0.322500  1.0  0.1088
  H  H709  1  0.718400  0.836900  0.451400  1.0  0.1361
  H  H710  1  0.678900  0.872900  0.429700  1.0  0.1392
  H  H711  1  0.699600  0.880900  0.474000  1.0  0.1343
  H  H712  1  0.265900  0.804300  0.376900  1.0  0.1263
  H  H713  1  0.277300  0.805300  0.423200  1.0  0.1247
  H  H714  1  0.282000  0.849700  0.398100  1.0  0.1301
  H  H715  1  0.617900  0.293300  0.926200  1.0  0.3151
  H  H716  1  0.370300  0.269100  0.936300  1.0  0.3123
  H  H717  1  0.716800  0.403900  0.096800  1.0  0.0849
  H  H718  1  0.280800  0.379400  0.761100  1.0  0.0953
  H  H719  1  0.693900  0.352900  0.047600  1.0  0.1129
  H  H720  1  0.302600  0.327200  0.809100  1.0  0.0975
  H  H721  1  0.529800  0.406400  0.037500  1.0  0.0942
  H  H722  1  0.452700  0.395200  0.836200  1.0  0.0867
  H  H723  1  0.551500  0.455600  0.088800  1.0  0.0984
  H  H724  1  0.430300  0.448200  0.788000  1.0  0.1124
  H  H725  1  0.511200  0.297300  0.054000  1.0  0.154
  H  H726  1  0.474500  0.333500  0.030400  1.0  0.1256
  H  H727  1  0.471000  0.282800  0.017800  1.0  0.1327
  H  H728  1  0.532700  0.326700  0.862600  1.0  0.1288
  H  H729  1  0.523100  0.277200  0.847900  1.0  0.129
  H  H730  1  0.498300  0.317400  0.822500  1.0  0.1088
  H  H731  1  0.718400  0.336900  0.951400  1.0  0.1361
  H  H732  1  0.678900  0.372900  0.929700  1.0  0.1392
  H  H733  1  0.699600  0.380900  0.974000  1.0  0.1343
  H  H734  1  0.265900  0.304300  0.876900  1.0  0.1263
  H  H735  1  0.277300  0.305300  0.923200  1.0  0.1247
  H  H736  1  0.282000  0.349700  0.898100  1.0  0.1301
  C  C737  1  0.850800  0.349100  0.570900  1.0  -0.1623
  C  C738  1  0.835000  0.339800  0.531700  1.0  -0.0283
  C  C739  1  0.938900  0.436200  0.446400  1.0  0.2419
  C  C740  1  0.851800  0.369700  0.501100  1.0  -0.0796
  C  C741  1  0.898100  0.441400  0.477100  1.0  -0.1959
  C  C742  1  0.882400  0.409200  0.509700  1.0  0.0025
  C  C743  1  0.874400  0.485000  0.471900  1.0  0.1966
  C  C744  1  0.897800  0.418100  0.549400  1.0  -0.0784
  C  C745  1  0.883300  0.388100  0.579000  1.0  -0.0884
  C  C746  1  0.832200  0.318500  0.605000  1.0  0.6853
  C  C747  1  0.978100  0.396500  0.438200  1.0  -0.3863
  C  C748  1  0.828200  0.510100  0.495300  1.0  -0.3602
  C  C749  1  0.850800  0.849100  0.070900  1.0  -0.1623
  C  C750  1  0.835000  0.839800  0.031700  1.0  -0.0283
  C  C751  1  0.938900  0.936200  0.946400  1.0  0.2419
  C  C752  1  0.851800  0.869700  0.001100  1.0  -0.0796
  C  C753  1  0.898100  0.941400  0.977100  1.0  -0.1959
  C  C754  1  0.882400  0.909200  0.009700  1.0  0.0025
  C  C755  1  0.874400  0.985000  0.971900  1.0  0.1966
  C  C756  1  0.897800  0.918100  0.049400  1.0  -0.0784
  C  C757  1  0.883300  0.888100  0.079000  1.0  -0.0884
  C  C758  1  0.832200  0.818500  0.105000  1.0  0.6853
  C  C759  1  0.978100  0.896500  0.938200  1.0  -0.3863
  C  C760  1  0.828200  0.010100  0.995300  1.0  -0.3602
  C  C761  1  0.350800  0.349100  0.070900  1.0  -0.1623
  C  C762  1  0.335000  0.339800  0.031700  1.0  -0.0283
  C  C763  1  0.438900  0.436200  0.946400  1.0  0.2419
  C  C764  1  0.351800  0.369700  0.001100  1.0  -0.0796
  C  C765  1  0.398100  0.441400  0.977100  1.0  -0.1959
  C  C766  1  0.382400  0.409200  0.009700  1.0  0.0025
  C  C767  1  0.374400  0.485000  0.971900  1.0  0.1966
  C  C768  1  0.397800  0.418100  0.049400  1.0  -0.0784
  C  C769  1  0.383300  0.388100  0.079000  1.0  -0.0884
  C  C770  1  0.332200  0.318500  0.105000  1.0  0.6853
  C  C771  1  0.478100  0.396500  0.938200  1.0  -0.3863
  C  C772  1  0.328200  0.510100  0.995300  1.0  -0.3602
  C  C773  1  0.350800  0.849100  0.570900  1.0  -0.1623
  C  C774  1  0.335000  0.839800  0.531700  1.0  -0.0283
  C  C775  1  0.438900  0.936200  0.446400  1.0  0.2419
  C  C776  1  0.351800  0.869700  0.501100  1.0  -0.0796
  C  C777  1  0.398100  0.941400  0.477100  1.0  -0.1959
  C  C778  1  0.382400  0.909200  0.509700  1.0  0.0025
  C  C779  1  0.374400  0.985000  0.471900  1.0  0.1966
  C  C780  1  0.397800  0.918100  0.549400  1.0  -0.0784
  C  C781  1  0.383300  0.888100  0.579000  1.0  -0.0884
  C  C782  1  0.332200  0.818500  0.605000  1.0  0.6853
  C  C783  1  0.478100  0.896500  0.438200  1.0  -0.3863
  C  C784  1  0.328200  0.010100  0.495300  1.0  -0.3602
  C  C785  1  0.149200  0.650900  0.570900  1.0  -0.163
  C  C786  1  0.165000  0.660200  0.531700  1.0  -0.0295
  C  C787  1  0.061100  0.563800  0.446400  1.0  0.2415
  C  C788  1  0.148200  0.630300  0.501100  1.0  -0.0808
  C  C789  1  0.101900  0.558600  0.477100  1.0  -0.1954
  C  C790  1  0.117600  0.590800  0.509700  1.0  0.0023
  C  C791  1  0.125600  0.515000  0.471900  1.0  0.1969
  C  C792  1  0.102200  0.581900  0.549400  1.0  -0.0767
  C  C793  1  0.116700  0.611900  0.579000  1.0  -0.0874
  C  C794  1  0.167800  0.681500  0.605000  1.0  0.685
  C  C795  1  0.021900  0.603500  0.438200  1.0  -0.3859
  C  C796  1  0.171800  0.489900  0.495300  1.0  -0.362
  C  C797  1  0.149200  0.150900  0.070900  1.0  -0.163
  C  C798  1  0.165000  0.160200  0.031700  1.0  -0.0295
  C  C799  1  0.061100  0.063800  0.946400  1.0  0.2415
  C  C800  1  0.148200  0.130300  0.001100  1.0  -0.0808
  C  C801  1  0.101900  0.058600  0.977100  1.0  -0.1954
  C  C802  1  0.117600  0.090800  0.009700  1.0  0.0023
  C  C803  1  0.125600  0.015000  0.971900  1.0  0.1969
  C  C804  1  0.102200  0.081900  0.049400  1.0  -0.0767
  C  C805  1  0.116700  0.111900  0.079000  1.0  -0.0874
  C  C806  1  0.167800  0.181500  0.105000  1.0  0.685
  C  C807  1  0.021900  0.103500  0.938200  1.0  -0.3859
  C  C808  1  0.171800  0.989900  0.995300  1.0  -0.362
  C  C809  1  0.649200  0.650900  0.070900  1.0  -0.163
  C  C810  1  0.665000  0.660200  0.031700  1.0  -0.0295
  C  C811  1  0.561100  0.563800  0.946400  1.0  0.2415
  C  C812  1  0.648200  0.630300  0.001100  1.0  -0.0808
  C  C813  1  0.601900  0.558600  0.977100  1.0  -0.1954
  C  C814  1  0.617600  0.590800  0.009700  1.0  0.0023
  C  C815  1  0.625600  0.515000  0.971900  1.0  0.1969
  C  C816  1  0.602200  0.581900  0.049400  1.0  -0.0767
  C  C817  1  0.616700  0.611900  0.079000  1.0  -0.0874
  C  C818  1  0.667800  0.681500  0.105000  1.0  0.685
  C  C819  1  0.521900  0.603500  0.938200  1.0  -0.3859
  C  C820  1  0.671800  0.489900  0.995300  1.0  -0.362
  C  C821  1  0.649200  0.150900  0.570900  1.0  -0.163
  C  C822  1  0.665000  0.160200  0.531700  1.0  -0.0295
  C  C823  1  0.561100  0.063800  0.446400  1.0  0.2415
  C  C824  1  0.648200  0.130300  0.501100  1.0  -0.0808
  C  C825  1  0.601900  0.058600  0.477100  1.0  -0.1954
  C  C826  1  0.617600  0.090800  0.509700  1.0  0.0023
  C  C827  1  0.625600  0.015000  0.471900  1.0  0.1969
  C  C828  1  0.602200  0.081900  0.549400  1.0  -0.0767
  C  C829  1  0.616700  0.111900  0.579000  1.0  -0.0874
  C  C830  1  0.667800  0.181500  0.605000  1.0  0.685
  C  C831  1  0.521900  0.103500  0.438200  1.0  -0.3859
  C  C832  1  0.671800  0.989900  0.495300  1.0  -0.362
  C  C833  1  0.100800  0.900900  0.820900  1.0  -0.1626
  C  C834  1  0.085000  0.910200  0.781700  1.0  -0.0292
  C  C835  1  0.188900  0.813800  0.696400  1.0  0.2415
  C  C836  1  0.101800  0.880300  0.751100  1.0  -0.0802
  C  C837  1  0.148100  0.808600  0.727100  1.0  -0.1961
  C  C838  1  0.132400  0.840800  0.759700  1.0  0.0025
  C  C839  1  0.124400  0.765000  0.721900  1.0  0.1969
  C  C840  1  0.147800  0.831900  0.799400  1.0  -0.0782
  C  C841  1  0.133300  0.861900  0.829000  1.0  -0.0885
  C  C842  1  0.082200  0.931500  0.855000  1.0  0.6851
  C  C843  1  0.228100  0.853500  0.688200  1.0  -0.3864
  C  C844  1  0.078200  0.739900  0.745300  1.0  -0.3605
  C  C845  1  0.100800  0.400900  0.320900  1.0  -0.1626
  C  C846  1  0.085000  0.410200  0.281700  1.0  -0.0292
  C  C847  1  0.188900  0.313800  0.196400  1.0  0.2415
  C  C848  1  0.101800  0.380300  0.251100  1.0  -0.0802
  C  C849  1  0.148100  0.308600  0.227100  1.0  -0.1961
  C  C850  1  0.132400  0.340800  0.259700  1.0  0.0025
  C  C851  1  0.124400  0.265000  0.221900  1.0  0.1969
  C  C852  1  0.147800  0.331900  0.299400  1.0  -0.0782
  C  C853  1  0.133300  0.361900  0.329000  1.0  -0.0885
  C  C854  1  0.082200  0.431500  0.355000  1.0  0.6851
  C  C855  1  0.228100  0.353500  0.188200  1.0  -0.3864
  C  C856  1  0.078200  0.239900  0.245300  1.0  -0.3605
  C  C857  1  0.600800  0.900900  0.320900  1.0  -0.1626
  C  C858  1  0.585000  0.910200  0.281700  1.0  -0.0292
  C  C859  1  0.688900  0.813800  0.196400  1.0  0.2415
  C  C860  1  0.601800  0.880300  0.251100  1.0  -0.0802
  C  C861  1  0.648100  0.808600  0.227100  1.0  -0.1961
  C  C862  1  0.632400  0.840800  0.259700  1.0  0.0025
  C  C863  1  0.624400  0.765000  0.221900  1.0  0.1969
  C  C864  1  0.647800  0.831900  0.299400  1.0  -0.0782
  C  C865  1  0.633300  0.861900  0.329000  1.0  -0.0885
  C  C866  1  0.582200  0.931500  0.355000  1.0  0.6851
  C  C867  1  0.728100  0.853500  0.188200  1.0  -0.3864
  C  C868  1  0.578200  0.739900  0.245300  1.0  -0.3605
  C  C869  1  0.600800  0.400900  0.820900  1.0  -0.1626
  C  C870  1  0.585000  0.410200  0.781700  1.0  -0.0292
  C  C871  1  0.688900  0.313800  0.696400  1.0  0.2415
  C  C872  1  0.601800  0.380300  0.751100  1.0  -0.0802
  C  C873  1  0.648100  0.308600  0.727100  1.0  -0.1961
  C  C874  1  0.632400  0.340800  0.759700  1.0  0.0025
  C  C875  1  0.624400  0.265000  0.721900  1.0  0.1969
  C  C876  1  0.647800  0.331900  0.799400  1.0  -0.0782
  C  C877  1  0.633300  0.361900  0.829000  1.0  -0.0885
  C  C878  1  0.582200  0.431500  0.855000  1.0  0.6851
  C  C879  1  0.728100  0.353500  0.688200  1.0  -0.3864
  C  C880  1  0.578200  0.239900  0.745300  1.0  -0.3605
  C  C881  1  0.399200  0.599100  0.820900  1.0  -0.1629
  C  C882  1  0.415000  0.589800  0.781700  1.0  -0.03
  C  C883  1  0.311100  0.686200  0.696400  1.0  0.2419
  C  C884  1  0.398200  0.619700  0.751100  1.0  -0.0802
  C  C885  1  0.351900  0.691400  0.727100  1.0  -0.195
  C  C886  1  0.367600  0.659200  0.759700  1.0  0.0023
  C  C887  1  0.375600  0.735000  0.721900  1.0  0.1964
  C  C888  1  0.352200  0.668100  0.799400  1.0  -0.0771
  C  C889  1  0.366700  0.638100  0.829000  1.0  -0.0871
  C  C890  1  0.417800  0.568500  0.855000  1.0  0.6843
  C  C891  1  0.271900  0.646500  0.688200  1.0  -0.386
  C  C892  1  0.421800  0.760100  0.745300  1.0  -0.3619
  C  C893  1  0.399200  0.099100  0.320900  1.0  -0.1629
  C  C894  1  0.415000  0.089800  0.281700  1.0  -0.03
  C  C895  1  0.311100  0.186200  0.196400  1.0  0.2419
  C  C896  1  0.398200  0.119700  0.251100  1.0  -0.0802
  C  C897  1  0.351900  0.191400  0.227100  1.0  -0.195
  C  C898  1  0.367600  0.159200  0.259700  1.0  0.0023
  C  C899  1  0.375600  0.235000  0.221900  1.0  0.1964
  C  C900  1  0.352200  0.168100  0.299400  1.0  -0.0771
  C  C901  1  0.366700  0.138100  0.329000  1.0  -0.0871
  C  C902  1  0.417800  0.068500  0.355000  1.0  0.6843
  C  C903  1  0.271900  0.146500  0.188200  1.0  -0.386
  C  C904  1  0.421800  0.260100  0.245300  1.0  -0.3619
  C  C905  1  0.899200  0.599100  0.320900  1.0  -0.1629
  C  C906  1  0.915000  0.589800  0.281700  1.0  -0.03
  C  C907  1  0.811100  0.686200  0.196400  1.0  0.2419
  C  C908  1  0.898200  0.619700  0.251100  1.0  -0.0802
  C  C909  1  0.851900  0.691400  0.227100  1.0  -0.195
  C  C910  1  0.867600  0.659200  0.259700  1.0  0.0023
  C  C911  1  0.875600  0.735000  0.221900  1.0  0.1964
  C  C912  1  0.852200  0.668100  0.299400  1.0  -0.0771
  C  C913  1  0.866700  0.638100  0.329000  1.0  -0.0871
  C  C914  1  0.917800  0.568500  0.355000  1.0  0.6843
  C  C915  1  0.771900  0.646500  0.188200  1.0  -0.386
  C  C916  1  0.921800  0.760100  0.245300  1.0  -0.3619
  C  C917  1  0.899200  0.099100  0.820900  1.0  -0.1629
  C  C918  1  0.915000  0.089800  0.781700  1.0  -0.03
  C  C919  1  0.811100  0.186200  0.696400  1.0  0.2419
  C  C920  1  0.898200  0.119700  0.751100  1.0  -0.0802
  C  C921  1  0.851900  0.191400  0.727100  1.0  -0.195
  C  C922  1  0.867600  0.159200  0.759700  1.0  0.0023
  C  C923  1  0.875600  0.235000  0.721900  1.0  0.1964
  C  C924  1  0.852200  0.168100  0.799400  1.0  -0.0771
  C  C925  1  0.866700  0.138100  0.829000  1.0  -0.0871
  C  C926  1  0.917800  0.068500  0.855000  1.0  0.6843
  C  C927  1  0.771900  0.146500  0.688200  1.0  -0.386
  C  C928  1  0.921800  0.260100  0.745300  1.0  -0.3619
  C  C929  1  0.360400  0.677100  0.331900  1.0  -0.1675
  C  C930  1  0.324300  0.640000  0.338000  1.0  -0.0378
  C  C931  1  0.452300  0.564800  0.437100  1.0  0.2358
  C  C932  1  0.336400  0.609900  0.368600  1.0  -0.0964
  C  C933  1  0.398100  0.585000  0.426500  1.0  -0.1926
  C  C934  1  0.385700  0.616300  0.393600  1.0  0.0243
  C  C935  1  0.356200  0.568500  0.454400  1.0  0.1779
  C  C936  1  0.422400  0.652700  0.386200  1.0  -0.0995
  C  C937  1  0.410900  0.682400  0.355700  1.0  -0.0472
  C  C938  1  0.346300  0.711100  0.300300  1.0  0.6703
  C  C939  1  0.512300  0.570300  0.417600  1.0  -0.3975
  C  C940  1  0.291900  0.579300  0.460400  1.0  -0.3744
  C  C941  1  0.360400  0.177100  0.831900  1.0  -0.1675
  C  C942  1  0.324300  0.140000  0.838000  1.0  -0.0378
  C  C943  1  0.452300  0.064800  0.937100  1.0  0.2358
  C  C944  1  0.336400  0.109900  0.868600  1.0  -0.0964
  C  C945  1  0.398100  0.085000  0.926500  1.0  -0.1926
  C  C946  1  0.385700  0.116300  0.893600  1.0  0.0243
  C  C947  1  0.356200  0.068500  0.954400  1.0  0.1779
  C  C948  1  0.422400  0.152700  0.886200  1.0  -0.0995
  C  C949  1  0.410900  0.182400  0.855700  1.0  -0.0472
  C  C950  1  0.346300  0.211100  0.800300  1.0  0.6703
  C  C951  1  0.512300  0.070300  0.917600  1.0  -0.3975
  C  C952  1  0.291900  0.079300  0.960400  1.0  -0.3744
  C  C953  1  0.860400  0.677100  0.831900  1.0  -0.1675
  C  C954  1  0.824300  0.640000  0.838000  1.0  -0.0378
  C  C955  1  0.952300  0.564800  0.937100  1.0  0.2358
  C  C956  1  0.836400  0.609900  0.868600  1.0  -0.0964
  C  C957  1  0.898100  0.585000  0.926500  1.0  -0.1926
  C  C958  1  0.885700  0.616300  0.893600  1.0  0.0243
  C  C959  1  0.856200  0.568500  0.954400  1.0  0.1779
  C  C960  1  0.922400  0.652700  0.886200  1.0  -0.0995
  C  C961  1  0.910900  0.682400  0.855700  1.0  -0.0472
  C  C962  1  0.846300  0.711100  0.800300  1.0  0.6703
  C  C963  1  0.012300  0.570300  0.917600  1.0  -0.3975
  C  C964  1  0.791900  0.579300  0.960400  1.0  -0.3744
  C  C965  1  0.860400  0.177100  0.331900  1.0  -0.1675
  C  C966  1  0.824300  0.140000  0.338000  1.0  -0.0378
  C  C967  1  0.952300  0.064800  0.437100  1.0  0.2358
  C  C968  1  0.836400  0.109900  0.368600  1.0  -0.0964
  C  C969  1  0.898100  0.085000  0.426500  1.0  -0.1926
  C  C970  1  0.885700  0.116300  0.393600  1.0  0.0243
  C  C971  1  0.856200  0.068500  0.454400  1.0  0.1779
  C  C972  1  0.922400  0.152700  0.386200  1.0  -0.0995
  C  C973  1  0.910900  0.182400  0.355700  1.0  -0.0472
  C  C974  1  0.846300  0.211100  0.300300  1.0  0.6703
  C  C975  1  0.012300  0.070300  0.417600  1.0  -0.3975
  C  C976  1  0.791900  0.079300  0.460400  1.0  -0.3744
  C  C977  1  0.639600  0.322900  0.331900  1.0  -0.1679
  C  C978  1  0.675700  0.360000  0.338000  1.0  -0.0389
  C  C979  1  0.547700  0.435200  0.437100  1.0  0.236
  C  C980  1  0.663600  0.390100  0.368600  1.0  -0.0938
  C  C981  1  0.601900  0.415000  0.426500  1.0  -0.1923
  C  C982  1  0.614300  0.383700  0.393600  1.0  0.0248
  C  C983  1  0.643800  0.431500  0.454400  1.0  0.1802
  C  C984  1  0.577600  0.347300  0.386200  1.0  -0.0982
  C  C985  1  0.589100  0.317600  0.355700  1.0  -0.0484
  C  C986  1  0.653700  0.288900  0.300300  1.0  0.6706
  C  C987  1  0.487700  0.429700  0.417600  1.0  -0.3975
  C  C988  1  0.708100  0.420700  0.460400  1.0  -0.375
  C  C989  1  0.639600  0.822900  0.831900  1.0  -0.1679
  C  C990  1  0.675700  0.860000  0.838000  1.0  -0.0389
  C  C991  1  0.547700  0.935200  0.937100  1.0  0.236
  C  C992  1  0.663600  0.890100  0.868600  1.0  -0.0938
  C  C993  1  0.601900  0.915000  0.926500  1.0  -0.1923
  C  C994  1  0.614300  0.883700  0.893600  1.0  0.0248
  C  C995  1  0.643800  0.931500  0.954400  1.0  0.1802
  C  C996  1  0.577600  0.847300  0.886200  1.0  -0.0982
  C  C997  1  0.589100  0.817600  0.855700  1.0  -0.0484
  C  C998  1  0.653700  0.788900  0.800300  1.0  0.6706
  C  C999  1  0.487700  0.929700  0.917600  1.0  -0.3975
  C  C1000  1  0.708100  0.920700  0.960400  1.0  -0.375
  C  C1001  1  0.139600  0.322900  0.831900  1.0  -0.1679
  C  C1002  1  0.175700  0.360000  0.838000  1.0  -0.0389
  C  C1003  1  0.047700  0.435200  0.937100  1.0  0.236
  C  C1004  1  0.163600  0.390100  0.868600  1.0  -0.0938
  C  C1005  1  0.101900  0.415000  0.926500  1.0  -0.1923
  C  C1006  1  0.114300  0.383700  0.893600  1.0  0.0248
  C  C1007  1  0.143800  0.431500  0.954400  1.0  0.1802
  C  C1008  1  0.077600  0.347300  0.886200  1.0  -0.0982
  C  C1009  1  0.089100  0.317600  0.855700  1.0  -0.0484
  C  C1010  1  0.153700  0.288900  0.800300  1.0  0.6706
  C  C1011  1  0.987700  0.429700  0.917600  1.0  -0.3975
  C  C1012  1  0.208100  0.420700  0.960400  1.0  -0.375
  C  C1013  1  0.139600  0.822900  0.331900  1.0  -0.1679
  C  C1014  1  0.175700  0.860000  0.338000  1.0  -0.0389
  C  C1015  1  0.047700  0.935200  0.437100  1.0  0.236
  C  C1016  1  0.163600  0.890100  0.368600  1.0  -0.0938
  C  C1017  1  0.101900  0.915000  0.426500  1.0  -0.1923
  C  C1018  1  0.114300  0.883700  0.393600  1.0  0.0248
  C  C1019  1  0.143800  0.931500  0.454400  1.0  0.1802
  C  C1020  1  0.077600  0.847300  0.386200  1.0  -0.0982
  C  C1021  1  0.089100  0.817600  0.355700  1.0  -0.0484
  C  C1022  1  0.153700  0.788900  0.300300  1.0  0.6706
  C  C1023  1  0.987700  0.929700  0.417600  1.0  -0.3975
  C  C1024  1  0.208100  0.920700  0.460400  1.0  -0.375
  C  C1025  1  0.610400  0.572900  0.581900  1.0  -0.1684
  C  C1026  1  0.574300  0.610000  0.588000  1.0  -0.037
  C  C1027  1  0.702300  0.685200  0.687100  1.0  0.2362
  C  C1028  1  0.586400  0.640100  0.618600  1.0  -0.0948
  C  C1029  1  0.648100  0.665000  0.676500  1.0  -0.1924
  C  C1030  1  0.635700  0.633700  0.643600  1.0  0.0249
  C  C1031  1  0.606200  0.681500  0.704400  1.0  0.179
  C  C1032  1  0.672400  0.597300  0.636200  1.0  -0.0988
  C  C1033  1  0.660900  0.567600  0.605700  1.0  -0.0466
  C  C1034  1  0.596300  0.538900  0.550300  1.0  0.6691
  C  C1035  1  0.762300  0.679700  0.667600  1.0  -0.3977
  C  C1036  1  0.541900  0.670700  0.710400  1.0  -0.3743
  C  C1037  1  0.610400  0.072900  0.081900  1.0  -0.1684
  C  C1038  1  0.574300  0.110000  0.088000  1.0  -0.037
  C  C1039  1  0.702300  0.185200  0.187100  1.0  0.2362
  C  C1040  1  0.586400  0.140100  0.118600  1.0  -0.0948
  C  C1041  1  0.648100  0.165000  0.176500  1.0  -0.1924
  C  C1042  1  0.635700  0.133700  0.143600  1.0  0.0249
  C  C1043  1  0.606200  0.181500  0.204400  1.0  0.179
  C  C1044  1  0.672400  0.097300  0.136200  1.0  -0.0988
  C  C1045  1  0.660900  0.067600  0.105700  1.0  -0.0466
  C  C1046  1  0.596300  0.038900  0.050300  1.0  0.6691
  C  C1047  1  0.762300  0.179700  0.167600  1.0  -0.3977
  C  C1048  1  0.541900  0.170700  0.210400  1.0  -0.3743
  C  C1049  1  0.110400  0.572900  0.081900  1.0  -0.1684
  C  C1050  1  0.074300  0.610000  0.088000  1.0  -0.037
  C  C1051  1  0.202300  0.685200  0.187100  1.0  0.2362
  C  C1052  1  0.086400  0.640100  0.118600  1.0  -0.0948
  C  C1053  1  0.148100  0.665000  0.176500  1.0  -0.1924
  C  C1054  1  0.135700  0.633700  0.143600  1.0  0.0249
  C  C1055  1  0.106200  0.681500  0.204400  1.0  0.179
  C  C1056  1  0.172400  0.597300  0.136200  1.0  -0.0988
  C  C1057  1  0.160900  0.567600  0.105700  1.0  -0.0466
  C  C1058  1  0.096300  0.538900  0.050300  1.0  0.6691
  C  C1059  1  0.262300  0.679700  0.167600  1.0  -0.3977
  C  C1060  1  0.041900  0.670700  0.210400  1.0  -0.3743
  C  C1061  1  0.110400  0.072900  0.581900  1.0  -0.1684
  C  C1062  1  0.074300  0.110000  0.588000  1.0  -0.037
  C  C1063  1  0.202300  0.185200  0.687100  1.0  0.2362
  C  C1064  1  0.086400  0.140100  0.618600  1.0  -0.0948
  C  C1065  1  0.148100  0.165000  0.676500  1.0  -0.1924
  C  C1066  1  0.135700  0.133700  0.643600  1.0  0.0249
  C  C1067  1  0.106200  0.181500  0.704400  1.0  0.179
  C  C1068  1  0.172400  0.097300  0.636200  1.0  -0.0988
  C  C1069  1  0.160900  0.067600  0.605700  1.0  -0.0466
  C  C1070  1  0.096300  0.038900  0.550300  1.0  0.6691
  C  C1071  1  0.262300  0.179700  0.667600  1.0  -0.3977
  C  C1072  1  0.041900  0.170700  0.710400  1.0  -0.3743
  C  C1073  1  0.889600  0.927100  0.581900  1.0  -0.1668
  C  C1074  1  0.925700  0.890000  0.588000  1.0  -0.0397
  C  C1075  1  0.797700  0.814800  0.687100  1.0  0.2356
  C  C1076  1  0.913600  0.859900  0.618600  1.0  -0.0977
  C  C1077  1  0.851900  0.835000  0.676500  1.0  -0.1925
  C  C1078  1  0.864300  0.866300  0.643600  1.0  0.0243
  C  C1079  1  0.893800  0.818500  0.704400  1.0  0.1791
  C  C1080  1  0.827600  0.902700  0.636200  1.0  -0.0986
  C  C1081  1  0.839100  0.932400  0.605700  1.0  -0.0485
  C  C1082  1  0.903700  0.961100  0.550300  1.0  0.6693
  C  C1083  1  0.737700  0.820300  0.667600  1.0  -0.3974
  C  C1084  1  0.958100  0.829300  0.710400  1.0  -0.3755
  C  C1085  1  0.889600  0.427100  0.081900  1.0  -0.1668
  C  C1086  1  0.925700  0.390000  0.088000  1.0  -0.0397
  C  C1087  1  0.797700  0.314800  0.187100  1.0  0.2356
  C  C1088  1  0.913600  0.359900  0.118600  1.0  -0.0977
  C  C1089  1  0.851900  0.335000  0.176500  1.0  -0.1925
  C  C1090  1  0.864300  0.366300  0.143600  1.0  0.0243
  C  C1091  1  0.893800  0.318500  0.204400  1.0  0.1791
  C  C1092  1  0.827600  0.402700  0.136200  1.0  -0.0986
  C  C1093  1  0.839100  0.432400  0.105700  1.0  -0.0485
  C  C1094  1  0.903700  0.461100  0.050300  1.0  0.6693
  C  C1095  1  0.737700  0.320300  0.167600  1.0  -0.3974
  C  C1096  1  0.958100  0.329300  0.210400  1.0  -0.3755
  C  C1097  1  0.389600  0.927100  0.081900  1.0  -0.1668
  C  C1098  1  0.425700  0.890000  0.088000  1.0  -0.0397
  C  C1099  1  0.297700  0.814800  0.187100  1.0  0.2356
  C  C1100  1  0.413600  0.859900  0.118600  1.0  -0.0977
  C  C1101  1  0.351900  0.835000  0.176500  1.0  -0.1925
  C  C1102  1  0.364300  0.866300  0.143600  1.0  0.0243
  C  C1103  1  0.393800  0.818500  0.204400  1.0  0.1791
  C  C1104  1  0.327600  0.902700  0.136200  1.0  -0.0986
  C  C1105  1  0.339100  0.932400  0.105700  1.0  -0.0485
  C  C1106  1  0.403700  0.961100  0.050300  1.0  0.6693
  C  C1107  1  0.237700  0.820300  0.167600  1.0  -0.3974
  C  C1108  1  0.458100  0.829300  0.210400  1.0  -0.3755
  C  C1109  1  0.389600  0.427100  0.581900  1.0  -0.1668
  C  C1110  1  0.425700  0.390000  0.588000  1.0  -0.0397
  C  C1111  1  0.297700  0.314800  0.687100  1.0  0.2356
  C  C1112  1  0.413600  0.359900  0.618600  1.0  -0.0977
  C  C1113  1  0.351900  0.335000  0.676500  1.0  -0.1925
  C  C1114  1  0.364300  0.366300  0.643600  1.0  0.0243
  C  C1115  1  0.393800  0.318500  0.704400  1.0  0.1791
  C  C1116  1  0.327600  0.402700  0.636200  1.0  -0.0986
  C  C1117  1  0.339100  0.432400  0.605700  1.0  -0.0485
  C  C1118  1  0.403700  0.461100  0.550300  1.0  0.6693
  C  C1119  1  0.237700  0.320300  0.667600  1.0  -0.3974
  C  C1120  1  0.458100  0.329300  0.710400  1.0  -0.3755
  C  C1121  1  0.886100  0.314800  0.848700  1.0  -0.1826
  C  C1122  1  0.601800  0.330800  0.518800  1.0  -0.1141
  C  C1123  1  0.928900  0.345900  0.835300  1.0  -0.0474
  C  C1124  1  0.565400  0.367200  0.526300  1.0  -0.0331
  C  C1125  1  0.798300  0.437300  0.750300  1.0  0.2455
  C  C1126  1  0.698800  0.445400  0.621400  1.0  0.2305
  C  C1127  1  0.915500  0.376100  0.805400  1.0  -0.1115
  C  C1128  1  0.578200  0.398600  0.555200  1.0  -0.1517
  C  C1129  1  0.845500  0.407500  0.753200  1.0  -0.131
  C  C1130  1  0.642300  0.425300  0.611100  1.0  -0.117
  C  C1131  1  0.859700  0.375500  0.786600  1.0  0.0251
  C  C1132  1  0.630400  0.394100  0.579300  1.0  0.0603
  C  C1133  1  0.881200  0.414400  0.719900  1.0  0.1582
  C  C1134  1  0.603500  0.440900  0.641000  1.0  0.1702
  C  C1135  1  0.817300  0.344400  0.799600  1.0  -0.0905
  C  C1136  1  0.667700  0.357900  0.571400  1.0  -0.1178
  C  C1137  1  0.830500  0.314700  0.830300  1.0  -0.0231
  C  C1138  1  0.654700  0.326000  0.542200  1.0  -0.0479
  C  C1139  1  0.901100  0.282100  0.880600  1.0  0.6624
  C  C1140  1  0.586500  0.295600  0.488800  1.0  0.6824
  C  C1141  1  0.746600  0.444000  0.778100  1.0  -0.3981
  C  C1142  1  0.755700  0.443300  0.599200  1.0  -0.3857
  C  C1143  1  0.937100  0.391300  0.704900  1.0  -0.3813
  C  C1144  1  0.539000  0.432100  0.647900  1.0  -0.3846
  C  C1145  1  0.886100  0.814800  0.348700  1.0  -0.1826
  C  C1146  1  0.601800  0.830800  0.018800  1.0  -0.1141
  C  C1147  1  0.928900  0.845900  0.335300  1.0  -0.0474
  C  C1148  1  0.565400  0.867200  0.026300  1.0  -0.0331
  C  C1149  1  0.798300  0.937300  0.250300  1.0  0.2455
  C  C1150  1  0.698800  0.945400  0.121400  1.0  0.2305
  C  C1151  1  0.915500  0.876100  0.305400  1.0  -0.1115
  C  C1152  1  0.578200  0.898600  0.055200  1.0  -0.1517
  C  C1153  1  0.845500  0.907500  0.253200  1.0  -0.131
  C  C1154  1  0.642300  0.925300  0.111100  1.0  -0.117
  C  C1155  1  0.859700  0.875500  0.286600  1.0  0.0251
  C  C1156  1  0.630400  0.894100  0.079300  1.0  0.0603
  C  C1157  1  0.881200  0.914400  0.219900  1.0  0.1582
  C  C1158  1  0.603500  0.940900  0.141000  1.0  0.1702
  C  C1159  1  0.817300  0.844400  0.299600  1.0  -0.0905
  C  C1160  1  0.667700  0.857900  0.071400  1.0  -0.1178
  C  C1161  1  0.830500  0.814700  0.330300  1.0  -0.0231
  C  C1162  1  0.654700  0.826000  0.042200  1.0  -0.0479
  C  C1163  1  0.901100  0.782100  0.380600  1.0  0.6624
  C  C1164  1  0.586500  0.795600  0.988800  1.0  0.6824
  C  C1165  1  0.746600  0.944000  0.278100  1.0  -0.3981
  C  C1166  1  0.755700  0.943300  0.099200  1.0  -0.3857
  C  C1167  1  0.937100  0.891300  0.204900  1.0  -0.3813
  C  C1168  1  0.539000  0.932100  0.147900  1.0  -0.3846
  C  C1169  1  0.386100  0.314800  0.348700  1.0  -0.1826
  C  C1170  1  0.101800  0.330800  0.018800  1.0  -0.1141
  C  C1171  1  0.428900  0.345900  0.335300  1.0  -0.0474
  C  C1172  1  0.065400  0.367200  0.026300  1.0  -0.0331
  C  C1173  1  0.298300  0.437300  0.250300  1.0  0.2455
  C  C1174  1  0.198800  0.445400  0.121400  1.0  0.2305
  C  C1175  1  0.415500  0.376100  0.305400  1.0  -0.1115
  C  C1176  1  0.078200  0.398600  0.055200  1.0  -0.1517
  C  C1177  1  0.345500  0.407500  0.253200  1.0  -0.131
  C  C1178  1  0.142300  0.425300  0.111100  1.0  -0.117
  C  C1179  1  0.359700  0.375500  0.286600  1.0  0.0251
  C  C1180  1  0.130400  0.394100  0.079300  1.0  0.0603
  C  C1181  1  0.381200  0.414400  0.219900  1.0  0.1582
  C  C1182  1  0.103500  0.440900  0.141000  1.0  0.1702
  C  C1183  1  0.317300  0.344400  0.299600  1.0  -0.0905
  C  C1184  1  0.167700  0.357900  0.071400  1.0  -0.1178
  C  C1185  1  0.330500  0.314700  0.330300  1.0  -0.0231
  C  C1186  1  0.154700  0.326000  0.042200  1.0  -0.0479
  C  C1187  1  0.401100  0.282100  0.380600  1.0  0.6624
  C  C1188  1  0.086500  0.295600  0.988800  1.0  0.6824
  C  C1189  1  0.246600  0.444000  0.278100  1.0  -0.3981
  C  C1190  1  0.255700  0.443300  0.099200  1.0  -0.3857
  C  C1191  1  0.437100  0.391300  0.204900  1.0  -0.3813
  C  C1192  1  0.039000  0.432100  0.147900  1.0  -0.3846
  C  C1193  1  0.386100  0.814800  0.848700  1.0  -0.1826
  C  C1194  1  0.101800  0.830800  0.518800  1.0  -0.1141
  C  C1195  1  0.428900  0.845900  0.835300  1.0  -0.0474
  C  C1196  1  0.065400  0.867200  0.526300  1.0  -0.0331
  C  C1197  1  0.298300  0.937300  0.750300  1.0  0.2455
  C  C1198  1  0.198800  0.945400  0.621400  1.0  0.2305
  C  C1199  1  0.415500  0.876100  0.805400  1.0  -0.1115
  C  C1200  1  0.078200  0.898600  0.555200  1.0  -0.1517
  C  C1201  1  0.345500  0.907500  0.753200  1.0  -0.131
  C  C1202  1  0.142300  0.925300  0.611100  1.0  -0.117
  C  C1203  1  0.359700  0.875500  0.786600  1.0  0.0251
  C  C1204  1  0.130400  0.894100  0.579300  1.0  0.0603
  C  C1205  1  0.381200  0.914400  0.719900  1.0  0.1582
  C  C1206  1  0.103500  0.940900  0.641000  1.0  0.1702
  C  C1207  1  0.317300  0.844400  0.799600  1.0  -0.0905
  C  C1208  1  0.167700  0.857900  0.571400  1.0  -0.1178
  C  C1209  1  0.330500  0.814700  0.830300  1.0  -0.0231
  C  C1210  1  0.154700  0.826000  0.542200  1.0  -0.0479
  C  C1211  1  0.401100  0.782100  0.880600  1.0  0.6624
  C  C1212  1  0.086500  0.795600  0.488800  1.0  0.6824
  C  C1213  1  0.246600  0.944000  0.778100  1.0  -0.3981
  C  C1214  1  0.255700  0.943300  0.599200  1.0  -0.3857
  C  C1215  1  0.437100  0.891300  0.704900  1.0  -0.3813
  C  C1216  1  0.039000  0.932100  0.647900  1.0  -0.3846
  C  C1217  1  0.363900  0.564800  0.098700  1.0  -0.1831
  C  C1218  1  0.648200  0.580800  0.768800  1.0  -0.1121
  C  C1219  1  0.321100  0.595900  0.085300  1.0  -0.046
  C  C1220  1  0.684600  0.617200  0.776300  1.0  -0.0341
  C  C1221  1  0.451700  0.687300  0.000300  1.0  0.2442
  C  C1222  1  0.551200  0.695400  0.871400  1.0  0.2305
  C  C1223  1  0.334500  0.626100  0.055400  1.0  -0.11
  C  C1224  1  0.671800  0.648600  0.805200  1.0  -0.1526
  C  C1225  1  0.404500  0.657500  0.003200  1.0  -0.1292
  C  C1226  1  0.607700  0.675300  0.861100  1.0  -0.1168
  C  C1227  1  0.390300  0.625500  0.036600  1.0  0.0244
  C  C1228  1  0.619600  0.644100  0.829300  1.0  0.0608
  C  C1229  1  0.368800  0.664400  0.969900  1.0  0.1573
  C  C1230  1  0.646500  0.690900  0.891000  1.0  0.1708
  C  C1231  1  0.432700  0.594400  0.049600  1.0  -0.0921
  C  C1232  1  0.582300  0.607900  0.821400  1.0  -0.1175
  C  C1233  1  0.419500  0.564700  0.080300  1.0  -0.024
  C  C1234  1  0.595300  0.576000  0.792200  1.0  -0.0473
  C  C1235  1  0.348900  0.532100  0.130600  1.0  0.6632
  C  C1236  1  0.663500  0.545600  0.738800  1.0  0.6827
  C  C1237  1  0.503400  0.694000  0.028100  1.0  -0.3997
  C  C1238  1  0.494300  0.693300  0.849200  1.0  -0.3851
  C  C1239  1  0.312900  0.641300  0.954900  1.0  -0.3814
  C  C1240  1  0.711000  0.682100  0.897900  1.0  -0.3858
  C  C1241  1  0.363900  0.064800  0.598700  1.0  -0.1831
  C  C1242  1  0.648200  0.080800  0.268800  1.0  -0.1121
  C  C1243  1  0.321100  0.095900  0.585300  1.0  -0.046
  C  C1244  1  0.684600  0.117200  0.276300  1.0  -0.0341
  C  C1245  1  0.451700  0.187300  0.500300  1.0  0.2442
  C  C1246  1  0.551200  0.195400  0.371400  1.0  0.2305
  C  C1247  1  0.334500  0.126100  0.555400  1.0  -0.11
  C  C1248  1  0.671800  0.148600  0.305200  1.0  -0.1526
  C  C1249  1  0.404500  0.157500  0.503200  1.0  -0.1292
  C  C1250  1  0.607700  0.175300  0.361100  1.0  -0.1168
  C  C1251  1  0.390300  0.125500  0.536600  1.0  0.0244
  C  C1252  1  0.619600  0.144100  0.329300  1.0  0.0608
  C  C1253  1  0.368800  0.164400  0.469900  1.0  0.1573
  C  C1254  1  0.646500  0.190900  0.391000  1.0  0.1708
  C  C1255  1  0.432700  0.094400  0.549600  1.0  -0.0921
  C  C1256  1  0.582300  0.107900  0.321400  1.0  -0.1175
  C  C1257  1  0.419500  0.064700  0.580300  1.0  -0.024
  C  C1258  1  0.595300  0.076000  0.292200  1.0  -0.0473
  C  C1259  1  0.348900  0.032100  0.630600  1.0  0.6632
  C  C1260  1  0.663500  0.045600  0.238800  1.0  0.6827
  C  C1261  1  0.503400  0.194000  0.528100  1.0  -0.3997
  C  C1262  1  0.494300  0.193300  0.349200  1.0  -0.3851
  C  C1263  1  0.312900  0.141300  0.454900  1.0  -0.3814
  C  C1264  1  0.711000  0.182100  0.397900  1.0  -0.3858
  C  C1265  1  0.863900  0.564800  0.598700  1.0  -0.1831
  C  C1266  1  0.148200  0.580800  0.268800  1.0  -0.1121
  C  C1267  1  0.821100  0.595900  0.585300  1.0  -0.046
  C  C1268  1  0.184600  0.617200  0.276300  1.0  -0.0341
  C  C1269  1  0.951700  0.687300  0.500300  1.0  0.2442
  C  C1270  1  0.051200  0.695400  0.371400  1.0  0.2305
  C  C1271  1  0.834500  0.626100  0.555400  1.0  -0.11
  C  C1272  1  0.171800  0.648600  0.305200  1.0  -0.1526
  C  C1273  1  0.904500  0.657500  0.503200  1.0  -0.1292
  C  C1274  1  0.107700  0.675300  0.361100  1.0  -0.1168
  C  C1275  1  0.890300  0.625500  0.536600  1.0  0.0244
  C  C1276  1  0.119600  0.644100  0.329300  1.0  0.0608
  C  C1277  1  0.868800  0.664400  0.469900  1.0  0.1573
  C  C1278  1  0.146500  0.690900  0.391000  1.0  0.1708
  C  C1279  1  0.932700  0.594400  0.549600  1.0  -0.0921
  C  C1280  1  0.082300  0.607900  0.321400  1.0  -0.1175
  C  C1281  1  0.919500  0.564700  0.580300  1.0  -0.024
  C  C1282  1  0.095300  0.576000  0.292200  1.0  -0.0473
  C  C1283  1  0.848900  0.532100  0.630600  1.0  0.6632
  C  C1284  1  0.163500  0.545600  0.238800  1.0  0.6827
  C  C1285  1  0.003400  0.694000  0.528100  1.0  -0.3997
  C  C1286  1  0.994300  0.693300  0.349200  1.0  -0.3851
  C  C1287  1  0.812900  0.641300  0.454900  1.0  -0.3814
  C  C1288  1  0.211000  0.682100  0.397900  1.0  -0.3858
  C  C1289  1  0.863900  0.064800  0.098700  1.0  -0.1831
  C  C1290  1  0.148200  0.080800  0.768800  1.0  -0.1121
  C  C1291  1  0.821100  0.095900  0.085300  1.0  -0.046
  C  C1292  1  0.184600  0.117200  0.776300  1.0  -0.0341
  C  C1293  1  0.951700  0.187300  0.000300  1.0  0.2442
  C  C1294  1  0.051200  0.195400  0.871400  1.0  0.2305
  C  C1295  1  0.834500  0.126100  0.055400  1.0  -0.11
  C  C1296  1  0.171800  0.148600  0.805200  1.0  -0.1526
  C  C1297  1  0.904500  0.157500  0.003200  1.0  -0.1292
  C  C1298  1  0.107700  0.175300  0.861100  1.0  -0.1168
  C  C1299  1  0.890300  0.125500  0.036600  1.0  0.0244
  C  C1300  1  0.119600  0.144100  0.829300  1.0  0.0608
  C  C1301  1  0.868800  0.164400  0.969900  1.0  0.1573
  C  C1302  1  0.146500  0.190900  0.891000  1.0  0.1708
  C  C1303  1  0.932700  0.094400  0.049600  1.0  -0.0921
  C  C1304  1  0.082300  0.107900  0.821400  1.0  -0.1175
  C  C1305  1  0.919500  0.064700  0.080300  1.0  -0.024
  C  C1306  1  0.095300  0.076000  0.792200  1.0  -0.0473
  C  C1307  1  0.848900  0.032100  0.130600  1.0  0.6632
  C  C1308  1  0.163500  0.045600  0.738800  1.0  0.6827
  C  C1309  1  0.003400  0.194000  0.028100  1.0  -0.3997
  C  C1310  1  0.994300  0.193300  0.849200  1.0  -0.3851
  C  C1311  1  0.812900  0.141300  0.954900  1.0  -0.3814
  C  C1312  1  0.211000  0.182100  0.897900  1.0  -0.3858
  C  C1313  1  0.113900  0.685200  0.848700  1.0  -0.1846
  C  C1314  1  0.398200  0.669200  0.518800  1.0  -0.111
  C  C1315  1  0.071100  0.654100  0.835300  1.0  -0.0462
  C  C1316  1  0.434600  0.632800  0.526300  1.0  -0.0337
  C  C1317  1  0.201700  0.562700  0.750300  1.0  0.2448
  C  C1318  1  0.301200  0.554600  0.621400  1.0  0.2308
  C  C1319  1  0.084500  0.623900  0.805400  1.0  -0.1096
  C  C1320  1  0.421800  0.601400  0.555200  1.0  -0.152
  C  C1321  1  0.154500  0.592500  0.753200  1.0  -0.1307
  C  C1322  1  0.357700  0.574700  0.611100  1.0  -0.1169
  C  C1323  1  0.140300  0.624500  0.786600  1.0  0.0245
  C  C1324  1  0.369600  0.605900  0.579300  1.0  0.0616
  C  C1325  1  0.118800  0.585600  0.719900  1.0  0.1569
  C  C1326  1  0.396500  0.559100  0.641000  1.0  0.1705
  C  C1327  1  0.182700  0.655600  0.799600  1.0  -0.0918
  C  C1328  1  0.332300  0.642100  0.571400  1.0  -0.1172
  C  C1329  1  0.169500  0.685300  0.830300  1.0  -0.0233
  C  C1330  1  0.345300  0.674000  0.542200  1.0  -0.0462
  C  C1331  1  0.098900  0.717900  0.880600  1.0  0.6631
  C  C1332  1  0.413500  0.704400  0.488800  1.0  0.6822
  C  C1333  1  0.253400  0.556000  0.778100  1.0  -0.399
  C  C1334  1  0.244300  0.556700  0.599200  1.0  -0.3848
  C  C1335  1  0.062900  0.608700  0.704900  1.0  -0.3815
  C  C1336  1  0.461000  0.567900  0.647900  1.0  -0.3859
  C  C1337  1  0.113900  0.185200  0.348700  1.0  -0.1846
  C  C1338  1  0.398200  0.169200  0.018800  1.0  -0.111
  C  C1339  1  0.071100  0.154100  0.335300  1.0  -0.0462
  C  C1340  1  0.434600  0.132800  0.026300  1.0  -0.0337
  C  C1341  1  0.201700  0.062700  0.250300  1.0  0.2448
  C  C1342  1  0.301200  0.054600  0.121400  1.0  0.2308
  C  C1343  1  0.084500  0.123900  0.305400  1.0  -0.1096
  C  C1344  1  0.421800  0.101400  0.055200  1.0  -0.152
  C  C1345  1  0.154500  0.092500  0.253200  1.0  -0.1307
  C  C1346  1  0.357700  0.074700  0.111100  1.0  -0.1169
  C  C1347  1  0.140300  0.124500  0.286600  1.0  0.0245
  C  C1348  1  0.369600  0.105900  0.079300  1.0  0.0616
  C  C1349  1  0.118800  0.085600  0.219900  1.0  0.1569
  C  C1350  1  0.396500  0.059100  0.141000  1.0  0.1705
  C  C1351  1  0.182700  0.155600  0.299600  1.0  -0.0918
  C  C1352  1  0.332300  0.142100  0.071400  1.0  -0.1172
  C  C1353  1  0.169500  0.185300  0.330300  1.0  -0.0233
  C  C1354  1  0.345300  0.174000  0.042200  1.0  -0.0462
  C  C1355  1  0.098900  0.217900  0.380600  1.0  0.6631
  C  C1356  1  0.413500  0.204400  0.988800  1.0  0.6822
  C  C1357  1  0.253400  0.056000  0.278100  1.0  -0.399
  C  C1358  1  0.244300  0.056700  0.099200  1.0  -0.3848
  C  C1359  1  0.062900  0.108700  0.204900  1.0  -0.3815
  C  C1360  1  0.461000  0.067900  0.147900  1.0  -0.3859
  C  C1361  1  0.613900  0.685200  0.348700  1.0  -0.1846
  C  C1362  1  0.898200  0.669200  0.018800  1.0  -0.111
  C  C1363  1  0.571100  0.654100  0.335300  1.0  -0.0462
  C  C1364  1  0.934600  0.632800  0.026300  1.0  -0.0337
  C  C1365  1  0.701700  0.562700  0.250300  1.0  0.2448
  C  C1366  1  0.801200  0.554600  0.121400  1.0  0.2308
  C  C1367  1  0.584500  0.623900  0.305400  1.0  -0.1096
  C  C1368  1  0.921800  0.601400  0.055200  1.0  -0.152
  C  C1369  1  0.654500  0.592500  0.253200  1.0  -0.1307
  C  C1370  1  0.857700  0.574700  0.111100  1.0  -0.1169
  C  C1371  1  0.640300  0.624500  0.286600  1.0  0.0245
  C  C1372  1  0.869600  0.605900  0.079300  1.0  0.0616
  C  C1373  1  0.618800  0.585600  0.219900  1.0  0.1569
  C  C1374  1  0.896500  0.559100  0.141000  1.0  0.1705
  C  C1375  1  0.682700  0.655600  0.299600  1.0  -0.0918
  C  C1376  1  0.832300  0.642100  0.071400  1.0  -0.1172
  C  C1377  1  0.669500  0.685300  0.330300  1.0  -0.0233
  C  C1378  1  0.845300  0.674000  0.042200  1.0  -0.0462
  C  C1379  1  0.598900  0.717900  0.380600  1.0  0.6631
  C  C1380  1  0.913500  0.704400  0.988800  1.0  0.6822
  C  C1381  1  0.753400  0.556000  0.278100  1.0  -0.399
  C  C1382  1  0.744300  0.556700  0.099200  1.0  -0.3848
  C  C1383  1  0.562900  0.608700  0.204900  1.0  -0.3815
  C  C1384  1  0.961000  0.567900  0.147900  1.0  -0.3859
  C  C1385  1  0.613900  0.185200  0.848700  1.0  -0.1846
  C  C1386  1  0.898200  0.169200  0.518800  1.0  -0.111
  C  C1387  1  0.571100  0.154100  0.835300  1.0  -0.0462
  C  C1388  1  0.934600  0.132800  0.526300  1.0  -0.0337
  C  C1389  1  0.701700  0.062700  0.750300  1.0  0.2448
  C  C1390  1  0.801200  0.054600  0.621400  1.0  0.2308
  C  C1391  1  0.584500  0.123900  0.805400  1.0  -0.1096
  C  C1392  1  0.921800  0.101400  0.555200  1.0  -0.152
  C  C1393  1  0.654500  0.092500  0.753200  1.0  -0.1307
  C  C1394  1  0.857700  0.074700  0.611100  1.0  -0.1169
  C  C1395  1  0.640300  0.124500  0.786600  1.0  0.0245
  C  C1396  1  0.869600  0.105900  0.579300  1.0  0.0616
  C  C1397  1  0.618800  0.085600  0.719900  1.0  0.1569
  C  C1398  1  0.896500  0.059100  0.641000  1.0  0.1705
  C  C1399  1  0.682700  0.155600  0.799600  1.0  -0.0918
  C  C1400  1  0.832300  0.142100  0.571400  1.0  -0.1172
  C  C1401  1  0.669500  0.185300  0.830300  1.0  -0.0233
  C  C1402  1  0.845300  0.174000  0.542200  1.0  -0.0462
  C  C1403  1  0.598900  0.217900  0.880600  1.0  0.6631
  C  C1404  1  0.913500  0.204400  0.488800  1.0  0.6822
  C  C1405  1  0.753400  0.056000  0.778100  1.0  -0.399
  C  C1406  1  0.744300  0.056700  0.599200  1.0  -0.3848
  C  C1407  1  0.562900  0.108700  0.704900  1.0  -0.3815
  C  C1408  1  0.961000  0.067900  0.647900  1.0  -0.3859
  C  C1409  1  0.136100  0.935200  0.098700  1.0  -0.1835
  C  C1410  1  0.851800  0.919200  0.768800  1.0  -0.1133
  C  C1411  1  0.178900  0.904100  0.085300  1.0  -0.0473
  C  C1412  1  0.815400  0.882800  0.776300  1.0  -0.033
  C  C1413  1  0.048300  0.812700  0.000300  1.0  0.245
  C  C1414  1  0.948800  0.804600  0.871400  1.0  0.2307
  C  C1415  1  0.165500  0.873900  0.055400  1.0  -0.1111
  C  C1416  1  0.828200  0.851400  0.805200  1.0  -0.1518
  C  C1417  1  0.095500  0.842500  0.003200  1.0  -0.1316
  C  C1418  1  0.892300  0.824700  0.861100  1.0  -0.1171
  C  C1419  1  0.109700  0.874500  0.036600  1.0  0.0249
  C  C1420  1  0.880400  0.855900  0.829300  1.0  0.0609
  C  C1421  1  0.131200  0.835600  0.969900  1.0  0.158
  C  C1422  1  0.853500  0.809100  0.891000  1.0  0.1699
  C  C1423  1  0.067300  0.905600  0.049600  1.0  -0.0902
  C  C1424  1  0.917700  0.892100  0.821400  1.0  -0.1172
  C  C1425  1  0.080500  0.935300  0.080300  1.0  -0.0227
  C  C1426  1  0.904700  0.924000  0.792200  1.0  -0.0459
  C  C1427  1  0.151100  0.967900  0.130600  1.0  0.6633
  C  C1428  1  0.836500  0.954400  0.738800  1.0  0.6818
  C  C1429  1  0.996600  0.806000  0.028100  1.0  -0.3971
  C  C1430  1  0.005700  0.806700  0.849200  1.0  -0.3855
  C  C1431  1  0.187100  0.858700  0.954900  1.0  -0.3803
  C  C1432  1  0.789000  0.817900  0.897900  1.0  -0.3848
  C  C1433  1  0.136100  0.435200  0.598700  1.0  -0.1835
  C  C1434  1  0.851800  0.419200  0.268800  1.0  -0.1133
  C  C1435  1  0.178900  0.404100  0.585300  1.0  -0.0473
  C  C1436  1  0.815400  0.382800  0.276300  1.0  -0.033
  C  C1437  1  0.048300  0.312700  0.500300  1.0  0.245
  C  C1438  1  0.948800  0.304600  0.371400  1.0  0.2307
  C  C1439  1  0.165500  0.373900  0.555400  1.0  -0.1111
  C  C1440  1  0.828200  0.351400  0.305200  1.0  -0.1518
  C  C1441  1  0.095500  0.342500  0.503200  1.0  -0.1316
  C  C1442  1  0.892300  0.324700  0.361100  1.0  -0.1171
  C  C1443  1  0.109700  0.374500  0.536600  1.0  0.0249
  C  C1444  1  0.880400  0.355900  0.329300  1.0  0.0609
  C  C1445  1  0.131200  0.335600  0.469900  1.0  0.158
  C  C1446  1  0.853500  0.309100  0.391000  1.0  0.1699
  C  C1447  1  0.067300  0.405600  0.549600  1.0  -0.0902
  C  C1448  1  0.917700  0.392100  0.321400  1.0  -0.1172
  C  C1449  1  0.080500  0.435300  0.580300  1.0  -0.0227
  C  C1450  1  0.904700  0.424000  0.292200  1.0  -0.0459
  C  C1451  1  0.151100  0.467900  0.630600  1.0  0.6633
  C  C1452  1  0.836500  0.454400  0.238800  1.0  0.6818
  C  C1453  1  0.996600  0.306000  0.528100  1.0  -0.3971
  C  C1454  1  0.005700  0.306700  0.349200  1.0  -0.3855
  C  C1455  1  0.187100  0.358700  0.454900  1.0  -0.3803
  C  C1456  1  0.789000  0.317900  0.397900  1.0  -0.3848
  C  C1457  1  0.636100  0.935200  0.598700  1.0  -0.1835
  C  C1458  1  0.351800  0.919200  0.268800  1.0  -0.1133
  C  C1459  1  0.678900  0.904100  0.585300  1.0  -0.0473
  C  C1460  1  0.315400  0.882800  0.276300  1.0  -0.033
  C  C1461  1  0.548300  0.812700  0.500300  1.0  0.245
  C  C1462  1  0.448800  0.804600  0.371400  1.0  0.2307
  C  C1463  1  0.665500  0.873900  0.555400  1.0  -0.1111
  C  C1464  1  0.328200  0.851400  0.305200  1.0  -0.1518
  C  C1465  1  0.595500  0.842500  0.503200  1.0  -0.1316
  C  C1466  1  0.392300  0.824700  0.361100  1.0  -0.1171
  C  C1467  1  0.609700  0.874500  0.536600  1.0  0.0249
  C  C1468  1  0.380400  0.855900  0.329300  1.0  0.0609
  C  C1469  1  0.631200  0.835600  0.469900  1.0  0.158
  C  C1470  1  0.353500  0.809100  0.391000  1.0  0.1699
  C  C1471  1  0.567300  0.905600  0.549600  1.0  -0.0902
  C  C1472  1  0.417700  0.892100  0.321400  1.0  -0.1172
  C  C1473  1  0.580500  0.935300  0.580300  1.0  -0.0227
  C  C1474  1  0.404700  0.924000  0.292200  1.0  -0.0459
  C  C1475  1  0.651100  0.967900  0.630600  1.0  0.6633
  C  C1476  1  0.336500  0.954400  0.238800  1.0  0.6818
  C  C1477  1  0.496600  0.806000  0.528100  1.0  -0.3971
  C  C1478  1  0.505700  0.806700  0.349200  1.0  -0.3855
  C  C1479  1  0.687100  0.858700  0.454900  1.0  -0.3803
  C  C1480  1  0.289000  0.817900  0.397900  1.0  -0.3848
  C  C1481  1  0.636100  0.435200  0.098700  1.0  -0.1835
  C  C1482  1  0.351800  0.419200  0.768800  1.0  -0.1133
  C  C1483  1  0.678900  0.404100  0.085300  1.0  -0.0473
  C  C1484  1  0.315400  0.382800  0.776300  1.0  -0.033
  C  C1485  1  0.548300  0.312700  0.000300  1.0  0.245
  C  C1486  1  0.448800  0.304600  0.871400  1.0  0.2307
  C  C1487  1  0.665500  0.373900  0.055400  1.0  -0.1111
  C  C1488  1  0.328200  0.351400  0.805200  1.0  -0.1518
  C  C1489  1  0.595500  0.342500  0.003200  1.0  -0.1316
  C  C1490  1  0.392300  0.324700  0.861100  1.0  -0.1171
  C  C1491  1  0.609700  0.374500  0.036600  1.0  0.0249
  C  C1492  1  0.380400  0.355900  0.829300  1.0  0.0609
  C  C1493  1  0.631200  0.335600  0.969900  1.0  0.158
  C  C1494  1  0.353500  0.309100  0.891000  1.0  0.1699
  C  C1495  1  0.567300  0.405600  0.049600  1.0  -0.0902
  C  C1496  1  0.417700  0.392100  0.821400  1.0  -0.1172
  C  C1497  1  0.580500  0.435300  0.080300  1.0  -0.0227
  C  C1498  1  0.404700  0.424000  0.792200  1.0  -0.0459
  C  C1499  1  0.651100  0.467900  0.130600  1.0  0.6633
  C  C1500  1  0.336500  0.454400  0.738800  1.0  0.6818
  C  C1501  1  0.496600  0.306000  0.028100  1.0  -0.3971
  C  C1502  1  0.505700  0.306700  0.849200  1.0  -0.3855
  C  C1503  1  0.687100  0.358700  0.954900  1.0  -0.3803
  C  C1504  1  0.289000  0.317900  0.897900  1.0  -0.3848
  N  N1505  1  0.901500  0.502500  0.440400  1.0  -0.1134
  N  N1506  1  0.940700  0.472800  0.423300  1.0  -0.3798
  N  N1507  1  0.901500  0.002500  0.940400  1.0  -0.1134
  N  N1508  1  0.940700  0.972800  0.923300  1.0  -0.3798
  N  N1509  1  0.401500  0.502500  0.940400  1.0  -0.1134
  N  N1510  1  0.440700  0.472800  0.923300  1.0  -0.3798
  N  N1511  1  0.401500  0.002500  0.440400  1.0  -0.1134
  N  N1512  1  0.440700  0.972800  0.423300  1.0  -0.3798
  N  N1513  1  0.098500  0.497500  0.440400  1.0  -0.1136
  N  N1514  1  0.059300  0.527200  0.423300  1.0  -0.378
  N  N1515  1  0.098500  0.997500  0.940400  1.0  -0.1136
  N  N1516  1  0.059300  0.027200  0.923300  1.0  -0.378
  N  N1517  1  0.598500  0.497500  0.940400  1.0  -0.1136
  N  N1518  1  0.559300  0.527200  0.923300  1.0  -0.378
  N  N1519  1  0.598500  0.997500  0.440400  1.0  -0.1136
  N  N1520  1  0.559300  0.027200  0.423300  1.0  -0.378
  N  N1521  1  0.151500  0.747500  0.690400  1.0  -0.1138
  N  N1522  1  0.190700  0.777200  0.673300  1.0  -0.3792
  N  N1523  1  0.151500  0.247500  0.190400  1.0  -0.1138
  N  N1524  1  0.190700  0.277200  0.173300  1.0  -0.3792
  N  N1525  1  0.651500  0.747500  0.190400  1.0  -0.1138
  N  N1526  1  0.690700  0.777200  0.173300  1.0  -0.3792
  N  N1527  1  0.651500  0.247500  0.690400  1.0  -0.1138
  N  N1528  1  0.690700  0.277200  0.673300  1.0  -0.3792
  N  N1529  1  0.348500  0.752500  0.690400  1.0  -0.113
  N  N1530  1  0.309300  0.722800  0.673300  1.0  -0.3783
  N  N1531  1  0.348500  0.252500  0.190400  1.0  -0.113
  N  N1532  1  0.309300  0.222800  0.173300  1.0  -0.3783
  N  N1533  1  0.848500  0.752500  0.190400  1.0  -0.113
  N  N1534  1  0.809300  0.722800  0.173300  1.0  -0.3783
  N  N1535  1  0.848500  0.252500  0.690400  1.0  -0.113
  N  N1536  1  0.809300  0.222800  0.673300  1.0  -0.3783
  N  N1537  1  0.386200  0.540000  0.477900  1.0  -0.1048
  N  N1538  1  0.444900  0.536900  0.467900  1.0  -0.3647
  N  N1539  1  0.386200  0.040000  0.977900  1.0  -0.1048
  N  N1540  1  0.444900  0.036900  0.967900  1.0  -0.3647
  N  N1541  1  0.886200  0.540000  0.977900  1.0  -0.1048
  N  N1542  1  0.944900  0.536900  0.967900  1.0  -0.3647
  N  N1543  1  0.886200  0.040000  0.477900  1.0  -0.1048
  N  N1544  1  0.944900  0.036900  0.467900  1.0  -0.3647
  N  N1545  1  0.613800  0.460000  0.477900  1.0  -0.1035
  N  N1546  1  0.555100  0.463100  0.467900  1.0  -0.3634
  N  N1547  1  0.613800  0.960000  0.977900  1.0  -0.1035
  N  N1548  1  0.555100  0.963100  0.967900  1.0  -0.3634
  N  N1549  1  0.113800  0.460000  0.977900  1.0  -0.1035
  N  N1550  1  0.055100  0.463100  0.967900  1.0  -0.3634
  N  N1551  1  0.113800  0.960000  0.477900  1.0  -0.1035
  N  N1552  1  0.055100  0.963100  0.467900  1.0  -0.3634
  N  N1553  1  0.636200  0.710000  0.727900  1.0  -0.1044
  N  N1554  1  0.694900  0.713100  0.717900  1.0  -0.3646
  N  N1555  1  0.636200  0.210000  0.227900  1.0  -0.1044
  N  N1556  1  0.694900  0.213100  0.217900  1.0  -0.3646
  N  N1557  1  0.136200  0.710000  0.227900  1.0  -0.1044
  N  N1558  1  0.194900  0.713100  0.217900  1.0  -0.3646
  N  N1559  1  0.136200  0.210000  0.727900  1.0  -0.1044
  N  N1560  1  0.194900  0.213100  0.717900  1.0  -0.3646
  N  N1561  1  0.863800  0.790000  0.727900  1.0  -0.1056
  N  N1562  1  0.805100  0.786900  0.717900  1.0  -0.3644
  N  N1563  1  0.863800  0.290000  0.227900  1.0  -0.1056
  N  N1564  1  0.805100  0.286900  0.217900  1.0  -0.3644
  N  N1565  1  0.363800  0.790000  0.227900  1.0  -0.1056
  N  N1566  1  0.305100  0.786900  0.217900  1.0  -0.3644
  N  N1567  1  0.363800  0.290000  0.727900  1.0  -0.1056
  N  N1568  1  0.305100  0.286900  0.717900  1.0  -0.3644
  N  N1569  1  0.854600  0.446700  0.698700  1.0  -0.107
  N  N1570  1  0.635100  0.467600  0.665700  1.0  -0.1662
  N  N1571  1  0.804300  0.461700  0.716700  1.0  -0.3375
  N  N1572  1  0.693800  0.470800  0.653900  1.0  -0.2823
  N  N1573  1  0.854600  0.946700  0.198700  1.0  -0.107
  N  N1574  1  0.635100  0.967600  0.165700  1.0  -0.1662
  N  N1575  1  0.804300  0.961700  0.216700  1.0  -0.3375
  N  N1576  1  0.693800  0.970800  0.153900  1.0  -0.2823
  N  N1577  1  0.354600  0.446700  0.198700  1.0  -0.107
  N  N1578  1  0.135100  0.467600  0.165700  1.0  -0.1662
  N  N1579  1  0.304300  0.461700  0.216700  1.0  -0.3375
  N  N1580  1  0.193800  0.470800  0.153900  1.0  -0.2823
  N  N1581  1  0.354600  0.946700  0.698700  1.0  -0.107
  N  N1582  1  0.135100  0.967600  0.665700  1.0  -0.1662
  N  N1583  1  0.304300  0.961700  0.716700  1.0  -0.3375
  N  N1584  1  0.193800  0.970800  0.653900  1.0  -0.2823
  N  N1585  1  0.395400  0.696700  0.948700  1.0  -0.1089
  N  N1586  1  0.614900  0.717600  0.915700  1.0  -0.1647
  N  N1587  1  0.445700  0.711700  0.966700  1.0  -0.336
  N  N1588  1  0.556200  0.720800  0.903900  1.0  -0.283
  N  N1589  1  0.395400  0.196700  0.448700  1.0  -0.1089
  N  N1590  1  0.614900  0.217600  0.415700  1.0  -0.1647
  N  N1591  1  0.445700  0.211700  0.466700  1.0  -0.336
  N  N1592  1  0.556200  0.220800  0.403900  1.0  -0.283
  N  N1593  1  0.895400  0.696700  0.448700  1.0  -0.1089
  N  N1594  1  0.114900  0.717600  0.415700  1.0  -0.1647
  N  N1595  1  0.945700  0.711700  0.466700  1.0  -0.336
  N  N1596  1  0.056200  0.720800  0.403900  1.0  -0.283
  N  N1597  1  0.895400  0.196700  0.948700  1.0  -0.1089
  N  N1598  1  0.114900  0.217600  0.915700  1.0  -0.1647
  N  N1599  1  0.945700  0.211700  0.966700  1.0  -0.336
  N  N1600  1  0.056200  0.220800  0.903900  1.0  -0.283
  N  N1601  1  0.145400  0.553300  0.698700  1.0  -0.1094
  N  N1602  1  0.364900  0.532400  0.665700  1.0  -0.1642
  N  N1603  1  0.195700  0.538300  0.716700  1.0  -0.3335
  N  N1604  1  0.306200  0.529200  0.653900  1.0  -0.2828
  N  N1605  1  0.145400  0.053300  0.198700  1.0  -0.1094
  N  N1606  1  0.364900  0.032400  0.165700  1.0  -0.1642
  N  N1607  1  0.195700  0.038300  0.216700  1.0  -0.3335
  N  N1608  1  0.306200  0.029200  0.153900  1.0  -0.2828
  N  N1609  1  0.645400  0.553300  0.198700  1.0  -0.1094
  N  N1610  1  0.864900  0.532400  0.165700  1.0  -0.1642
  N  N1611  1  0.695700  0.538300  0.216700  1.0  -0.3335
  N  N1612  1  0.806200  0.529200  0.153900  1.0  -0.2828
  N  N1613  1  0.645400  0.053300  0.698700  1.0  -0.1094
  N  N1614  1  0.864900  0.032400  0.665700  1.0  -0.1642
  N  N1615  1  0.695700  0.038300  0.716700  1.0  -0.3335
  N  N1616  1  0.806200  0.029200  0.653900  1.0  -0.2828
  N  N1617  1  0.104600  0.803300  0.948700  1.0  -0.1081
  N  N1618  1  0.885100  0.782400  0.915700  1.0  -0.1653
  N  N1619  1  0.054300  0.788300  0.966700  1.0  -0.3355
  N  N1620  1  0.943800  0.779200  0.903900  1.0  -0.2814
  N  N1621  1  0.104600  0.303300  0.448700  1.0  -0.1081
  N  N1622  1  0.885100  0.282400  0.415700  1.0  -0.1653
  N  N1623  1  0.054300  0.288300  0.466700  1.0  -0.3355
  N  N1624  1  0.943800  0.279200  0.403900  1.0  -0.2814
  N  N1625  1  0.604600  0.803300  0.448700  1.0  -0.1081
  N  N1626  1  0.385100  0.782400  0.415700  1.0  -0.1653
  N  N1627  1  0.554300  0.788300  0.466700  1.0  -0.3355
  N  N1628  1  0.443800  0.779200  0.403900  1.0  -0.2814
  N  N1629  1  0.604600  0.303300  0.948700  1.0  -0.1081
  N  N1630  1  0.385100  0.282400  0.915700  1.0  -0.1653
  N  N1631  1  0.554300  0.288300  0.966700  1.0  -0.3355
  N  N1632  1  0.443800  0.279200  0.903900  1.0  -0.2814
  O  O1633  1  0.857100  0.322300  0.637500  1.0  -0.5615
  O  O1634  1  0.790200  0.290900  0.597170  1.0  -0.612
  O  O1635  1  0.857100  0.822300  0.137500  1.0  -0.5615
  O  O1636  1  0.790200  0.790900  0.097170  1.0  -0.612
  O  O1637  1  0.357100  0.322300  0.137500  1.0  -0.5615
  O  O1638  1  0.290200  0.290900  0.097170  1.0  -0.612
  O  O1639  1  0.357100  0.822300  0.637500  1.0  -0.5615
  O  O1640  1  0.290200  0.790900  0.597170  1.0  -0.612
  O  O1641  1  0.142900  0.677700  0.637500  1.0  -0.5605
  O  O1642  1  0.209800  0.709100  0.597170  1.0  -0.6115
  O  O1643  1  0.142900  0.177700  0.137500  1.0  -0.5605
  O  O1644  1  0.209800  0.209100  0.097170  1.0  -0.6115
  O  O1645  1  0.642900  0.677700  0.137500  1.0  -0.5605
  O  O1646  1  0.709800  0.709100  0.097170  1.0  -0.6115
  O  O1647  1  0.642900  0.177700  0.637500  1.0  -0.5605
  O  O1648  1  0.709800  0.209100  0.597170  1.0  -0.6115
  O  O1649  1  0.107100  0.927700  0.887500  1.0  -0.562
  O  O1650  1  0.040200  0.959100  0.847170  1.0  -0.611
  O  O1651  1  0.107100  0.427700  0.387500  1.0  -0.562
  O  O1652  1  0.040200  0.459100  0.347170  1.0  -0.611
  O  O1653  1  0.607100  0.927700  0.387500  1.0  -0.562
  O  O1654  1  0.540200  0.959100  0.347170  1.0  -0.611
  O  O1655  1  0.607100  0.427700  0.887500  1.0  -0.562
  O  O1656  1  0.540200  0.459100  0.847170  1.0  -0.611
  O  O1657  1  0.392900  0.572300  0.887500  1.0  -0.5602
  O  O1658  1  0.459800  0.540900  0.847170  1.0  -0.6111
  O  O1659  1  0.392900  0.072300  0.387500  1.0  -0.5602
  O  O1660  1  0.459800  0.040900  0.347170  1.0  -0.6111
  O  O1661  1  0.892900  0.572300  0.387500  1.0  -0.5602
  O  O1662  1  0.959800  0.540900  0.347170  1.0  -0.6111
  O  O1663  1  0.892900  0.072300  0.887500  1.0  -0.5602
  O  O1664  1  0.959800  0.040900  0.847170  1.0  -0.6111
  O  O1665  1  0.293900  0.708800  0.285300  1.0  -0.6121
  O  O1666  1  0.385200  0.738500  0.290300  1.0  -0.6048
  O  O1667  1  0.293900  0.208800  0.785300  1.0  -0.6121
  O  O1668  1  0.385200  0.238500  0.790300  1.0  -0.6048
  O  O1669  1  0.793900  0.708800  0.785300  1.0  -0.6121
  O  O1670  1  0.885200  0.738500  0.790300  1.0  -0.6048
  O  O1671  1  0.793900  0.208800  0.285300  1.0  -0.6121
  O  O1672  1  0.885200  0.238500  0.290300  1.0  -0.6048
  O  O1673  1  0.706100  0.291200  0.285300  1.0  -0.6133
  O  O1674  1  0.614800  0.261500  0.290300  1.0  -0.6038
  O  O1675  1  0.706100  0.791200  0.785300  1.0  -0.6133
  O  O1676  1  0.614800  0.761500  0.790300  1.0  -0.6038
  O  O1677  1  0.206100  0.291200  0.785300  1.0  -0.6133
  O  O1678  1  0.114800  0.261500  0.790300  1.0  -0.6038
  O  O1679  1  0.206100  0.791200  0.285300  1.0  -0.6133
  O  O1680  1  0.114800  0.761500  0.290300  1.0  -0.6038
  O  O1681  1  0.543900  0.541200  0.535300  1.0  -0.6122
  O  O1682  1  0.635200  0.511500  0.540300  1.0  -0.6043
  O  O1683  1  0.543900  0.041200  0.035300  1.0  -0.6122
  O  O1684  1  0.635200  0.011500  0.040300  1.0  -0.6043
  O  O1685  1  0.043900  0.541200  0.035300  1.0  -0.6122
  O  O1686  1  0.135200  0.511500  0.040300  1.0  -0.6043
  O  O1687  1  0.043900  0.041200  0.535300  1.0  -0.6122
  O  O1688  1  0.135200  0.011500  0.540300  1.0  -0.6043
  O  O1689  1  0.956100  0.958800  0.535300  1.0  -0.6129
  O  O1690  1  0.864800  0.988500  0.540300  1.0  -0.6037
  O  O1691  1  0.956100  0.458800  0.035300  1.0  -0.6129
  O  O1692  1  0.864800  0.488500  0.040300  1.0  -0.6037
  O  O1693  1  0.456100  0.958800  0.035300  1.0  -0.6129
  O  O1694  1  0.364800  0.988500  0.040300  1.0  -0.6037
  O  O1695  1  0.456100  0.458800  0.535300  1.0  -0.6129
  O  O1696  1  0.364800  0.488500  0.540300  1.0  -0.6037
  O  O1697  1  0.949600  0.290000  0.900020  1.0  -0.6179
  O  O1698  1  0.624400  0.265100  0.481500  1.0  -0.6048
  O  O1699  1  0.867400  0.248800  0.886100  1.0  -0.6016
  O  O1700  1  0.534900  0.298200  0.472730  1.0  -0.6076
  O  O1701  1  0.949600  0.790000  0.400020  1.0  -0.6179
  O  O1702  1  0.624400  0.765100  0.981500  1.0  -0.6048
  O  O1703  1  0.867400  0.748800  0.386100  1.0  -0.6016
  O  O1704  1  0.534900  0.798200  0.972730  1.0  -0.6076
  O  O1705  1  0.449600  0.290000  0.400020  1.0  -0.6179
  O  O1706  1  0.124400  0.265100  0.981500  1.0  -0.6048
  O  O1707  1  0.367400  0.248800  0.386100  1.0  -0.6016
  O  O1708  1  0.034900  0.298200  0.972730  1.0  -0.6076
  O  O1709  1  0.449600  0.790000  0.900020  1.0  -0.6179
  O  O1710  1  0.124400  0.765100  0.481500  1.0  -0.6048
  O  O1711  1  0.367400  0.748800  0.886100  1.0  -0.6016
  O  O1712  1  0.034900  0.798200  0.472730  1.0  -0.6076
  O  O1713  1  0.300400  0.540000  0.150020  1.0  -0.6171
  O  O1714  1  0.625600  0.515100  0.731500  1.0  -0.6033
  O  O1715  1  0.382600  0.498800  0.136100  1.0  -0.5997
  O  O1716  1  0.715100  0.548200  0.722730  1.0  -0.6064
  O  O1717  1  0.300400  0.040000  0.650020  1.0  -0.6171
  O  O1718  1  0.625600  0.015100  0.231500  1.0  -0.6033
  O  O1719  1  0.382600  0.998800  0.636100  1.0  -0.5997
  O  O1720  1  0.715100  0.048200  0.222730  1.0  -0.6064
  O  O1721  1  0.800400  0.540000  0.650020  1.0  -0.6171
  O  O1722  1  0.125600  0.515100  0.231500  1.0  -0.6033
  O  O1723  1  0.882600  0.498800  0.636100  1.0  -0.5997
  O  O1724  1  0.215100  0.548200  0.222730  1.0  -0.6064
  O  O1725  1  0.800400  0.040000  0.150020  1.0  -0.6171
  O  O1726  1  0.125600  0.015100  0.731500  1.0  -0.6033
  O  O1727  1  0.882600  0.998800  0.136100  1.0  -0.5997
  O  O1728  1  0.215100  0.048200  0.722730  1.0  -0.6064
  O  O1729  1  0.050400  0.710000  0.900020  1.0  -0.6172
  O  O1730  1  0.375600  0.734900  0.481500  1.0  -0.6036
  O  O1731  1  0.132600  0.751200  0.886100  1.0  -0.5995
  O  O1732  1  0.465100  0.701800  0.472730  1.0  -0.6066
  O  O1733  1  0.050400  0.210000  0.400020  1.0  -0.6172
  O  O1734  1  0.375600  0.234900  0.981500  1.0  -0.6036
  O  O1735  1  0.132600  0.251200  0.386100  1.0  -0.5995
  O  O1736  1  0.465100  0.201800  0.972730  1.0  -0.6066
  O  O1737  1  0.550400  0.710000  0.400020  1.0  -0.6172
  O  O1738  1  0.875600  0.734900  0.981500  1.0  -0.6036
  O  O1739  1  0.632600  0.751200  0.386100  1.0  -0.5995
  O  O1740  1  0.965100  0.701800  0.972730  1.0  -0.6066
  O  O1741  1  0.550400  0.210000  0.900020  1.0  -0.6172
  O  O1742  1  0.875600  0.234900  0.481500  1.0  -0.6036
  O  O1743  1  0.632600  0.251200  0.886100  1.0  -0.5995
  O  O1744  1  0.965100  0.201800  0.472730  1.0  -0.6066
  O  O1745  1  0.199600  0.960000  0.150020  1.0  -0.6177
  O  O1746  1  0.874400  0.984900  0.731500  1.0  -0.6049
  O  O1747  1  0.117400  0.001200  0.136100  1.0  -0.6013
  O  O1748  1  0.784900  0.951800  0.722730  1.0  -0.6078
  O  O1749  1  0.199600  0.460000  0.650020  1.0  -0.6177
  O  O1750  1  0.874400  0.484900  0.231500  1.0  -0.6049
  O  O1751  1  0.117400  0.501200  0.636100  1.0  -0.6013
  O  O1752  1  0.784900  0.451800  0.222730  1.0  -0.6078
  O  O1753  1  0.699600  0.960000  0.650020  1.0  -0.6177
  O  O1754  1  0.374400  0.984900  0.231500  1.0  -0.6049
  O  O1755  1  0.617400  0.001200  0.636100  1.0  -0.6013
  O  O1756  1  0.284900  0.951800  0.222730  1.0  -0.6078
  O  O1757  1  0.699600  0.460000  0.150020  1.0  -0.6177
  O  O1758  1  0.374400  0.484900  0.731500  1.0  -0.6049
  O  O1759  1  0.617400  0.501200  0.136100  1.0  -0.6013
  O  O1760  1  0.284900  0.451800  0.722730  1.0  -0.6078
