# generated using pymatgen
data_EuH8C16NO7
_symmetry_space_group_name_H-M   'P 1'
_cell_length_a   14.50120000
_cell_length_b   44.13200000
_cell_length_c   50.41200000
_cell_angle_alpha   90.00000000
_cell_angle_beta   90.00000000
_cell_angle_gamma   90.00000000
_symmetry_Int_Tables_number   1
_chemical_formula_structural   EuH8C16NO7
_chemical_formula_sum   'Eu32 H256 C512 N32 O224'
_cell_volume   32262.01430686
_cell_formula_units_Z   32
loop_
 _symmetry_equiv_pos_site_id
 _symmetry_equiv_pos_as_xyz
  1  'x, y, z'
loop_
 _atom_site_type_symbol
 _atom_site_label
 _atom_site_symmetry_multiplicity
 _atom_site_fract_x
 _atom_site_fract_y
 _atom_site_fract_z
 _atom_site_occupancy
 _atom_site_charge
  Eu  Eu1  1  0.625000  0.625000  0.919740  1.0  2.1458
  Eu  Eu2  1  0.625000  0.125000  0.419740  1.0  2.1458
  Eu  Eu3  1  0.125000  0.125000  0.919740  1.0  2.1458
  Eu  Eu4  1  0.125000  0.625000  0.419740  1.0  2.1458
  Eu  Eu5  1  0.125000  0.625000  0.830260  1.0  2.1444
  Eu  Eu6  1  0.125000  0.125000  0.330260  1.0  2.1444
  Eu  Eu7  1  0.625000  0.625000  0.330260  1.0  2.1444
  Eu  Eu8  1  0.625000  0.125000  0.830260  1.0  2.1444
  Eu  Eu9  1  0.375000  0.375000  0.080260  1.0  2.1444
  Eu  Eu10  1  0.375000  0.875000  0.580260  1.0  2.1444
  Eu  Eu11  1  0.875000  0.875000  0.080260  1.0  2.1444
  Eu  Eu12  1  0.875000  0.375000  0.580260  1.0  2.1444
  Eu  Eu13  1  0.875000  0.375000  0.169740  1.0  2.1458
  Eu  Eu14  1  0.875000  0.875000  0.669740  1.0  2.1458
  Eu  Eu15  1  0.375000  0.875000  0.169740  1.0  2.1458
  Eu  Eu16  1  0.375000  0.375000  0.669740  1.0  2.1458
  Eu  Eu17  1  0.375000  0.671260  0.875000  1.0  2.1008
  Eu  Eu18  1  0.375000  0.171260  0.375000  1.0  2.1008
  Eu  Eu19  1  0.875000  0.671260  0.375000  1.0  2.1008
  Eu  Eu20  1  0.875000  0.171260  0.875000  1.0  2.1008
  Eu  Eu21  1  0.375000  0.078740  0.875000  1.0  2.1021
  Eu  Eu22  1  0.375000  0.578740  0.375000  1.0  2.1021
  Eu  Eu23  1  0.875000  0.078740  0.375000  1.0  2.1021
  Eu  Eu24  1  0.875000  0.578740  0.875000  1.0  2.1021
  Eu  Eu25  1  0.625000  0.328740  0.125000  1.0  2.1021
  Eu  Eu26  1  0.625000  0.828740  0.625000  1.0  2.1021
  Eu  Eu27  1  0.125000  0.328740  0.625000  1.0  2.1021
  Eu  Eu28  1  0.125000  0.828740  0.125000  1.0  2.1021
  Eu  Eu29  1  0.625000  0.921260  0.125000  1.0  2.1008
  Eu  Eu30  1  0.625000  0.421260  0.625000  1.0  2.1008
  Eu  Eu31  1  0.125000  0.921260  0.625000  1.0  2.1008
  Eu  Eu32  1  0.125000  0.421260  0.125000  1.0  2.1008
  H  H33  1  0.258800  0.608200  0.890300  1.0  0.0843
  H  H34  1  0.113400  0.547200  0.931400  1.0  0.0984
  H  H35  1  0.373400  0.565900  0.952900  1.0  0.1133
  H  H36  1  0.068300  0.503800  0.018700  1.0  0.0985
  H  H37  1  0.094900  0.471700  0.054600  1.0  0.1028
  H  H38  1  0.344600  0.451200  0.024400  1.0  0.1033
  H  H39  1  0.318900  0.483900  0.989400  1.0  0.1106
  H  H40  1  0.296200  0.528700  0.974900  1.0  0.2624
  H  H41  1  0.258800  0.108200  0.390300  1.0  0.0843
  H  H42  1  0.113400  0.047200  0.431400  1.0  0.0996
  H  H43  1  0.373400  0.065900  0.452900  1.0  0.1133
  H  H44  1  0.068300  0.003800  0.518700  1.0  0.0985
  H  H45  1  0.094900  0.971700  0.554600  1.0  0.1029
  H  H46  1  0.344600  0.951200  0.524400  1.0  0.1033
  H  H47  1  0.318900  0.983900  0.489400  1.0  0.1106
  H  H48  1  0.296200  0.028700  0.474900  1.0  0.2624
  H  H49  1  0.758800  0.608200  0.390300  1.0  0.0843
  H  H50  1  0.613400  0.547200  0.431400  1.0  0.0984
  H  H51  1  0.873400  0.565900  0.452900  1.0  0.1133
  H  H52  1  0.568300  0.503800  0.518700  1.0  0.0985
  H  H53  1  0.594900  0.471700  0.554600  1.0  0.1028
  H  H54  1  0.844600  0.451200  0.524400  1.0  0.1033
  H  H55  1  0.818900  0.483900  0.489400  1.0  0.1106
  H  H56  1  0.796200  0.528700  0.474900  1.0  0.2624
  H  H57  1  0.758800  0.108200  0.890300  1.0  0.0843
  H  H58  1  0.613400  0.047200  0.931400  1.0  0.0996
  H  H59  1  0.873400  0.065900  0.952900  1.0  0.1133
  H  H60  1  0.568300  0.003800  0.018700  1.0  0.0985
  H  H61  1  0.594900  0.971700  0.054600  1.0  0.1029
  H  H62  1  0.844600  0.951200  0.024400  1.0  0.1033
  H  H63  1  0.818900  0.983900  0.989400  1.0  0.1106
  H  H64  1  0.796200  0.028700  0.974900  1.0  0.2624
  H  H65  1  0.491200  0.141800  0.890300  1.0  0.0845
  H  H66  1  0.636600  0.202800  0.931400  1.0  0.0982
  H  H67  1  0.376600  0.184100  0.952900  1.0  0.1141
  H  H68  1  0.681700  0.246200  0.018700  1.0  0.099
  H  H69  1  0.655100  0.278300  0.054600  1.0  0.1028
  H  H70  1  0.405400  0.298800  0.024400  1.0  0.1036
  H  H71  1  0.431100  0.266100  0.989400  1.0  0.1108
  H  H72  1  0.453800  0.221300  0.974900  1.0  0.2616
  H  H73  1  0.491200  0.641800  0.390300  1.0  0.0845
  H  H74  1  0.636600  0.702800  0.431400  1.0  0.0982
  H  H75  1  0.376600  0.684100  0.452900  1.0  0.1141
  H  H76  1  0.681700  0.746200  0.518700  1.0  0.099
  H  H77  1  0.655100  0.778300  0.554600  1.0  0.1028
  H  H78  1  0.405400  0.798800  0.524400  1.0  0.1036
  H  H79  1  0.431100  0.766100  0.489400  1.0  0.1108
  H  H80  1  0.453800  0.721300  0.474900  1.0  0.2616
  H  H81  1  0.991200  0.141800  0.390300  1.0  0.0845
  H  H82  1  0.136600  0.202800  0.431400  1.0  0.0982
  H  H83  1  0.876600  0.184100  0.452900  1.0  0.1141
  H  H84  1  0.181700  0.246200  0.518700  1.0  0.099
  H  H85  1  0.155100  0.278300  0.554600  1.0  0.1028
  H  H86  1  0.905400  0.298800  0.524400  1.0  0.1036
  H  H87  1  0.931100  0.266100  0.489400  1.0  0.1108
  H  H88  1  0.953800  0.221300  0.474900  1.0  0.2616
  H  H89  1  0.991200  0.641800  0.890300  1.0  0.0845
  H  H90  1  0.136600  0.702800  0.931400  1.0  0.0982
  H  H91  1  0.876600  0.684100  0.952900  1.0  0.1141
  H  H92  1  0.181700  0.746200  0.018700  1.0  0.099
  H  H93  1  0.155100  0.778300  0.054600  1.0  0.1028
  H  H94  1  0.905400  0.798800  0.024400  1.0  0.1036
  H  H95  1  0.931100  0.766100  0.989400  1.0  0.1108
  H  H96  1  0.953800  0.721300  0.974900  1.0  0.2616
  H  H97  1  0.491200  0.608200  0.859700  1.0  0.0838
  H  H98  1  0.636600  0.547200  0.818600  1.0  0.0985
  H  H99  1  0.376600  0.565900  0.797100  1.0  0.114
  H  H100  1  0.681700  0.503800  0.731300  1.0  0.0994
  H  H101  1  0.655100  0.471700  0.695400  1.0  0.1024
  H  H102  1  0.405400  0.451200  0.725600  1.0  0.1043
  H  H103  1  0.431100  0.483900  0.760600  1.0  0.1113
  H  H104  1  0.453800  0.528700  0.775100  1.0  0.2625
  H  H105  1  0.491200  0.108200  0.359700  1.0  0.0838
  H  H106  1  0.636600  0.047200  0.318600  1.0  0.0996
  H  H107  1  0.376600  0.065900  0.297100  1.0  0.114
  H  H108  1  0.681700  0.003800  0.231300  1.0  0.0994
  H  H109  1  0.655100  0.971700  0.195400  1.0  0.1026
  H  H110  1  0.405400  0.951200  0.225600  1.0  0.1043
  H  H111  1  0.431100  0.983900  0.260600  1.0  0.1113
  H  H112  1  0.453800  0.028700  0.275100  1.0  0.2625
  H  H113  1  0.991200  0.608200  0.359700  1.0  0.0838
  H  H114  1  0.136600  0.547200  0.318600  1.0  0.0985
  H  H115  1  0.876600  0.565900  0.297100  1.0  0.114
  H  H116  1  0.181700  0.503800  0.231300  1.0  0.0994
  H  H117  1  0.155100  0.471700  0.195400  1.0  0.1024
  H  H118  1  0.905400  0.451200  0.225600  1.0  0.1043
  H  H119  1  0.931100  0.483900  0.260600  1.0  0.1113
  H  H120  1  0.953800  0.528700  0.275100  1.0  0.2625
  H  H121  1  0.991200  0.108200  0.859700  1.0  0.0838
  H  H122  1  0.136600  0.047200  0.818600  1.0  0.0996
  H  H123  1  0.876600  0.065900  0.797100  1.0  0.114
  H  H124  1  0.181700  0.003800  0.731300  1.0  0.0994
  H  H125  1  0.155100  0.971700  0.695400  1.0  0.1026
  H  H126  1  0.905400  0.951200  0.725600  1.0  0.1043
  H  H127  1  0.931100  0.983900  0.760600  1.0  0.1113
  H  H128  1  0.953800  0.028700  0.775100  1.0  0.2625
  H  H129  1  0.258800  0.141800  0.859700  1.0  0.0845
  H  H130  1  0.113400  0.202800  0.818600  1.0  0.0977
  H  H131  1  0.373400  0.184100  0.797100  1.0  0.1136
  H  H132  1  0.068300  0.246200  0.731300  1.0  0.0989
  H  H133  1  0.094900  0.278300  0.695400  1.0  0.1024
  H  H134  1  0.344600  0.298800  0.725600  1.0  0.104
  H  H135  1  0.318900  0.266100  0.760600  1.0  0.1108
  H  H136  1  0.296200  0.221300  0.775100  1.0  0.2631
  H  H137  1  0.258800  0.641800  0.359700  1.0  0.0845
  H  H138  1  0.113400  0.702800  0.318600  1.0  0.0977
  H  H139  1  0.373400  0.684100  0.297100  1.0  0.1136
  H  H140  1  0.068300  0.746200  0.231300  1.0  0.0989
  H  H141  1  0.094900  0.778300  0.195400  1.0  0.1024
  H  H142  1  0.344600  0.798800  0.225600  1.0  0.104
  H  H143  1  0.318900  0.766100  0.260600  1.0  0.1108
  H  H144  1  0.296200  0.721300  0.275100  1.0  0.2631
  H  H145  1  0.758800  0.141800  0.359700  1.0  0.0845
  H  H146  1  0.613400  0.202800  0.318600  1.0  0.0977
  H  H147  1  0.873400  0.184100  0.297100  1.0  0.1136
  H  H148  1  0.568300  0.246200  0.231300  1.0  0.0989
  H  H149  1  0.594900  0.278300  0.195400  1.0  0.1024
  H  H150  1  0.844600  0.298800  0.225600  1.0  0.104
  H  H151  1  0.818900  0.266100  0.260600  1.0  0.1108
  H  H152  1  0.796200  0.221300  0.275100  1.0  0.2631
  H  H153  1  0.758800  0.641800  0.859700  1.0  0.0845
  H  H154  1  0.613400  0.702800  0.818600  1.0  0.0977
  H  H155  1  0.873400  0.684100  0.797100  1.0  0.1136
  H  H156  1  0.568300  0.746200  0.731300  1.0  0.0989
  H  H157  1  0.594900  0.778300  0.695400  1.0  0.1024
  H  H158  1  0.844600  0.798800  0.725600  1.0  0.104
  H  H159  1  0.818900  0.766100  0.760600  1.0  0.1108
  H  H160  1  0.796200  0.721300  0.775100  1.0  0.2631
  H  H161  1  0.741200  0.391800  0.109700  1.0  0.0845
  H  H162  1  0.886600  0.452800  0.068600  1.0  0.098
  H  H163  1  0.626600  0.434100  0.047100  1.0  0.1141
  H  H164  1  0.931700  0.496200  0.981300  1.0  0.0991
  H  H165  1  0.905100  0.528300  0.945400  1.0  0.1023
  H  H166  1  0.655400  0.548800  0.975600  1.0  0.1038
  H  H167  1  0.681100  0.516100  0.010600  1.0  0.111
  H  H168  1  0.703800  0.471300  0.025100  1.0  0.2623
  H  H169  1  0.741200  0.891800  0.609700  1.0  0.0845
  H  H170  1  0.886600  0.952800  0.568600  1.0  0.0993
  H  H171  1  0.626600  0.934100  0.547100  1.0  0.1141
  H  H172  1  0.931700  0.996200  0.481300  1.0  0.0991
  H  H173  1  0.905100  0.028300  0.445400  1.0  0.1025
  H  H174  1  0.655400  0.048800  0.475600  1.0  0.1038
  H  H175  1  0.681100  0.016100  0.510600  1.0  0.111
  H  H176  1  0.703800  0.971300  0.525100  1.0  0.2623
  H  H177  1  0.241200  0.391800  0.609700  1.0  0.0845
  H  H178  1  0.386600  0.452800  0.568600  1.0  0.098
  H  H179  1  0.126600  0.434100  0.547100  1.0  0.1141
  H  H180  1  0.431700  0.496200  0.481300  1.0  0.0991
  H  H181  1  0.405100  0.528300  0.445400  1.0  0.1023
  H  H182  1  0.155400  0.548800  0.475600  1.0  0.1038
  H  H183  1  0.181100  0.516100  0.510600  1.0  0.111
  H  H184  1  0.203800  0.471300  0.525100  1.0  0.2623
  H  H185  1  0.241200  0.891800  0.109700  1.0  0.0845
  H  H186  1  0.386600  0.952800  0.068600  1.0  0.0993
  H  H187  1  0.126600  0.934100  0.047100  1.0  0.1141
  H  H188  1  0.431700  0.996200  0.981300  1.0  0.0991
  H  H189  1  0.405100  0.028300  0.945400  1.0  0.1025
  H  H190  1  0.155400  0.048800  0.975600  1.0  0.1038
  H  H191  1  0.181100  0.016100  0.010600  1.0  0.111
  H  H192  1  0.203800  0.971300  0.025100  1.0  0.2623
  H  H193  1  0.508800  0.858200  0.109700  1.0  0.0839
  H  H194  1  0.363400  0.797200  0.068600  1.0  0.0985
  H  H195  1  0.623400  0.815900  0.047100  1.0  0.1136
  H  H196  1  0.318300  0.753800  0.981300  1.0  0.0989
  H  H197  1  0.344900  0.721700  0.945400  1.0  0.1024
  H  H198  1  0.594600  0.701200  0.975600  1.0  0.1036
  H  H199  1  0.568900  0.733900  0.010600  1.0  0.111
  H  H200  1  0.546200  0.778700  0.025100  1.0  0.263
  H  H201  1  0.508800  0.358200  0.609700  1.0  0.0839
  H  H202  1  0.363400  0.297200  0.568600  1.0  0.0985
  H  H203  1  0.623400  0.315900  0.547100  1.0  0.1136
  H  H204  1  0.318300  0.253800  0.481300  1.0  0.0989
  H  H205  1  0.344900  0.221700  0.445400  1.0  0.1024
  H  H206  1  0.594600  0.201200  0.475600  1.0  0.1036
  H  H207  1  0.568900  0.233900  0.510600  1.0  0.111
  H  H208  1  0.546200  0.278700  0.525100  1.0  0.263
  H  H209  1  0.008800  0.858200  0.609700  1.0  0.0839
  H  H210  1  0.863400  0.797200  0.568600  1.0  0.0985
  H  H211  1  0.123400  0.815900  0.547100  1.0  0.1136
  H  H212  1  0.818300  0.753800  0.481300  1.0  0.0989
  H  H213  1  0.844900  0.721700  0.445400  1.0  0.1024
  H  H214  1  0.094600  0.701200  0.475600  1.0  0.1036
  H  H215  1  0.068900  0.733900  0.510600  1.0  0.111
  H  H216  1  0.046200  0.778700  0.525100  1.0  0.263
  H  H217  1  0.008800  0.358200  0.109700  1.0  0.0839
  H  H218  1  0.863400  0.297200  0.068600  1.0  0.0985
  H  H219  1  0.123400  0.315900  0.047100  1.0  0.1136
  H  H220  1  0.818300  0.253800  0.981300  1.0  0.0989
  H  H221  1  0.844900  0.221700  0.945400  1.0  0.1024
  H  H222  1  0.094600  0.201200  0.975600  1.0  0.1036
  H  H223  1  0.068900  0.233900  0.010600  1.0  0.111
  H  H224  1  0.046200  0.278700  0.025100  1.0  0.263
  H  H225  1  0.508800  0.391800  0.140300  1.0  0.0846
  H  H226  1  0.363400  0.452800  0.181400  1.0  0.0978
  H  H227  1  0.623400  0.434100  0.202900  1.0  0.1135
  H  H228  1  0.318300  0.496200  0.268700  1.0  0.0988
  H  H229  1  0.344900  0.528300  0.304600  1.0  0.1027
  H  H230  1  0.594600  0.548800  0.274400  1.0  0.1039
  H  H231  1  0.568900  0.516100  0.239400  1.0  0.1105
  H  H232  1  0.546200  0.471300  0.224900  1.0  0.2626
  H  H233  1  0.508800  0.891800  0.640300  1.0  0.0846
  H  H234  1  0.363400  0.952800  0.681400  1.0  0.0992
  H  H235  1  0.623400  0.934100  0.702900  1.0  0.1135
  H  H236  1  0.318300  0.996200  0.768700  1.0  0.0988
  H  H237  1  0.344900  0.028300  0.804600  1.0  0.1028
  H  H238  1  0.594600  0.048800  0.774400  1.0  0.1039
  H  H239  1  0.568900  0.016100  0.739400  1.0  0.1105
  H  H240  1  0.546200  0.971300  0.724900  1.0  0.2626
  H  H241  1  0.008800  0.391800  0.640300  1.0  0.0846
  H  H242  1  0.863400  0.452800  0.681400  1.0  0.0978
  H  H243  1  0.123400  0.434100  0.702900  1.0  0.1135
  H  H244  1  0.818300  0.496200  0.768700  1.0  0.0988
  H  H245  1  0.844900  0.528300  0.804600  1.0  0.1027
  H  H246  1  0.094600  0.548800  0.774400  1.0  0.1039
  H  H247  1  0.068900  0.516100  0.739400  1.0  0.1105
  H  H248  1  0.046200  0.471300  0.724900  1.0  0.2626
  H  H249  1  0.008800  0.891800  0.140300  1.0  0.0846
  H  H250  1  0.863400  0.952800  0.181400  1.0  0.0992
  H  H251  1  0.123400  0.934100  0.202900  1.0  0.1135
  H  H252  1  0.818300  0.996200  0.268700  1.0  0.0988
  H  H253  1  0.844900  0.028300  0.304600  1.0  0.1028
  H  H254  1  0.094600  0.048800  0.274400  1.0  0.1039
  H  H255  1  0.068900  0.016100  0.239400  1.0  0.1105
  H  H256  1  0.046200  0.971300  0.224900  1.0  0.2626
  H  H257  1  0.741200  0.858200  0.140300  1.0  0.0841
  H  H258  1  0.886600  0.797200  0.181400  1.0  0.0984
  H  H259  1  0.626600  0.815900  0.202900  1.0  0.114
  H  H260  1  0.931700  0.753800  0.268700  1.0  0.099
  H  H261  1  0.905100  0.721700  0.304600  1.0  0.1029
  H  H262  1  0.655400  0.701200  0.274400  1.0  0.1039
  H  H263  1  0.681100  0.733900  0.239400  1.0  0.1112
  H  H264  1  0.703800  0.778700  0.224900  1.0  0.2619
  H  H265  1  0.741200  0.358200  0.640300  1.0  0.0841
  H  H266  1  0.886600  0.297200  0.681400  1.0  0.0984
  H  H267  1  0.626600  0.315900  0.702900  1.0  0.114
  H  H268  1  0.931700  0.253800  0.768700  1.0  0.099
  H  H269  1  0.905100  0.221700  0.804600  1.0  0.1029
  H  H270  1  0.655400  0.201200  0.774400  1.0  0.1039
  H  H271  1  0.681100  0.233900  0.739400  1.0  0.1112
  H  H272  1  0.703800  0.278700  0.724900  1.0  0.2619
  H  H273  1  0.241200  0.858200  0.640300  1.0  0.0841
  H  H274  1  0.386600  0.797200  0.681400  1.0  0.0984
  H  H275  1  0.126600  0.815900  0.702900  1.0  0.114
  H  H276  1  0.431700  0.753800  0.768700  1.0  0.099
  H  H277  1  0.405100  0.721700  0.804600  1.0  0.1029
  H  H278  1  0.155400  0.701200  0.774400  1.0  0.1039
  H  H279  1  0.181100  0.733900  0.739400  1.0  0.1112
  H  H280  1  0.203800  0.778700  0.724900  1.0  0.2619
  H  H281  1  0.241200  0.358200  0.140300  1.0  0.0841
  H  H282  1  0.386600  0.297200  0.181400  1.0  0.0984
  H  H283  1  0.126600  0.315900  0.202900  1.0  0.114
  H  H284  1  0.431700  0.253800  0.268700  1.0  0.099
  H  H285  1  0.405100  0.221700  0.304600  1.0  0.1029
  H  H286  1  0.155400  0.201200  0.274400  1.0  0.1039
  H  H287  1  0.181100  0.233900  0.239400  1.0  0.1112
  H  H288  1  0.203800  0.278700  0.224900  1.0  0.2619
  C  C289  1  0.417300  0.606350  0.915420  1.0  0.6716
  C  C290  1  0.329900  0.589500  0.920540  1.0  -0.159
  C  C291  1  0.254800  0.594190  0.904030  1.0  -0.1046
  C  C292  1  0.174200  0.578230  0.907840  1.0  -0.0505
  C  C293  1  0.168000  0.557740  0.928690  1.0  -0.0618
  C  C294  1  0.242400  0.552900  0.945450  1.0  0.1948
  C  C295  1  0.323500  0.568840  0.941580  1.0  -0.1068
  C  C296  1  0.096800  0.583320  0.889360  1.0  0.6991
  C  C297  1  0.171900  0.517760  0.977090  1.0  0.5682
  C  C298  1  0.190300  0.496990  0.000450  1.0  -0.0595
  C  C299  1  0.123900  0.493360  0.019940  1.0  -0.0849
  C  C300  1  0.139600  0.474120  0.041500  1.0  -0.0727
  C  C301  1  0.222700  0.458640  0.043190  1.0  -0.0591
  C  C302  1  0.289600  0.461960  0.023380  1.0  -0.0745
  C  C303  1  0.273900  0.481280  0.002330  1.0  -0.1513
  C  C304  1  0.238400  0.437110  0.066060  1.0  0.7189
  C  C305  1  0.417300  0.106350  0.415420  1.0  0.6716
  C  C306  1  0.329900  0.089500  0.420540  1.0  -0.159
  C  C307  1  0.254800  0.094190  0.404030  1.0  -0.1046
  C  C308  1  0.174200  0.078230  0.407840  1.0  -0.0506
  C  C309  1  0.168000  0.057740  0.428690  1.0  -0.0618
  C  C310  1  0.242400  0.052900  0.445450  1.0  0.1948
  C  C311  1  0.323500  0.068840  0.441580  1.0  -0.1068
  C  C312  1  0.096800  0.083320  0.389360  1.0  0.6994
  C  C313  1  0.171900  0.017760  0.477090  1.0  0.5682
  C  C314  1  0.190300  0.996990  0.500450  1.0  -0.0595
  C  C315  1  0.123900  0.993360  0.519940  1.0  -0.0846
  C  C316  1  0.139600  0.974120  0.541500  1.0  -0.0713
  C  C317  1  0.222700  0.958640  0.543190  1.0  -0.0591
  C  C318  1  0.289600  0.961960  0.523380  1.0  -0.0745
  C  C319  1  0.273900  0.981280  0.502330  1.0  -0.1513
  C  C320  1  0.238400  0.937110  0.566060  1.0  0.7189
  C  C321  1  0.917300  0.606350  0.415420  1.0  0.6716
  C  C322  1  0.829900  0.589500  0.420540  1.0  -0.159
  C  C323  1  0.754800  0.594190  0.404030  1.0  -0.1046
  C  C324  1  0.674200  0.578230  0.407840  1.0  -0.0505
  C  C325  1  0.668000  0.557740  0.428690  1.0  -0.0618
  C  C326  1  0.742400  0.552900  0.445450  1.0  0.1948
  C  C327  1  0.823500  0.568840  0.441580  1.0  -0.1068
  C  C328  1  0.596800  0.583320  0.389360  1.0  0.6991
  C  C329  1  0.671900  0.517760  0.477090  1.0  0.5682
  C  C330  1  0.690300  0.496990  0.500450  1.0  -0.0595
  C  C331  1  0.623900  0.493360  0.519940  1.0  -0.0849
  C  C332  1  0.639600  0.474120  0.541500  1.0  -0.0727
  C  C333  1  0.722700  0.458640  0.543190  1.0  -0.0591
  C  C334  1  0.789600  0.461960  0.523380  1.0  -0.0745
  C  C335  1  0.773900  0.481280  0.502330  1.0  -0.1513
  C  C336  1  0.738400  0.437110  0.566060  1.0  0.7189
  C  C337  1  0.917300  0.106350  0.915420  1.0  0.6716
  C  C338  1  0.829900  0.089500  0.920540  1.0  -0.159
  C  C339  1  0.754800  0.094190  0.904030  1.0  -0.1046
  C  C340  1  0.674200  0.078230  0.907840  1.0  -0.0506
  C  C341  1  0.668000  0.057740  0.928690  1.0  -0.0618
  C  C342  1  0.742400  0.052900  0.945450  1.0  0.1948
  C  C343  1  0.823500  0.068840  0.941580  1.0  -0.1068
  C  C344  1  0.596800  0.083320  0.889360  1.0  0.6994
  C  C345  1  0.671900  0.017760  0.977090  1.0  0.5682
  C  C346  1  0.690300  0.996990  0.000450  1.0  -0.0595
  C  C347  1  0.623900  0.993360  0.019940  1.0  -0.0846
  C  C348  1  0.639600  0.974120  0.041500  1.0  -0.0713
  C  C349  1  0.722700  0.958640  0.043190  1.0  -0.0591
  C  C350  1  0.789600  0.961960  0.023380  1.0  -0.0745
  C  C351  1  0.773900  0.981280  0.002330  1.0  -0.1513
  C  C352  1  0.738400  0.937110  0.066060  1.0  0.7189
  C  C353  1  0.332700  0.143650  0.915420  1.0  0.6677
  C  C354  1  0.420100  0.160500  0.920540  1.0  -0.1581
  C  C355  1  0.495200  0.155810  0.904030  1.0  -0.1052
  C  C356  1  0.575800  0.171770  0.907840  1.0  -0.0517
  C  C357  1  0.582000  0.192260  0.928690  1.0  -0.0633
  C  C358  1  0.507600  0.197100  0.945450  1.0  0.1944
  C  C359  1  0.426500  0.181160  0.941580  1.0  -0.1083
  C  C360  1  0.653200  0.166680  0.889360  1.0  0.7018
  C  C361  1  0.578100  0.232240  0.977090  1.0  0.5684
  C  C362  1  0.559700  0.253010  0.000450  1.0  -0.0592
  C  C363  1  0.626100  0.256640  0.019940  1.0  -0.0853
  C  C364  1  0.610400  0.275880  0.041500  1.0  -0.0736
  C  C365  1  0.527300  0.291360  0.043190  1.0  -0.0584
  C  C366  1  0.460400  0.288040  0.023380  1.0  -0.0768
  C  C367  1  0.476100  0.268720  0.002330  1.0  -0.153
  C  C368  1  0.511600  0.312890  0.066060  1.0  0.7182
  C  C369  1  0.332700  0.643650  0.415420  1.0  0.6677
  C  C370  1  0.420100  0.660500  0.420540  1.0  -0.1581
  C  C371  1  0.495200  0.655810  0.404030  1.0  -0.1045
  C  C372  1  0.575800  0.671770  0.407840  1.0  -0.0516
  C  C373  1  0.582000  0.692260  0.428690  1.0  -0.0633
  C  C374  1  0.507600  0.697100  0.445450  1.0  0.1944
  C  C375  1  0.426500  0.681160  0.441580  1.0  -0.1083
  C  C376  1  0.653200  0.666667  0.389360  1.0  0.7017
  C  C377  1  0.578100  0.732240  0.477090  1.0  0.5684
  C  C378  1  0.559700  0.753010  0.500450  1.0  -0.0592
  C  C379  1  0.626100  0.756640  0.519940  1.0  -0.0853
  C  C380  1  0.610400  0.775880  0.541500  1.0  -0.0736
  C  C381  1  0.527300  0.791360  0.543190  1.0  -0.0584
  C  C382  1  0.460400  0.788040  0.523380  1.0  -0.0768
  C  C383  1  0.476100  0.768720  0.502330  1.0  -0.153
  C  C384  1  0.511600  0.812890  0.566060  1.0  0.7182
  C  C385  1  0.832700  0.143650  0.415420  1.0  0.6677
  C  C386  1  0.920100  0.160500  0.420540  1.0  -0.1581
  C  C387  1  0.995200  0.155810  0.404030  1.0  -0.1052
  C  C388  1  0.075800  0.171770  0.407840  1.0  -0.0517
  C  C389  1  0.082000  0.192260  0.428690  1.0  -0.0633
  C  C390  1  0.007600  0.197100  0.445450  1.0  0.1944
  C  C391  1  0.926500  0.181160  0.441580  1.0  -0.1083
  C  C392  1  0.153200  0.166680  0.389360  1.0  0.7018
  C  C393  1  0.078100  0.232240  0.477090  1.0  0.5684
  C  C394  1  0.059700  0.253010  0.500450  1.0  -0.0592
  C  C395  1  0.126100  0.256640  0.519940  1.0  -0.0853
  C  C396  1  0.110400  0.275880  0.541500  1.0  -0.0736
  C  C397  1  0.027300  0.291360  0.543190  1.0  -0.0584
  C  C398  1  0.960400  0.288040  0.523380  1.0  -0.0768
  C  C399  1  0.976100  0.268720  0.502330  1.0  -0.153
  C  C400  1  0.011600  0.312890  0.566060  1.0  0.7182
  C  C401  1  0.832700  0.643650  0.915420  1.0  0.6677
  C  C402  1  0.920100  0.660500  0.920540  1.0  -0.1581
  C  C403  1  0.995200  0.655810  0.904030  1.0  -0.1045
  C  C404  1  0.075800  0.671770  0.907840  1.0  -0.0516
  C  C405  1  0.082000  0.692260  0.928690  1.0  -0.0633
  C  C406  1  0.007600  0.697100  0.945450  1.0  0.1944
  C  C407  1  0.926500  0.681160  0.941580  1.0  -0.1083
  C  C408  1  0.153200  0.666667  0.889360  1.0  0.7017
  C  C409  1  0.078100  0.732240  0.977090  1.0  0.5684
  C  C410  1  0.059700  0.753010  0.000450  1.0  -0.0592
  C  C411  1  0.126100  0.756640  0.019940  1.0  -0.0853
  C  C412  1  0.110400  0.775880  0.041500  1.0  -0.0736
  C  C413  1  0.027300  0.791360  0.043190  1.0  -0.0584
  C  C414  1  0.960400  0.788040  0.023380  1.0  -0.0768
  C  C415  1  0.976100  0.768720  0.002330  1.0  -0.153
  C  C416  1  0.011600  0.812890  0.066060  1.0  0.7182
  C  C417  1  0.332700  0.606350  0.834580  1.0  0.6696
  C  C418  1  0.420100  0.589500  0.829460  1.0  -0.1599
  C  C419  1  0.495200  0.594190  0.845970  1.0  -0.1042
  C  C420  1  0.575800  0.578230  0.842160  1.0  -0.0519
  C  C421  1  0.582000  0.557740  0.821310  1.0  -0.0627
  C  C422  1  0.507600  0.552900  0.804550  1.0  0.1947
  C  C423  1  0.426500  0.568840  0.808420  1.0  -0.1074
  C  C424  1  0.653200  0.583320  0.860640  1.0  0.7018
  C  C425  1  0.578100  0.517760  0.772910  1.0  0.5682
  C  C426  1  0.559700  0.496990  0.749550  1.0  -0.0591
  C  C427  1  0.626100  0.493360  0.730060  1.0  -0.0862
  C  C428  1  0.610400  0.474120  0.708500  1.0  -0.0736
  C  C429  1  0.527300  0.458640  0.706810  1.0  -0.0585
  C  C430  1  0.460400  0.461960  0.726620  1.0  -0.0762
  C  C431  1  0.476100  0.481280  0.747670  1.0  -0.1531
  C  C432  1  0.511600  0.437110  0.683940  1.0  0.7187
  C  C433  1  0.332700  0.106350  0.334580  1.0  0.6696
  C  C434  1  0.420100  0.089500  0.329460  1.0  -0.1599
  C  C435  1  0.495200  0.094190  0.345970  1.0  -0.1042
  C  C436  1  0.575800  0.078230  0.342160  1.0  -0.0519
  C  C437  1  0.582000  0.057740  0.321310  1.0  -0.0627
  C  C438  1  0.507600  0.052900  0.304550  1.0  0.1947
  C  C439  1  0.426500  0.068840  0.308420  1.0  -0.1074
  C  C440  1  0.653200  0.083320  0.360640  1.0  0.7021
  C  C441  1  0.578100  0.017760  0.272910  1.0  0.5682
  C  C442  1  0.559700  0.996990  0.249550  1.0  -0.0591
  C  C443  1  0.626100  0.993360  0.230060  1.0  -0.0852
  C  C444  1  0.610400  0.974120  0.208500  1.0  -0.0721
  C  C445  1  0.527300  0.958640  0.206810  1.0  -0.0585
  C  C446  1  0.460400  0.961960  0.226620  1.0  -0.0762
  C  C447  1  0.476100  0.981280  0.247670  1.0  -0.1531
  C  C448  1  0.511600  0.937110  0.183940  1.0  0.7187
  C  C449  1  0.832700  0.606350  0.334580  1.0  0.6696
  C  C450  1  0.920100  0.589500  0.329460  1.0  -0.1599
  C  C451  1  0.995200  0.594190  0.345970  1.0  -0.1042
  C  C452  1  0.075800  0.578230  0.342160  1.0  -0.0519
  C  C453  1  0.082000  0.557740  0.321310  1.0  -0.0627
  C  C454  1  0.007600  0.552900  0.304550  1.0  0.1947
  C  C455  1  0.926500  0.568840  0.308420  1.0  -0.1074
  C  C456  1  0.153200  0.583320  0.360640  1.0  0.7018
  C  C457  1  0.078100  0.517760  0.272910  1.0  0.5682
  C  C458  1  0.059700  0.496990  0.249550  1.0  -0.0591
  C  C459  1  0.126100  0.493360  0.230060  1.0  -0.0862
  C  C460  1  0.110400  0.474120  0.208500  1.0  -0.0736
  C  C461  1  0.027300  0.458640  0.206810  1.0  -0.0585
  C  C462  1  0.960400  0.461960  0.226620  1.0  -0.0762
  C  C463  1  0.976100  0.481280  0.247670  1.0  -0.1531
  C  C464  1  0.011600  0.437110  0.183940  1.0  0.7187
  C  C465  1  0.832700  0.106350  0.834580  1.0  0.6696
  C  C466  1  0.920100  0.089500  0.829460  1.0  -0.1599
  C  C467  1  0.995200  0.094190  0.845970  1.0  -0.1042
  C  C468  1  0.075800  0.078230  0.842160  1.0  -0.0519
  C  C469  1  0.082000  0.057740  0.821310  1.0  -0.0627
  C  C470  1  0.007600  0.052900  0.804550  1.0  0.1947
  C  C471  1  0.926500  0.068840  0.808420  1.0  -0.1074
  C  C472  1  0.153200  0.083320  0.860640  1.0  0.7021
  C  C473  1  0.078100  0.017760  0.772910  1.0  0.5682
  C  C474  1  0.059700  0.996990  0.749550  1.0  -0.0591
  C  C475  1  0.126100  0.993360  0.730060  1.0  -0.0852
  C  C476  1  0.110400  0.974120  0.708500  1.0  -0.0721
  C  C477  1  0.027300  0.958640  0.706810  1.0  -0.0585
  C  C478  1  0.960400  0.961960  0.726620  1.0  -0.0762
  C  C479  1  0.976100  0.981280  0.747670  1.0  -0.1531
  C  C480  1  0.011600  0.937110  0.683940  1.0  0.7187
  C  C481  1  0.417300  0.143650  0.834580  1.0  0.6721
  C  C482  1  0.329900  0.160500  0.829460  1.0  -0.1593
  C  C483  1  0.254800  0.155810  0.845970  1.0  -0.1041
  C  C484  1  0.174200  0.171770  0.842160  1.0  -0.0502
  C  C485  1  0.168000  0.192260  0.821310  1.0  -0.0627
  C  C486  1  0.242400  0.197100  0.804550  1.0  0.1951
  C  C487  1  0.323500  0.181160  0.808420  1.0  -0.1065
  C  C488  1  0.096800  0.166680  0.860640  1.0  0.6998
  C  C489  1  0.171900  0.232240  0.772910  1.0  0.5681
  C  C490  1  0.190300  0.253010  0.749550  1.0  -0.0591
  C  C491  1  0.123900  0.256640  0.730060  1.0  -0.0851
  C  C492  1  0.139600  0.275880  0.708500  1.0  -0.0731
  C  C493  1  0.222700  0.291360  0.706810  1.0  -0.0585
  C  C494  1  0.289600  0.288040  0.726620  1.0  -0.0754
  C  C495  1  0.273900  0.268720  0.747670  1.0  -0.1521
  C  C496  1  0.238400  0.312890  0.683940  1.0  0.7201
  C  C497  1  0.417300  0.643650  0.334580  1.0  0.6721
  C  C498  1  0.329900  0.660500  0.329460  1.0  -0.1593
  C  C499  1  0.254800  0.655810  0.345970  1.0  -0.1034
  C  C500  1  0.174200  0.671770  0.342160  1.0  -0.0501
  C  C501  1  0.168000  0.692260  0.321310  1.0  -0.0627
  C  C502  1  0.242400  0.697100  0.304550  1.0  0.1951
  C  C503  1  0.323500  0.681160  0.308420  1.0  -0.1065
  C  C504  1  0.096800  0.666667  0.360640  1.0  0.6997
  C  C505  1  0.171900  0.732240  0.272910  1.0  0.5681
  C  C506  1  0.190300  0.753010  0.249550  1.0  -0.0591
  C  C507  1  0.123900  0.756640  0.230060  1.0  -0.0851
  C  C508  1  0.139600  0.775880  0.208500  1.0  -0.0731
  C  C509  1  0.222700  0.791360  0.206810  1.0  -0.0585
  C  C510  1  0.289600  0.788040  0.226620  1.0  -0.0754
  C  C511  1  0.273900  0.768720  0.247670  1.0  -0.1521
  C  C512  1  0.238400  0.812890  0.183940  1.0  0.7201
  C  C513  1  0.917300  0.143650  0.334580  1.0  0.6721
  C  C514  1  0.829900  0.160500  0.329460  1.0  -0.1593
  C  C515  1  0.754800  0.155810  0.345970  1.0  -0.1041
  C  C516  1  0.674200  0.171770  0.342160  1.0  -0.0502
  C  C517  1  0.668000  0.192260  0.321310  1.0  -0.0627
  C  C518  1  0.742400  0.197100  0.304550  1.0  0.1951
  C  C519  1  0.823500  0.181160  0.308420  1.0  -0.1065
  C  C520  1  0.596800  0.166680  0.360640  1.0  0.6998
  C  C521  1  0.671900  0.232240  0.272910  1.0  0.5681
  C  C522  1  0.690300  0.253010  0.249550  1.0  -0.0591
  C  C523  1  0.623900  0.256640  0.230060  1.0  -0.0851
  C  C524  1  0.639600  0.275880  0.208500  1.0  -0.0731
  C  C525  1  0.722700  0.291360  0.206810  1.0  -0.0585
  C  C526  1  0.789600  0.288040  0.226620  1.0  -0.0754
  C  C527  1  0.773900  0.268720  0.247670  1.0  -0.1521
  C  C528  1  0.738400  0.312890  0.183940  1.0  0.7201
  C  C529  1  0.917300  0.643650  0.834580  1.0  0.6721
  C  C530  1  0.829900  0.660500  0.829460  1.0  -0.1593
  C  C531  1  0.754800  0.655810  0.845970  1.0  -0.1034
  C  C532  1  0.674200  0.671770  0.842160  1.0  -0.0501
  C  C533  1  0.668000  0.692260  0.821310  1.0  -0.0627
  C  C534  1  0.742400  0.697100  0.804550  1.0  0.1951
  C  C535  1  0.823500  0.681160  0.808420  1.0  -0.1065
  C  C536  1  0.596800  0.666667  0.860640  1.0  0.6997
  C  C537  1  0.671900  0.732240  0.772910  1.0  0.5681
  C  C538  1  0.690300  0.753010  0.749550  1.0  -0.0591
  C  C539  1  0.623900  0.756640  0.730060  1.0  -0.0851
  C  C540  1  0.639600  0.775880  0.708500  1.0  -0.0731
  C  C541  1  0.722700  0.791360  0.706810  1.0  -0.0585
  C  C542  1  0.789600  0.788040  0.726620  1.0  -0.0754
  C  C543  1  0.773900  0.768720  0.747670  1.0  -0.1521
  C  C544  1  0.738400  0.812890  0.683940  1.0  0.7201
  C  C545  1  0.582700  0.393650  0.084580  1.0  0.6694
  C  C546  1  0.670100  0.410500  0.079460  1.0  -0.1591
  C  C547  1  0.745200  0.405810  0.095970  1.0  -0.1041
  C  C548  1  0.825800  0.421770  0.092160  1.0  -0.0516
  C  C549  1  0.832000  0.442260  0.071310  1.0  -0.0634
  C  C550  1  0.757600  0.447100  0.054550  1.0  0.1947
  C  C551  1  0.676500  0.431160  0.058420  1.0  -0.1074
  C  C552  1  0.903200  0.416680  0.110640  1.0  0.7021
  C  C553  1  0.828100  0.482240  0.022910  1.0  0.5683
  C  C554  1  0.809700  0.503010  0.999550  1.0  -0.059
  C  C555  1  0.876100  0.506640  0.980060  1.0  -0.0861
  C  C556  1  0.860400  0.525880  0.958500  1.0  -0.074
  C  C557  1  0.777300  0.541360  0.956810  1.0  -0.0578
  C  C558  1  0.710400  0.538040  0.976620  1.0  -0.0771
  C  C559  1  0.726100  0.518720  0.997670  1.0  -0.1537
  C  C560  1  0.761600  0.562890  0.933940  1.0  0.7195
  C  C561  1  0.582700  0.893650  0.584580  1.0  0.6694
  C  C562  1  0.670100  0.910500  0.579460  1.0  -0.1591
  C  C563  1  0.745200  0.905810  0.595970  1.0  -0.1041
  C  C564  1  0.825800  0.921770  0.592160  1.0  -0.0517
  C  C565  1  0.832000  0.942260  0.571310  1.0  -0.0634
  C  C566  1  0.757600  0.947100  0.554550  1.0  0.1947
  C  C567  1  0.676500  0.931160  0.558420  1.0  -0.1074
  C  C568  1  0.903200  0.916680  0.610640  1.0  0.7021
  C  C569  1  0.828100  0.982240  0.522910  1.0  0.5683
  C  C570  1  0.809700  0.003010  0.499550  1.0  -0.059
  C  C571  1  0.876100  0.006640  0.480060  1.0  -0.086
  C  C572  1  0.860400  0.025880  0.458500  1.0  -0.0725
  C  C573  1  0.777300  0.041360  0.456810  1.0  -0.0578
  C  C574  1  0.710400  0.038040  0.476620  1.0  -0.0771
  C  C575  1  0.726100  0.018720  0.497670  1.0  -0.1537
  C  C576  1  0.761600  0.062890  0.433940  1.0  0.7195
  C  C577  1  0.082700  0.393650  0.584580  1.0  0.6694
  C  C578  1  0.170100  0.410500  0.579460  1.0  -0.1591
  C  C579  1  0.245200  0.405810  0.595970  1.0  -0.1041
  C  C580  1  0.325800  0.421770  0.592160  1.0  -0.0516
  C  C581  1  0.332000  0.442260  0.571310  1.0  -0.0634
  C  C582  1  0.257600  0.447100  0.554550  1.0  0.1947
  C  C583  1  0.176500  0.431160  0.558420  1.0  -0.1074
  C  C584  1  0.403200  0.416680  0.610640  1.0  0.7021
  C  C585  1  0.328100  0.482240  0.522910  1.0  0.5683
  C  C586  1  0.309700  0.503010  0.499550  1.0  -0.059
  C  C587  1  0.376100  0.506640  0.480060  1.0  -0.0861
  C  C588  1  0.360400  0.525880  0.458500  1.0  -0.074
  C  C589  1  0.277300  0.541360  0.456810  1.0  -0.0578
  C  C590  1  0.210400  0.538040  0.476620  1.0  -0.0771
  C  C591  1  0.226100  0.518720  0.497670  1.0  -0.1537
  C  C592  1  0.261600  0.562890  0.433940  1.0  0.7195
  C  C593  1  0.082700  0.893650  0.084580  1.0  0.6694
  C  C594  1  0.170100  0.910500  0.079460  1.0  -0.1591
  C  C595  1  0.245200  0.905810  0.095970  1.0  -0.1041
  C  C596  1  0.325800  0.921770  0.092160  1.0  -0.0517
  C  C597  1  0.332000  0.942260  0.071310  1.0  -0.0634
  C  C598  1  0.257600  0.947100  0.054550  1.0  0.1947
  C  C599  1  0.176500  0.931160  0.058420  1.0  -0.1074
  C  C600  1  0.403200  0.916680  0.110640  1.0  0.7021
  C  C601  1  0.328100  0.982240  0.022910  1.0  0.5683
  C  C602  1  0.309700  0.003010  0.999550  1.0  -0.059
  C  C603  1  0.376100  0.006640  0.980060  1.0  -0.086
  C  C604  1  0.360400  0.025880  0.958500  1.0  -0.0725
  C  C605  1  0.277300  0.041360  0.956810  1.0  -0.0578
  C  C606  1  0.210400  0.038040  0.976620  1.0  -0.0771
  C  C607  1  0.226100  0.018720  0.997670  1.0  -0.1537
  C  C608  1  0.261600  0.062890  0.933940  1.0  0.7195
  C  C609  1  0.667300  0.856350  0.084580  1.0  0.672
  C  C610  1  0.579900  0.839500  0.079460  1.0  -0.1597
  C  C611  1  0.504800  0.844190  0.095970  1.0  -0.1041
  C  C612  1  0.424200  0.828230  0.092160  1.0  -0.0506
  C  C613  1  0.418000  0.807740  0.071310  1.0  -0.0618
  C  C614  1  0.492400  0.802900  0.054550  1.0  0.1951
  C  C615  1  0.573500  0.818840  0.058420  1.0  -0.1064
  C  C616  1  0.346800  0.833320  0.110640  1.0  0.6997
  C  C617  1  0.421900  0.767760  0.022910  1.0  0.5679
  C  C618  1  0.440300  0.746990  0.999550  1.0  -0.0593
  C  C619  1  0.373900  0.743360  0.980060  1.0  -0.0856
  C  C620  1  0.389600  0.724120  0.958500  1.0  -0.0727
  C  C621  1  0.472700  0.708640  0.956810  1.0  -0.059
  C  C622  1  0.539600  0.711960  0.976620  1.0  -0.0747
  C  C623  1  0.523900  0.731280  0.997670  1.0  -0.1517
  C  C624  1  0.488400  0.687110  0.933940  1.0  0.7194
  C  C625  1  0.667300  0.356350  0.584580  1.0  0.672
  C  C626  1  0.579900  0.339500  0.579460  1.0  -0.1597
  C  C627  1  0.504800  0.344190  0.595970  1.0  -0.1035
  C  C628  1  0.424200  0.328230  0.592160  1.0  -0.0505
  C  C629  1  0.418000  0.307740  0.571310  1.0  -0.0618
  C  C630  1  0.492400  0.302900  0.554550  1.0  0.1951
  C  C631  1  0.573500  0.318840  0.558420  1.0  -0.1064
  C  C632  1  0.346800  0.333333  0.610640  1.0  0.6996
  C  C633  1  0.421900  0.267760  0.522910  1.0  0.5679
  C  C634  1  0.440300  0.246990  0.499550  1.0  -0.0593
  C  C635  1  0.373900  0.243360  0.480060  1.0  -0.0856
  C  C636  1  0.389600  0.224120  0.458500  1.0  -0.0727
  C  C637  1  0.472700  0.208640  0.456810  1.0  -0.059
  C  C638  1  0.539600  0.211960  0.476620  1.0  -0.0747
  C  C639  1  0.523900  0.231280  0.497670  1.0  -0.1517
  C  C640  1  0.488400  0.187110  0.433940  1.0  0.7194
  C  C641  1  0.167300  0.856350  0.584580  1.0  0.672
  C  C642  1  0.079900  0.839500  0.579460  1.0  -0.1597
  C  C643  1  0.004800  0.844190  0.595970  1.0  -0.1041
  C  C644  1  0.924200  0.828230  0.592160  1.0  -0.0506
  C  C645  1  0.918000  0.807740  0.571310  1.0  -0.0618
  C  C646  1  0.992400  0.802900  0.554550  1.0  0.1951
  C  C647  1  0.073500  0.818840  0.558420  1.0  -0.1064
  C  C648  1  0.846800  0.833320  0.610640  1.0  0.6997
  C  C649  1  0.921900  0.767760  0.522910  1.0  0.5679
  C  C650  1  0.940300  0.746990  0.499550  1.0  -0.0593
  C  C651  1  0.873900  0.743360  0.480060  1.0  -0.0856
  C  C652  1  0.889600  0.724120  0.458500  1.0  -0.0727
  C  C653  1  0.972700  0.708640  0.456810  1.0  -0.059
  C  C654  1  0.039600  0.711960  0.476620  1.0  -0.0747
  C  C655  1  0.023900  0.731280  0.497670  1.0  -0.1517
  C  C656  1  0.988400  0.687110  0.433940  1.0  0.7194
  C  C657  1  0.167300  0.356350  0.084580  1.0  0.672
  C  C658  1  0.079900  0.339500  0.079460  1.0  -0.1597
  C  C659  1  0.004800  0.344190  0.095970  1.0  -0.1035
  C  C660  1  0.924200  0.328230  0.092160  1.0  -0.0505
  C  C661  1  0.918000  0.307740  0.071310  1.0  -0.0618
  C  C662  1  0.992400  0.302900  0.054550  1.0  0.1951
  C  C663  1  0.073500  0.318840  0.058420  1.0  -0.1064
  C  C664  1  0.846800  0.333333  0.110640  1.0  0.6996
  C  C665  1  0.921900  0.267760  0.022910  1.0  0.5679
  C  C666  1  0.940300  0.246990  0.999550  1.0  -0.0593
  C  C667  1  0.873900  0.243360  0.980060  1.0  -0.0856
  C  C668  1  0.889600  0.224120  0.958500  1.0  -0.0727
  C  C669  1  0.972700  0.208640  0.956810  1.0  -0.059
  C  C670  1  0.039600  0.211960  0.976620  1.0  -0.0747
  C  C671  1  0.023900  0.231280  0.997670  1.0  -0.1517
  C  C672  1  0.988400  0.187110  0.933940  1.0  0.7194
  C  C673  1  0.667300  0.393650  0.165420  1.0  0.6716
  C  C674  1  0.579900  0.410500  0.170540  1.0  -0.1584
  C  C675  1  0.504800  0.405810  0.154030  1.0  -0.1047
  C  C676  1  0.424200  0.421770  0.157840  1.0  -0.0503
  C  C677  1  0.418000  0.442260  0.178690  1.0  -0.0627
  C  C678  1  0.492400  0.447100  0.195450  1.0  0.1948
  C  C679  1  0.573500  0.431160  0.191580  1.0  -0.1071
  C  C680  1  0.346800  0.416680  0.139360  1.0  0.6998
  C  C681  1  0.421900  0.482240  0.227090  1.0  0.5684
  C  C682  1  0.440300  0.503010  0.250450  1.0  -0.0593
  C  C683  1  0.373900  0.506640  0.269940  1.0  -0.0844
  C  C684  1  0.389600  0.525880  0.291500  1.0  -0.0733
  C  C685  1  0.472700  0.541360  0.293190  1.0  -0.0589
  C  C686  1  0.539600  0.538040  0.273380  1.0  -0.075
  C  C687  1  0.523900  0.518720  0.252330  1.0  -0.1514
  C  C688  1  0.488400  0.562890  0.316060  1.0  0.7194
  C  C689  1  0.667300  0.893650  0.665420  1.0  0.6716
  C  C690  1  0.579900  0.910500  0.670540  1.0  -0.1584
  C  C691  1  0.504800  0.905810  0.654030  1.0  -0.1047
  C  C692  1  0.424200  0.921770  0.657840  1.0  -0.0503
  C  C693  1  0.418000  0.942260  0.678690  1.0  -0.0627
  C  C694  1  0.492400  0.947100  0.695450  1.0  0.1948
  C  C695  1  0.573500  0.931160  0.691580  1.0  -0.1071
  C  C696  1  0.346800  0.916680  0.639360  1.0  0.6999
  C  C697  1  0.421900  0.982240  0.727090  1.0  0.5684
  C  C698  1  0.440300  0.003010  0.750450  1.0  -0.0593
  C  C699  1  0.373900  0.006640  0.769940  1.0  -0.0838
  C  C700  1  0.389600  0.025880  0.791500  1.0  -0.072
  C  C701  1  0.472700  0.041360  0.793190  1.0  -0.0589
  C  C702  1  0.539600  0.038040  0.773380  1.0  -0.075
  C  C703  1  0.523900  0.018720  0.752330  1.0  -0.1514
  C  C704  1  0.488400  0.062890  0.816060  1.0  0.7194
  C  C705  1  0.167300  0.393650  0.665420  1.0  0.6716
  C  C706  1  0.079900  0.410500  0.670540  1.0  -0.1584
  C  C707  1  0.004800  0.405810  0.654030  1.0  -0.1047
  C  C708  1  0.924200  0.421770  0.657840  1.0  -0.0503
  C  C709  1  0.918000  0.442260  0.678690  1.0  -0.0627
  C  C710  1  0.992400  0.447100  0.695450  1.0  0.1948
  C  C711  1  0.073500  0.431160  0.691580  1.0  -0.1071
  C  C712  1  0.846800  0.416680  0.639360  1.0  0.6998
  C  C713  1  0.921900  0.482240  0.727090  1.0  0.5684
  C  C714  1  0.940300  0.503010  0.750450  1.0  -0.0593
  C  C715  1  0.873900  0.506640  0.769940  1.0  -0.0844
  C  C716  1  0.889600  0.525880  0.791500  1.0  -0.0733
  C  C717  1  0.972700  0.541360  0.793190  1.0  -0.0589
  C  C718  1  0.039600  0.538040  0.773380  1.0  -0.075
  C  C719  1  0.023900  0.518720  0.752330  1.0  -0.1514
  C  C720  1  0.988400  0.562890  0.816060  1.0  0.7194
  C  C721  1  0.167300  0.893650  0.165420  1.0  0.6716
  C  C722  1  0.079900  0.910500  0.170540  1.0  -0.1584
  C  C723  1  0.004800  0.905810  0.154030  1.0  -0.1047
  C  C724  1  0.924200  0.921770  0.157840  1.0  -0.0503
  C  C725  1  0.918000  0.942260  0.178690  1.0  -0.0627
  C  C726  1  0.992400  0.947100  0.195450  1.0  0.1948
  C  C727  1  0.073500  0.931160  0.191580  1.0  -0.1071
  C  C728  1  0.846800  0.916680  0.139360  1.0  0.6999
  C  C729  1  0.921900  0.982240  0.227090  1.0  0.5684
  C  C730  1  0.940300  0.003010  0.250450  1.0  -0.0593
  C  C731  1  0.873900  0.006640  0.269940  1.0  -0.0838
  C  C732  1  0.889600  0.025880  0.291500  1.0  -0.072
  C  C733  1  0.972700  0.041360  0.293190  1.0  -0.0589
  C  C734  1  0.039600  0.038040  0.273380  1.0  -0.075
  C  C735  1  0.023900  0.018720  0.252330  1.0  -0.1514
  C  C736  1  0.988400  0.062890  0.316060  1.0  0.7194
  C  C737  1  0.582700  0.856350  0.165420  1.0  0.6688
  C  C738  1  0.670100  0.839500  0.170540  1.0  -0.1592
  C  C739  1  0.745200  0.844190  0.154030  1.0  -0.105
  C  C740  1  0.825800  0.828230  0.157840  1.0  -0.0517
  C  C741  1  0.832000  0.807740  0.178690  1.0  -0.0626
  C  C742  1  0.757600  0.802900  0.195450  1.0  0.1944
  C  C743  1  0.676500  0.818840  0.191580  1.0  -0.1081
  C  C744  1  0.903200  0.833320  0.139360  1.0  0.7013
  C  C745  1  0.828100  0.767760  0.227090  1.0  0.5683
  C  C746  1  0.809700  0.746990  0.250450  1.0  -0.0592
  C  C747  1  0.876100  0.743360  0.269940  1.0  -0.0855
  C  C748  1  0.860400  0.724120  0.291500  1.0  -0.0732
  C  C749  1  0.777300  0.708640  0.293190  1.0  -0.0586
  C  C750  1  0.710400  0.711960  0.273380  1.0  -0.076
  C  C751  1  0.726100  0.731280  0.252330  1.0  -0.1527
  C  C752  1  0.761600  0.687110  0.316060  1.0  0.7175
  C  C753  1  0.582700  0.356350  0.665420  1.0  0.6688
  C  C754  1  0.670100  0.339500  0.670540  1.0  -0.1592
  C  C755  1  0.745200  0.344190  0.654030  1.0  -0.1043
  C  C756  1  0.825800  0.328230  0.657840  1.0  -0.0516
  C  C757  1  0.832000  0.307740  0.678690  1.0  -0.0626
  C  C758  1  0.757600  0.302900  0.695450  1.0  0.1944
  C  C759  1  0.676500  0.318840  0.691580  1.0  -0.1081
  C  C760  1  0.903200  0.333333  0.639360  1.0  0.7011
  C  C761  1  0.828100  0.267760  0.727090  1.0  0.5683
  C  C762  1  0.809700  0.246990  0.750450  1.0  -0.0592
  C  C763  1  0.876100  0.243360  0.769940  1.0  -0.0855
  C  C764  1  0.860400  0.224120  0.791500  1.0  -0.0732
  C  C765  1  0.777300  0.208640  0.793190  1.0  -0.0586
  C  C766  1  0.710400  0.211960  0.773380  1.0  -0.076
  C  C767  1  0.726100  0.231280  0.752330  1.0  -0.1527
  C  C768  1  0.761600  0.187110  0.816060  1.0  0.7175
  C  C769  1  0.082700  0.856350  0.665420  1.0  0.6688
  C  C770  1  0.170100  0.839500  0.670540  1.0  -0.1592
  C  C771  1  0.245200  0.844190  0.654030  1.0  -0.105
  C  C772  1  0.325800  0.828230  0.657840  1.0  -0.0517
  C  C773  1  0.332000  0.807740  0.678690  1.0  -0.0626
  C  C774  1  0.257600  0.802900  0.695450  1.0  0.1944
  C  C775  1  0.176500  0.818840  0.691580  1.0  -0.1081
  C  C776  1  0.403200  0.833320  0.639360  1.0  0.7013
  C  C777  1  0.328100  0.767760  0.727090  1.0  0.5683
  C  C778  1  0.309700  0.746990  0.750450  1.0  -0.0592
  C  C779  1  0.376100  0.743360  0.769940  1.0  -0.0855
  C  C780  1  0.360400  0.724120  0.791500  1.0  -0.0732
  C  C781  1  0.277300  0.708640  0.793190  1.0  -0.0586
  C  C782  1  0.210400  0.711960  0.773380  1.0  -0.076
  C  C783  1  0.226100  0.731280  0.752330  1.0  -0.1527
  C  C784  1  0.261600  0.687110  0.816060  1.0  0.7175
  C  C785  1  0.082700  0.356350  0.165420  1.0  0.6688
  C  C786  1  0.170100  0.339500  0.170540  1.0  -0.1592
  C  C787  1  0.245200  0.344190  0.154030  1.0  -0.1043
  C  C788  1  0.325800  0.328230  0.157840  1.0  -0.0516
  C  C789  1  0.332000  0.307740  0.178690  1.0  -0.0626
  C  C790  1  0.257600  0.302900  0.195450  1.0  0.1944
  C  C791  1  0.176500  0.318840  0.191580  1.0  -0.1081
  C  C792  1  0.403200  0.333333  0.139360  1.0  0.7011
  C  C793  1  0.328100  0.267760  0.227090  1.0  0.5683
  C  C794  1  0.309700  0.246990  0.250450  1.0  -0.0592
  C  C795  1  0.376100  0.243360  0.269940  1.0  -0.0855
  C  C796  1  0.360400  0.224120  0.291500  1.0  -0.0732
  C  C797  1  0.277300  0.208640  0.293190  1.0  -0.0586
  C  C798  1  0.210400  0.211960  0.273380  1.0  -0.076
  C  C799  1  0.226100  0.231280  0.252330  1.0  -0.1527
  C  C800  1  0.261600  0.187110  0.316060  1.0  0.7175
  N  N801  1  0.243800  0.532020  0.967480  1.0  -0.4246
  N  N802  1  0.243800  0.032020  0.467480  1.0  -0.4246
  N  N803  1  0.743800  0.532020  0.467480  1.0  -0.4246
  N  N804  1  0.743800  0.032020  0.967480  1.0  -0.4246
  N  N805  1  0.506200  0.217980  0.967480  1.0  -0.427
  N  N806  1  0.506200  0.717980  0.467480  1.0  -0.427
  N  N807  1  0.006200  0.217980  0.467480  1.0  -0.427
  N  N808  1  0.006200  0.717980  0.967480  1.0  -0.427
  N  N809  1  0.506200  0.532020  0.782520  1.0  -0.4269
  N  N810  1  0.506200  0.032020  0.282520  1.0  -0.4269
  N  N811  1  0.006200  0.532020  0.282520  1.0  -0.4269
  N  N812  1  0.006200  0.032020  0.782520  1.0  -0.4269
  N  N813  1  0.243800  0.217980  0.782520  1.0  -0.4242
  N  N814  1  0.243800  0.717980  0.282520  1.0  -0.4242
  N  N815  1  0.743800  0.217980  0.282520  1.0  -0.4242
  N  N816  1  0.743800  0.717980  0.782520  1.0  -0.4242
  N  N817  1  0.756200  0.467980  0.032520  1.0  -0.4269
  N  N818  1  0.756200  0.967980  0.532520  1.0  -0.4269
  N  N819  1  0.256200  0.467980  0.532520  1.0  -0.4269
  N  N820  1  0.256200  0.967980  0.032520  1.0  -0.4269
  N  N821  1  0.493800  0.782020  0.032520  1.0  -0.4239
  N  N822  1  0.493800  0.282020  0.532520  1.0  -0.4239
  N  N823  1  0.993800  0.782020  0.532520  1.0  -0.4239
  N  N824  1  0.993800  0.282020  0.032520  1.0  -0.4239
  N  N825  1  0.493800  0.467980  0.217480  1.0  -0.425
  N  N826  1  0.493800  0.967980  0.717480  1.0  -0.425
  N  N827  1  0.993800  0.467980  0.717480  1.0  -0.425
  N  N828  1  0.993800  0.967980  0.217480  1.0  -0.425
  N  N829  1  0.756200  0.782020  0.217480  1.0  -0.427
  N  N830  1  0.756200  0.282020  0.717480  1.0  -0.427
  N  N831  1  0.256200  0.782020  0.717480  1.0  -0.427
  N  N832  1  0.256200  0.282020  0.217480  1.0  -0.427
  O  O833  1  0.485700  0.600930  0.930450  1.0  -0.6556
  O  O834  1  0.427800  0.627280  0.899660  1.0  -0.6826
  O  O835  1  0.131400  0.586510  0.867460  1.0  -0.6241
  O  O836  1  0.014200  0.584250  0.894950  1.0  -0.6787
  O  O837  1  0.092400  0.521050  0.969890  1.0  -0.4923
  O  O838  1  0.204700  0.442280  0.087980  1.0  -0.7065
  O  O839  1  0.287700  0.416340  0.058030  1.0  -0.6974
  O  O840  1  0.485700  0.100930  0.430450  1.0  -0.6556
  O  O841  1  0.427800  0.127280  0.399660  1.0  -0.6826
  O  O842  1  0.131400  0.086510  0.367460  1.0  -0.6241
  O  O843  1  0.014200  0.084250  0.394950  1.0  -0.6787
  O  O844  1  0.092400  0.021050  0.469890  1.0  -0.4861
  O  O845  1  0.204700  0.942280  0.587980  1.0  -0.7065
  O  O846  1  0.287700  0.916340  0.558030  1.0  -0.6974
  O  O847  1  0.985700  0.600930  0.430450  1.0  -0.6556
  O  O848  1  0.927800  0.627280  0.399660  1.0  -0.6826
  O  O849  1  0.631400  0.586510  0.367460  1.0  -0.6241
  O  O850  1  0.514200  0.584250  0.394950  1.0  -0.6787
  O  O851  1  0.592400  0.521050  0.469890  1.0  -0.4923
  O  O852  1  0.704700  0.442280  0.587980  1.0  -0.7065
  O  O853  1  0.787700  0.416340  0.558030  1.0  -0.6974
  O  O854  1  0.985700  0.100930  0.930450  1.0  -0.6556
  O  O855  1  0.927800  0.127280  0.899660  1.0  -0.6826
  O  O856  1  0.631400  0.086510  0.867460  1.0  -0.6241
  O  O857  1  0.514200  0.084250  0.894950  1.0  -0.6787
  O  O858  1  0.592400  0.021050  0.969890  1.0  -0.4861
  O  O859  1  0.704700  0.942280  0.087980  1.0  -0.7065
  O  O860  1  0.787700  0.916340  0.058030  1.0  -0.6974
  O  O861  1  0.264300  0.149070  0.930450  1.0  -0.6555
  O  O862  1  0.322200  0.122720  0.899660  1.0  -0.6821
  O  O863  1  0.618600  0.163490  0.867460  1.0  -0.6234
  O  O864  1  0.735800  0.165750  0.894950  1.0  -0.6795
  O  O865  1  0.657600  0.228950  0.969890  1.0  -0.4933
  O  O866  1  0.545300  0.307720  0.087980  1.0  -0.7055
  O  O867  1  0.462300  0.333660  0.058030  1.0  -0.6996
  O  O868  1  0.264300  0.649070  0.430450  1.0  -0.6556
  O  O869  1  0.322200  0.622720  0.399660  1.0  -0.6821
  O  O870  1  0.618600  0.663490  0.367460  1.0  -0.6235
  O  O871  1  0.735800  0.665750  0.394950  1.0  -0.6795
  O  O872  1  0.657600  0.728950  0.469890  1.0  -0.4933
  O  O873  1  0.545300  0.807720  0.587980  1.0  -0.7055
  O  O874  1  0.462300  0.833660  0.558030  1.0  -0.6996
  O  O875  1  0.764300  0.149070  0.430450  1.0  -0.6555
  O  O876  1  0.822200  0.122720  0.399660  1.0  -0.6821
  O  O877  1  0.118600  0.163490  0.367460  1.0  -0.6234
  O  O878  1  0.235800  0.165750  0.394950  1.0  -0.6795
  O  O879  1  0.157600  0.228950  0.469890  1.0  -0.4933
  O  O880  1  0.045300  0.307720  0.587980  1.0  -0.7055
  O  O881  1  0.962300  0.333660  0.558030  1.0  -0.6996
  O  O882  1  0.764300  0.649070  0.930450  1.0  -0.6556
  O  O883  1  0.822200  0.622720  0.899660  1.0  -0.6821
  O  O884  1  0.118600  0.663490  0.867460  1.0  -0.6235
  O  O885  1  0.235800  0.665750  0.894950  1.0  -0.6795
  O  O886  1  0.157600  0.728950  0.969890  1.0  -0.4933
  O  O887  1  0.045300  0.807720  0.087980  1.0  -0.7055
  O  O888  1  0.962300  0.833660  0.058030  1.0  -0.6996
  O  O889  1  0.264300  0.600930  0.819550  1.0  -0.6563
  O  O890  1  0.322200  0.627280  0.850340  1.0  -0.6836
  O  O891  1  0.618600  0.586510  0.882540  1.0  -0.6253
  O  O892  1  0.735800  0.584250  0.855050  1.0  -0.6797
  O  O893  1  0.657600  0.521050  0.780110  1.0  -0.4934
  O  O894  1  0.545300  0.442280  0.662020  1.0  -0.7044
  O  O895  1  0.462300  0.416340  0.691970  1.0  -0.698
  O  O896  1  0.264300  0.100930  0.319550  1.0  -0.6561
  O  O897  1  0.322200  0.127280  0.350340  1.0  -0.6836
  O  O898  1  0.618600  0.086510  0.382540  1.0  -0.6254
  O  O899  1  0.735800  0.084250  0.355050  1.0  -0.6797
  O  O900  1  0.657600  0.021050  0.280110  1.0  -0.4873
  O  O901  1  0.545300  0.942280  0.162020  1.0  -0.7044
  O  O902  1  0.462300  0.916340  0.191970  1.0  -0.698
  O  O903  1  0.764300  0.600930  0.319550  1.0  -0.6563
  O  O904  1  0.822200  0.627280  0.350340  1.0  -0.6836
  O  O905  1  0.118600  0.586510  0.382540  1.0  -0.6253
  O  O906  1  0.235800  0.584250  0.355050  1.0  -0.6797
  O  O907  1  0.157600  0.521050  0.280110  1.0  -0.4934
  O  O908  1  0.045300  0.442280  0.162020  1.0  -0.7044
  O  O909  1  0.962300  0.416340  0.191970  1.0  -0.698
  O  O910  1  0.764300  0.100930  0.819550  1.0  -0.6561
  O  O911  1  0.822200  0.127280  0.850340  1.0  -0.6836
  O  O912  1  0.118600  0.086510  0.882540  1.0  -0.6254
  O  O913  1  0.235800  0.084250  0.855050  1.0  -0.6797
  O  O914  1  0.157600  0.021050  0.780110  1.0  -0.4873
  O  O915  1  0.045300  0.942280  0.662020  1.0  -0.7044
  O  O916  1  0.962300  0.916340  0.691970  1.0  -0.698
  O  O917  1  0.485700  0.149070  0.819550  1.0  -0.657
  O  O918  1  0.427800  0.122720  0.850340  1.0  -0.6826
  O  O919  1  0.131400  0.163490  0.882540  1.0  -0.6259
  O  O920  1  0.014200  0.165750  0.855050  1.0  -0.6776
  O  O921  1  0.092400  0.228950  0.780110  1.0  -0.4926
  O  O922  1  0.204700  0.307720  0.662020  1.0  -0.7041
  O  O923  1  0.287700  0.333660  0.691970  1.0  -0.6981
  O  O924  1  0.485700  0.649070  0.319550  1.0  -0.6571
  O  O925  1  0.427800  0.622720  0.350340  1.0  -0.6826
  O  O926  1  0.131400  0.663490  0.382540  1.0  -0.6259
  O  O927  1  0.014200  0.665750  0.355050  1.0  -0.6776
  O  O928  1  0.092400  0.728950  0.280110  1.0  -0.4926
  O  O929  1  0.204700  0.807720  0.162020  1.0  -0.7041
  O  O930  1  0.287700  0.833660  0.191970  1.0  -0.6981
  O  O931  1  0.985700  0.149070  0.319550  1.0  -0.657
  O  O932  1  0.927800  0.122720  0.350340  1.0  -0.6826
  O  O933  1  0.631400  0.163490  0.382540  1.0  -0.6259
  O  O934  1  0.514200  0.165750  0.355050  1.0  -0.6776
  O  O935  1  0.592400  0.228950  0.280110  1.0  -0.4926
  O  O936  1  0.704700  0.307720  0.162020  1.0  -0.7041
  O  O937  1  0.787700  0.333660  0.191970  1.0  -0.6981
  O  O938  1  0.985700  0.649070  0.819550  1.0  -0.6571
  O  O939  1  0.927800  0.622720  0.850340  1.0  -0.6826
  O  O940  1  0.631400  0.663490  0.882540  1.0  -0.6259
  O  O941  1  0.514200  0.665750  0.855050  1.0  -0.6776
  O  O942  1  0.592400  0.728950  0.780110  1.0  -0.4926
  O  O943  1  0.704700  0.807720  0.662020  1.0  -0.7041
  O  O944  1  0.787700  0.833660  0.691970  1.0  -0.6981
  O  O945  1  0.514300  0.399070  0.069550  1.0  -0.6561
  O  O946  1  0.572200  0.372720  0.100340  1.0  -0.683
  O  O947  1  0.868600  0.413490  0.132540  1.0  -0.6264
  O  O948  1  0.985800  0.415750  0.105050  1.0  -0.6784
  O  O949  1  0.907600  0.478950  0.030110  1.0  -0.4934
  O  O950  1  0.795300  0.557720  0.912020  1.0  -0.7046
  O  O951  1  0.712300  0.583660  0.941970  1.0  -0.6987
  O  O952  1  0.514300  0.899070  0.569550  1.0  -0.6559
  O  O953  1  0.572200  0.872720  0.600340  1.0  -0.683
  O  O954  1  0.868600  0.913490  0.632540  1.0  -0.6264
  O  O955  1  0.985800  0.915750  0.605050  1.0  -0.6784
  O  O956  1  0.907600  0.978950  0.530110  1.0  -0.4873
  O  O957  1  0.795300  0.057720  0.412020  1.0  -0.7046
  O  O958  1  0.712300  0.083660  0.441970  1.0  -0.6987
  O  O959  1  0.014300  0.399070  0.569550  1.0  -0.6561
  O  O960  1  0.072200  0.372720  0.600340  1.0  -0.683
  O  O961  1  0.368600  0.413490  0.632540  1.0  -0.6264
  O  O962  1  0.485800  0.415750  0.605050  1.0  -0.6784
  O  O963  1  0.407600  0.478950  0.530110  1.0  -0.4934
  O  O964  1  0.295300  0.557720  0.412020  1.0  -0.7046
  O  O965  1  0.212300  0.583660  0.441970  1.0  -0.6987
  O  O966  1  0.014300  0.899070  0.069550  1.0  -0.6559
  O  O967  1  0.072200  0.872720  0.100340  1.0  -0.683
  O  O968  1  0.368600  0.913490  0.132540  1.0  -0.6264
  O  O969  1  0.485800  0.915750  0.105050  1.0  -0.6784
  O  O970  1  0.407600  0.978950  0.030110  1.0  -0.4873
  O  O971  1  0.295300  0.057720  0.912020  1.0  -0.7046
  O  O972  1  0.212300  0.083660  0.941970  1.0  -0.6987
  O  O973  1  0.735700  0.850930  0.069550  1.0  -0.6573
  O  O974  1  0.677800  0.877280  0.100340  1.0  -0.6832
  O  O975  1  0.381400  0.836510  0.132540  1.0  -0.625
  O  O976  1  0.264200  0.834250  0.105050  1.0  -0.6788
  O  O977  1  0.342400  0.771050  0.030110  1.0  -0.4928
  O  O978  1  0.454700  0.692280  0.912020  1.0  -0.704
  O  O979  1  0.537700  0.666340  0.941970  1.0  -0.6972
  O  O980  1  0.735700  0.350930  0.569550  1.0  -0.6574
  O  O981  1  0.677800  0.377280  0.600340  1.0  -0.6832
  O  O982  1  0.381400  0.336510  0.632540  1.0  -0.625
  O  O983  1  0.264200  0.334250  0.605050  1.0  -0.6791
  O  O984  1  0.342400  0.271050  0.530110  1.0  -0.4928
  O  O985  1  0.454700  0.192280  0.412020  1.0  -0.704
  O  O986  1  0.537700  0.166340  0.441970  1.0  -0.6972
  O  O987  1  0.235700  0.850930  0.569550  1.0  -0.6573
  O  O988  1  0.177800  0.877280  0.600340  1.0  -0.6832
  O  O989  1  0.881400  0.836510  0.632540  1.0  -0.625
  O  O990  1  0.764200  0.834250  0.605050  1.0  -0.6788
  O  O991  1  0.842400  0.771050  0.530110  1.0  -0.4928
  O  O992  1  0.954700  0.692280  0.412020  1.0  -0.704
  O  O993  1  0.037700  0.666340  0.441970  1.0  -0.6972
  O  O994  1  0.235700  0.350930  0.069550  1.0  -0.6574
  O  O995  1  0.177800  0.377280  0.100340  1.0  -0.6832
  O  O996  1  0.881400  0.336510  0.132540  1.0  -0.625
  O  O997  1  0.764200  0.334250  0.105050  1.0  -0.6791
  O  O998  1  0.842400  0.271050  0.030110  1.0  -0.4928
  O  O999  1  0.954700  0.192280  0.912020  1.0  -0.704
  O  O1000  1  0.037700  0.166340  0.941970  1.0  -0.6972
  O  O1001  1  0.735700  0.399070  0.180450  1.0  -0.656
  O  O1002  1  0.677800  0.372720  0.149660  1.0  -0.6817
  O  O1003  1  0.381400  0.413490  0.117460  1.0  -0.6235
  O  O1004  1  0.264200  0.415750  0.144950  1.0  -0.6783
  O  O1005  1  0.342400  0.478950  0.219890  1.0  -0.4922
  O  O1006  1  0.454700  0.557720  0.337980  1.0  -0.7054
  O  O1007  1  0.537700  0.583660  0.308030  1.0  -0.6985
  O  O1008  1  0.735700  0.899070  0.680450  1.0  -0.6559
  O  O1009  1  0.677800  0.872720  0.649660  1.0  -0.6817
  O  O1010  1  0.381400  0.913490  0.617460  1.0  -0.6235
  O  O1011  1  0.264200  0.915750  0.644950  1.0  -0.6783
  O  O1012  1  0.342400  0.978950  0.719890  1.0  -0.486
  O  O1013  1  0.454700  0.057720  0.837980  1.0  -0.7054
  O  O1014  1  0.537700  0.083660  0.808030  1.0  -0.6985
  O  O1015  1  0.235700  0.399070  0.680450  1.0  -0.656
  O  O1016  1  0.177800  0.372720  0.649660  1.0  -0.6817
  O  O1017  1  0.881400  0.413490  0.617460  1.0  -0.6235
  O  O1018  1  0.764200  0.415750  0.644950  1.0  -0.6783
  O  O1019  1  0.842400  0.478950  0.719890  1.0  -0.4922
  O  O1020  1  0.954700  0.557720  0.837980  1.0  -0.7054
  O  O1021  1  0.037700  0.583660  0.808030  1.0  -0.6985
  O  O1022  1  0.235700  0.899070  0.180450  1.0  -0.6559
  O  O1023  1  0.177800  0.872720  0.149660  1.0  -0.6817
  O  O1024  1  0.881400  0.913490  0.117460  1.0  -0.6235
  O  O1025  1  0.764200  0.915750  0.144950  1.0  -0.6783
  O  O1026  1  0.842400  0.978950  0.219890  1.0  -0.486
  O  O1027  1  0.954700  0.057720  0.337980  1.0  -0.7054
  O  O1028  1  0.037700  0.083660  0.308030  1.0  -0.6985
  O  O1029  1  0.514300  0.850930  0.180450  1.0  -0.6562
  O  O1030  1  0.572200  0.877280  0.149660  1.0  -0.6829
  O  O1031  1  0.868600  0.836510  0.117460  1.0  -0.6244
  O  O1032  1  0.985800  0.834250  0.144950  1.0  -0.6799
  O  O1033  1  0.907600  0.771050  0.219890  1.0  -0.4932
  O  O1034  1  0.795300  0.692280  0.337980  1.0  -0.7063
  O  O1035  1  0.712300  0.666340  0.308030  1.0  -0.6985
  O  O1036  1  0.514300  0.350930  0.680450  1.0  -0.6564
  O  O1037  1  0.572200  0.377280  0.649660  1.0  -0.6829
  O  O1038  1  0.868600  0.336510  0.617460  1.0  -0.6245
  O  O1039  1  0.985800  0.334250  0.644950  1.0  -0.6801
  O  O1040  1  0.907600  0.271050  0.719890  1.0  -0.4932
  O  O1041  1  0.795300  0.192280  0.837980  1.0  -0.7063
  O  O1042  1  0.712300  0.166340  0.808030  1.0  -0.6985
  O  O1043  1  0.014300  0.850930  0.680450  1.0  -0.6562
  O  O1044  1  0.072200  0.877280  0.649660  1.0  -0.6829
  O  O1045  1  0.368600  0.836510  0.617460  1.0  -0.6244
  O  O1046  1  0.485800  0.834250  0.644950  1.0  -0.6799
  O  O1047  1  0.407600  0.771050  0.719890  1.0  -0.4932
  O  O1048  1  0.295300  0.692280  0.837980  1.0  -0.7063
  O  O1049  1  0.212300  0.666340  0.808030  1.0  -0.6985
  O  O1050  1  0.014300  0.350930  0.180450  1.0  -0.6564
  O  O1051  1  0.072200  0.377280  0.149660  1.0  -0.6829
  O  O1052  1  0.368600  0.336510  0.117460  1.0  -0.6245
  O  O1053  1  0.485800  0.334250  0.144950  1.0  -0.6801
  O  O1054  1  0.407600  0.271050  0.219890  1.0  -0.4932
  O  O1055  1  0.295300  0.192280  0.337980  1.0  -0.7063
  O  O1056  1  0.212300  0.166340  0.308030  1.0  -0.6985
