# generated using pymatgen
data_TbH8C16NO7
_symmetry_space_group_name_H-M   'P 1'
_cell_length_a   14.49270000
_cell_length_b   44.27300000
_cell_length_c   50.10300000
_cell_angle_alpha   90.00000000
_cell_angle_beta   90.00000000
_cell_angle_gamma   90.00000000
_symmetry_Int_Tables_number   1
_chemical_formula_structural   TbH8C16NO7
_chemical_formula_sum   'Tb32 H256 C512 N32 O224'
_cell_volume   32147.85379163
_cell_formula_units_Z   32
loop_
 _symmetry_equiv_pos_site_id
 _symmetry_equiv_pos_as_xyz
  1  'x, y, z'
loop_
 _atom_site_type_symbol
 _atom_site_label
 _atom_site_symmetry_multiplicity
 _atom_site_fract_x
 _atom_site_fract_y
 _atom_site_fract_z
 _atom_site_occupancy
 _atom_site_charge
  Tb  Tb1  1  0.625000  0.625000  0.919810  1.0  2.24
  Tb  Tb2  1  0.625000  0.125000  0.419810  1.0  2.24
  Tb  Tb3  1  0.125000  0.125000  0.919810  1.0  2.24
  Tb  Tb4  1  0.125000  0.625000  0.419810  1.0  2.24
  Tb  Tb5  1  0.125000  0.625000  0.830190  1.0  2.2383
  Tb  Tb6  1  0.125000  0.125000  0.330190  1.0  2.2383
  Tb  Tb7  1  0.625000  0.625000  0.330190  1.0  2.2384
  Tb  Tb8  1  0.625000  0.125000  0.830190  1.0  2.2383
  Tb  Tb9  1  0.375000  0.375000  0.080190  1.0  2.2384
  Tb  Tb10  1  0.375000  0.875000  0.580190  1.0  2.2384
  Tb  Tb11  1  0.875000  0.875000  0.080190  1.0  2.2383
  Tb  Tb12  1  0.875000  0.375000  0.580190  1.0  2.2384
  Tb  Tb13  1  0.875000  0.375000  0.169810  1.0  2.24
  Tb  Tb14  1  0.875000  0.875000  0.669810  1.0  2.24
  Tb  Tb15  1  0.375000  0.875000  0.169810  1.0  2.2401
  Tb  Tb16  1  0.375000  0.375000  0.669810  1.0  2.24
  Tb  Tb17  1  0.375000  0.671290  0.875000  1.0  2.2458
  Tb  Tb18  1  0.375000  0.171290  0.375000  1.0  2.2457
  Tb  Tb19  1  0.875000  0.671290  0.375000  1.0  2.2458
  Tb  Tb20  1  0.875000  0.171290  0.875000  1.0  2.2456
  Tb  Tb21  1  0.375000  0.078710  0.875000  1.0  2.2472
  Tb  Tb22  1  0.375000  0.578710  0.375000  1.0  2.2472
  Tb  Tb23  1  0.875000  0.078710  0.375000  1.0  2.2473
  Tb  Tb24  1  0.875000  0.578710  0.875000  1.0  2.2473
  Tb  Tb25  1  0.625000  0.328710  0.125000  1.0  2.2561
  Tb  Tb26  1  0.625000  0.828710  0.625000  1.0  2.256
  Tb  Tb27  1  0.125000  0.328710  0.625000  1.0  2.2562
  Tb  Tb28  1  0.125000  0.828710  0.125000  1.0  2.2561
  Tb  Tb29  1  0.625000  0.921290  0.125000  1.0  2.2557
  Tb  Tb30  1  0.625000  0.421290  0.625000  1.0  2.2557
  Tb  Tb31  1  0.125000  0.921290  0.625000  1.0  2.2557
  Tb  Tb32  1  0.125000  0.421290  0.125000  1.0  2.2557
  H  H33  1  0.259300  0.607900  0.889800  1.0  0.0907
  H  H34  1  0.112800  0.547000  0.931500  1.0  0.0997
  H  H35  1  0.373800  0.565900  0.952700  1.0  0.1099
  H  H36  1  0.068200  0.503600  0.018700  1.0  0.0983
  H  H37  1  0.094900  0.471300  0.054400  1.0  0.0965
  H  H38  1  0.345500  0.451700  0.024700  1.0  0.1029
  H  H39  1  0.318700  0.483900  0.989100  1.0  0.1084
  H  H40  1  0.298400  0.528200  0.975200  1.0  0.1758
  H  H41  1  0.259300  0.107900  0.389800  1.0  0.0905
  H  H42  1  0.112800  0.047000  0.431500  1.0  0.1008
  H  H43  1  0.373800  0.065900  0.452700  1.0  0.1099
  H  H44  1  0.068200  0.003600  0.518700  1.0  0.0983
  H  H45  1  0.094900  0.971300  0.554400  1.0  0.0955
  H  H46  1  0.345500  0.951700  0.524700  1.0  0.1029
  H  H47  1  0.318700  0.983900  0.489100  1.0  0.1084
  H  H48  1  0.298400  0.028200  0.475200  1.0  0.1758
  H  H49  1  0.759300  0.607900  0.389800  1.0  0.0907
  H  H50  1  0.612800  0.547000  0.431500  1.0  0.0997
  H  H51  1  0.873800  0.565900  0.452700  1.0  0.1099
  H  H52  1  0.568200  0.503600  0.518700  1.0  0.0983
  H  H53  1  0.594900  0.471300  0.554400  1.0  0.0965
  H  H54  1  0.845500  0.451700  0.524700  1.0  0.1029
  H  H55  1  0.818700  0.483900  0.489100  1.0  0.1084
  H  H56  1  0.798400  0.528200  0.475200  1.0  0.1758
  H  H57  1  0.759300  0.107900  0.889800  1.0  0.0905
  H  H58  1  0.612800  0.047000  0.931500  1.0  0.1008
  H  H59  1  0.873800  0.065900  0.952700  1.0  0.1099
  H  H60  1  0.568200  0.003600  0.018700  1.0  0.0983
  H  H61  1  0.594900  0.971300  0.054400  1.0  0.0955
  H  H62  1  0.845500  0.951700  0.024700  1.0  0.1029
  H  H63  1  0.818700  0.983900  0.989100  1.0  0.1084
  H  H64  1  0.798400  0.028200  0.975200  1.0  0.1764
  H  H65  1  0.490700  0.142100  0.889800  1.0  0.0911
  H  H66  1  0.637200  0.203000  0.931500  1.0  0.0999
  H  H67  1  0.376200  0.184100  0.952700  1.0  0.1104
  H  H68  1  0.681800  0.246400  0.018700  1.0  0.0987
  H  H69  1  0.655100  0.278700  0.054400  1.0  0.0965
  H  H70  1  0.404500  0.298300  0.024700  1.0  0.1034
  H  H71  1  0.431300  0.266100  0.989100  1.0  0.1087
  H  H72  1  0.451600  0.221800  0.975200  1.0  0.1767
  H  H73  1  0.490700  0.642100  0.389800  1.0  0.0912
  H  H74  1  0.637200  0.703000  0.431500  1.0  0.0999
  H  H75  1  0.376200  0.684100  0.452700  1.0  0.1104
  H  H76  1  0.681800  0.746400  0.518700  1.0  0.0987
  H  H77  1  0.655100  0.778700  0.554400  1.0  0.0965
  H  H78  1  0.404500  0.798300  0.524700  1.0  0.1034
  H  H79  1  0.431300  0.766100  0.489100  1.0  0.1087
  H  H80  1  0.451600  0.721800  0.475200  1.0  0.1767
  H  H81  1  0.990700  0.142100  0.389800  1.0  0.091
  H  H82  1  0.137200  0.203000  0.431500  1.0  0.0999
  H  H83  1  0.876200  0.184100  0.452700  1.0  0.1104
  H  H84  1  0.181800  0.246400  0.518700  1.0  0.0987
  H  H85  1  0.155100  0.278700  0.554400  1.0  0.0965
  H  H86  1  0.904500  0.298300  0.524700  1.0  0.1034
  H  H87  1  0.931300  0.266100  0.489100  1.0  0.1087
  H  H88  1  0.951600  0.221800  0.475200  1.0  0.1767
  H  H89  1  0.990700  0.642100  0.889800  1.0  0.0911
  H  H90  1  0.137200  0.703000  0.931500  1.0  0.0999
  H  H91  1  0.876200  0.684100  0.952700  1.0  0.1104
  H  H92  1  0.181800  0.746400  0.018700  1.0  0.0987
  H  H93  1  0.155100  0.778700  0.054400  1.0  0.0965
  H  H94  1  0.904500  0.798300  0.024700  1.0  0.1034
  H  H95  1  0.931300  0.766100  0.989100  1.0  0.1087
  H  H96  1  0.951600  0.721800  0.975200  1.0  0.1767
  H  H97  1  0.490700  0.607900  0.860200  1.0  0.0902
  H  H98  1  0.637200  0.547000  0.818500  1.0  0.1
  H  H99  1  0.376200  0.565900  0.797300  1.0  0.1102
  H  H100  1  0.681800  0.503600  0.731300  1.0  0.0989
  H  H101  1  0.655100  0.471300  0.695600  1.0  0.096
  H  H102  1  0.404500  0.451700  0.725300  1.0  0.1038
  H  H103  1  0.431300  0.483900  0.760900  1.0  0.1092
  H  H104  1  0.451600  0.528200  0.774800  1.0  0.1768
  H  H105  1  0.490700  0.107900  0.360200  1.0  0.0902
  H  H106  1  0.637200  0.047000  0.318500  1.0  0.1009
  H  H107  1  0.376200  0.065900  0.297300  1.0  0.1102
  H  H108  1  0.681800  0.003600  0.231300  1.0  0.0989
  H  H109  1  0.655100  0.971300  0.195600  1.0  0.0952
  H  H110  1  0.404500  0.951700  0.225300  1.0  0.1038
  H  H111  1  0.431300  0.983900  0.260900  1.0  0.1092
  H  H112  1  0.451600  0.028200  0.274800  1.0  0.1768
  H  H113  1  0.990700  0.607900  0.360200  1.0  0.0902
  H  H114  1  0.137200  0.547000  0.318500  1.0  0.1
  H  H115  1  0.876200  0.565900  0.297300  1.0  0.1102
  H  H116  1  0.181800  0.503600  0.231300  1.0  0.0989
  H  H117  1  0.155100  0.471300  0.195600  1.0  0.096
  H  H118  1  0.904500  0.451700  0.225300  1.0  0.1038
  H  H119  1  0.931300  0.483900  0.260900  1.0  0.1092
  H  H120  1  0.951600  0.528200  0.274800  1.0  0.1768
  H  H121  1  0.990700  0.107900  0.860200  1.0  0.0901
  H  H122  1  0.137200  0.047000  0.818500  1.0  0.1009
  H  H123  1  0.876200  0.065900  0.797300  1.0  0.1102
  H  H124  1  0.181800  0.003600  0.731300  1.0  0.0989
  H  H125  1  0.155100  0.971300  0.695600  1.0  0.0952
  H  H126  1  0.904500  0.951700  0.725300  1.0  0.1038
  H  H127  1  0.931300  0.983900  0.760900  1.0  0.1092
  H  H128  1  0.951600  0.028200  0.774800  1.0  0.1768
  H  H129  1  0.259300  0.142100  0.860200  1.0  0.0903
  H  H130  1  0.112800  0.203000  0.818500  1.0  0.0993
  H  H131  1  0.373800  0.184100  0.797300  1.0  0.1101
  H  H132  1  0.068200  0.246400  0.731300  1.0  0.0986
  H  H133  1  0.094900  0.278700  0.695600  1.0  0.0961
  H  H134  1  0.345500  0.298300  0.725300  1.0  0.1036
  H  H135  1  0.318700  0.266100  0.760900  1.0  0.1085
  H  H136  1  0.298400  0.221800  0.774800  1.0  0.1765
  H  H137  1  0.259300  0.642100  0.360200  1.0  0.0904
  H  H138  1  0.112800  0.703000  0.318500  1.0  0.0993
  H  H139  1  0.373800  0.684100  0.297300  1.0  0.1101
  H  H140  1  0.068200  0.746400  0.231300  1.0  0.0986
  H  H141  1  0.094900  0.778700  0.195600  1.0  0.0961
  H  H142  1  0.345500  0.798300  0.225300  1.0  0.1036
  H  H143  1  0.318700  0.766100  0.260900  1.0  0.1085
  H  H144  1  0.298400  0.721800  0.274800  1.0  0.1765
  H  H145  1  0.759300  0.142100  0.360200  1.0  0.0903
  H  H146  1  0.612800  0.203000  0.318500  1.0  0.0993
  H  H147  1  0.873800  0.184100  0.297300  1.0  0.1101
  H  H148  1  0.568200  0.246400  0.231300  1.0  0.0986
  H  H149  1  0.594900  0.278700  0.195600  1.0  0.0961
  H  H150  1  0.845500  0.298300  0.225300  1.0  0.1036
  H  H151  1  0.818700  0.266100  0.260900  1.0  0.1085
  H  H152  1  0.798400  0.221800  0.274800  1.0  0.1765
  H  H153  1  0.759300  0.642100  0.860200  1.0  0.0904
  H  H154  1  0.612800  0.703000  0.818500  1.0  0.0993
  H  H155  1  0.873800  0.684100  0.797300  1.0  0.1101
  H  H156  1  0.568200  0.746400  0.731300  1.0  0.0986
  H  H157  1  0.594900  0.778700  0.695600  1.0  0.0961
  H  H158  1  0.845500  0.798300  0.725300  1.0  0.1036
  H  H159  1  0.818700  0.766100  0.760900  1.0  0.1085
  H  H160  1  0.798400  0.721800  0.774800  1.0  0.1765
  H  H161  1  0.740700  0.392100  0.110200  1.0  0.0906
  H  H162  1  0.887200  0.453000  0.068500  1.0  0.0996
  H  H163  1  0.626200  0.434100  0.047300  1.0  0.1104
  H  H164  1  0.931800  0.496400  0.981300  1.0  0.0988
  H  H165  1  0.905100  0.528700  0.945600  1.0  0.0959
  H  H166  1  0.654500  0.548300  0.975300  1.0  0.1035
  H  H167  1  0.681300  0.516100  0.010900  1.0  0.1089
  H  H168  1  0.701600  0.471800  0.024800  1.0  0.177
  H  H169  1  0.740700  0.892100  0.610200  1.0  0.0905
  H  H170  1  0.887200  0.953000  0.568500  1.0  0.1006
  H  H171  1  0.626200  0.934100  0.547300  1.0  0.1104
  H  H172  1  0.931800  0.996400  0.481300  1.0  0.0988
  H  H173  1  0.905100  0.028700  0.445600  1.0  0.0951
  H  H174  1  0.654500  0.048300  0.475300  1.0  0.1035
  H  H175  1  0.681300  0.016100  0.510900  1.0  0.1089
  H  H176  1  0.701600  0.971800  0.524800  1.0  0.177
  H  H177  1  0.240700  0.392100  0.610200  1.0  0.0906
  H  H178  1  0.387200  0.453000  0.568500  1.0  0.0996
  H  H179  1  0.126200  0.434100  0.547300  1.0  0.1104
  H  H180  1  0.431800  0.496400  0.481300  1.0  0.0988
  H  H181  1  0.405100  0.528700  0.445600  1.0  0.0959
  H  H182  1  0.154500  0.548300  0.475300  1.0  0.1035
  H  H183  1  0.181300  0.516100  0.510900  1.0  0.1089
  H  H184  1  0.201600  0.471800  0.524800  1.0  0.177
  H  H185  1  0.240700  0.892100  0.110200  1.0  0.0905
  H  H186  1  0.387200  0.953000  0.068500  1.0  0.1006
  H  H187  1  0.126200  0.934100  0.047300  1.0  0.1104
  H  H188  1  0.431800  0.996400  0.981300  1.0  0.0988
  H  H189  1  0.405100  0.028700  0.945600  1.0  0.0951
  H  H190  1  0.154500  0.048300  0.975300  1.0  0.1035
  H  H191  1  0.181300  0.016100  0.010900  1.0  0.1089
  H  H192  1  0.201600  0.971800  0.024800  1.0  0.1777
  H  H193  1  0.509300  0.857900  0.110200  1.0  0.0901
  H  H194  1  0.362800  0.797000  0.068500  1.0  0.0996
  H  H195  1  0.623800  0.815900  0.047300  1.0  0.1099
  H  H196  1  0.318200  0.753600  0.981300  1.0  0.0986
  H  H197  1  0.344900  0.721300  0.945600  1.0  0.096
  H  H198  1  0.595500  0.701700  0.975300  1.0  0.1032
  H  H199  1  0.568700  0.733900  0.010900  1.0  0.1088
  H  H200  1  0.548400  0.778200  0.024800  1.0  0.1761
  H  H201  1  0.509300  0.357900  0.610200  1.0  0.0902
  H  H202  1  0.362800  0.297000  0.568500  1.0  0.0996
  H  H203  1  0.623800  0.315900  0.547300  1.0  0.1099
  H  H204  1  0.318200  0.253600  0.481300  1.0  0.0986
  H  H205  1  0.344900  0.221300  0.445600  1.0  0.096
  H  H206  1  0.595500  0.201700  0.475300  1.0  0.1032
  H  H207  1  0.568700  0.233900  0.510900  1.0  0.1088
  H  H208  1  0.548400  0.278200  0.524800  1.0  0.1761
  H  H209  1  0.009300  0.857900  0.610200  1.0  0.09
  H  H210  1  0.862800  0.797000  0.568500  1.0  0.0996
  H  H211  1  0.123800  0.815900  0.547300  1.0  0.1099
  H  H212  1  0.818200  0.753600  0.481300  1.0  0.0986
  H  H213  1  0.844900  0.721300  0.445600  1.0  0.096
  H  H214  1  0.095500  0.701700  0.475300  1.0  0.1032
  H  H215  1  0.068700  0.733900  0.510900  1.0  0.1088
  H  H216  1  0.048400  0.778200  0.524800  1.0  0.1761
  H  H217  1  0.009300  0.357900  0.110200  1.0  0.0901
  H  H218  1  0.862800  0.297000  0.068500  1.0  0.0996
  H  H219  1  0.123800  0.315900  0.047300  1.0  0.1099
  H  H220  1  0.818200  0.253600  0.981300  1.0  0.0986
  H  H221  1  0.844900  0.221300  0.945600  1.0  0.096
  H  H222  1  0.095500  0.201700  0.975300  1.0  0.1032
  H  H223  1  0.068700  0.233900  0.010900  1.0  0.1088
  H  H224  1  0.048400  0.278200  0.024800  1.0  0.1761
  H  H225  1  0.509300  0.392100  0.139800  1.0  0.0909
  H  H226  1  0.362800  0.453000  0.181500  1.0  0.0996
  H  H227  1  0.623800  0.434100  0.202700  1.0  0.11
  H  H228  1  0.318200  0.496400  0.268700  1.0  0.0985
  H  H229  1  0.344900  0.528700  0.304400  1.0  0.0966
  H  H230  1  0.595500  0.548300  0.274700  1.0  0.1036
  H  H231  1  0.568700  0.516100  0.239100  1.0  0.1082
  H  H232  1  0.548400  0.471800  0.225200  1.0  0.1759
  H  H233  1  0.509300  0.892100  0.639800  1.0  0.0908
  H  H234  1  0.362800  0.953000  0.681500  1.0  0.1008
  H  H235  1  0.623800  0.934100  0.702700  1.0  0.11
  H  H236  1  0.318200  0.996400  0.768700  1.0  0.0985
  H  H237  1  0.344900  0.028700  0.804400  1.0  0.0957
  H  H238  1  0.595500  0.048300  0.774700  1.0  0.1036
  H  H239  1  0.568700  0.016100  0.739100  1.0  0.1082
  H  H240  1  0.548400  0.971800  0.725200  1.0  0.1759
  H  H241  1  0.009300  0.392100  0.639800  1.0  0.0908
  H  H242  1  0.862800  0.453000  0.681500  1.0  0.0996
  H  H243  1  0.123800  0.434100  0.702700  1.0  0.11
  H  H244  1  0.818200  0.496400  0.768700  1.0  0.0985
  H  H245  1  0.844900  0.528700  0.804400  1.0  0.0966
  H  H246  1  0.095500  0.548300  0.774700  1.0  0.1036
  H  H247  1  0.068700  0.516100  0.739100  1.0  0.1082
  H  H248  1  0.048400  0.471800  0.725200  1.0  0.1759
  H  H249  1  0.009300  0.892100  0.139800  1.0  0.0907
  H  H250  1  0.862800  0.953000  0.181500  1.0  0.1008
  H  H251  1  0.123800  0.934100  0.202700  1.0  0.11
  H  H252  1  0.818200  0.996400  0.268700  1.0  0.0985
  H  H253  1  0.844900  0.028700  0.304400  1.0  0.0957
  H  H254  1  0.095500  0.048300  0.274700  1.0  0.1036
  H  H255  1  0.068700  0.016100  0.239100  1.0  0.1082
  H  H256  1  0.048400  0.971800  0.225200  1.0  0.1759
  H  H257  1  0.740700  0.857900  0.139800  1.0  0.0907
  H  H258  1  0.887200  0.797000  0.181500  1.0  0.0999
  H  H259  1  0.626200  0.815900  0.202700  1.0  0.1104
  H  H260  1  0.931800  0.753600  0.268700  1.0  0.0986
  H  H261  1  0.905100  0.721300  0.304400  1.0  0.0965
  H  H262  1  0.654500  0.701700  0.274700  1.0  0.1036
  H  H263  1  0.681300  0.733900  0.239100  1.0  0.1091
  H  H264  1  0.701600  0.778200  0.225200  1.0  0.1766
  H  H265  1  0.740700  0.357900  0.639800  1.0  0.0908
  H  H266  1  0.887200  0.297000  0.681500  1.0  0.0999
  H  H267  1  0.626200  0.315900  0.702700  1.0  0.1104
  H  H268  1  0.931800  0.253600  0.768700  1.0  0.0986
  H  H269  1  0.905100  0.221300  0.804400  1.0  0.0965
  H  H270  1  0.654500  0.201700  0.774700  1.0  0.1036
  H  H271  1  0.681300  0.233900  0.739100  1.0  0.1091
  H  H272  1  0.701600  0.278200  0.725200  1.0  0.1766
  H  H273  1  0.240700  0.857900  0.639800  1.0  0.0907
  H  H274  1  0.387200  0.797000  0.681500  1.0  0.0999
  H  H275  1  0.126200  0.815900  0.702700  1.0  0.1104
  H  H276  1  0.431800  0.753600  0.768700  1.0  0.0986
  H  H277  1  0.405100  0.721300  0.804400  1.0  0.0965
  H  H278  1  0.154500  0.701700  0.774700  1.0  0.1036
  H  H279  1  0.181300  0.733900  0.739100  1.0  0.1091
  H  H280  1  0.201600  0.778200  0.725200  1.0  0.1766
  H  H281  1  0.240700  0.357900  0.139800  1.0  0.0908
  H  H282  1  0.387200  0.297000  0.181500  1.0  0.0999
  H  H283  1  0.126200  0.315900  0.202700  1.0  0.1104
  H  H284  1  0.431800  0.253600  0.268700  1.0  0.0986
  H  H285  1  0.405100  0.221300  0.304400  1.0  0.0965
  H  H286  1  0.154500  0.201700  0.274700  1.0  0.1036
  H  H287  1  0.181300  0.233900  0.239100  1.0  0.1091
  H  H288  1  0.201600  0.278200  0.225200  1.0  0.1766
  C  C289  1  0.416700  0.606550  0.915440  1.0  0.6325
  C  C290  1  0.330050  0.589540  0.920590  1.0  -0.165
  C  C291  1  0.255050  0.594160  0.903790  1.0  -0.1014
  C  C292  1  0.173640  0.578210  0.907870  1.0  -0.0607
  C  C293  1  0.167240  0.557650  0.928750  1.0  -0.0469
  C  C294  1  0.242240  0.553030  0.945550  1.0  0.1687
  C  C295  1  0.323650  0.568970  0.941470  1.0  -0.0789
  C  C296  1  0.096800  0.583300  0.889340  1.0  0.6966
  C  C297  1  0.171300  0.517930  0.976920  1.0  0.5564
  C  C298  1  0.190790  0.496950  0.000350  1.0  -0.07
  C  C299  1  0.123750  0.493180  0.019910  1.0  -0.0865
  C  C300  1  0.139790  0.473850  0.041280  1.0  -0.0724
  C  C301  1  0.222860  0.458300  0.043090  1.0  -0.0557
  C  C302  1  0.289900  0.462060  0.023530  1.0  -0.0713
  C  C303  1  0.273860  0.481390  0.002160  1.0  -0.1534
  C  C304  1  0.239000  0.437160  0.066080  1.0  0.6593
  C  C305  1  0.416700  0.106550  0.415440  1.0  0.6325
  C  C306  1  0.330050  0.089540  0.420590  1.0  -0.165
  C  C307  1  0.255050  0.094160  0.403790  1.0  -0.1012
  C  C308  1  0.173640  0.078210  0.407870  1.0  -0.0607
  C  C309  1  0.167240  0.057650  0.428750  1.0  -0.0469
  C  C310  1  0.242240  0.053030  0.445550  1.0  0.1687
  C  C311  1  0.323650  0.068970  0.441470  1.0  -0.0789
  C  C312  1  0.096800  0.083300  0.389340  1.0  0.6968
  C  C313  1  0.171300  0.017930  0.476920  1.0  0.5564
  C  C314  1  0.190790  0.996950  0.500350  1.0  -0.07
  C  C315  1  0.123750  0.993180  0.519910  1.0  -0.0852
  C  C316  1  0.139790  0.973850  0.541280  1.0  -0.0733
  C  C317  1  0.222860  0.958300  0.543090  1.0  -0.0557
  C  C318  1  0.289900  0.962060  0.523530  1.0  -0.0713
  C  C319  1  0.273860  0.981390  0.502160  1.0  -0.1534
  C  C320  1  0.239000  0.937160  0.566080  1.0  0.6593
  C  C321  1  0.916700  0.606550  0.415440  1.0  0.6325
  C  C322  1  0.830050  0.589540  0.420590  1.0  -0.165
  C  C323  1  0.755050  0.594160  0.403790  1.0  -0.1014
  C  C324  1  0.673640  0.578210  0.407870  1.0  -0.0607
  C  C325  1  0.667240  0.557650  0.428750  1.0  -0.0469
  C  C326  1  0.742240  0.553030  0.445550  1.0  0.1687
  C  C327  1  0.823650  0.568970  0.441470  1.0  -0.0789
  C  C328  1  0.596800  0.583300  0.389340  1.0  0.6966
  C  C329  1  0.671300  0.517930  0.476920  1.0  0.5564
  C  C330  1  0.690790  0.496950  0.500350  1.0  -0.07
  C  C331  1  0.623750  0.493180  0.519910  1.0  -0.0865
  C  C332  1  0.639790  0.473850  0.541280  1.0  -0.0724
  C  C333  1  0.722860  0.458300  0.543090  1.0  -0.0557
  C  C334  1  0.789900  0.462060  0.523530  1.0  -0.0713
  C  C335  1  0.773860  0.481390  0.502160  1.0  -0.1534
  C  C336  1  0.739000  0.437160  0.566080  1.0  0.6594
  C  C337  1  0.916700  0.106550  0.915440  1.0  0.6325
  C  C338  1  0.830050  0.089540  0.920590  1.0  -0.165
  C  C339  1  0.755050  0.094160  0.903790  1.0  -0.1012
  C  C340  1  0.673640  0.078210  0.907870  1.0  -0.0607
  C  C341  1  0.667240  0.057650  0.928750  1.0  -0.0469
  C  C342  1  0.742240  0.053030  0.945550  1.0  0.1687
  C  C343  1  0.823650  0.068970  0.941470  1.0  -0.0789
  C  C344  1  0.596800  0.083300  0.889340  1.0  0.6968
  C  C345  1  0.671300  0.017930  0.976920  1.0  0.5564
  C  C346  1  0.690790  0.996950  0.000350  1.0  -0.07
  C  C347  1  0.623750  0.993180  0.019910  1.0  -0.0852
  C  C348  1  0.639790  0.973850  0.041280  1.0  -0.0733
  C  C349  1  0.722860  0.958300  0.043090  1.0  -0.0557
  C  C350  1  0.789900  0.962060  0.023530  1.0  -0.0713
  C  C351  1  0.773860  0.981390  0.002160  1.0  -0.1534
  C  C352  1  0.739000  0.937160  0.066080  1.0  0.6594
  C  C353  1  0.333333  0.143450  0.915440  1.0  0.6062
  C  C354  1  0.419950  0.160460  0.920590  1.0  -0.1654
  C  C355  1  0.494950  0.155840  0.903790  1.0  -0.1015
  C  C356  1  0.576360  0.171790  0.907870  1.0  -0.0604
  C  C357  1  0.582760  0.192350  0.928750  1.0  -0.0472
  C  C358  1  0.507760  0.196970  0.945550  1.0  0.1687
  C  C359  1  0.426350  0.181030  0.941470  1.0  -0.0788
  C  C360  1  0.653200  0.166700  0.889340  1.0  0.6981
  C  C361  1  0.578700  0.232070  0.976920  1.0  0.5581
  C  C362  1  0.559210  0.253050  0.000350  1.0  -0.0707
  C  C363  1  0.626250  0.256820  0.019910  1.0  -0.0869
  C  C364  1  0.610210  0.276150  0.041280  1.0  -0.0731
  C  C365  1  0.527140  0.291700  0.043090  1.0  -0.0562
  C  C366  1  0.460100  0.287940  0.023530  1.0  -0.0724
  C  C367  1  0.476140  0.268610  0.002160  1.0  -0.1542
  C  C368  1  0.511000  0.312840  0.066080  1.0  0.6599
  C  C369  1  0.333333  0.643450  0.415440  1.0  0.6062
  C  C370  1  0.419950  0.660460  0.420590  1.0  -0.1654
  C  C371  1  0.494950  0.655840  0.403790  1.0  -0.1015
  C  C372  1  0.576360  0.671790  0.407870  1.0  -0.0608
  C  C373  1  0.582760  0.692350  0.428750  1.0  -0.0472
  C  C374  1  0.507760  0.696970  0.445550  1.0  0.1687
  C  C375  1  0.426350  0.681030  0.441470  1.0  -0.0788
  C  C376  1  0.653200  0.666667  0.389340  1.0  0.6969
  C  C377  1  0.578700  0.732070  0.476920  1.0  0.5581
  C  C378  1  0.559210  0.753050  0.500350  1.0  -0.0707
  C  C379  1  0.626250  0.756820  0.519910  1.0  -0.0869
  C  C380  1  0.610210  0.776150  0.541280  1.0  -0.0731
  C  C381  1  0.527140  0.791700  0.543090  1.0  -0.0562
  C  C382  1  0.460100  0.787940  0.523530  1.0  -0.0724
  C  C383  1  0.476140  0.768610  0.502160  1.0  -0.1542
  C  C384  1  0.511000  0.812840  0.566080  1.0  0.6599
  C  C385  1  0.833300  0.143450  0.415440  1.0  0.6278
  C  C386  1  0.919950  0.160460  0.420590  1.0  -0.1651
  C  C387  1  0.994950  0.155840  0.403790  1.0  -0.1013
  C  C388  1  0.076360  0.171790  0.407870  1.0  -0.0604
  C  C389  1  0.082760  0.192350  0.428750  1.0  -0.0472
  C  C390  1  0.007760  0.196970  0.445550  1.0  0.1687
  C  C391  1  0.926350  0.181030  0.441470  1.0  -0.0788
  C  C392  1  0.153200  0.166700  0.389340  1.0  0.6981
  C  C393  1  0.078700  0.232070  0.476920  1.0  0.5581
  C  C394  1  0.059210  0.253050  0.500350  1.0  -0.0707
  C  C395  1  0.126250  0.256820  0.519910  1.0  -0.0869
  C  C396  1  0.110210  0.276150  0.541280  1.0  -0.0731
  C  C397  1  0.027140  0.291700  0.543090  1.0  -0.0562
  C  C398  1  0.960100  0.287940  0.523530  1.0  -0.0724
  C  C399  1  0.976140  0.268610  0.502160  1.0  -0.1542
  C  C400  1  0.011000  0.312840  0.566080  1.0  0.6599
  C  C401  1  0.833300  0.643450  0.915440  1.0  0.6278
  C  C402  1  0.919950  0.660460  0.920590  1.0  -0.1651
  C  C403  1  0.994950  0.655840  0.903790  1.0  -0.1015
  C  C404  1  0.076360  0.671790  0.907870  1.0  -0.0608
  C  C405  1  0.082760  0.692350  0.928750  1.0  -0.0472
  C  C406  1  0.007760  0.696970  0.945550  1.0  0.1687
  C  C407  1  0.926350  0.681030  0.941470  1.0  -0.0788
  C  C408  1  0.153200  0.666667  0.889340  1.0  0.6969
  C  C409  1  0.078700  0.732070  0.976920  1.0  0.5581
  C  C410  1  0.059210  0.753050  0.000350  1.0  -0.0707
  C  C411  1  0.126250  0.756820  0.019910  1.0  -0.0869
  C  C412  1  0.110210  0.776150  0.041280  1.0  -0.0731
  C  C413  1  0.027140  0.791700  0.043090  1.0  -0.0562
  C  C414  1  0.960100  0.787940  0.023530  1.0  -0.0724
  C  C415  1  0.976140  0.768610  0.002160  1.0  -0.1542
  C  C416  1  0.011000  0.812840  0.066080  1.0  0.6599
  C  C417  1  0.333333  0.606550  0.834560  1.0  0.6084
  C  C418  1  0.419950  0.589540  0.829410  1.0  -0.166
  C  C419  1  0.494950  0.594160  0.846210  1.0  -0.1017
  C  C420  1  0.576360  0.578210  0.842130  1.0  -0.0605
  C  C421  1  0.582760  0.557650  0.821250  1.0  -0.0468
  C  C422  1  0.507760  0.553030  0.804450  1.0  0.169
  C  C423  1  0.426350  0.568970  0.808530  1.0  -0.078
  C  C424  1  0.653200  0.583300  0.860660  1.0  0.6989
  C  C425  1  0.578700  0.517930  0.773080  1.0  0.5578
  C  C426  1  0.559210  0.496950  0.749650  1.0  -0.0705
  C  C427  1  0.626250  0.493180  0.730090  1.0  -0.0882
  C  C428  1  0.610210  0.473850  0.708720  1.0  -0.0734
  C  C429  1  0.527140  0.458300  0.706910  1.0  -0.0556
  C  C430  1  0.460100  0.462060  0.726470  1.0  -0.072
  C  C431  1  0.476140  0.481390  0.747840  1.0  -0.1547
  C  C432  1  0.511000  0.437160  0.683920  1.0  0.6591
  C  C433  1  0.333333  0.106550  0.334560  1.0  0.6083
  C  C434  1  0.419950  0.089540  0.329410  1.0  -0.166
  C  C435  1  0.494950  0.094160  0.346210  1.0  -0.1016
  C  C436  1  0.576360  0.078210  0.342130  1.0  -0.0605
  C  C437  1  0.582760  0.057650  0.321250  1.0  -0.0468
  C  C438  1  0.507760  0.053030  0.304450  1.0  0.169
  C  C439  1  0.426350  0.068970  0.308530  1.0  -0.078
  C  C440  1  0.653200  0.083300  0.360660  1.0  0.6991
  C  C441  1  0.578700  0.017930  0.273080  1.0  0.5578
  C  C442  1  0.559210  0.996950  0.249650  1.0  -0.0705
  C  C443  1  0.626250  0.993180  0.230090  1.0  -0.0879
  C  C444  1  0.610210  0.973850  0.208720  1.0  -0.0746
  C  C445  1  0.527140  0.958300  0.206910  1.0  -0.0556
  C  C446  1  0.460100  0.962060  0.226470  1.0  -0.072
  C  C447  1  0.476140  0.981390  0.247840  1.0  -0.1547
  C  C448  1  0.511000  0.937160  0.183920  1.0  0.6591
  C  C449  1  0.833300  0.606550  0.334560  1.0  0.6304
  C  C450  1  0.919950  0.589540  0.329410  1.0  -0.1657
  C  C451  1  0.994950  0.594160  0.346210  1.0  -0.1016
  C  C452  1  0.076360  0.578210  0.342130  1.0  -0.0605
  C  C453  1  0.082760  0.557650  0.321250  1.0  -0.0468
  C  C454  1  0.007760  0.553030  0.304450  1.0  0.169
  C  C455  1  0.926350  0.568970  0.308530  1.0  -0.078
  C  C456  1  0.153200  0.583300  0.360660  1.0  0.6989
  C  C457  1  0.078700  0.517930  0.273080  1.0  0.5578
  C  C458  1  0.059210  0.496950  0.249650  1.0  -0.0705
  C  C459  1  0.126250  0.493180  0.230090  1.0  -0.0882
  C  C460  1  0.110210  0.473850  0.208720  1.0  -0.0734
  C  C461  1  0.027140  0.458300  0.206910  1.0  -0.0556
  C  C462  1  0.960100  0.462060  0.226470  1.0  -0.072
  C  C463  1  0.976140  0.481390  0.247840  1.0  -0.1547
  C  C464  1  0.011000  0.437160  0.183920  1.0  0.6591
  C  C465  1  0.833300  0.106550  0.834560  1.0  0.6304
  C  C466  1  0.919950  0.089540  0.829410  1.0  -0.1657
  C  C467  1  0.994950  0.094160  0.846210  1.0  -0.1014
  C  C468  1  0.076360  0.078210  0.842130  1.0  -0.0605
  C  C469  1  0.082760  0.057650  0.821250  1.0  -0.0468
  C  C470  1  0.007760  0.053030  0.804450  1.0  0.169
  C  C471  1  0.926350  0.068970  0.808530  1.0  -0.078
  C  C472  1  0.153200  0.083300  0.860660  1.0  0.6991
  C  C473  1  0.078700  0.017930  0.773080  1.0  0.5578
  C  C474  1  0.059210  0.996950  0.749650  1.0  -0.0705
  C  C475  1  0.126250  0.993180  0.730090  1.0  -0.0879
  C  C476  1  0.110210  0.973850  0.708720  1.0  -0.0746
  C  C477  1  0.027140  0.958300  0.706910  1.0  -0.0556
  C  C478  1  0.960100  0.962060  0.726470  1.0  -0.072
  C  C479  1  0.976140  0.981390  0.747840  1.0  -0.1547
  C  C480  1  0.011000  0.937160  0.683920  1.0  0.6591
  C  C481  1  0.416700  0.143450  0.834560  1.0  0.633
  C  C482  1  0.330050  0.160460  0.829410  1.0  -0.1643
  C  C483  1  0.255050  0.155840  0.846210  1.0  -0.1009
  C  C484  1  0.173640  0.171790  0.842130  1.0  -0.0605
  C  C485  1  0.167240  0.192350  0.821250  1.0  -0.0473
  C  C486  1  0.242240  0.196970  0.804450  1.0  0.1691
  C  C487  1  0.323650  0.181030  0.808530  1.0  -0.0778
  C  C488  1  0.096800  0.166700  0.860660  1.0  0.6964
  C  C489  1  0.171300  0.232070  0.773080  1.0  0.5561
  C  C490  1  0.190790  0.253050  0.749650  1.0  -0.0694
  C  C491  1  0.123750  0.256820  0.730090  1.0  -0.087
  C  C492  1  0.139790  0.276150  0.708720  1.0  -0.0728
  C  C493  1  0.222860  0.291700  0.706910  1.0  -0.055
  C  C494  1  0.289900  0.287940  0.726470  1.0  -0.0717
  C  C495  1  0.273860  0.268610  0.747840  1.0  -0.154
  C  C496  1  0.239000  0.312840  0.683920  1.0  0.6601
  C  C497  1  0.416700  0.643450  0.334560  1.0  0.633
  C  C498  1  0.330050  0.660460  0.329410  1.0  -0.1643
  C  C499  1  0.255050  0.655840  0.346210  1.0  -0.1011
  C  C500  1  0.173640  0.671790  0.342130  1.0  -0.0609
  C  C501  1  0.167240  0.692350  0.321250  1.0  -0.0473
  C  C502  1  0.242240  0.696970  0.304450  1.0  0.1691
  C  C503  1  0.323650  0.681030  0.308530  1.0  -0.0778
  C  C504  1  0.096800  0.666667  0.360660  1.0  0.6952
  C  C505  1  0.171300  0.732070  0.273080  1.0  0.5561
  C  C506  1  0.190790  0.753050  0.249650  1.0  -0.0694
  C  C507  1  0.123750  0.756820  0.230090  1.0  -0.087
  C  C508  1  0.139790  0.776150  0.208720  1.0  -0.0728
  C  C509  1  0.222860  0.791700  0.206910  1.0  -0.055
  C  C510  1  0.289900  0.787940  0.226470  1.0  -0.0717
  C  C511  1  0.273860  0.768610  0.247840  1.0  -0.154
  C  C512  1  0.239000  0.812840  0.183920  1.0  0.6601
  C  C513  1  0.916700  0.143450  0.334560  1.0  0.633
  C  C514  1  0.830050  0.160460  0.329410  1.0  -0.1643
  C  C515  1  0.755050  0.155840  0.346210  1.0  -0.1009
  C  C516  1  0.673640  0.171790  0.342130  1.0  -0.0605
  C  C517  1  0.667240  0.192350  0.321250  1.0  -0.0473
  C  C518  1  0.742240  0.196970  0.304450  1.0  0.1691
  C  C519  1  0.823650  0.181030  0.308530  1.0  -0.0778
  C  C520  1  0.596800  0.166700  0.360660  1.0  0.6964
  C  C521  1  0.671300  0.232070  0.273080  1.0  0.5561
  C  C522  1  0.690790  0.253050  0.249650  1.0  -0.0694
  C  C523  1  0.623750  0.256820  0.230090  1.0  -0.087
  C  C524  1  0.639790  0.276150  0.208720  1.0  -0.0728
  C  C525  1  0.722860  0.291700  0.206910  1.0  -0.055
  C  C526  1  0.789900  0.287940  0.226470  1.0  -0.0717
  C  C527  1  0.773860  0.268610  0.247840  1.0  -0.154
  C  C528  1  0.739000  0.312840  0.183920  1.0  0.6602
  C  C529  1  0.916700  0.643450  0.834560  1.0  0.633
  C  C530  1  0.830050  0.660460  0.829410  1.0  -0.1643
  C  C531  1  0.755050  0.655840  0.846210  1.0  -0.1011
  C  C532  1  0.673640  0.671790  0.842130  1.0  -0.0609
  C  C533  1  0.667240  0.692350  0.821250  1.0  -0.0473
  C  C534  1  0.742240  0.696970  0.804450  1.0  0.1691
  C  C535  1  0.823650  0.681030  0.808530  1.0  -0.0778
  C  C536  1  0.596800  0.666667  0.860660  1.0  0.6952
  C  C537  1  0.671300  0.732070  0.773080  1.0  0.5561
  C  C538  1  0.690790  0.753050  0.749650  1.0  -0.0694
  C  C539  1  0.623750  0.756820  0.730090  1.0  -0.087
  C  C540  1  0.639790  0.776150  0.708720  1.0  -0.0728
  C  C541  1  0.722860  0.791700  0.706910  1.0  -0.055
  C  C542  1  0.789900  0.787940  0.726470  1.0  -0.0717
  C  C543  1  0.773860  0.768610  0.747840  1.0  -0.154
  C  C544  1  0.739000  0.812840  0.683920  1.0  0.6602
  C  C545  1  0.583300  0.393450  0.084560  1.0  0.6296
  C  C546  1  0.669950  0.410460  0.079410  1.0  -0.1652
  C  C547  1  0.744950  0.405840  0.096210  1.0  -0.1011
  C  C548  1  0.826360  0.421790  0.092130  1.0  -0.0604
  C  C549  1  0.832760  0.442350  0.071250  1.0  -0.0471
  C  C550  1  0.757760  0.446970  0.054450  1.0  0.169
  C  C551  1  0.676350  0.431030  0.058530  1.0  -0.0774
  C  C552  1  0.903200  0.416700  0.110660  1.0  0.6981
  C  C553  1  0.828700  0.482070  0.023080  1.0  0.558
  C  C554  1  0.809210  0.503050  0.999650  1.0  -0.0703
  C  C555  1  0.876250  0.506820  0.980090  1.0  -0.0881
  C  C556  1  0.860210  0.526150  0.958720  1.0  -0.0735
  C  C557  1  0.777140  0.541700  0.956910  1.0  -0.0551
  C  C558  1  0.710100  0.537940  0.976470  1.0  -0.0724
  C  C559  1  0.726140  0.518610  0.997840  1.0  -0.1548
  C  C560  1  0.761000  0.562840  0.933920  1.0  0.6605
  C  C561  1  0.583300  0.893450  0.584560  1.0  0.6296
  C  C562  1  0.669950  0.910460  0.579410  1.0  -0.1652
  C  C563  1  0.744950  0.905840  0.596210  1.0  -0.1009
  C  C564  1  0.826360  0.921790  0.592130  1.0  -0.0604
  C  C565  1  0.832760  0.942350  0.571250  1.0  -0.0471
  C  C566  1  0.757760  0.946970  0.554450  1.0  0.169
  C  C567  1  0.676350  0.931030  0.558530  1.0  -0.0774
  C  C568  1  0.903200  0.916700  0.610660  1.0  0.6985
  C  C569  1  0.828700  0.982070  0.523080  1.0  0.558
  C  C570  1  0.809210  0.003050  0.499650  1.0  -0.0703
  C  C571  1  0.876250  0.006820  0.480090  1.0  -0.0867
  C  C572  1  0.860210  0.026150  0.458720  1.0  -0.0748
  C  C573  1  0.777140  0.041700  0.456910  1.0  -0.0551
  C  C574  1  0.710100  0.037940  0.476470  1.0  -0.0724
  C  C575  1  0.726140  0.018610  0.497840  1.0  -0.1548
  C  C576  1  0.761000  0.062840  0.433920  1.0  0.6605
  C  C577  1  0.083300  0.393450  0.584560  1.0  0.6296
  C  C578  1  0.169950  0.410460  0.579410  1.0  -0.1652
  C  C579  1  0.244950  0.405840  0.596210  1.0  -0.1011
  C  C580  1  0.326360  0.421790  0.592130  1.0  -0.0604
  C  C581  1  0.332760  0.442350  0.571250  1.0  -0.0471
  C  C582  1  0.257760  0.446970  0.554450  1.0  0.169
  C  C583  1  0.176350  0.431030  0.558530  1.0  -0.0774
  C  C584  1  0.403200  0.416700  0.610660  1.0  0.6981
  C  C585  1  0.328700  0.482070  0.523080  1.0  0.558
  C  C586  1  0.309210  0.503050  0.499650  1.0  -0.0703
  C  C587  1  0.376250  0.506820  0.480090  1.0  -0.0881
  C  C588  1  0.360210  0.526150  0.458720  1.0  -0.0735
  C  C589  1  0.277140  0.541700  0.456910  1.0  -0.0551
  C  C590  1  0.210100  0.537940  0.476470  1.0  -0.0724
  C  C591  1  0.226140  0.518610  0.497840  1.0  -0.1548
  C  C592  1  0.261000  0.562840  0.433920  1.0  0.6606
  C  C593  1  0.083300  0.893450  0.084560  1.0  0.6296
  C  C594  1  0.169950  0.910460  0.079410  1.0  -0.1652
  C  C595  1  0.244950  0.905840  0.096210  1.0  -0.1009
  C  C596  1  0.326360  0.921790  0.092130  1.0  -0.0604
  C  C597  1  0.332760  0.942350  0.071250  1.0  -0.0471
  C  C598  1  0.257760  0.946970  0.054450  1.0  0.169
  C  C599  1  0.176350  0.931030  0.058530  1.0  -0.0774
  C  C600  1  0.403200  0.916700  0.110660  1.0  0.6985
  C  C601  1  0.328700  0.982070  0.023080  1.0  0.558
  C  C602  1  0.309210  0.003050  0.999650  1.0  -0.0703
  C  C603  1  0.376250  0.006820  0.980090  1.0  -0.0867
  C  C604  1  0.360210  0.026150  0.958720  1.0  -0.0748
  C  C605  1  0.277140  0.041700  0.956910  1.0  -0.0551
  C  C606  1  0.210100  0.037940  0.976470  1.0  -0.0724
  C  C607  1  0.226140  0.018610  0.997840  1.0  -0.1548
  C  C608  1  0.261000  0.062840  0.933920  1.0  0.6606
  C  C609  1  0.666667  0.856550  0.084560  1.0  0.6114
  C  C610  1  0.580050  0.839540  0.079410  1.0  -0.1651
  C  C611  1  0.505050  0.844160  0.096210  1.0  -0.1015
  C  C612  1  0.423640  0.828210  0.092130  1.0  -0.0608
  C  C613  1  0.417240  0.807650  0.071250  1.0  -0.0468
  C  C614  1  0.492240  0.803030  0.054450  1.0  0.169
  C  C615  1  0.573650  0.818970  0.058530  1.0  -0.0783
  C  C616  1  0.346800  0.833300  0.110660  1.0  0.6971
  C  C617  1  0.421300  0.767930  0.023080  1.0  0.5559
  C  C618  1  0.440790  0.746950  0.999650  1.0  -0.0696
  C  C619  1  0.373750  0.743180  0.980090  1.0  -0.0876
  C  C620  1  0.389790  0.723850  0.958720  1.0  -0.0725
  C  C621  1  0.472860  0.708300  0.956910  1.0  -0.0553
  C  C622  1  0.539900  0.712060  0.976470  1.0  -0.0713
  C  C623  1  0.523860  0.731390  0.997840  1.0  -0.154
  C  C624  1  0.489000  0.687160  0.933920  1.0  0.6593
  C  C625  1  0.666667  0.356550  0.584560  1.0  0.6114
  C  C626  1  0.580050  0.339540  0.579410  1.0  -0.1651
  C  C627  1  0.505050  0.344160  0.596210  1.0  -0.1015
  C  C628  1  0.423640  0.328210  0.592130  1.0  -0.0612
  C  C629  1  0.417240  0.307650  0.571250  1.0  -0.0468
  C  C630  1  0.492240  0.303030  0.554450  1.0  0.169
  C  C631  1  0.573650  0.318970  0.558530  1.0  -0.0783
  C  C632  1  0.346800  0.333333  0.610660  1.0  0.6958
  C  C633  1  0.421300  0.267930  0.523080  1.0  0.5559
  C  C634  1  0.440790  0.246950  0.499650  1.0  -0.0696
  C  C635  1  0.373750  0.243180  0.480090  1.0  -0.0876
  C  C636  1  0.389790  0.223850  0.458720  1.0  -0.0725
  C  C637  1  0.472860  0.208300  0.456910  1.0  -0.0553
  C  C638  1  0.539900  0.212060  0.476470  1.0  -0.0713
  C  C639  1  0.523860  0.231390  0.497840  1.0  -0.154
  C  C640  1  0.489000  0.187160  0.433920  1.0  0.6593
  C  C641  1  0.166700  0.856550  0.584560  1.0  0.6337
  C  C642  1  0.080050  0.839540  0.579410  1.0  -0.1647
  C  C643  1  0.005050  0.844160  0.596210  1.0  -0.1013
  C  C644  1  0.923640  0.828210  0.592130  1.0  -0.0608
  C  C645  1  0.917240  0.807650  0.571250  1.0  -0.0468
  C  C646  1  0.992240  0.803030  0.554450  1.0  0.169
  C  C647  1  0.073650  0.818970  0.558530  1.0  -0.0783
  C  C648  1  0.846800  0.833300  0.610660  1.0  0.6971
  C  C649  1  0.921300  0.767930  0.523080  1.0  0.5559
  C  C650  1  0.940790  0.746950  0.499650  1.0  -0.0696
  C  C651  1  0.873750  0.743180  0.480090  1.0  -0.0876
  C  C652  1  0.889790  0.723850  0.458720  1.0  -0.0725
  C  C653  1  0.972860  0.708300  0.456910  1.0  -0.0553
  C  C654  1  0.039900  0.712060  0.476470  1.0  -0.0713
  C  C655  1  0.023860  0.731390  0.497840  1.0  -0.154
  C  C656  1  0.989000  0.687160  0.433920  1.0  0.6593
  C  C657  1  0.166700  0.356550  0.084560  1.0  0.6337
  C  C658  1  0.080050  0.339540  0.079410  1.0  -0.1647
  C  C659  1  0.005050  0.344160  0.096210  1.0  -0.1015
  C  C660  1  0.923640  0.328210  0.092130  1.0  -0.0612
  C  C661  1  0.917240  0.307650  0.071250  1.0  -0.0468
  C  C662  1  0.992240  0.303030  0.054450  1.0  0.169
  C  C663  1  0.073650  0.318970  0.058530  1.0  -0.0783
  C  C664  1  0.846800  0.333333  0.110660  1.0  0.6958
  C  C665  1  0.921300  0.267930  0.023080  1.0  0.5559
  C  C666  1  0.940790  0.246950  0.999650  1.0  -0.0696
  C  C667  1  0.873750  0.243180  0.980090  1.0  -0.0876
  C  C668  1  0.889790  0.223850  0.958720  1.0  -0.0725
  C  C669  1  0.972860  0.208300  0.956910  1.0  -0.0553
  C  C670  1  0.039900  0.212060  0.976470  1.0  -0.0713
  C  C671  1  0.023860  0.231390  0.997840  1.0  -0.154
  C  C672  1  0.989000  0.187160  0.933920  1.0  0.6593
  C  C673  1  0.666667  0.393450  0.165440  1.0  0.6108
  C  C674  1  0.580050  0.410460  0.170590  1.0  -0.1645
  C  C675  1  0.505050  0.405840  0.153790  1.0  -0.1013
  C  C676  1  0.423640  0.421790  0.157870  1.0  -0.0605
  C  C677  1  0.417240  0.442350  0.178750  1.0  -0.0473
  C  C678  1  0.492240  0.446970  0.195550  1.0  0.1687
  C  C679  1  0.573650  0.431030  0.191470  1.0  -0.0786
  C  C680  1  0.346800  0.416700  0.139340  1.0  0.6961
  C  C681  1  0.421300  0.482070  0.226920  1.0  0.5564
  C  C682  1  0.440790  0.503050  0.250350  1.0  -0.0697
  C  C683  1  0.373750  0.506820  0.269910  1.0  -0.0859
  C  C684  1  0.389790  0.526150  0.291280  1.0  -0.0729
  C  C685  1  0.472860  0.541700  0.293090  1.0  -0.0557
  C  C686  1  0.539900  0.537940  0.273530  1.0  -0.0715
  C  C687  1  0.523860  0.518610  0.252160  1.0  -0.1528
  C  C688  1  0.489000  0.562840  0.316080  1.0  0.6606
  C  C689  1  0.666667  0.893450  0.665440  1.0  0.6108
  C  C690  1  0.580050  0.910460  0.670590  1.0  -0.1645
  C  C691  1  0.505050  0.905840  0.653790  1.0  -0.1012
  C  C692  1  0.423640  0.921790  0.657870  1.0  -0.0605
  C  C693  1  0.417240  0.942350  0.678750  1.0  -0.0473
  C  C694  1  0.492240  0.946970  0.695550  1.0  0.1687
  C  C695  1  0.573650  0.931030  0.691470  1.0  -0.0786
  C  C696  1  0.346800  0.916700  0.639340  1.0  0.6964
  C  C697  1  0.421300  0.982070  0.726920  1.0  0.5564
  C  C698  1  0.440790  0.003050  0.750350  1.0  -0.0697
  C  C699  1  0.373750  0.006820  0.769910  1.0  -0.087
  C  C700  1  0.389790  0.026150  0.791280  1.0  -0.0739
  C  C701  1  0.472860  0.041700  0.793090  1.0  -0.0557
  C  C702  1  0.539900  0.037940  0.773530  1.0  -0.0715
  C  C703  1  0.523860  0.018610  0.752160  1.0  -0.1528
  C  C704  1  0.489000  0.062840  0.816080  1.0  0.6606
  C  C705  1  0.166700  0.393450  0.665440  1.0  0.6314
  C  C706  1  0.080050  0.410460  0.670590  1.0  -0.1642
  C  C707  1  0.005050  0.405840  0.653790  1.0  -0.1012
  C  C708  1  0.923640  0.421790  0.657870  1.0  -0.0604
  C  C709  1  0.917240  0.442350  0.678750  1.0  -0.0473
  C  C710  1  0.992240  0.446970  0.695550  1.0  0.1687
  C  C711  1  0.073650  0.431030  0.691470  1.0  -0.0786
  C  C712  1  0.846800  0.416700  0.639340  1.0  0.6961
  C  C713  1  0.921300  0.482070  0.726920  1.0  0.5564
  C  C714  1  0.940790  0.503050  0.750350  1.0  -0.0697
  C  C715  1  0.873750  0.506820  0.769910  1.0  -0.0859
  C  C716  1  0.889790  0.526150  0.791280  1.0  -0.0729
  C  C717  1  0.972860  0.541700  0.793090  1.0  -0.0557
  C  C718  1  0.039900  0.537940  0.773530  1.0  -0.0715
  C  C719  1  0.023860  0.518610  0.752160  1.0  -0.1528
  C  C720  1  0.989000  0.562840  0.816080  1.0  0.6606
  C  C721  1  0.166700  0.893450  0.165440  1.0  0.6314
  C  C722  1  0.080050  0.910460  0.170590  1.0  -0.1642
  C  C723  1  0.005050  0.905840  0.153790  1.0  -0.1011
  C  C724  1  0.923640  0.921790  0.157870  1.0  -0.0605
  C  C725  1  0.917240  0.942350  0.178750  1.0  -0.0473
  C  C726  1  0.992240  0.946970  0.195550  1.0  0.1687
  C  C727  1  0.073650  0.931030  0.191470  1.0  -0.0786
  C  C728  1  0.846800  0.916700  0.139340  1.0  0.6964
  C  C729  1  0.921300  0.982070  0.226920  1.0  0.5564
  C  C730  1  0.940790  0.003050  0.250350  1.0  -0.0697
  C  C731  1  0.873750  0.006820  0.269910  1.0  -0.087
  C  C732  1  0.889790  0.026150  0.291280  1.0  -0.0739
  C  C733  1  0.972860  0.041700  0.293090  1.0  -0.0557
  C  C734  1  0.039900  0.037940  0.273530  1.0  -0.0715
  C  C735  1  0.023860  0.018610  0.252160  1.0  -0.1528
  C  C736  1  0.989000  0.062840  0.316080  1.0  0.6606
  C  C737  1  0.583300  0.856550  0.165440  1.0  0.6289
  C  C738  1  0.669950  0.839540  0.170590  1.0  -0.1658
  C  C739  1  0.744950  0.844160  0.153790  1.0  -0.1015
  C  C740  1  0.826360  0.828210  0.157870  1.0  -0.0605
  C  C741  1  0.832760  0.807650  0.178750  1.0  -0.047
  C  C742  1  0.757760  0.803030  0.195550  1.0  0.1686
  C  C743  1  0.676350  0.818970  0.191470  1.0  -0.0793
  C  C744  1  0.903200  0.833300  0.139340  1.0  0.6983
  C  C745  1  0.828700  0.767930  0.226920  1.0  0.5579
  C  C746  1  0.809210  0.746950  0.250350  1.0  -0.0708
  C  C747  1  0.876250  0.743180  0.269910  1.0  -0.0871
  C  C748  1  0.860210  0.723850  0.291280  1.0  -0.073
  C  C749  1  0.777140  0.708300  0.293090  1.0  -0.0562
  C  C750  1  0.710100  0.712060  0.273530  1.0  -0.0722
  C  C751  1  0.726140  0.731390  0.252160  1.0  -0.1546
  C  C752  1  0.761000  0.687160  0.316080  1.0  0.659
  C  C753  1  0.583300  0.356550  0.665440  1.0  0.6289
  C  C754  1  0.669950  0.339540  0.670590  1.0  -0.1658
  C  C755  1  0.744950  0.344160  0.653790  1.0  -0.1017
  C  C756  1  0.826360  0.328210  0.657870  1.0  -0.0609
  C  C757  1  0.832760  0.307650  0.678750  1.0  -0.047
  C  C758  1  0.757760  0.303030  0.695550  1.0  0.1686
  C  C759  1  0.676350  0.318970  0.691470  1.0  -0.0793
  C  C760  1  0.903200  0.333333  0.639340  1.0  0.697
  C  C761  1  0.828700  0.267930  0.726920  1.0  0.5579
  C  C762  1  0.809210  0.246950  0.750350  1.0  -0.0708
  C  C763  1  0.876250  0.243180  0.769910  1.0  -0.0871
  C  C764  1  0.860210  0.223850  0.791280  1.0  -0.073
  C  C765  1  0.777140  0.208300  0.793090  1.0  -0.0562
  C  C766  1  0.710100  0.212060  0.773530  1.0  -0.0722
  C  C767  1  0.726140  0.231390  0.752160  1.0  -0.1546
  C  C768  1  0.761000  0.187160  0.816080  1.0  0.659
  C  C769  1  0.083300  0.856550  0.665440  1.0  0.6289
  C  C770  1  0.169950  0.839540  0.670590  1.0  -0.1658
  C  C771  1  0.244950  0.844160  0.653790  1.0  -0.1015
  C  C772  1  0.326360  0.828210  0.657870  1.0  -0.0605
  C  C773  1  0.332760  0.807650  0.678750  1.0  -0.047
  C  C774  1  0.257760  0.803030  0.695550  1.0  0.1686
  C  C775  1  0.176350  0.818970  0.691470  1.0  -0.0793
  C  C776  1  0.403200  0.833300  0.639340  1.0  0.6983
  C  C777  1  0.328700  0.767930  0.726920  1.0  0.5579
  C  C778  1  0.309210  0.746950  0.750350  1.0  -0.0708
  C  C779  1  0.376250  0.743180  0.769910  1.0  -0.0871
  C  C780  1  0.360210  0.723850  0.791280  1.0  -0.073
  C  C781  1  0.277140  0.708300  0.793090  1.0  -0.0562
  C  C782  1  0.210100  0.712060  0.773530  1.0  -0.0722
  C  C783  1  0.226140  0.731390  0.752160  1.0  -0.1546
  C  C784  1  0.261000  0.687160  0.816080  1.0  0.6591
  C  C785  1  0.083300  0.356550  0.165440  1.0  0.6289
  C  C786  1  0.169950  0.339540  0.170590  1.0  -0.1658
  C  C787  1  0.244950  0.344160  0.153790  1.0  -0.1017
  C  C788  1  0.326360  0.328210  0.157870  1.0  -0.0609
  C  C789  1  0.332760  0.307650  0.178750  1.0  -0.047
  C  C790  1  0.257760  0.303030  0.195550  1.0  0.1686
  C  C791  1  0.176350  0.318970  0.191470  1.0  -0.0793
  C  C792  1  0.403200  0.333333  0.139340  1.0  0.697
  C  C793  1  0.328700  0.267930  0.226920  1.0  0.5579
  C  C794  1  0.309210  0.246950  0.250350  1.0  -0.0708
  C  C795  1  0.376250  0.243180  0.269910  1.0  -0.0871
  C  C796  1  0.360210  0.223850  0.291280  1.0  -0.073
  C  C797  1  0.277140  0.208300  0.293090  1.0  -0.0562
  C  C798  1  0.210100  0.212060  0.273530  1.0  -0.0722
  C  C799  1  0.226140  0.231390  0.252160  1.0  -0.1546
  C  C800  1  0.261000  0.187160  0.316080  1.0  0.6591
  N  N801  1  0.243600  0.531970  0.967450  1.0  -0.4096
  N  N802  1  0.243600  0.031970  0.467450  1.0  -0.4096
  N  N803  1  0.743600  0.531970  0.467450  1.0  -0.4096
  N  N804  1  0.743600  0.031970  0.967450  1.0  -0.4096
  N  N805  1  0.506400  0.218030  0.967450  1.0  -0.4108
  N  N806  1  0.506400  0.718030  0.467450  1.0  -0.4108
  N  N807  1  0.006400  0.218030  0.467450  1.0  -0.4108
  N  N808  1  0.006400  0.718030  0.967450  1.0  -0.4108
  N  N809  1  0.506400  0.531970  0.782550  1.0  -0.41
  N  N810  1  0.506400  0.031970  0.282550  1.0  -0.41
  N  N811  1  0.006400  0.531970  0.282550  1.0  -0.41
  N  N812  1  0.006400  0.031970  0.782550  1.0  -0.41
  N  N813  1  0.243600  0.218030  0.782550  1.0  -0.4086
  N  N814  1  0.243600  0.718030  0.282550  1.0  -0.4086
  N  N815  1  0.743600  0.218030  0.282550  1.0  -0.4086
  N  N816  1  0.743600  0.718030  0.782550  1.0  -0.4086
  N  N817  1  0.756400  0.468030  0.032550  1.0  -0.41
  N  N818  1  0.756400  0.968030  0.532550  1.0  -0.41
  N  N819  1  0.256400  0.468030  0.532550  1.0  -0.41
  N  N820  1  0.256400  0.968030  0.032550  1.0  -0.41
  N  N821  1  0.493600  0.781970  0.032550  1.0  -0.4086
  N  N822  1  0.493600  0.281970  0.532550  1.0  -0.4086
  N  N823  1  0.993600  0.781970  0.532550  1.0  -0.4086
  N  N824  1  0.993600  0.281970  0.032550  1.0  -0.4086
  N  N825  1  0.493600  0.468030  0.217450  1.0  -0.4098
  N  N826  1  0.493600  0.968030  0.717450  1.0  -0.4098
  N  N827  1  0.993600  0.468030  0.717450  1.0  -0.4098
  N  N828  1  0.993600  0.968030  0.217450  1.0  -0.4098
  N  N829  1  0.756400  0.781970  0.217450  1.0  -0.4108
  N  N830  1  0.756400  0.281970  0.717450  1.0  -0.4108
  N  N831  1  0.256400  0.781970  0.717450  1.0  -0.4108
  N  N832  1  0.256400  0.281970  0.217450  1.0  -0.4108
  O  O833  1  0.485000  0.601190  0.930520  1.0  -0.6631
  O  O834  1  0.428500  0.627070  0.899660  1.0  -0.6846
  O  O835  1  0.132500  0.585950  0.867510  1.0  -0.6193
  O  O836  1  0.014000  0.584630  0.894630  1.0  -0.6866
  O  O837  1  0.092700  0.520940  0.969910  1.0  -0.4605
  O  O838  1  0.206600  0.442530  0.088040  1.0  -0.7049
  O  O839  1  0.286600  0.416360  0.057580  1.0  -0.647
  O  O840  1  0.485000  0.101190  0.430520  1.0  -0.6631
  O  O841  1  0.428500  0.127070  0.399660  1.0  -0.6848
  O  O842  1  0.132500  0.085950  0.367510  1.0  -0.619
  O  O843  1  0.014000  0.084630  0.394630  1.0  -0.6866
  O  O844  1  0.092700  0.020940  0.469910  1.0  -0.4545
  O  O845  1  0.206600  0.942530  0.588040  1.0  -0.7049
  O  O846  1  0.286600  0.916360  0.557580  1.0  -0.647
  O  O847  1  0.985000  0.601190  0.430520  1.0  -0.6631
  O  O848  1  0.928500  0.627070  0.399660  1.0  -0.6846
  O  O849  1  0.632500  0.585950  0.367510  1.0  -0.6193
  O  O850  1  0.514000  0.584630  0.394630  1.0  -0.6866
  O  O851  1  0.592700  0.520940  0.469910  1.0  -0.4605
  O  O852  1  0.706600  0.442530  0.588040  1.0  -0.7049
  O  O853  1  0.786600  0.416360  0.557580  1.0  -0.647
  O  O854  1  0.985000  0.101190  0.930520  1.0  -0.6631
  O  O855  1  0.928500  0.127070  0.899660  1.0  -0.6848
  O  O856  1  0.632500  0.085950  0.867510  1.0  -0.619
  O  O857  1  0.514000  0.084630  0.894630  1.0  -0.6866
  O  O858  1  0.592700  0.020940  0.969910  1.0  -0.4545
  O  O859  1  0.706600  0.942530  0.088040  1.0  -0.7049
  O  O860  1  0.786600  0.916360  0.057580  1.0  -0.647
  O  O861  1  0.265000  0.148810  0.930520  1.0  -0.6625
  O  O862  1  0.321500  0.122930  0.899660  1.0  -0.6854
  O  O863  1  0.617500  0.164050  0.867510  1.0  -0.6203
  O  O864  1  0.736000  0.165370  0.894630  1.0  -0.6865
  O  O865  1  0.657300  0.229060  0.969910  1.0  -0.4596
  O  O866  1  0.543400  0.307470  0.088040  1.0  -0.7051
  O  O867  1  0.463400  0.333640  0.057580  1.0  -0.648
  O  O868  1  0.265000  0.648810  0.430520  1.0  -0.6625
  O  O869  1  0.321500  0.622930  0.399660  1.0  -0.6854
  O  O870  1  0.617500  0.664050  0.367510  1.0  -0.619
  O  O871  1  0.736000  0.665370  0.394630  1.0  -0.6866
  O  O872  1  0.657300  0.729060  0.469910  1.0  -0.4596
  O  O873  1  0.543400  0.807470  0.588040  1.0  -0.7051
  O  O874  1  0.463400  0.833640  0.557580  1.0  -0.648
  O  O875  1  0.765000  0.148810  0.430520  1.0  -0.6628
  O  O876  1  0.821500  0.122930  0.399660  1.0  -0.6851
  O  O877  1  0.117500  0.164050  0.367510  1.0  -0.6203
  O  O878  1  0.236000  0.165370  0.394630  1.0  -0.6865
  O  O879  1  0.157300  0.229060  0.469910  1.0  -0.4596
  O  O880  1  0.043400  0.307470  0.588040  1.0  -0.7051
  O  O881  1  0.963400  0.333640  0.557580  1.0  -0.648
  O  O882  1  0.765000  0.648810  0.930520  1.0  -0.6628
  O  O883  1  0.821500  0.622930  0.899660  1.0  -0.685
  O  O884  1  0.117500  0.664050  0.867510  1.0  -0.619
  O  O885  1  0.236000  0.665370  0.894630  1.0  -0.6866
  O  O886  1  0.157300  0.729060  0.969910  1.0  -0.4596
  O  O887  1  0.043400  0.807470  0.088040  1.0  -0.7051
  O  O888  1  0.963400  0.833640  0.057580  1.0  -0.648
  O  O889  1  0.265000  0.601190  0.819480  1.0  -0.6629
  O  O890  1  0.321500  0.627070  0.850340  1.0  -0.6848
  O  O891  1  0.617500  0.585950  0.882490  1.0  -0.6199
  O  O892  1  0.736000  0.584630  0.855370  1.0  -0.6871
  O  O893  1  0.657300  0.520940  0.780090  1.0  -0.4597
  O  O894  1  0.543400  0.442530  0.661960  1.0  -0.7025
  O  O895  1  0.463400  0.416360  0.692420  1.0  -0.6467
  O  O896  1  0.265000  0.101190  0.319480  1.0  -0.6629
  O  O897  1  0.321500  0.127070  0.350340  1.0  -0.6849
  O  O898  1  0.617500  0.085950  0.382490  1.0  -0.6197
  O  O899  1  0.736000  0.084630  0.355370  1.0  -0.6871
  O  O900  1  0.657300  0.020940  0.280090  1.0  -0.4543
  O  O901  1  0.543400  0.942530  0.161960  1.0  -0.7025
  O  O902  1  0.463400  0.916360  0.192420  1.0  -0.6467
  O  O903  1  0.765000  0.601190  0.319480  1.0  -0.6631
  O  O904  1  0.821500  0.627070  0.350340  1.0  -0.6843
  O  O905  1  0.117500  0.585950  0.382490  1.0  -0.6199
  O  O906  1  0.236000  0.584630  0.355370  1.0  -0.6871
  O  O907  1  0.157300  0.520940  0.280090  1.0  -0.4597
  O  O908  1  0.043400  0.442530  0.161960  1.0  -0.7025
  O  O909  1  0.963400  0.416360  0.192420  1.0  -0.6467
  O  O910  1  0.765000  0.101190  0.819480  1.0  -0.6631
  O  O911  1  0.821500  0.127070  0.850340  1.0  -0.6845
  O  O912  1  0.117500  0.085950  0.882490  1.0  -0.6197
  O  O913  1  0.236000  0.084630  0.855370  1.0  -0.6871
  O  O914  1  0.157300  0.020940  0.780090  1.0  -0.4543
  O  O915  1  0.043400  0.942530  0.661960  1.0  -0.7025
  O  O916  1  0.963400  0.916360  0.692420  1.0  -0.6467
  O  O917  1  0.485000  0.148810  0.819480  1.0  -0.6639
  O  O918  1  0.428500  0.122930  0.850340  1.0  -0.6835
  O  O919  1  0.132500  0.164050  0.882490  1.0  -0.6197
  O  O920  1  0.014000  0.165370  0.855370  1.0  -0.6858
  O  O921  1  0.092700  0.229060  0.780090  1.0  -0.4609
  O  O922  1  0.206600  0.307470  0.661960  1.0  -0.7027
  O  O923  1  0.286600  0.333640  0.692420  1.0  -0.6472
  O  O924  1  0.485000  0.648810  0.319480  1.0  -0.6639
  O  O925  1  0.428500  0.622930  0.350340  1.0  -0.6834
  O  O926  1  0.132500  0.664050  0.382490  1.0  -0.6186
  O  O927  1  0.014000  0.665370  0.355370  1.0  -0.686
  O  O928  1  0.092700  0.729060  0.280090  1.0  -0.4609
  O  O929  1  0.206600  0.807470  0.161960  1.0  -0.7027
  O  O930  1  0.286600  0.833640  0.192420  1.0  -0.6472
  O  O931  1  0.985000  0.148810  0.319480  1.0  -0.6639
  O  O932  1  0.928500  0.122930  0.350340  1.0  -0.6836
  O  O933  1  0.632500  0.164050  0.382490  1.0  -0.6197
  O  O934  1  0.514000  0.165370  0.355370  1.0  -0.6858
  O  O935  1  0.592700  0.229060  0.280090  1.0  -0.4609
  O  O936  1  0.706600  0.307470  0.161960  1.0  -0.7027
  O  O937  1  0.786600  0.333640  0.192420  1.0  -0.6472
  O  O938  1  0.985000  0.648810  0.819480  1.0  -0.6639
  O  O939  1  0.928500  0.622930  0.850340  1.0  -0.6835
  O  O940  1  0.632500  0.664050  0.882490  1.0  -0.6186
  O  O941  1  0.514000  0.665370  0.855370  1.0  -0.6861
  O  O942  1  0.592700  0.729060  0.780090  1.0  -0.4609
  O  O943  1  0.706600  0.807470  0.661960  1.0  -0.7027
  O  O944  1  0.786600  0.833640  0.692420  1.0  -0.6472
  O  O945  1  0.515000  0.398810  0.069480  1.0  -0.6626
  O  O946  1  0.571500  0.372930  0.100340  1.0  -0.684
  O  O947  1  0.867500  0.414050  0.132490  1.0  -0.6207
  O  O948  1  0.986000  0.415370  0.105370  1.0  -0.6861
  O  O949  1  0.907300  0.479060  0.030090  1.0  -0.4597
  O  O950  1  0.793400  0.557470  0.911960  1.0  -0.7031
  O  O951  1  0.713400  0.583640  0.942420  1.0  -0.6477
  O  O952  1  0.515000  0.898810  0.569480  1.0  -0.6626
  O  O953  1  0.571500  0.872930  0.600340  1.0  -0.6841
  O  O954  1  0.867500  0.914050  0.632490  1.0  -0.6205
  O  O955  1  0.986000  0.915370  0.605370  1.0  -0.6861
  O  O956  1  0.907300  0.979060  0.530090  1.0  -0.4543
  O  O957  1  0.793400  0.057470  0.411960  1.0  -0.7031
  O  O958  1  0.713400  0.083640  0.442420  1.0  -0.6477
  O  O959  1  0.015000  0.398810  0.569480  1.0  -0.6626
  O  O960  1  0.071500  0.372930  0.600340  1.0  -0.684
  O  O961  1  0.367500  0.414050  0.632490  1.0  -0.6207
  O  O962  1  0.486000  0.415370  0.605370  1.0  -0.6861
  O  O963  1  0.407300  0.479060  0.530090  1.0  -0.4597
  O  O964  1  0.293400  0.557470  0.411960  1.0  -0.7031
  O  O965  1  0.213400  0.583640  0.442420  1.0  -0.6477
  O  O966  1  0.015000  0.898810  0.069480  1.0  -0.6626
  O  O967  1  0.071500  0.872930  0.100340  1.0  -0.6841
  O  O968  1  0.367500  0.914050  0.132490  1.0  -0.6205
  O  O969  1  0.486000  0.915370  0.105370  1.0  -0.6861
  O  O970  1  0.407300  0.979060  0.030090  1.0  -0.4543
  O  O971  1  0.293400  0.057470  0.911960  1.0  -0.7031
  O  O972  1  0.213400  0.083640  0.942420  1.0  -0.6477
  O  O973  1  0.735000  0.851190  0.069480  1.0  -0.6644
  O  O974  1  0.678500  0.877070  0.100340  1.0  -0.6843
  O  O975  1  0.382500  0.835950  0.132490  1.0  -0.6185
  O  O976  1  0.264000  0.834630  0.105370  1.0  -0.6866
  O  O977  1  0.342700  0.770940  0.030090  1.0  -0.4609
  O  O978  1  0.456600  0.692530  0.911960  1.0  -0.7018
  O  O979  1  0.536600  0.666360  0.942420  1.0  -0.6469
  O  O980  1  0.735000  0.351190  0.569480  1.0  -0.6644
  O  O981  1  0.678500  0.377070  0.600340  1.0  -0.6842
  O  O982  1  0.382500  0.335950  0.632490  1.0  -0.6173
  O  O983  1  0.264000  0.334630  0.605370  1.0  -0.6868
  O  O984  1  0.342700  0.270940  0.530090  1.0  -0.4609
  O  O985  1  0.456600  0.192530  0.411960  1.0  -0.7018
  O  O986  1  0.536600  0.166360  0.442420  1.0  -0.6469
  O  O987  1  0.235000  0.851190  0.569480  1.0  -0.6645
  O  O988  1  0.178500  0.877070  0.600340  1.0  -0.6839
  O  O989  1  0.882500  0.835950  0.632490  1.0  -0.6185
  O  O990  1  0.764000  0.834630  0.605370  1.0  -0.6866
  O  O991  1  0.842700  0.770940  0.530090  1.0  -0.4609
  O  O992  1  0.956600  0.692530  0.411960  1.0  -0.7018
  O  O993  1  0.036600  0.666360  0.442420  1.0  -0.6469
  O  O994  1  0.235000  0.351190  0.069480  1.0  -0.6645
  O  O995  1  0.178500  0.377070  0.100340  1.0  -0.6838
  O  O996  1  0.882500  0.335950  0.132490  1.0  -0.6173
  O  O997  1  0.764000  0.334630  0.105370  1.0  -0.6868
  O  O998  1  0.842700  0.270940  0.030090  1.0  -0.4609
  O  O999  1  0.956600  0.192530  0.911960  1.0  -0.7018
  O  O1000  1  0.036600  0.166360  0.942420  1.0  -0.6469
  O  O1001  1  0.735000  0.398810  0.180520  1.0  -0.6627
  O  O1002  1  0.678500  0.372930  0.149660  1.0  -0.6847
  O  O1003  1  0.382500  0.414050  0.117510  1.0  -0.6198
  O  O1004  1  0.264000  0.415370  0.144630  1.0  -0.6865
  O  O1005  1  0.342700  0.479060  0.219910  1.0  -0.4606
  O  O1006  1  0.456600  0.557470  0.338040  1.0  -0.705
  O  O1007  1  0.536600  0.583640  0.307580  1.0  -0.6472
  O  O1008  1  0.735000  0.898810  0.680520  1.0  -0.6627
  O  O1009  1  0.678500  0.872930  0.649660  1.0  -0.6848
  O  O1010  1  0.382500  0.914050  0.617510  1.0  -0.6197
  O  O1011  1  0.264000  0.915370  0.644630  1.0  -0.6865
  O  O1012  1  0.342700  0.979060  0.719910  1.0  -0.4545
  O  O1013  1  0.456600  0.057470  0.838040  1.0  -0.705
  O  O1014  1  0.536600  0.083640  0.807580  1.0  -0.6472
  O  O1015  1  0.235000  0.398810  0.680520  1.0  -0.6629
  O  O1016  1  0.178500  0.372930  0.649660  1.0  -0.6843
  O  O1017  1  0.882500  0.414050  0.617510  1.0  -0.6198
  O  O1018  1  0.764000  0.415370  0.644630  1.0  -0.6865
  O  O1019  1  0.842700  0.479060  0.719910  1.0  -0.4606
  O  O1020  1  0.956600  0.557470  0.838040  1.0  -0.705
  O  O1021  1  0.036600  0.583640  0.807580  1.0  -0.6472
  O  O1022  1  0.235000  0.898810  0.180520  1.0  -0.6629
  O  O1023  1  0.178500  0.872930  0.149660  1.0  -0.6844
  O  O1024  1  0.882500  0.914050  0.117510  1.0  -0.6197
  O  O1025  1  0.764000  0.915370  0.144630  1.0  -0.6865
  O  O1026  1  0.842700  0.979060  0.219910  1.0  -0.4545
  O  O1027  1  0.956600  0.057470  0.338040  1.0  -0.705
  O  O1028  1  0.036600  0.083640  0.307580  1.0  -0.6472
  O  O1029  1  0.515000  0.851190  0.180520  1.0  -0.6628
  O  O1030  1  0.571500  0.877070  0.149660  1.0  -0.6854
  O  O1031  1  0.867500  0.835950  0.117510  1.0  -0.6198
  O  O1032  1  0.986000  0.834630  0.144630  1.0  -0.6869
  O  O1033  1  0.907300  0.770940  0.219910  1.0  -0.4595
  O  O1034  1  0.793400  0.692530  0.338040  1.0  -0.7049
  O  O1035  1  0.713400  0.666360  0.307580  1.0  -0.6474
  O  O1036  1  0.515000  0.351190  0.680520  1.0  -0.6628
  O  O1037  1  0.571500  0.377070  0.649660  1.0  -0.6853
  O  O1038  1  0.867500  0.335950  0.617510  1.0  -0.6185
  O  O1039  1  0.986000  0.334630  0.644630  1.0  -0.6871
  O  O1040  1  0.907300  0.270940  0.719910  1.0  -0.4595
  O  O1041  1  0.793400  0.192530  0.838040  1.0  -0.7049
  O  O1042  1  0.713400  0.166360  0.807580  1.0  -0.6474
  O  O1043  1  0.015000  0.851190  0.680520  1.0  -0.6628
  O  O1044  1  0.071500  0.877070  0.649660  1.0  -0.6855
  O  O1045  1  0.367500  0.835950  0.617510  1.0  -0.6198
  O  O1046  1  0.486000  0.834630  0.644630  1.0  -0.6869
  O  O1047  1  0.407300  0.770940  0.719910  1.0  -0.4595
  O  O1048  1  0.293400  0.692530  0.838040  1.0  -0.7049
  O  O1049  1  0.213400  0.666360  0.807580  1.0  -0.6474
  O  O1050  1  0.015000  0.351190  0.180520  1.0  -0.6628
  O  O1051  1  0.071500  0.377070  0.149660  1.0  -0.6854
  O  O1052  1  0.367500  0.335950  0.117510  1.0  -0.6185
  O  O1053  1  0.486000  0.334630  0.144630  1.0  -0.6873
  O  O1054  1  0.407300  0.270940  0.219910  1.0  -0.4595
  O  O1055  1  0.293400  0.192530  0.338040  1.0  -0.7049
  O  O1056  1  0.213400  0.166360  0.307580  1.0  -0.6474
