# generated using pymatgen
data_ZnH22C24(NO)4
_symmetry_space_group_name_H-M   'P 1'
_cell_length_a   22.69400000
_cell_length_b   29.69400000
_cell_length_c   33.40800000
_cell_angle_alpha   90.00000000
_cell_angle_beta   90.00000000
_cell_angle_gamma   90.00000000
_symmetry_Int_Tables_number   1
_chemical_formula_structural   ZnH22C24(NO)4
_chemical_formula_sum   'Zn32 H704 C768 N128 O128'
_cell_volume   22512.83724749
_cell_formula_units_Z   32
loop_
 _symmetry_equiv_pos_site_id
 _symmetry_equiv_pos_as_xyz
  1  'x, y, z'
loop_
 _atom_site_type_symbol
 _atom_site_label
 _atom_site_symmetry_multiplicity
 _atom_site_fract_x
 _atom_site_fract_y
 _atom_site_fract_z
 _atom_site_occupancy
 _atom_site_charge
  Zn  Zn1  1  0.500000  0.000000  0.762880  1.0  0.8912
  Zn  Zn2  1  0.500000  0.500000  0.262880  1.0  0.8912
  Zn  Zn3  1  0.000000  0.000000  0.262880  1.0  0.8912
  Zn  Zn4  1  0.000000  0.500000  0.762880  1.0  0.8912
  Zn  Zn5  1  0.750000  0.250000  0.012880  1.0  0.8912
  Zn  Zn6  1  0.750000  0.750000  0.512880  1.0  0.8912
  Zn  Zn7  1  0.250000  0.250000  0.512880  1.0  0.8912
  Zn  Zn8  1  0.250000  0.750000  0.012880  1.0  0.8912
  Zn  Zn9  1  0.497590  0.254550  0.718210  1.0  0.8421
  Zn  Zn10  1  0.497590  0.754550  0.218210  1.0  0.8421
  Zn  Zn11  1  0.997590  0.254550  0.218210  1.0  0.8421
  Zn  Zn12  1  0.997590  0.754550  0.718210  1.0  0.8421
  Zn  Zn13  1  0.752410  0.504550  0.968210  1.0  0.8426
  Zn  Zn14  1  0.752410  0.004550  0.468210  1.0  0.8426
  Zn  Zn15  1  0.252410  0.504550  0.468210  1.0  0.8426
  Zn  Zn16  1  0.252410  0.004550  0.968210  1.0  0.8426
  Zn  Zn17  1  0.750000  0.250000  0.545520  1.0  0.939
  Zn  Zn18  1  0.750000  0.750000  0.045520  1.0  0.939
  Zn  Zn19  1  0.250000  0.750000  0.545520  1.0  0.939
  Zn  Zn20  1  0.250000  0.250000  0.045520  1.0  0.939
  Zn  Zn21  1  0.000000  0.000000  0.795520  1.0  0.939
  Zn  Zn22  1  0.000000  0.500000  0.295520  1.0  0.939
  Zn  Zn23  1  0.500000  0.500000  0.795520  1.0  0.939
  Zn  Zn24  1  0.500000  0.000000  0.295520  1.0  0.939
  Zn  Zn25  1  0.502410  0.745450  0.718210  1.0  0.842
  Zn  Zn26  1  0.502410  0.245450  0.218210  1.0  0.842
  Zn  Zn27  1  0.002410  0.745450  0.218210  1.0  0.842
  Zn  Zn28  1  0.002410  0.245450  0.718210  1.0  0.842
  Zn  Zn29  1  0.747590  0.995450  0.968210  1.0  0.8419
  Zn  Zn30  1  0.747590  0.495450  0.468210  1.0  0.8419
  Zn  Zn31  1  0.247590  0.995450  0.468210  1.0  0.8419
  Zn  Zn32  1  0.247590  0.495450  0.968210  1.0  0.8419
  H  H33  1  0.646100  0.277300  0.964500  1.0  0.2758
  H  H34  1  0.649900  0.139300  0.790900  1.0  0.1059
  H  H35  1  0.672400  0.191400  0.839900  1.0  0.1104
  H  H36  1  0.594400  0.112500  0.921700  1.0  0.1061
  H  H37  1  0.562100  0.065100  0.870100  1.0  0.0941
  H  H38  1  0.749900  0.151500  0.984200  1.0  0.1213
  H  H39  1  0.756100  0.139900  0.937600  1.0  0.1189
  H  H40  1  0.703100  0.118900  0.963100  1.0  0.1107
  H  H41  1  0.592700  0.291300  0.898300  1.0  0.1285
  H  H42  1  0.543300  0.256100  0.912000  1.0  0.1432
  H  H43  1  0.580200  0.247300  0.872000  1.0  0.1342
  H  H44  1  0.646100  0.777300  0.464500  1.0  0.2758
  H  H45  1  0.649900  0.639300  0.290900  1.0  0.1059
  H  H46  1  0.672400  0.691400  0.339900  1.0  0.1104
  H  H47  1  0.594400  0.612500  0.421700  1.0  0.1061
  H  H48  1  0.562100  0.565100  0.370100  1.0  0.0941
  H  H49  1  0.749900  0.651500  0.484200  1.0  0.1213
  H  H50  1  0.756100  0.639900  0.437600  1.0  0.1189
  H  H51  1  0.703100  0.618900  0.463100  1.0  0.1107
  H  H52  1  0.592700  0.791300  0.398300  1.0  0.1285
  H  H53  1  0.543300  0.756100  0.412000  1.0  0.1432
  H  H54  1  0.580200  0.747300  0.372000  1.0  0.1342
  H  H55  1  0.146100  0.277300  0.464500  1.0  0.2758
  H  H56  1  0.149900  0.139300  0.290900  1.0  0.1059
  H  H57  1  0.172400  0.191400  0.339900  1.0  0.1104
  H  H58  1  0.094400  0.112500  0.421700  1.0  0.1061
  H  H59  1  0.062100  0.065100  0.370100  1.0  0.0941
  H  H60  1  0.249900  0.151500  0.484200  1.0  0.1213
  H  H61  1  0.256100  0.139900  0.437600  1.0  0.1189
  H  H62  1  0.203100  0.118900  0.463100  1.0  0.1107
  H  H63  1  0.092700  0.291300  0.398300  1.0  0.1285
  H  H64  1  0.043300  0.256100  0.412000  1.0  0.1432
  H  H65  1  0.080200  0.247300  0.372000  1.0  0.1342
  H  H66  1  0.146100  0.777300  0.964500  1.0  0.2758
  H  H67  1  0.149900  0.639300  0.790900  1.0  0.1059
  H  H68  1  0.172400  0.691400  0.839900  1.0  0.1104
  H  H69  1  0.094400  0.612500  0.921700  1.0  0.1061
  H  H70  1  0.062100  0.565100  0.870100  1.0  0.0941
  H  H71  1  0.249900  0.651500  0.984200  1.0  0.1213
  H  H72  1  0.256100  0.639900  0.937600  1.0  0.1189
  H  H73  1  0.203100  0.618900  0.963100  1.0  0.1107
  H  H74  1  0.092700  0.791300  0.898300  1.0  0.1285
  H  H75  1  0.043300  0.756100  0.912000  1.0  0.1432
  H  H76  1  0.080200  0.747300  0.872000  1.0  0.1342
  H  H77  1  0.353900  0.722700  0.964500  1.0  0.2756
  H  H78  1  0.350100  0.860700  0.790900  1.0  0.1062
  H  H79  1  0.327600  0.808600  0.839900  1.0  0.1103
  H  H80  1  0.405600  0.887500  0.921700  1.0  0.106
  H  H81  1  0.437900  0.934900  0.870100  1.0  0.0937
  H  H82  1  0.250100  0.848500  0.984200  1.0  0.1214
  H  H83  1  0.243900  0.860100  0.937600  1.0  0.1188
  H  H84  1  0.296900  0.881100  0.963100  1.0  0.11
  H  H85  1  0.407300  0.708700  0.898300  1.0  0.1278
  H  H86  1  0.456700  0.743900  0.912000  1.0  0.1458
  H  H87  1  0.419800  0.752700  0.872000  1.0  0.1334
  H  H88  1  0.353900  0.222700  0.464500  1.0  0.2756
  H  H89  1  0.350100  0.360700  0.290900  1.0  0.1062
  H  H90  1  0.327600  0.308600  0.339900  1.0  0.1103
  H  H91  1  0.405600  0.387500  0.421700  1.0  0.106
  H  H92  1  0.437900  0.434900  0.370100  1.0  0.0937
  H  H93  1  0.250100  0.348500  0.484200  1.0  0.1214
  H  H94  1  0.243900  0.360100  0.437600  1.0  0.1188
  H  H95  1  0.296900  0.381100  0.463100  1.0  0.11
  H  H96  1  0.407300  0.208700  0.398300  1.0  0.1278
  H  H97  1  0.456700  0.243900  0.412000  1.0  0.1458
  H  H98  1  0.419800  0.252700  0.372000  1.0  0.1334
  H  H99  1  0.853900  0.722700  0.464500  1.0  0.2756
  H  H100  1  0.850100  0.860700  0.290900  1.0  0.1062
  H  H101  1  0.827600  0.808600  0.339900  1.0  0.1103
  H  H102  1  0.905600  0.887500  0.421700  1.0  0.106
  H  H103  1  0.937900  0.934900  0.370100  1.0  0.0937
  H  H104  1  0.750100  0.848500  0.484200  1.0  0.1214
  H  H105  1  0.743900  0.860100  0.437600  1.0  0.1188
  H  H106  1  0.796900  0.881100  0.463100  1.0  0.11
  H  H107  1  0.907300  0.708700  0.398300  1.0  0.1278
  H  H108  1  0.956700  0.743900  0.412000  1.0  0.1458
  H  H109  1  0.919800  0.752700  0.372000  1.0  0.1334
  H  H110  1  0.853900  0.222700  0.964500  1.0  0.2756
  H  H111  1  0.850100  0.360700  0.790900  1.0  0.1062
  H  H112  1  0.827600  0.308600  0.839900  1.0  0.1103
  H  H113  1  0.905600  0.387500  0.921700  1.0  0.106
  H  H114  1  0.937900  0.434900  0.870100  1.0  0.0937
  H  H115  1  0.750100  0.348500  0.984200  1.0  0.1214
  H  H116  1  0.743900  0.360100  0.937600  1.0  0.1188
  H  H117  1  0.796900  0.381100  0.963100  1.0  0.11
  H  H118  1  0.907300  0.208700  0.898300  1.0  0.1278
  H  H119  1  0.956700  0.243900  0.912000  1.0  0.1458
  H  H120  1  0.919800  0.252700  0.872000  1.0  0.1334
  H  H121  1  0.896100  0.972700  0.214500  1.0  0.2757
  H  H122  1  0.899900  0.110700  0.040900  1.0  0.1059
  H  H123  1  0.922400  0.058600  0.089900  1.0  0.1107
  H  H124  1  0.844400  0.137500  0.171700  1.0  0.106
  H  H125  1  0.812100  0.184900  0.120100  1.0  0.094
  H  H126  1  0.999900  0.098500  0.234200  1.0  0.1217
  H  H127  1  0.006100  0.110100  0.187600  1.0  0.1188
  H  H128  1  0.953100  0.131100  0.213100  1.0  0.1104
  H  H129  1  0.842700  0.958700  0.148300  1.0  0.1281
  H  H130  1  0.793300  0.993900  0.162000  1.0  0.1426
  H  H131  1  0.830200  0.002700  0.122000  1.0  0.1337
  H  H132  1  0.896100  0.472700  0.714500  1.0  0.2757
  H  H133  1  0.899900  0.610700  0.540900  1.0  0.1059
  H  H134  1  0.922400  0.558600  0.589900  1.0  0.1107
  H  H135  1  0.844400  0.637500  0.671700  1.0  0.106
  H  H136  1  0.812100  0.684900  0.620100  1.0  0.094
  H  H137  1  0.999900  0.598500  0.734200  1.0  0.1217
  H  H138  1  0.006100  0.610100  0.687600  1.0  0.1188
  H  H139  1  0.953100  0.631100  0.713100  1.0  0.1104
  H  H140  1  0.842700  0.458700  0.648300  1.0  0.1281
  H  H141  1  0.793300  0.493900  0.662000  1.0  0.1426
  H  H142  1  0.830200  0.502700  0.622000  1.0  0.1337
  H  H143  1  0.396100  0.972700  0.714500  1.0  0.2757
  H  H144  1  0.399900  0.110700  0.540900  1.0  0.1059
  H  H145  1  0.422400  0.058600  0.589900  1.0  0.1107
  H  H146  1  0.344400  0.137500  0.671700  1.0  0.106
  H  H147  1  0.312100  0.184900  0.620100  1.0  0.094
  H  H148  1  0.499900  0.098500  0.734200  1.0  0.1217
  H  H149  1  0.506100  0.110100  0.687600  1.0  0.1188
  H  H150  1  0.453100  0.131100  0.713100  1.0  0.1104
  H  H151  1  0.342700  0.958700  0.648300  1.0  0.1281
  H  H152  1  0.293300  0.993900  0.662000  1.0  0.1426
  H  H153  1  0.330200  0.002700  0.622000  1.0  0.1337
  H  H154  1  0.396100  0.472700  0.214500  1.0  0.2757
  H  H155  1  0.399900  0.610700  0.040900  1.0  0.1059
  H  H156  1  0.422400  0.558600  0.089900  1.0  0.1107
  H  H157  1  0.344400  0.637500  0.171700  1.0  0.106
  H  H158  1  0.312100  0.684900  0.120100  1.0  0.094
  H  H159  1  0.499900  0.598500  0.234200  1.0  0.1217
  H  H160  1  0.506100  0.610100  0.187600  1.0  0.1188
  H  H161  1  0.453100  0.631100  0.213100  1.0  0.1104
  H  H162  1  0.342700  0.458700  0.148300  1.0  0.1281
  H  H163  1  0.293300  0.493900  0.162000  1.0  0.1426
  H  H164  1  0.330200  0.502700  0.122000  1.0  0.1337
  H  H165  1  0.603900  0.527300  0.214500  1.0  0.2754
  H  H166  1  0.600100  0.389300  0.040900  1.0  0.1062
  H  H167  1  0.577600  0.441400  0.089900  1.0  0.1105
  H  H168  1  0.655600  0.362500  0.171700  1.0  0.106
  H  H169  1  0.687900  0.315100  0.120100  1.0  0.094
  H  H170  1  0.500100  0.401500  0.234200  1.0  0.1214
  H  H171  1  0.493900  0.389900  0.187600  1.0  0.119
  H  H172  1  0.546900  0.368900  0.213100  1.0  0.1105
  H  H173  1  0.657300  0.541300  0.148300  1.0  0.1278
  H  H174  1  0.706700  0.506100  0.162000  1.0  0.1459
  H  H175  1  0.669800  0.497300  0.122000  1.0  0.1337
  H  H176  1  0.603900  0.027300  0.714500  1.0  0.2754
  H  H177  1  0.600100  0.889300  0.540900  1.0  0.1062
  H  H178  1  0.577600  0.941400  0.589900  1.0  0.1105
  H  H179  1  0.655600  0.862500  0.671700  1.0  0.106
  H  H180  1  0.687900  0.815100  0.620100  1.0  0.094
  H  H181  1  0.500100  0.901500  0.734200  1.0  0.1214
  H  H182  1  0.493900  0.889900  0.687600  1.0  0.119
  H  H183  1  0.546900  0.868900  0.713100  1.0  0.1105
  H  H184  1  0.657300  0.041300  0.648300  1.0  0.1278
  H  H185  1  0.706700  0.006100  0.662000  1.0  0.1459
  H  H186  1  0.669800  0.997300  0.622000  1.0  0.1337
  H  H187  1  0.103900  0.527300  0.714500  1.0  0.2754
  H  H188  1  0.100100  0.389300  0.540900  1.0  0.1062
  H  H189  1  0.077600  0.441400  0.589900  1.0  0.1105
  H  H190  1  0.155600  0.362500  0.671700  1.0  0.106
  H  H191  1  0.187900  0.315100  0.620100  1.0  0.094
  H  H192  1  0.000100  0.401500  0.734200  1.0  0.1214
  H  H193  1  0.993900  0.389900  0.687600  1.0  0.119
  H  H194  1  0.046900  0.368900  0.713100  1.0  0.1105
  H  H195  1  0.157300  0.541300  0.648300  1.0  0.1278
  H  H196  1  0.206700  0.506100  0.662000  1.0  0.1459
  H  H197  1  0.169800  0.497300  0.622000  1.0  0.1337
  H  H198  1  0.103900  0.027300  0.214500  1.0  0.2754
  H  H199  1  0.100100  0.889300  0.040900  1.0  0.1062
  H  H200  1  0.077600  0.941400  0.089900  1.0  0.1105
  H  H201  1  0.155600  0.862500  0.171700  1.0  0.106
  H  H202  1  0.187900  0.815100  0.120100  1.0  0.094
  H  H203  1  0.000100  0.901500  0.234200  1.0  0.1214
  H  H204  1  0.993900  0.889900  0.187600  1.0  0.119
  H  H205  1  0.046900  0.868900  0.213100  1.0  0.1105
  H  H206  1  0.157300  0.041300  0.148300  1.0  0.1278
  H  H207  1  0.206700  0.006100  0.162000  1.0  0.1459
  H  H208  1  0.169800  0.997300  0.122000  1.0  0.1337
  H  H209  1  0.637600  0.455200  0.978000  1.0  0.3061
  H  H210  1  0.381900  0.477400  0.465600  1.0  0.3216
  H  H211  1  0.533600  0.360500  0.801600  1.0  0.0948
  H  H212  1  0.560500  0.410100  0.850800  1.0  0.1089
  H  H213  1  0.717100  0.344100  0.863500  1.0  0.1035
  H  H214  1  0.688800  0.294400  0.811400  1.0  0.112
  H  H215  1  0.789900  0.457100  0.889400  1.0  0.1251
  H  H216  1  0.745100  0.475600  0.856200  1.0  0.1321
  H  H217  1  0.761100  0.423100  0.857800  1.0  0.127
  H  H218  1  0.554100  0.373800  0.923200  1.0  0.1128
  H  H219  1  0.539900  0.414700  0.952900  1.0  0.1269
  H  H220  1  0.579800  0.373600  0.967800  1.0  0.1231
  H  H221  1  0.472200  0.360400  0.638300  1.0  0.0883
  H  H222  1  0.451500  0.413800  0.588800  1.0  0.1032
  H  H223  1  0.297500  0.347200  0.563800  1.0  0.0929
  H  H224  1  0.316600  0.298100  0.614400  1.0  0.0946
  H  H225  1  0.229100  0.466200  0.553600  1.0  0.1292
  H  H226  1  0.257800  0.427800  0.580900  1.0  0.1242
  H  H227  1  0.224100  0.414500  0.540500  1.0  0.1187
  H  H228  1  0.469400  0.433000  0.473000  1.0  0.1326
  H  H229  1  0.468400  0.393800  0.505800  1.0  0.1233
  H  H230  1  0.484600  0.444200  0.518700  1.0  0.1251
  H  H231  1  0.637600  0.955200  0.478000  1.0  0.3061
  H  H232  1  0.381900  0.977400  0.965600  1.0  0.3216
  H  H233  1  0.533600  0.860500  0.301600  1.0  0.0948
  H  H234  1  0.560500  0.910100  0.350800  1.0  0.1089
  H  H235  1  0.717100  0.844100  0.363500  1.0  0.1035
  H  H236  1  0.688800  0.794400  0.311400  1.0  0.112
  H  H237  1  0.789900  0.957100  0.389400  1.0  0.1251
  H  H238  1  0.745100  0.975600  0.356200  1.0  0.1321
  H  H239  1  0.761100  0.923100  0.357800  1.0  0.127
  H  H240  1  0.554100  0.873800  0.423200  1.0  0.1128
  H  H241  1  0.539900  0.914700  0.452900  1.0  0.1269
  H  H242  1  0.579800  0.873600  0.467800  1.0  0.1231
  H  H243  1  0.472200  0.860400  0.138300  1.0  0.0883
  H  H244  1  0.451500  0.913800  0.088800  1.0  0.1032
  H  H245  1  0.297500  0.847200  0.063800  1.0  0.0929
  H  H246  1  0.316600  0.798100  0.114400  1.0  0.0946
  H  H247  1  0.229100  0.966200  0.053600  1.0  0.1292
  H  H248  1  0.257800  0.927800  0.080900  1.0  0.1242
  H  H249  1  0.224100  0.914500  0.040500  1.0  0.1187
  H  H250  1  0.469400  0.933000  0.973000  1.0  0.1326
  H  H251  1  0.468400  0.893800  0.005800  1.0  0.1233
  H  H252  1  0.484600  0.944200  0.018700  1.0  0.1251
  H  H253  1  0.137600  0.455200  0.478000  1.0  0.3061
  H  H254  1  0.881900  0.477400  0.965600  1.0  0.3216
  H  H255  1  0.033600  0.360500  0.301600  1.0  0.0948
  H  H256  1  0.060500  0.410100  0.350800  1.0  0.1089
  H  H257  1  0.217100  0.344100  0.363500  1.0  0.1035
  H  H258  1  0.188800  0.294400  0.311400  1.0  0.112
  H  H259  1  0.289900  0.457100  0.389400  1.0  0.1251
  H  H260  1  0.245100  0.475600  0.356200  1.0  0.1321
  H  H261  1  0.261100  0.423100  0.357800  1.0  0.127
  H  H262  1  0.054100  0.373800  0.423200  1.0  0.1128
  H  H263  1  0.039900  0.414700  0.452900  1.0  0.1269
  H  H264  1  0.079800  0.373600  0.467800  1.0  0.1231
  H  H265  1  0.972200  0.360400  0.138300  1.0  0.0883
  H  H266  1  0.951500  0.413800  0.088800  1.0  0.1032
  H  H267  1  0.797500  0.347200  0.063800  1.0  0.0929
  H  H268  1  0.816600  0.298100  0.114400  1.0  0.0946
  H  H269  1  0.729100  0.466200  0.053600  1.0  0.1292
  H  H270  1  0.757800  0.427800  0.080900  1.0  0.1242
  H  H271  1  0.724100  0.414500  0.040500  1.0  0.1187
  H  H272  1  0.969400  0.433000  0.973000  1.0  0.1326
  H  H273  1  0.968400  0.393800  0.005800  1.0  0.1233
  H  H274  1  0.984600  0.444200  0.018700  1.0  0.1251
  H  H275  1  0.137600  0.955200  0.978000  1.0  0.3061
  H  H276  1  0.881900  0.977400  0.465600  1.0  0.3216
  H  H277  1  0.033600  0.860500  0.801600  1.0  0.0948
  H  H278  1  0.060500  0.910100  0.850800  1.0  0.1089
  H  H279  1  0.217100  0.844100  0.863500  1.0  0.1035
  H  H280  1  0.188800  0.794400  0.811400  1.0  0.112
  H  H281  1  0.289900  0.957100  0.889400  1.0  0.1251
  H  H282  1  0.245100  0.975600  0.856200  1.0  0.1321
  H  H283  1  0.261100  0.923100  0.857800  1.0  0.127
  H  H284  1  0.054100  0.873800  0.923200  1.0  0.1128
  H  H285  1  0.039900  0.914700  0.952900  1.0  0.1269
  H  H286  1  0.079800  0.873600  0.967800  1.0  0.1231
  H  H287  1  0.972200  0.860400  0.638300  1.0  0.0883
  H  H288  1  0.951500  0.913800  0.588800  1.0  0.1032
  H  H289  1  0.797500  0.847200  0.563800  1.0  0.0929
  H  H290  1  0.816600  0.798100  0.614400  1.0  0.0946
  H  H291  1  0.729100  0.966200  0.553600  1.0  0.1292
  H  H292  1  0.757800  0.927800  0.580900  1.0  0.1242
  H  H293  1  0.724100  0.914500  0.540500  1.0  0.1187
  H  H294  1  0.969400  0.933000  0.473000  1.0  0.1326
  H  H295  1  0.968400  0.893800  0.505800  1.0  0.1233
  H  H296  1  0.984600  0.944200  0.518700  1.0  0.1251
  H  H297  1  0.612400  0.705200  0.228000  1.0  0.3054
  H  H298  1  0.868100  0.727400  0.715600  1.0  0.3216
  H  H299  1  0.716400  0.610500  0.051600  1.0  0.0951
  H  H300  1  0.689500  0.660100  0.100800  1.0  0.1087
  H  H301  1  0.532900  0.594100  0.113500  1.0  0.1034
  H  H302  1  0.561200  0.544400  0.061400  1.0  0.1111
  H  H303  1  0.460100  0.707100  0.139400  1.0  0.1246
  H  H304  1  0.504900  0.725600  0.106200  1.0  0.1318
  H  H305  1  0.488900  0.673100  0.107800  1.0  0.1264
  H  H306  1  0.695900  0.623800  0.173200  1.0  0.1122
  H  H307  1  0.710100  0.664700  0.202900  1.0  0.1265
  H  H308  1  0.670200  0.623600  0.217800  1.0  0.123
  H  H309  1  0.777800  0.610400  0.888300  1.0  0.0887
  H  H310  1  0.798500  0.663800  0.838800  1.0  0.1033
  H  H311  1  0.952500  0.597200  0.813800  1.0  0.0926
  H  H312  1  0.933400  0.548100  0.864400  1.0  0.0949
  H  H313  1  0.020900  0.716200  0.803600  1.0  0.1291
  H  H314  1  0.992200  0.677800  0.830900  1.0  0.124
  H  H315  1  0.025900  0.664500  0.790500  1.0  0.1187
  H  H316  1  0.780600  0.683000  0.723000  1.0  0.1316
  H  H317  1  0.781600  0.643800  0.755800  1.0  0.123
  H  H318  1  0.765400  0.694200  0.768700  1.0  0.1236
  H  H319  1  0.612400  0.205200  0.728000  1.0  0.3054
  H  H320  1  0.868100  0.227400  0.215600  1.0  0.3216
  H  H321  1  0.716400  0.110500  0.551600  1.0  0.0951
  H  H322  1  0.689500  0.160100  0.600800  1.0  0.1087
  H  H323  1  0.532900  0.094100  0.613500  1.0  0.1034
  H  H324  1  0.561200  0.044400  0.561400  1.0  0.1111
  H  H325  1  0.460100  0.207100  0.639400  1.0  0.1246
  H  H326  1  0.504900  0.225600  0.606200  1.0  0.1318
  H  H327  1  0.488900  0.173100  0.607800  1.0  0.1264
  H  H328  1  0.695900  0.123800  0.673200  1.0  0.1122
  H  H329  1  0.710100  0.164700  0.702900  1.0  0.1265
  H  H330  1  0.670200  0.123600  0.717800  1.0  0.123
  H  H331  1  0.777800  0.110400  0.388300  1.0  0.0887
  H  H332  1  0.798500  0.163800  0.338800  1.0  0.1033
  H  H333  1  0.952500  0.097200  0.313800  1.0  0.0926
  H  H334  1  0.933400  0.048100  0.364400  1.0  0.0949
  H  H335  1  0.020900  0.216200  0.303600  1.0  0.1291
  H  H336  1  0.992200  0.177800  0.330900  1.0  0.124
  H  H337  1  0.025900  0.164500  0.290500  1.0  0.1187
  H  H338  1  0.780600  0.183000  0.223000  1.0  0.1316
  H  H339  1  0.781600  0.143800  0.255800  1.0  0.123
  H  H340  1  0.765400  0.194200  0.268700  1.0  0.1236
  H  H341  1  0.112400  0.705200  0.728000  1.0  0.3054
  H  H342  1  0.368100  0.727400  0.215600  1.0  0.3216
  H  H343  1  0.216400  0.610500  0.551600  1.0  0.0951
  H  H344  1  0.189500  0.660100  0.600800  1.0  0.1087
  H  H345  1  0.032900  0.594100  0.613500  1.0  0.1034
  H  H346  1  0.061200  0.544400  0.561400  1.0  0.1111
  H  H347  1  0.960100  0.707100  0.639400  1.0  0.1246
  H  H348  1  0.004900  0.725600  0.606200  1.0  0.1318
  H  H349  1  0.988900  0.673100  0.607800  1.0  0.1264
  H  H350  1  0.195900  0.623800  0.673200  1.0  0.1122
  H  H351  1  0.210100  0.664700  0.702900  1.0  0.1265
  H  H352  1  0.170200  0.623600  0.717800  1.0  0.123
  H  H353  1  0.277800  0.610400  0.388300  1.0  0.0887
  H  H354  1  0.298500  0.663800  0.338800  1.0  0.1033
  H  H355  1  0.452500  0.597200  0.313800  1.0  0.0926
  H  H356  1  0.433400  0.548100  0.364400  1.0  0.0949
  H  H357  1  0.520900  0.716200  0.303600  1.0  0.1291
  H  H358  1  0.492200  0.677800  0.330900  1.0  0.124
  H  H359  1  0.525900  0.664500  0.290500  1.0  0.1187
  H  H360  1  0.280600  0.683000  0.223000  1.0  0.1316
  H  H361  1  0.281600  0.643800  0.255800  1.0  0.123
  H  H362  1  0.265400  0.694200  0.268700  1.0  0.1236
  H  H363  1  0.112400  0.205200  0.228000  1.0  0.3054
  H  H364  1  0.368100  0.227400  0.715600  1.0  0.3216
  H  H365  1  0.216400  0.110500  0.051600  1.0  0.0951
  H  H366  1  0.189500  0.160100  0.100800  1.0  0.1087
  H  H367  1  0.032900  0.094100  0.113500  1.0  0.1034
  H  H368  1  0.061200  0.044400  0.061400  1.0  0.1111
  H  H369  1  0.960100  0.207100  0.139400  1.0  0.1246
  H  H370  1  0.004900  0.225600  0.106200  1.0  0.1318
  H  H371  1  0.988900  0.173100  0.107800  1.0  0.1264
  H  H372  1  0.195900  0.123800  0.173200  1.0  0.1122
  H  H373  1  0.210100  0.164700  0.202900  1.0  0.1265
  H  H374  1  0.170200  0.123600  0.217800  1.0  0.123
  H  H375  1  0.277800  0.110400  0.888300  1.0  0.0887
  H  H376  1  0.298500  0.163800  0.838800  1.0  0.1033
  H  H377  1  0.452500  0.097200  0.813800  1.0  0.0926
  H  H378  1  0.433400  0.048100  0.864400  1.0  0.0949
  H  H379  1  0.520900  0.216200  0.803600  1.0  0.1291
  H  H380  1  0.492200  0.177800  0.830900  1.0  0.124
  H  H381  1  0.525900  0.164500  0.790500  1.0  0.1187
  H  H382  1  0.280600  0.183000  0.723000  1.0  0.1316
  H  H383  1  0.281600  0.143800  0.755800  1.0  0.123
  H  H384  1  0.265400  0.194200  0.768700  1.0  0.1236
  H  H385  1  0.870500  0.021800  0.793000  1.0  0.3149
  H  H386  1  0.780400  0.132600  0.619600  1.0  0.0876
  H  H387  1  0.806100  0.079100  0.667900  1.0  0.1252
  H  H388  1  0.953300  0.150800  0.695200  1.0  0.1208
  H  H389  1  0.929900  0.202100  0.643400  1.0  0.0884
  H  H390  1  0.037700  0.049200  0.723400  1.0  0.1417
  H  H391  1  0.018500  0.098600  0.709300  1.0  0.1299
  H  H392  1  0.003300  0.055900  0.682000  1.0  0.1325
  H  H393  1  0.781300  0.075900  0.785200  1.0  0.1245
  H  H394  1  0.767100  0.047800  0.745500  1.0  0.1419
  H  H395  1  0.778900  0.100800  0.742800  1.0  0.1382
  H  H396  1  0.870500  0.521800  0.293000  1.0  0.3149
  H  H397  1  0.780400  0.632600  0.119600  1.0  0.0876
  H  H398  1  0.806100  0.579100  0.167900  1.0  0.1252
  H  H399  1  0.953300  0.650800  0.195200  1.0  0.1208
  H  H400  1  0.929900  0.702100  0.143400  1.0  0.0884
  H  H401  1  0.037700  0.549200  0.223400  1.0  0.1417
  H  H402  1  0.018500  0.598600  0.209300  1.0  0.1299
  H  H403  1  0.003300  0.555900  0.182000  1.0  0.1325
  H  H404  1  0.781300  0.575900  0.285200  1.0  0.1245
  H  H405  1  0.767100  0.547800  0.245500  1.0  0.1419
  H  H406  1  0.778900  0.600800  0.242800  1.0  0.1382
  H  H407  1  0.370500  0.021800  0.293000  1.0  0.3149
  H  H408  1  0.280400  0.132600  0.119600  1.0  0.0876
  H  H409  1  0.306100  0.079100  0.167900  1.0  0.1252
  H  H410  1  0.453300  0.150800  0.195200  1.0  0.1208
  H  H411  1  0.429900  0.202100  0.143400  1.0  0.0884
  H  H412  1  0.537700  0.049200  0.223400  1.0  0.1417
  H  H413  1  0.518500  0.098600  0.209300  1.0  0.1299
  H  H414  1  0.503300  0.055900  0.182000  1.0  0.1325
  H  H415  1  0.281300  0.075900  0.285200  1.0  0.1245
  H  H416  1  0.267100  0.047800  0.245500  1.0  0.1419
  H  H417  1  0.278900  0.100800  0.242800  1.0  0.1382
  H  H418  1  0.370500  0.521800  0.793000  1.0  0.3149
  H  H419  1  0.280400  0.632600  0.619600  1.0  0.0876
  H  H420  1  0.306100  0.579100  0.667900  1.0  0.1252
  H  H421  1  0.453300  0.650800  0.695200  1.0  0.1208
  H  H422  1  0.429900  0.702100  0.643400  1.0  0.0884
  H  H423  1  0.537700  0.549200  0.723400  1.0  0.1417
  H  H424  1  0.518500  0.598600  0.709300  1.0  0.1299
  H  H425  1  0.503300  0.555900  0.682000  1.0  0.1325
  H  H426  1  0.281300  0.575900  0.785200  1.0  0.1245
  H  H427  1  0.267100  0.547800  0.745500  1.0  0.1419
  H  H428  1  0.278900  0.600800  0.742800  1.0  0.1382
  H  H429  1  0.129500  0.978200  0.793000  1.0  0.3163
  H  H430  1  0.219600  0.867400  0.619600  1.0  0.0877
  H  H431  1  0.193900  0.920900  0.667900  1.0  0.1254
  H  H432  1  0.046700  0.849200  0.695200  1.0  0.1215
  H  H433  1  0.070100  0.797900  0.643400  1.0  0.0885
  H  H434  1  0.962300  0.950800  0.723400  1.0  0.1409
  H  H435  1  0.981500  0.901400  0.709300  1.0  0.1297
  H  H436  1  0.996700  0.944100  0.682000  1.0  0.1332
  H  H437  1  0.218700  0.924100  0.785200  1.0  0.1234
  H  H438  1  0.232900  0.952200  0.745500  1.0  0.1412
  H  H439  1  0.221100  0.899200  0.742800  1.0  0.1381
  H  H440  1  0.129500  0.478200  0.293000  1.0  0.3163
  H  H441  1  0.219600  0.367400  0.119600  1.0  0.0877
  H  H442  1  0.193900  0.420900  0.167900  1.0  0.1254
  H  H443  1  0.046700  0.349200  0.195200  1.0  0.1215
  H  H444  1  0.070100  0.297900  0.143400  1.0  0.0885
  H  H445  1  0.962300  0.450800  0.223400  1.0  0.1409
  H  H446  1  0.981500  0.401400  0.209300  1.0  0.1297
  H  H447  1  0.996700  0.444100  0.182000  1.0  0.1332
  H  H448  1  0.218700  0.424100  0.285200  1.0  0.1234
  H  H449  1  0.232900  0.452200  0.245500  1.0  0.1412
  H  H450  1  0.221100  0.399200  0.242800  1.0  0.1381
  H  H451  1  0.629500  0.978200  0.293000  1.0  0.3163
  H  H452  1  0.719600  0.867400  0.119600  1.0  0.0877
  H  H453  1  0.693900  0.920900  0.167900  1.0  0.1254
  H  H454  1  0.546700  0.849200  0.195200  1.0  0.1215
  H  H455  1  0.570100  0.797900  0.143400  1.0  0.0885
  H  H456  1  0.462300  0.950800  0.223400  1.0  0.1409
  H  H457  1  0.481500  0.901400  0.209300  1.0  0.1297
  H  H458  1  0.496700  0.944100  0.182000  1.0  0.1332
  H  H459  1  0.718700  0.924100  0.285200  1.0  0.1234
  H  H460  1  0.732900  0.952200  0.245500  1.0  0.1412
  H  H461  1  0.721100  0.899200  0.242800  1.0  0.1381
  H  H462  1  0.629500  0.478200  0.793000  1.0  0.3163
  H  H463  1  0.719600  0.367400  0.619600  1.0  0.0877
  H  H464  1  0.693900  0.420900  0.667900  1.0  0.1254
  H  H465  1  0.546700  0.349200  0.695200  1.0  0.1215
  H  H466  1  0.570100  0.297900  0.643400  1.0  0.0885
  H  H467  1  0.462300  0.450800  0.723400  1.0  0.1409
  H  H468  1  0.481500  0.401400  0.709300  1.0  0.1297
  H  H469  1  0.496700  0.444100  0.682000  1.0  0.1332
  H  H470  1  0.718700  0.424100  0.785200  1.0  0.1234
  H  H471  1  0.732900  0.452200  0.745500  1.0  0.1412
  H  H472  1  0.721100  0.399200  0.742800  1.0  0.1381
  H  H473  1  0.120500  0.228200  0.043000  1.0  0.3149
  H  H474  1  0.030400  0.117400  0.869600  1.0  0.0881
  H  H475  1  0.056100  0.170900  0.917900  1.0  0.1254
  H  H476  1  0.203300  0.099200  0.945200  1.0  0.1209
  H  H477  1  0.179900  0.047900  0.893400  1.0  0.0886
  H  H478  1  0.287700  0.200800  0.973400  1.0  0.1419
  H  H479  1  0.268500  0.151400  0.959300  1.0  0.1306
  H  H480  1  0.253300  0.194100  0.932000  1.0  0.1326
  H  H481  1  0.031300  0.174100  0.035200  1.0  0.1237
  H  H482  1  0.017100  0.202200  0.995500  1.0  0.1413
  H  H483  1  0.028900  0.149200  0.992800  1.0  0.1383
  H  H484  1  0.120500  0.728200  0.543000  1.0  0.3149
  H  H485  1  0.030400  0.617400  0.369600  1.0  0.0881
  H  H486  1  0.056100  0.670900  0.417900  1.0  0.1254
  H  H487  1  0.203300  0.599200  0.445200  1.0  0.1209
  H  H488  1  0.179900  0.547900  0.393400  1.0  0.0886
  H  H489  1  0.287700  0.700800  0.473400  1.0  0.1419
  H  H490  1  0.268500  0.651400  0.459300  1.0  0.1306
  H  H491  1  0.253300  0.694100  0.432000  1.0  0.1326
  H  H492  1  0.031300  0.674100  0.535200  1.0  0.1237
  H  H493  1  0.017100  0.702200  0.495500  1.0  0.1413
  H  H494  1  0.028900  0.649200  0.492800  1.0  0.1383
  H  H495  1  0.620500  0.228200  0.543000  1.0  0.3149
  H  H496  1  0.530400  0.117400  0.369600  1.0  0.0881
  H  H497  1  0.556100  0.170900  0.417900  1.0  0.1254
  H  H498  1  0.703300  0.099200  0.445200  1.0  0.1209
  H  H499  1  0.679900  0.047900  0.393400  1.0  0.0886
  H  H500  1  0.787700  0.200800  0.473400  1.0  0.1419
  H  H501  1  0.768500  0.151400  0.459300  1.0  0.1306
  H  H502  1  0.753300  0.194100  0.432000  1.0  0.1326
  H  H503  1  0.531300  0.174100  0.535200  1.0  0.1237
  H  H504  1  0.517100  0.202200  0.495500  1.0  0.1413
  H  H505  1  0.528900  0.149200  0.492800  1.0  0.1383
  H  H506  1  0.620500  0.728200  0.043000  1.0  0.3149
  H  H507  1  0.530400  0.617400  0.869600  1.0  0.0881
  H  H508  1  0.556100  0.670900  0.917900  1.0  0.1254
  H  H509  1  0.703300  0.599200  0.945200  1.0  0.1209
  H  H510  1  0.679900  0.547900  0.893400  1.0  0.0886
  H  H511  1  0.787700  0.700800  0.973400  1.0  0.1419
  H  H512  1  0.768500  0.651400  0.959300  1.0  0.1306
  H  H513  1  0.753300  0.694100  0.932000  1.0  0.1326
  H  H514  1  0.531300  0.674100  0.035200  1.0  0.1237
  H  H515  1  0.517100  0.702200  0.995500  1.0  0.1413
  H  H516  1  0.528900  0.649200  0.992800  1.0  0.1383
  H  H517  1  0.379500  0.271800  0.043000  1.0  0.3162
  H  H518  1  0.469600  0.382600  0.869600  1.0  0.0876
  H  H519  1  0.443900  0.329100  0.917900  1.0  0.1255
  H  H520  1  0.296700  0.400800  0.945200  1.0  0.1216
  H  H521  1  0.320100  0.452100  0.893400  1.0  0.0887
  H  H522  1  0.212300  0.299200  0.973400  1.0  0.1409
  H  H523  1  0.231500  0.348600  0.959300  1.0  0.1303
  H  H524  1  0.246700  0.305900  0.932000  1.0  0.1335
  H  H525  1  0.468700  0.325900  0.035200  1.0  0.1243
  H  H526  1  0.482900  0.297800  0.995500  1.0  0.1421
  H  H527  1  0.471100  0.350800  0.992800  1.0  0.1379
  H  H528  1  0.379500  0.771800  0.543000  1.0  0.3162
  H  H529  1  0.469600  0.882600  0.369600  1.0  0.0876
  H  H530  1  0.443900  0.829100  0.417900  1.0  0.1255
  H  H531  1  0.296700  0.900800  0.445200  1.0  0.1216
  H  H532  1  0.320100  0.952100  0.393400  1.0  0.0887
  H  H533  1  0.212300  0.799200  0.473400  1.0  0.1409
  H  H534  1  0.231500  0.848600  0.459300  1.0  0.1303
  H  H535  1  0.246700  0.805900  0.432000  1.0  0.1335
  H  H536  1  0.468700  0.825900  0.535200  1.0  0.1243
  H  H537  1  0.482900  0.797800  0.495500  1.0  0.1421
  H  H538  1  0.471100  0.850800  0.492800  1.0  0.1379
  H  H539  1  0.879500  0.271800  0.543000  1.0  0.3162
  H  H540  1  0.969600  0.382600  0.369600  1.0  0.0876
  H  H541  1  0.943900  0.329100  0.417900  1.0  0.1255
  H  H542  1  0.796700  0.400800  0.445200  1.0  0.1216
  H  H543  1  0.820100  0.452100  0.393400  1.0  0.0887
  H  H544  1  0.712300  0.299200  0.473400  1.0  0.1409
  H  H545  1  0.731500  0.348600  0.459300  1.0  0.1303
  H  H546  1  0.746700  0.305900  0.432000  1.0  0.1335
  H  H547  1  0.968700  0.325900  0.535200  1.0  0.1243
  H  H548  1  0.982900  0.297800  0.495500  1.0  0.1421
  H  H549  1  0.971100  0.350800  0.492800  1.0  0.1379
  H  H550  1  0.879500  0.771800  0.043000  1.0  0.3162
  H  H551  1  0.969600  0.882600  0.869600  1.0  0.0876
  H  H552  1  0.943900  0.829100  0.917900  1.0  0.1255
  H  H553  1  0.796700  0.900800  0.945200  1.0  0.1216
  H  H554  1  0.820100  0.952100  0.893400  1.0  0.0887
  H  H555  1  0.712300  0.799200  0.973400  1.0  0.1409
  H  H556  1  0.731500  0.848600  0.959300  1.0  0.1303
  H  H557  1  0.746700  0.805900  0.932000  1.0  0.1335
  H  H558  1  0.968700  0.825900  0.035200  1.0  0.1243
  H  H559  1  0.982900  0.797800  0.995500  1.0  0.1421
  H  H560  1  0.971100  0.850800  0.992800  1.0  0.1379
  H  H561  1  0.362400  0.544800  0.978000  1.0  0.3055
  H  H562  1  0.618100  0.522600  0.465600  1.0  0.322
  H  H563  1  0.466400  0.639500  0.801600  1.0  0.0951
  H  H564  1  0.439500  0.589900  0.850800  1.0  0.1085
  H  H565  1  0.282900  0.655900  0.863500  1.0  0.1034
  H  H566  1  0.311200  0.705600  0.811400  1.0  0.1116
  H  H567  1  0.210100  0.542900  0.889400  1.0  0.1244
  H  H568  1  0.254900  0.524400  0.856200  1.0  0.132
  H  H569  1  0.238900  0.576900  0.857800  1.0  0.1258
  H  H570  1  0.445900  0.626200  0.923200  1.0  0.1121
  H  H571  1  0.460100  0.585300  0.952900  1.0  0.1268
  H  H572  1  0.420200  0.626400  0.967800  1.0  0.1233
  H  H573  1  0.527800  0.639600  0.638300  1.0  0.0885
  H  H574  1  0.548500  0.586200  0.588800  1.0  0.103
  H  H575  1  0.702500  0.652800  0.563800  1.0  0.0928
  H  H576  1  0.683400  0.701900  0.614400  1.0  0.0948
  H  H577  1  0.770900  0.533800  0.553600  1.0  0.1294
  H  H578  1  0.742200  0.572200  0.580900  1.0  0.1239
  H  H579  1  0.775900  0.585500  0.540500  1.0  0.1179
  H  H580  1  0.530600  0.567000  0.473000  1.0  0.1321
  H  H581  1  0.531600  0.606200  0.505800  1.0  0.1264
  H  H582  1  0.515400  0.555800  0.518700  1.0  0.1237
  H  H583  1  0.362400  0.044800  0.478000  1.0  0.3055
  H  H584  1  0.618100  0.022600  0.965600  1.0  0.322
  H  H585  1  0.466400  0.139500  0.301600  1.0  0.0951
  H  H586  1  0.439500  0.089900  0.350800  1.0  0.1085
  H  H587  1  0.282900  0.155900  0.363500  1.0  0.1034
  H  H588  1  0.311200  0.205600  0.311400  1.0  0.1116
  H  H589  1  0.210100  0.042900  0.389400  1.0  0.1244
  H  H590  1  0.254900  0.024400  0.356200  1.0  0.132
  H  H591  1  0.238900  0.076900  0.357800  1.0  0.1258
  H  H592  1  0.445900  0.126200  0.423200  1.0  0.1121
  H  H593  1  0.460100  0.085300  0.452900  1.0  0.1268
  H  H594  1  0.420200  0.126400  0.467800  1.0  0.1233
  H  H595  1  0.527800  0.139600  0.138300  1.0  0.0885
  H  H596  1  0.548500  0.086200  0.088800  1.0  0.103
  H  H597  1  0.702500  0.152800  0.063800  1.0  0.0928
  H  H598  1  0.683400  0.201900  0.114400  1.0  0.0948
  H  H599  1  0.770900  0.033800  0.053600  1.0  0.1294
  H  H600  1  0.742200  0.072200  0.080900  1.0  0.1239
  H  H601  1  0.775900  0.085500  0.040500  1.0  0.1179
  H  H602  1  0.530600  0.067000  0.973000  1.0  0.1321
  H  H603  1  0.531600  0.106200  0.005800  1.0  0.1264
  H  H604  1  0.515400  0.055800  0.018700  1.0  0.1237
  H  H605  1  0.862400  0.544800  0.478000  1.0  0.3055
  H  H606  1  0.118100  0.522600  0.965600  1.0  0.322
  H  H607  1  0.966400  0.639500  0.301600  1.0  0.0951
  H  H608  1  0.939500  0.589900  0.350800  1.0  0.1085
  H  H609  1  0.782900  0.655900  0.363500  1.0  0.1034
  H  H610  1  0.811200  0.705600  0.311400  1.0  0.1116
  H  H611  1  0.710100  0.542900  0.389400  1.0  0.1244
  H  H612  1  0.754900  0.524400  0.356200  1.0  0.132
  H  H613  1  0.738900  0.576900  0.357800  1.0  0.1258
  H  H614  1  0.945900  0.626200  0.423200  1.0  0.1121
  H  H615  1  0.960100  0.585300  0.452900  1.0  0.1268
  H  H616  1  0.920200  0.626400  0.467800  1.0  0.1233
  H  H617  1  0.027800  0.639600  0.138300  1.0  0.0885
  H  H618  1  0.048500  0.586200  0.088800  1.0  0.103
  H  H619  1  0.202500  0.652800  0.063800  1.0  0.0928
  H  H620  1  0.183400  0.701900  0.114400  1.0  0.0948
  H  H621  1  0.270900  0.533800  0.053600  1.0  0.1294
  H  H622  1  0.242200  0.572200  0.080900  1.0  0.1239
  H  H623  1  0.275900  0.585500  0.040500  1.0  0.1179
  H  H624  1  0.030600  0.567000  0.973000  1.0  0.1321
  H  H625  1  0.031600  0.606200  0.005800  1.0  0.1264
  H  H626  1  0.015400  0.555800  0.018700  1.0  0.1237
  H  H627  1  0.862400  0.044800  0.978000  1.0  0.3055
  H  H628  1  0.118100  0.022600  0.465600  1.0  0.322
  H  H629  1  0.966400  0.139500  0.801600  1.0  0.0951
  H  H630  1  0.939500  0.089900  0.850800  1.0  0.1085
  H  H631  1  0.782900  0.155900  0.863500  1.0  0.1034
  H  H632  1  0.811200  0.205600  0.811400  1.0  0.1116
  H  H633  1  0.710100  0.042900  0.889400  1.0  0.1244
  H  H634  1  0.754900  0.024400  0.856200  1.0  0.132
  H  H635  1  0.738900  0.076900  0.857800  1.0  0.1258
  H  H636  1  0.945900  0.126200  0.923200  1.0  0.1121
  H  H637  1  0.960100  0.085300  0.952900  1.0  0.1268
  H  H638  1  0.920200  0.126400  0.967800  1.0  0.1233
  H  H639  1  0.027800  0.139600  0.638300  1.0  0.0885
  H  H640  1  0.048500  0.086200  0.588800  1.0  0.103
  H  H641  1  0.202500  0.152800  0.563800  1.0  0.0928
  H  H642  1  0.183400  0.201900  0.614400  1.0  0.0948
  H  H643  1  0.270900  0.033800  0.553600  1.0  0.1294
  H  H644  1  0.242200  0.072200  0.580900  1.0  0.1239
  H  H645  1  0.275900  0.085500  0.540500  1.0  0.1179
  H  H646  1  0.030600  0.067000  0.473000  1.0  0.1321
  H  H647  1  0.031600  0.106200  0.505800  1.0  0.1264
  H  H648  1  0.015400  0.055800  0.518700  1.0  0.1237
  H  H649  1  0.887600  0.794800  0.228000  1.0  0.3065
  H  H650  1  0.631900  0.772600  0.715600  1.0  0.3214
  H  H651  1  0.783600  0.889500  0.051600  1.0  0.095
  H  H652  1  0.810500  0.839900  0.100800  1.0  0.1084
  H  H653  1  0.967100  0.905900  0.113500  1.0  0.1033
  H  H654  1  0.938800  0.955600  0.061400  1.0  0.112
  H  H655  1  0.039900  0.792900  0.139400  1.0  0.1251
  H  H656  1  0.995100  0.774400  0.106200  1.0  0.1319
  H  H657  1  0.011100  0.826900  0.107800  1.0  0.1266
  H  H658  1  0.804100  0.876200  0.173200  1.0  0.1128
  H  H659  1  0.789900  0.835300  0.202900  1.0  0.1272
  H  H660  1  0.829800  0.876400  0.217800  1.0  0.1233
  H  H661  1  0.722200  0.889600  0.888300  1.0  0.0883
  H  H662  1  0.701500  0.836200  0.838800  1.0  0.1034
  H  H663  1  0.547500  0.902800  0.813800  1.0  0.0935
  H  H664  1  0.566600  0.951900  0.864400  1.0  0.0947
  H  H665  1  0.479100  0.783800  0.803600  1.0  0.1294
  H  H666  1  0.507800  0.822200  0.830900  1.0  0.1242
  H  H667  1  0.474100  0.835500  0.790500  1.0  0.1183
  H  H668  1  0.719400  0.817000  0.723000  1.0  0.133
  H  H669  1  0.718400  0.856200  0.755800  1.0  0.1259
  H  H670  1  0.734600  0.805800  0.768700  1.0  0.1249
  H  H671  1  0.887600  0.294800  0.728000  1.0  0.3065
  H  H672  1  0.631900  0.272600  0.215600  1.0  0.3214
  H  H673  1  0.783600  0.389500  0.551600  1.0  0.095
  H  H674  1  0.810500  0.339900  0.600800  1.0  0.1084
  H  H675  1  0.967100  0.405900  0.613500  1.0  0.1033
  H  H676  1  0.938800  0.455600  0.561400  1.0  0.112
  H  H677  1  0.039900  0.292900  0.639400  1.0  0.1251
  H  H678  1  0.995100  0.274400  0.606200  1.0  0.1319
  H  H679  1  0.011100  0.326900  0.607800  1.0  0.1266
  H  H680  1  0.804100  0.376200  0.673200  1.0  0.1128
  H  H681  1  0.789900  0.335300  0.702900  1.0  0.1272
  H  H682  1  0.829800  0.376400  0.717800  1.0  0.1233
  H  H683  1  0.722200  0.389600  0.388300  1.0  0.0883
  H  H684  1  0.701500  0.336200  0.338800  1.0  0.1034
  H  H685  1  0.547500  0.402800  0.313800  1.0  0.0935
  H  H686  1  0.566600  0.451900  0.364400  1.0  0.0947
  H  H687  1  0.479100  0.283800  0.303600  1.0  0.1294
  H  H688  1  0.507800  0.322200  0.330900  1.0  0.1242
  H  H689  1  0.474100  0.335500  0.290500  1.0  0.1183
  H  H690  1  0.719400  0.317000  0.223000  1.0  0.133
  H  H691  1  0.718400  0.356200  0.255800  1.0  0.1259
  H  H692  1  0.734600  0.305800  0.268700  1.0  0.1249
  H  H693  1  0.387600  0.794800  0.728000  1.0  0.3065
  H  H694  1  0.131900  0.772600  0.215600  1.0  0.3214
  H  H695  1  0.283600  0.889500  0.551600  1.0  0.095
  H  H696  1  0.310500  0.839900  0.600800  1.0  0.1084
  H  H697  1  0.467100  0.905900  0.613500  1.0  0.1033
  H  H698  1  0.438800  0.955600  0.561400  1.0  0.112
  H  H699  1  0.539900  0.792900  0.639400  1.0  0.1251
  H  H700  1  0.495100  0.774400  0.606200  1.0  0.1319
  H  H701  1  0.511100  0.826900  0.607800  1.0  0.1266
  H  H702  1  0.304100  0.876200  0.673200  1.0  0.1128
  H  H703  1  0.289900  0.835300  0.702900  1.0  0.1272
  H  H704  1  0.329800  0.876400  0.717800  1.0  0.1233
  H  H705  1  0.222200  0.889600  0.388300  1.0  0.0883
  H  H706  1  0.201500  0.836200  0.338800  1.0  0.1034
  H  H707  1  0.047500  0.902800  0.313800  1.0  0.0935
  H  H708  1  0.066600  0.951900  0.364400  1.0  0.0947
  H  H709  1  0.979100  0.783800  0.303600  1.0  0.1294
  H  H710  1  0.007800  0.822200  0.330900  1.0  0.1242
  H  H711  1  0.974100  0.835500  0.290500  1.0  0.1183
  H  H712  1  0.219400  0.817000  0.223000  1.0  0.133
  H  H713  1  0.218400  0.856200  0.255800  1.0  0.1259
  H  H714  1  0.234600  0.805800  0.268700  1.0  0.1249
  H  H715  1  0.387600  0.294800  0.228000  1.0  0.3065
  H  H716  1  0.131900  0.272600  0.715600  1.0  0.3214
  H  H717  1  0.283600  0.389500  0.051600  1.0  0.095
  H  H718  1  0.310500  0.339900  0.100800  1.0  0.1084
  H  H719  1  0.467100  0.405900  0.113500  1.0  0.1033
  H  H720  1  0.438800  0.455600  0.061400  1.0  0.112
  H  H721  1  0.539900  0.292900  0.139400  1.0  0.1251
  H  H722  1  0.495100  0.274400  0.106200  1.0  0.1319
  H  H723  1  0.511100  0.326900  0.107800  1.0  0.1266
  H  H724  1  0.304100  0.376200  0.173200  1.0  0.1128
  H  H725  1  0.289900  0.335300  0.202900  1.0  0.1272
  H  H726  1  0.329800  0.376400  0.217800  1.0  0.1233
  H  H727  1  0.222200  0.389600  0.888300  1.0  0.0883
  H  H728  1  0.201500  0.336200  0.838800  1.0  0.1034
  H  H729  1  0.047500  0.402800  0.813800  1.0  0.0935
  H  H730  1  0.066600  0.451900  0.864400  1.0  0.0947
  H  H731  1  0.979100  0.283800  0.803600  1.0  0.1294
  H  H732  1  0.007800  0.322200  0.830900  1.0  0.1242
  H  H733  1  0.974100  0.335500  0.790500  1.0  0.1183
  H  H734  1  0.219400  0.317000  0.723000  1.0  0.133
  H  H735  1  0.218400  0.356200  0.755800  1.0  0.1259
  H  H736  1  0.234600  0.305800  0.768700  1.0  0.1249
  C  C737  1  0.582700  0.066900  0.791300  1.0  0.6794
  C  C738  1  0.602600  0.097200  0.826100  1.0  -0.0857
  C  C739  1  0.636500  0.134500  0.817500  1.0  -0.0924
  C  C740  1  0.651300  0.164900  0.846900  1.0  -0.1251
  C  C741  1  0.635800  0.157600  0.886300  1.0  0.0437
  C  C742  1  0.604300  0.119400  0.894800  1.0  -0.1464
  C  C743  1  0.586300  0.090300  0.863900  1.0  -0.0888
  C  C744  1  0.650100  0.190600  0.919300  1.0  -0.1111
  C  C745  1  0.691100  0.184700  0.949400  1.0  0.2056
  C  C746  1  0.628100  0.233400  0.923400  1.0  0.18
  C  C747  1  0.728200  0.145400  0.959400  1.0  -0.3823
  C  C748  1  0.581900  0.259300  0.899200  1.0  -0.3619
  C  C749  1  0.582700  0.566900  0.291300  1.0  0.6794
  C  C750  1  0.602600  0.597200  0.326100  1.0  -0.0857
  C  C751  1  0.636500  0.634500  0.317500  1.0  -0.0924
  C  C752  1  0.651300  0.664900  0.346900  1.0  -0.1251
  C  C753  1  0.635800  0.657600  0.386300  1.0  0.0437
  C  C754  1  0.604300  0.619400  0.394800  1.0  -0.1464
  C  C755  1  0.586300  0.590300  0.363900  1.0  -0.0888
  C  C756  1  0.650100  0.690600  0.419300  1.0  -0.1111
  C  C757  1  0.691100  0.684700  0.449400  1.0  0.2056
  C  C758  1  0.628100  0.733400  0.423400  1.0  0.18
  C  C759  1  0.728200  0.645400  0.459400  1.0  -0.3823
  C  C760  1  0.581900  0.759300  0.399200  1.0  -0.3619
  C  C761  1  0.082700  0.066900  0.291300  1.0  0.6794
  C  C762  1  0.102600  0.097200  0.326100  1.0  -0.0857
  C  C763  1  0.136500  0.134500  0.317500  1.0  -0.0924
  C  C764  1  0.151300  0.164900  0.346900  1.0  -0.1251
  C  C765  1  0.135800  0.157600  0.386300  1.0  0.0437
  C  C766  1  0.104300  0.119400  0.394800  1.0  -0.1464
  C  C767  1  0.086300  0.090300  0.363900  1.0  -0.0888
  C  C768  1  0.150100  0.190600  0.419300  1.0  -0.1111
  C  C769  1  0.191100  0.184700  0.449400  1.0  0.2056
  C  C770  1  0.128100  0.233400  0.423400  1.0  0.18
  C  C771  1  0.228200  0.145400  0.459400  1.0  -0.3823
  C  C772  1  0.081900  0.259300  0.399200  1.0  -0.3619
  C  C773  1  0.082700  0.566900  0.791300  1.0  0.6794
  C  C774  1  0.102600  0.597200  0.826100  1.0  -0.0857
  C  C775  1  0.136500  0.634500  0.817500  1.0  -0.0924
  C  C776  1  0.151300  0.664900  0.846900  1.0  -0.1251
  C  C777  1  0.135800  0.657600  0.886300  1.0  0.0437
  C  C778  1  0.104300  0.619400  0.894800  1.0  -0.1464
  C  C779  1  0.086300  0.590300  0.863900  1.0  -0.0888
  C  C780  1  0.150100  0.690600  0.919300  1.0  -0.1111
  C  C781  1  0.191100  0.684700  0.949400  1.0  0.2056
  C  C782  1  0.128100  0.733400  0.923400  1.0  0.18
  C  C783  1  0.228200  0.645400  0.959400  1.0  -0.3823
  C  C784  1  0.081900  0.759300  0.899200  1.0  -0.3619
  C  C785  1  0.417300  0.933100  0.791300  1.0  0.679
  C  C786  1  0.397400  0.902800  0.826100  1.0  -0.0851
  C  C787  1  0.363500  0.865500  0.817500  1.0  -0.0904
  C  C788  1  0.348700  0.835100  0.846900  1.0  -0.1233
  C  C789  1  0.364200  0.842400  0.886300  1.0  0.0439
  C  C790  1  0.395700  0.880600  0.894800  1.0  -0.1467
  C  C791  1  0.413700  0.909700  0.863900  1.0  -0.0894
  C  C792  1  0.349900  0.809400  0.919300  1.0  -0.1095
  C  C793  1  0.308900  0.815300  0.949400  1.0  0.2057
  C  C794  1  0.371900  0.766600  0.923400  1.0  0.1791
  C  C795  1  0.271800  0.854600  0.959400  1.0  -0.3829
  C  C796  1  0.418100  0.740700  0.899200  1.0  -0.3628
  C  C797  1  0.417300  0.433100  0.291300  1.0  0.679
  C  C798  1  0.397400  0.402800  0.326100  1.0  -0.0851
  C  C799  1  0.363500  0.365500  0.317500  1.0  -0.0904
  C  C800  1  0.348700  0.335100  0.346900  1.0  -0.1233
  C  C801  1  0.364200  0.342400  0.386300  1.0  0.0439
  C  C802  1  0.395700  0.380600  0.394800  1.0  -0.1467
  C  C803  1  0.413700  0.409700  0.363900  1.0  -0.0894
  C  C804  1  0.349900  0.309400  0.419300  1.0  -0.1095
  C  C805  1  0.308900  0.315300  0.449400  1.0  0.2057
  C  C806  1  0.371900  0.266600  0.423400  1.0  0.1791
  C  C807  1  0.271800  0.354600  0.459400  1.0  -0.3829
  C  C808  1  0.418100  0.240700  0.399200  1.0  -0.3628
  C  C809  1  0.917300  0.933100  0.291300  1.0  0.679
  C  C810  1  0.897400  0.902800  0.326100  1.0  -0.0851
  C  C811  1  0.863500  0.865500  0.317500  1.0  -0.0904
  C  C812  1  0.848700  0.835100  0.346900  1.0  -0.1233
  C  C813  1  0.864200  0.842400  0.386300  1.0  0.0439
  C  C814  1  0.895700  0.880600  0.394800  1.0  -0.1467
  C  C815  1  0.913700  0.909700  0.363900  1.0  -0.0894
  C  C816  1  0.849900  0.809400  0.419300  1.0  -0.1095
  C  C817  1  0.808900  0.815300  0.449400  1.0  0.2057
  C  C818  1  0.871900  0.766600  0.423400  1.0  0.1791
  C  C819  1  0.771800  0.854600  0.459400  1.0  -0.3829
  C  C820  1  0.918100  0.740700  0.399200  1.0  -0.3628
  C  C821  1  0.917300  0.433100  0.791300  1.0  0.679
  C  C822  1  0.897400  0.402800  0.826100  1.0  -0.0851
  C  C823  1  0.863500  0.365500  0.817500  1.0  -0.0904
  C  C824  1  0.848700  0.335100  0.846900  1.0  -0.1233
  C  C825  1  0.864200  0.342400  0.886300  1.0  0.0439
  C  C826  1  0.895700  0.380600  0.894800  1.0  -0.1467
  C  C827  1  0.913700  0.409700  0.863900  1.0  -0.0894
  C  C828  1  0.849900  0.309400  0.919300  1.0  -0.1095
  C  C829  1  0.808900  0.315300  0.949400  1.0  0.2057
  C  C830  1  0.871900  0.266600  0.923400  1.0  0.1791
  C  C831  1  0.771800  0.354600  0.959400  1.0  -0.3829
  C  C832  1  0.918100  0.240700  0.899200  1.0  -0.3628
  C  C833  1  0.832700  0.183100  0.041300  1.0  0.6788
  C  C834  1  0.852600  0.152800  0.076100  1.0  -0.0849
  C  C835  1  0.886500  0.115500  0.067500  1.0  -0.0925
  C  C836  1  0.901300  0.085100  0.096900  1.0  -0.1234
  C  C837  1  0.885800  0.092400  0.136300  1.0  0.0438
  C  C838  1  0.854300  0.130600  0.144800  1.0  -0.1462
  C  C839  1  0.836300  0.159700  0.113900  1.0  -0.0901
  C  C840  1  0.900100  0.059400  0.169300  1.0  -0.1102
  C  C841  1  0.941100  0.065300  0.199400  1.0  0.2059
  C  C842  1  0.878100  0.016600  0.173400  1.0  0.1799
  C  C843  1  0.978200  0.104600  0.209400  1.0  -0.3827
  C  C844  1  0.831900  0.990700  0.149200  1.0  -0.362
  C  C845  1  0.832700  0.683100  0.541300  1.0  0.6788
  C  C846  1  0.852600  0.652800  0.576100  1.0  -0.0849
  C  C847  1  0.886500  0.615500  0.567500  1.0  -0.0925
  C  C848  1  0.901300  0.585100  0.596900  1.0  -0.1234
  C  C849  1  0.885800  0.592400  0.636300  1.0  0.0438
  C  C850  1  0.854300  0.630600  0.644800  1.0  -0.1462
  C  C851  1  0.836300  0.659700  0.613900  1.0  -0.0901
  C  C852  1  0.900100  0.559400  0.669300  1.0  -0.1102
  C  C853  1  0.941100  0.565300  0.699400  1.0  0.2059
  C  C854  1  0.878100  0.516600  0.673400  1.0  0.1799
  C  C855  1  0.978200  0.604600  0.709400  1.0  -0.3827
  C  C856  1  0.831900  0.490700  0.649200  1.0  -0.362
  C  C857  1  0.332700  0.183100  0.541300  1.0  0.6788
  C  C858  1  0.352600  0.152800  0.576100  1.0  -0.0849
  C  C859  1  0.386500  0.115500  0.567500  1.0  -0.0925
  C  C860  1  0.401300  0.085100  0.596900  1.0  -0.1234
  C  C861  1  0.385800  0.092400  0.636300  1.0  0.0438
  C  C862  1  0.354300  0.130600  0.644800  1.0  -0.1462
  C  C863  1  0.336300  0.159700  0.613900  1.0  -0.0901
  C  C864  1  0.400100  0.059400  0.669300  1.0  -0.1102
  C  C865  1  0.441100  0.065300  0.699400  1.0  0.2059
  C  C866  1  0.378100  0.016600  0.673400  1.0  0.1799
  C  C867  1  0.478200  0.104600  0.709400  1.0  -0.3827
  C  C868  1  0.331900  0.990700  0.649200  1.0  -0.362
  C  C869  1  0.332700  0.683100  0.041300  1.0  0.6788
  C  C870  1  0.352600  0.652800  0.076100  1.0  -0.0849
  C  C871  1  0.386500  0.615500  0.067500  1.0  -0.0925
  C  C872  1  0.401300  0.585100  0.096900  1.0  -0.1234
  C  C873  1  0.385800  0.592400  0.136300  1.0  0.0438
  C  C874  1  0.354300  0.630600  0.144800  1.0  -0.1462
  C  C875  1  0.336300  0.659700  0.113900  1.0  -0.0901
  C  C876  1  0.400100  0.559400  0.169300  1.0  -0.1102
  C  C877  1  0.441100  0.565300  0.199400  1.0  0.2059
  C  C878  1  0.378100  0.516600  0.173400  1.0  0.1799
  C  C879  1  0.478200  0.604600  0.209400  1.0  -0.3827
  C  C880  1  0.331900  0.490700  0.149200  1.0  -0.362
  C  C881  1  0.667300  0.316900  0.041300  1.0  0.6793
  C  C882  1  0.647400  0.347200  0.076100  1.0  -0.0858
  C  C883  1  0.613500  0.384500  0.067500  1.0  -0.0904
  C  C884  1  0.598700  0.414900  0.096900  1.0  -0.1248
  C  C885  1  0.614200  0.407600  0.136300  1.0  0.0438
  C  C886  1  0.645700  0.369400  0.144800  1.0  -0.1468
  C  C887  1  0.663700  0.340300  0.113900  1.0  -0.0887
  C  C888  1  0.599900  0.440600  0.169300  1.0  -0.1106
  C  C889  1  0.558900  0.434700  0.199400  1.0  0.2055
  C  C890  1  0.621900  0.483400  0.173400  1.0  0.1793
  C  C891  1  0.521800  0.395400  0.209400  1.0  -0.3827
  C  C892  1  0.668100  0.509300  0.149200  1.0  -0.3627
  C  C893  1  0.667300  0.816900  0.541300  1.0  0.6793
  C  C894  1  0.647400  0.847200  0.576100  1.0  -0.0858
  C  C895  1  0.613500  0.884500  0.567500  1.0  -0.0904
  C  C896  1  0.598700  0.914900  0.596900  1.0  -0.1248
  C  C897  1  0.614200  0.907600  0.636300  1.0  0.0438
  C  C898  1  0.645700  0.869400  0.644800  1.0  -0.1468
  C  C899  1  0.663700  0.840300  0.613900  1.0  -0.0887
  C  C900  1  0.599900  0.940600  0.669300  1.0  -0.1106
  C  C901  1  0.558900  0.934700  0.699400  1.0  0.2055
  C  C902  1  0.621900  0.983400  0.673400  1.0  0.1793
  C  C903  1  0.521800  0.895400  0.709400  1.0  -0.3827
  C  C904  1  0.668100  0.009300  0.649200  1.0  -0.3627
  C  C905  1  0.167300  0.316900  0.541300  1.0  0.6793
  C  C906  1  0.147400  0.347200  0.576100  1.0  -0.0858
  C  C907  1  0.113500  0.384500  0.567500  1.0  -0.0904
  C  C908  1  0.098700  0.414900  0.596900  1.0  -0.1248
  C  C909  1  0.114200  0.407600  0.636300  1.0  0.0438
  C  C910  1  0.145700  0.369400  0.644800  1.0  -0.1468
  C  C911  1  0.163700  0.340300  0.613900  1.0  -0.0887
  C  C912  1  0.099900  0.440600  0.669300  1.0  -0.1106
  C  C913  1  0.058900  0.434700  0.699400  1.0  0.2055
  C  C914  1  0.121900  0.483400  0.673400  1.0  0.1793
  C  C915  1  0.021800  0.395400  0.709400  1.0  -0.3827
  C  C916  1  0.168100  0.509300  0.649200  1.0  -0.3627
  C  C917  1  0.167300  0.816900  0.041300  1.0  0.6793
  C  C918  1  0.147400  0.847200  0.076100  1.0  -0.0858
  C  C919  1  0.113500  0.884500  0.067500  1.0  -0.0904
  C  C920  1  0.098700  0.914900  0.096900  1.0  -0.1248
  C  C921  1  0.114200  0.907600  0.136300  1.0  0.0438
  C  C922  1  0.145700  0.869400  0.144800  1.0  -0.1468
  C  C923  1  0.163700  0.840300  0.113900  1.0  -0.0887
  C  C924  1  0.099900  0.940600  0.169300  1.0  -0.1106
  C  C925  1  0.058900  0.934700  0.199400  1.0  0.2055
  C  C926  1  0.121900  0.983400  0.173400  1.0  0.1793
  C  C927  1  0.021800  0.895400  0.209400  1.0  -0.3827
  C  C928  1  0.168100  0.009300  0.149200  1.0  -0.3627
  C  C929  1  0.586900  0.287000  0.772900  1.0  0.7085
  C  C930  1  0.607000  0.321800  0.802800  1.0  -0.1329
  C  C931  1  0.570800  0.357000  0.814400  1.0  -0.054
  C  C932  1  0.586700  0.386600  0.843400  1.0  -0.1269
  C  C933  1  0.641700  0.382800  0.862300  1.0  -0.0209
  C  C934  1  0.680000  0.347500  0.850800  1.0  -0.0884
  C  C935  1  0.662700  0.317400  0.820100  1.0  -0.062
  C  C936  1  0.654800  0.412800  0.896900  1.0  -0.0454
  C  C937  1  0.704300  0.442400  0.901600  1.0  0.2028
  C  C938  1  0.623300  0.416500  0.930700  1.0  0.1953
  C  C939  1  0.754300  0.450200  0.873900  1.0  -0.3956
  C  C940  1  0.569700  0.392600  0.944900  1.0  -0.3608
  C  C941  1  0.407600  0.290400  0.664100  1.0  0.6817
  C  C942  1  0.396800  0.323500  0.631200  1.0  -0.1595
  C  C943  1  0.436600  0.358400  0.623400  1.0  -0.053
  C  C944  1  0.424300  0.390200  0.593800  1.0  -0.1599
  C  C945  1  0.371600  0.387700  0.571100  1.0  0.0372
  C  C946  1  0.332300  0.350700  0.579300  1.0  -0.1013
  C  C947  1  0.344200  0.321200  0.608600  1.0  -0.0328
  C  C948  1  0.359900  0.419700  0.539200  1.0  -0.1038
  C  C949  1  0.305700  0.441200  0.530700  1.0  0.2623
  C  C950  1  0.398500  0.434800  0.508600  1.0  0.199
  C  C951  1  0.249300  0.437100  0.553400  1.0  -0.4032
  C  C952  1  0.460300  0.425800  0.500900  1.0  -0.3907
  C  C953  1  0.586900  0.787000  0.272900  1.0  0.7085
  C  C954  1  0.607000  0.821800  0.302800  1.0  -0.1329
  C  C955  1  0.570800  0.857000  0.314400  1.0  -0.054
  C  C956  1  0.586700  0.886600  0.343400  1.0  -0.1269
  C  C957  1  0.641700  0.882800  0.362300  1.0  -0.0209
  C  C958  1  0.680000  0.847500  0.350800  1.0  -0.0884
  C  C959  1  0.662700  0.817400  0.320100  1.0  -0.062
  C  C960  1  0.654800  0.912800  0.396900  1.0  -0.0454
  C  C961  1  0.704300  0.942400  0.401600  1.0  0.2028
  C  C962  1  0.623300  0.916500  0.430700  1.0  0.1953
  C  C963  1  0.754300  0.950200  0.373900  1.0  -0.3956
  C  C964  1  0.569700  0.892600  0.444900  1.0  -0.3608
  C  C965  1  0.407600  0.790400  0.164100  1.0  0.6817
  C  C966  1  0.396800  0.823500  0.131200  1.0  -0.1595
  C  C967  1  0.436600  0.858400  0.123400  1.0  -0.053
  C  C968  1  0.424300  0.890200  0.093800  1.0  -0.1599
  C  C969  1  0.371600  0.887700  0.071100  1.0  0.0372
  C  C970  1  0.332300  0.850700  0.079300  1.0  -0.1013
  C  C971  1  0.344200  0.821200  0.108600  1.0  -0.0328
  C  C972  1  0.359900  0.919700  0.039200  1.0  -0.1038
  C  C973  1  0.305700  0.941200  0.030700  1.0  0.2623
  C  C974  1  0.398500  0.934800  0.008600  1.0  0.199
  C  C975  1  0.249300  0.937100  0.053400  1.0  -0.4032
  C  C976  1  0.460300  0.925800  0.000900  1.0  -0.3907
  C  C977  1  0.086900  0.287000  0.272900  1.0  0.7085
  C  C978  1  0.107000  0.321800  0.302800  1.0  -0.1329
  C  C979  1  0.070800  0.357000  0.314400  1.0  -0.054
  C  C980  1  0.086700  0.386600  0.343400  1.0  -0.1269
  C  C981  1  0.141700  0.382800  0.362300  1.0  -0.0209
  C  C982  1  0.180000  0.347500  0.350800  1.0  -0.0884
  C  C983  1  0.162700  0.317400  0.320100  1.0  -0.062
  C  C984  1  0.154800  0.412800  0.396900  1.0  -0.0454
  C  C985  1  0.204300  0.442400  0.401600  1.0  0.2028
  C  C986  1  0.123300  0.416500  0.430700  1.0  0.1953
  C  C987  1  0.254300  0.450200  0.373900  1.0  -0.3956
  C  C988  1  0.069700  0.392600  0.444900  1.0  -0.3608
  C  C989  1  0.907600  0.290400  0.164100  1.0  0.6817
  C  C990  1  0.896800  0.323500  0.131200  1.0  -0.1595
  C  C991  1  0.936600  0.358400  0.123400  1.0  -0.053
  C  C992  1  0.924300  0.390200  0.093800  1.0  -0.1599
  C  C993  1  0.871600  0.387700  0.071100  1.0  0.0372
  C  C994  1  0.832300  0.350700  0.079300  1.0  -0.1013
  C  C995  1  0.844200  0.321200  0.108600  1.0  -0.0328
  C  C996  1  0.859900  0.419700  0.039200  1.0  -0.1038
  C  C997  1  0.805700  0.441200  0.030700  1.0  0.2623
  C  C998  1  0.898500  0.434800  0.008600  1.0  0.199
  C  C999  1  0.749300  0.437100  0.053400  1.0  -0.4032
  C  C1000  1  0.960300  0.425800  0.000900  1.0  -0.3907
  C  C1001  1  0.086900  0.787000  0.772900  1.0  0.7085
  C  C1002  1  0.107000  0.821800  0.802800  1.0  -0.1329
  C  C1003  1  0.070800  0.857000  0.814400  1.0  -0.054
  C  C1004  1  0.086700  0.886600  0.843400  1.0  -0.1269
  C  C1005  1  0.141700  0.882800  0.862300  1.0  -0.0209
  C  C1006  1  0.180000  0.847500  0.850800  1.0  -0.0884
  C  C1007  1  0.162700  0.817400  0.820100  1.0  -0.062
  C  C1008  1  0.154800  0.912800  0.896900  1.0  -0.0454
  C  C1009  1  0.204300  0.942400  0.901600  1.0  0.2028
  C  C1010  1  0.123300  0.916500  0.930700  1.0  0.1953
  C  C1011  1  0.254300  0.950200  0.873900  1.0  -0.3956
  C  C1012  1  0.069700  0.892600  0.944900  1.0  -0.3608
  C  C1013  1  0.907600  0.790400  0.664100  1.0  0.6817
  C  C1014  1  0.896800  0.823500  0.631200  1.0  -0.1595
  C  C1015  1  0.936600  0.858400  0.623400  1.0  -0.053
  C  C1016  1  0.924300  0.890200  0.593800  1.0  -0.1599
  C  C1017  1  0.871600  0.887700  0.571100  1.0  0.0372
  C  C1018  1  0.832300  0.850700  0.579300  1.0  -0.1013
  C  C1019  1  0.844200  0.821200  0.608600  1.0  -0.0328
  C  C1020  1  0.859900  0.919700  0.539200  1.0  -0.1038
  C  C1021  1  0.805700  0.941200  0.530700  1.0  0.2623
  C  C1022  1  0.898500  0.934800  0.508600  1.0  0.199
  C  C1023  1  0.749300  0.937100  0.553400  1.0  -0.4032
  C  C1024  1  0.960300  0.925800  0.500900  1.0  -0.3907
  C  C1025  1  0.663100  0.537000  0.022900  1.0  0.7084
  C  C1026  1  0.643000  0.571800  0.052800  1.0  -0.1327
  C  C1027  1  0.679200  0.607000  0.064400  1.0  -0.0546
  C  C1028  1  0.663300  0.636600  0.093400  1.0  -0.1282
  C  C1029  1  0.608300  0.632800  0.112300  1.0  -0.0201
  C  C1030  1  0.570000  0.597500  0.100800  1.0  -0.0861
  C  C1031  1  0.587300  0.567400  0.070100  1.0  -0.062
  C  C1032  1  0.595200  0.662800  0.146900  1.0  -0.0448
  C  C1033  1  0.545700  0.692400  0.151600  1.0  0.2025
  C  C1034  1  0.626700  0.666500  0.180700  1.0  0.1963
  C  C1035  1  0.495700  0.700200  0.123900  1.0  -0.3943
  C  C1036  1  0.680300  0.642600  0.194900  1.0  -0.3629
  C  C1037  1  0.842400  0.540400  0.914100  1.0  0.6824
  C  C1038  1  0.853200  0.573500  0.881200  1.0  -0.1601
  C  C1039  1  0.813400  0.608400  0.873400  1.0  -0.0531
  C  C1040  1  0.825700  0.640200  0.843800  1.0  -0.1611
  C  C1041  1  0.878400  0.637700  0.821100  1.0  0.0366
  C  C1042  1  0.917700  0.600700  0.829300  1.0  -0.1029
  C  C1043  1  0.905800  0.571200  0.858600  1.0  -0.0318
  C  C1044  1  0.890100  0.669700  0.789200  1.0  -0.1038
  C  C1045  1  0.944300  0.691200  0.780700  1.0  0.2623
  C  C1046  1  0.851500  0.684800  0.758600  1.0  0.1971
  C  C1047  1  0.000700  0.687100  0.803400  1.0  -0.4031
  C  C1048  1  0.789700  0.675800  0.750900  1.0  -0.3898
  C  C1049  1  0.663100  0.037000  0.522900  1.0  0.7084
  C  C1050  1  0.643000  0.071800  0.552800  1.0  -0.1327
  C  C1051  1  0.679200  0.107000  0.564400  1.0  -0.0546
  C  C1052  1  0.663300  0.136600  0.593400  1.0  -0.1282
  C  C1053  1  0.608300  0.132800  0.612300  1.0  -0.0201
  C  C1054  1  0.570000  0.097500  0.600800  1.0  -0.0861
  C  C1055  1  0.587300  0.067400  0.570100  1.0  -0.062
  C  C1056  1  0.595200  0.162800  0.646900  1.0  -0.0448
  C  C1057  1  0.545700  0.192400  0.651600  1.0  0.2025
  C  C1058  1  0.626700  0.166500  0.680700  1.0  0.1963
  C  C1059  1  0.495700  0.200200  0.623900  1.0  -0.3943
  C  C1060  1  0.680300  0.142600  0.694900  1.0  -0.3629
  C  C1061  1  0.842400  0.040400  0.414100  1.0  0.6824
  C  C1062  1  0.853200  0.073500  0.381200  1.0  -0.1601
  C  C1063  1  0.813400  0.108400  0.373400  1.0  -0.0531
  C  C1064  1  0.825700  0.140200  0.343800  1.0  -0.1611
  C  C1065  1  0.878400  0.137700  0.321100  1.0  0.0366
  C  C1066  1  0.917700  0.100700  0.329300  1.0  -0.1029
  C  C1067  1  0.905800  0.071200  0.358600  1.0  -0.0318
  C  C1068  1  0.890100  0.169700  0.289200  1.0  -0.1038
  C  C1069  1  0.944300  0.191200  0.280700  1.0  0.2623
  C  C1070  1  0.851500  0.184800  0.258600  1.0  0.1971
  C  C1071  1  0.000700  0.187100  0.303400  1.0  -0.4031
  C  C1072  1  0.789700  0.175800  0.250900  1.0  -0.3898
  C  C1073  1  0.163100  0.537000  0.522900  1.0  0.7084
  C  C1074  1  0.143000  0.571800  0.552800  1.0  -0.1327
  C  C1075  1  0.179200  0.607000  0.564400  1.0  -0.0546
  C  C1076  1  0.163300  0.636600  0.593400  1.0  -0.1282
  C  C1077  1  0.108300  0.632800  0.612300  1.0  -0.0201
  C  C1078  1  0.070000  0.597500  0.600800  1.0  -0.0861
  C  C1079  1  0.087300  0.567400  0.570100  1.0  -0.062
  C  C1080  1  0.095200  0.662800  0.646900  1.0  -0.0448
  C  C1081  1  0.045700  0.692400  0.651600  1.0  0.2025
  C  C1082  1  0.126700  0.666500  0.680700  1.0  0.1963
  C  C1083  1  0.995700  0.700200  0.623900  1.0  -0.3943
  C  C1084  1  0.180300  0.642600  0.694900  1.0  -0.3629
  C  C1085  1  0.342400  0.540400  0.414100  1.0  0.6824
  C  C1086  1  0.353200  0.573500  0.381200  1.0  -0.1601
  C  C1087  1  0.313400  0.608400  0.373400  1.0  -0.0531
  C  C1088  1  0.325700  0.640200  0.343800  1.0  -0.1611
  C  C1089  1  0.378400  0.637700  0.321100  1.0  0.0366
  C  C1090  1  0.417700  0.600700  0.329300  1.0  -0.1029
  C  C1091  1  0.405800  0.571200  0.358600  1.0  -0.0318
  C  C1092  1  0.390100  0.669700  0.289200  1.0  -0.1038
  C  C1093  1  0.444300  0.691200  0.280700  1.0  0.2623
  C  C1094  1  0.351500  0.684800  0.258600  1.0  0.1971
  C  C1095  1  0.500700  0.687100  0.303400  1.0  -0.4031
  C  C1096  1  0.289700  0.675800  0.250900  1.0  -0.3898
  C  C1097  1  0.163100  0.037000  0.022900  1.0  0.7084
  C  C1098  1  0.143000  0.071800  0.052800  1.0  -0.1327
  C  C1099  1  0.179200  0.107000  0.064400  1.0  -0.0546
  C  C1100  1  0.163300  0.136600  0.093400  1.0  -0.1282
  C  C1101  1  0.108300  0.132800  0.112300  1.0  -0.0201
  C  C1102  1  0.070000  0.097500  0.100800  1.0  -0.0861
  C  C1103  1  0.087300  0.067400  0.070100  1.0  -0.062
  C  C1104  1  0.095200  0.162800  0.146900  1.0  -0.0448
  C  C1105  1  0.045700  0.192400  0.151600  1.0  0.2025
  C  C1106  1  0.126700  0.166500  0.180700  1.0  0.1963
  C  C1107  1  0.995700  0.200200  0.123900  1.0  -0.3943
  C  C1108  1  0.180300  0.142600  0.194900  1.0  -0.3629
  C  C1109  1  0.342400  0.040400  0.914100  1.0  0.6824
  C  C1110  1  0.353200  0.073500  0.881200  1.0  -0.1601
  C  C1111  1  0.313400  0.108400  0.873400  1.0  -0.0531
  C  C1112  1  0.325700  0.140200  0.843800  1.0  -0.1611
  C  C1113  1  0.378400  0.137700  0.821100  1.0  0.0366
  C  C1114  1  0.417700  0.100700  0.829300  1.0  -0.1029
  C  C1115  1  0.405800  0.071200  0.858600  1.0  -0.0318
  C  C1116  1  0.390100  0.169700  0.789200  1.0  -0.1038
  C  C1117  1  0.444300  0.191200  0.780700  1.0  0.2623
  C  C1118  1  0.351500  0.184800  0.758600  1.0  0.1971
  C  C1119  1  0.500700  0.187100  0.803400  1.0  -0.4031
  C  C1120  1  0.289700  0.175800  0.750900  1.0  -0.3898
  C  C1121  1  0.837400  0.208900  0.595500  1.0  0.6634
  C  C1122  1  0.851500  0.174500  0.627200  1.0  -0.0148
  C  C1123  1  0.815200  0.136600  0.634900  1.0  -0.0119
  C  C1124  1  0.829500  0.105400  0.664200  1.0  -0.1854
  C  C1125  1  0.879400  0.113400  0.688600  1.0  -0.0247
  C  C1126  1  0.917800  0.147600  0.680400  1.0  -0.1905
  C  C1127  1  0.903400  0.178300  0.649300  1.0  -0.0164
  C  C1128  1  0.893500  0.081200  0.720800  1.0  -0.1414
  C  C1129  1  0.948500  0.061300  0.731400  1.0  0.1571
  C  C1130  1  0.855700  0.063900  0.750700  1.0  0.1725
  C  C1131  1  0.007200  0.066700  0.709600  1.0  -0.3953
  C  C1132  1  0.789800  0.072900  0.756600  1.0  -0.3668
  C  C1133  1  0.837400  0.708900  0.095500  1.0  0.6634
  C  C1134  1  0.851500  0.674500  0.127200  1.0  -0.0148
  C  C1135  1  0.815200  0.636600  0.134900  1.0  -0.0119
  C  C1136  1  0.829500  0.605400  0.164200  1.0  -0.1854
  C  C1137  1  0.879400  0.613400  0.188600  1.0  -0.0247
  C  C1138  1  0.917800  0.647600  0.180400  1.0  -0.1905
  C  C1139  1  0.903400  0.678300  0.149300  1.0  -0.0164
  C  C1140  1  0.893500  0.581200  0.220800  1.0  -0.1414
  C  C1141  1  0.948500  0.561300  0.231400  1.0  0.1571
  C  C1142  1  0.855700  0.563900  0.250700  1.0  0.1725
  C  C1143  1  0.007200  0.566700  0.209600  1.0  -0.3953
  C  C1144  1  0.789800  0.572900  0.256600  1.0  -0.3668
  C  C1145  1  0.337400  0.208900  0.095500  1.0  0.6634
  C  C1146  1  0.351500  0.174500  0.127200  1.0  -0.0148
  C  C1147  1  0.315200  0.136600  0.134900  1.0  -0.0119
  C  C1148  1  0.329500  0.105400  0.164200  1.0  -0.1854
  C  C1149  1  0.379400  0.113400  0.188600  1.0  -0.0247
  C  C1150  1  0.417800  0.147600  0.180400  1.0  -0.1905
  C  C1151  1  0.403400  0.178300  0.149300  1.0  -0.0164
  C  C1152  1  0.393500  0.081200  0.220800  1.0  -0.1414
  C  C1153  1  0.448500  0.061300  0.231400  1.0  0.1571
  C  C1154  1  0.355700  0.063900  0.250700  1.0  0.1725
  C  C1155  1  0.507200  0.066700  0.209600  1.0  -0.3953
  C  C1156  1  0.289800  0.072900  0.256600  1.0  -0.3668
  C  C1157  1  0.337400  0.708900  0.595500  1.0  0.6634
  C  C1158  1  0.351500  0.674500  0.627200  1.0  -0.0148
  C  C1159  1  0.315200  0.636600  0.634900  1.0  -0.0119
  C  C1160  1  0.329500  0.605400  0.664200  1.0  -0.1854
  C  C1161  1  0.379400  0.613400  0.688600  1.0  -0.0247
  C  C1162  1  0.417800  0.647600  0.680400  1.0  -0.1905
  C  C1163  1  0.403400  0.678300  0.649300  1.0  -0.0164
  C  C1164  1  0.393500  0.581200  0.720800  1.0  -0.1414
  C  C1165  1  0.448500  0.561300  0.731400  1.0  0.1571
  C  C1166  1  0.355700  0.563900  0.750700  1.0  0.1725
  C  C1167  1  0.507200  0.566700  0.709600  1.0  -0.3953
  C  C1168  1  0.289800  0.572900  0.756600  1.0  -0.3668
  C  C1169  1  0.162600  0.791100  0.595500  1.0  0.6628
  C  C1170  1  0.148500  0.825500  0.627200  1.0  -0.0158
  C  C1171  1  0.184800  0.863400  0.634900  1.0  -0.011
  C  C1172  1  0.170500  0.894600  0.664200  1.0  -0.1849
  C  C1173  1  0.120600  0.886600  0.688600  1.0  -0.0247
  C  C1174  1  0.082200  0.852400  0.680400  1.0  -0.1906
  C  C1175  1  0.096600  0.821700  0.649300  1.0  -0.0165
  C  C1176  1  0.106500  0.918800  0.720800  1.0  -0.1415
  C  C1177  1  0.051500  0.938700  0.731400  1.0  0.1578
  C  C1178  1  0.144300  0.936100  0.750700  1.0  0.1718
  C  C1179  1  0.992800  0.933300  0.709600  1.0  -0.3919
  C  C1180  1  0.210200  0.927100  0.756600  1.0  -0.368
  C  C1181  1  0.162600  0.291100  0.095500  1.0  0.6628
  C  C1182  1  0.148500  0.325500  0.127200  1.0  -0.0158
  C  C1183  1  0.184800  0.363400  0.134900  1.0  -0.011
  C  C1184  1  0.170500  0.394600  0.164200  1.0  -0.1849
  C  C1185  1  0.120600  0.386600  0.188600  1.0  -0.0247
  C  C1186  1  0.082200  0.352400  0.180400  1.0  -0.1906
  C  C1187  1  0.096600  0.321700  0.149300  1.0  -0.0165
  C  C1188  1  0.106500  0.418800  0.220800  1.0  -0.1415
  C  C1189  1  0.051500  0.438700  0.231400  1.0  0.1578
  C  C1190  1  0.144300  0.436100  0.250700  1.0  0.1718
  C  C1191  1  0.992800  0.433300  0.209600  1.0  -0.3919
  C  C1192  1  0.210200  0.427100  0.256600  1.0  -0.368
  C  C1193  1  0.662600  0.791100  0.095500  1.0  0.6628
  C  C1194  1  0.648500  0.825500  0.127200  1.0  -0.0158
  C  C1195  1  0.684800  0.863400  0.134900  1.0  -0.011
  C  C1196  1  0.670500  0.894600  0.164200  1.0  -0.1849
  C  C1197  1  0.620600  0.886600  0.188600  1.0  -0.0247
  C  C1198  1  0.582200  0.852400  0.180400  1.0  -0.1906
  C  C1199  1  0.596600  0.821700  0.149300  1.0  -0.0165
  C  C1200  1  0.606500  0.918800  0.220800  1.0  -0.1415
  C  C1201  1  0.551500  0.938700  0.231400  1.0  0.1578
  C  C1202  1  0.644300  0.936100  0.250700  1.0  0.1718
  C  C1203  1  0.492800  0.933300  0.209600  1.0  -0.3919
  C  C1204  1  0.710200  0.927100  0.256600  1.0  -0.368
  C  C1205  1  0.662600  0.291100  0.595500  1.0  0.6628
  C  C1206  1  0.648500  0.325500  0.627200  1.0  -0.0158
  C  C1207  1  0.684800  0.363400  0.634900  1.0  -0.011
  C  C1208  1  0.670500  0.394600  0.664200  1.0  -0.1849
  C  C1209  1  0.620600  0.386600  0.688600  1.0  -0.0247
  C  C1210  1  0.582200  0.352400  0.680400  1.0  -0.1906
  C  C1211  1  0.596600  0.321700  0.649300  1.0  -0.0165
  C  C1212  1  0.606500  0.418800  0.720800  1.0  -0.1415
  C  C1213  1  0.551500  0.438700  0.731400  1.0  0.1578
  C  C1214  1  0.644300  0.436100  0.750700  1.0  0.1718
  C  C1215  1  0.492800  0.433300  0.709600  1.0  -0.3919
  C  C1216  1  0.710200  0.427100  0.756600  1.0  -0.368
  C  C1217  1  0.087400  0.041100  0.845500  1.0  0.6634
  C  C1218  1  0.101500  0.075500  0.877200  1.0  -0.0157
  C  C1219  1  0.065200  0.113400  0.884900  1.0  -0.012
  C  C1220  1  0.079500  0.144600  0.914200  1.0  -0.1842
  C  C1221  1  0.129400  0.136600  0.938600  1.0  -0.0246
  C  C1222  1  0.167800  0.102400  0.930400  1.0  -0.1908
  C  C1223  1  0.153400  0.071700  0.899300  1.0  -0.0169
  C  C1224  1  0.143500  0.168800  0.970800  1.0  -0.1413
  C  C1225  1  0.198500  0.188700  0.981400  1.0  0.1573
  C  C1226  1  0.105700  0.186100  0.000700  1.0  0.1722
  C  C1227  1  0.257200  0.183300  0.959600  1.0  -0.3925
  C  C1228  1  0.039800  0.177100  0.006600  1.0  -0.3669
  C  C1229  1  0.087400  0.541100  0.345500  1.0  0.6634
  C  C1230  1  0.101500  0.575500  0.377200  1.0  -0.0157
  C  C1231  1  0.065200  0.613400  0.384900  1.0  -0.012
  C  C1232  1  0.079500  0.644600  0.414200  1.0  -0.1842
  C  C1233  1  0.129400  0.636600  0.438600  1.0  -0.0246
  C  C1234  1  0.167800  0.602400  0.430400  1.0  -0.1908
  C  C1235  1  0.153400  0.571700  0.399300  1.0  -0.0169
  C  C1236  1  0.143500  0.668800  0.470800  1.0  -0.1413
  C  C1237  1  0.198500  0.688700  0.481400  1.0  0.1573
  C  C1238  1  0.105700  0.686100  0.500700  1.0  0.1722
  C  C1239  1  0.257200  0.683300  0.459600  1.0  -0.3925
  C  C1240  1  0.039800  0.677100  0.506600  1.0  -0.3669
  C  C1241  1  0.587400  0.041100  0.345500  1.0  0.6634
  C  C1242  1  0.601500  0.075500  0.377200  1.0  -0.0157
  C  C1243  1  0.565200  0.113400  0.384900  1.0  -0.012
  C  C1244  1  0.579500  0.144600  0.414200  1.0  -0.1842
  C  C1245  1  0.629400  0.136600  0.438600  1.0  -0.0246
  C  C1246  1  0.667800  0.102400  0.430400  1.0  -0.1908
  C  C1247  1  0.653400  0.071700  0.399300  1.0  -0.0169
  C  C1248  1  0.643500  0.168800  0.470800  1.0  -0.1413
  C  C1249  1  0.698500  0.188700  0.481400  1.0  0.1573
  C  C1250  1  0.605700  0.186100  0.500700  1.0  0.1722
  C  C1251  1  0.757200  0.183300  0.459600  1.0  -0.3925
  C  C1252  1  0.539800  0.177100  0.506600  1.0  -0.3669
  C  C1253  1  0.587400  0.541100  0.845500  1.0  0.6634
  C  C1254  1  0.601500  0.575500  0.877200  1.0  -0.0157
  C  C1255  1  0.565200  0.613400  0.884900  1.0  -0.012
  C  C1256  1  0.579500  0.644600  0.914200  1.0  -0.1842
  C  C1257  1  0.629400  0.636600  0.938600  1.0  -0.0246
  C  C1258  1  0.667800  0.602400  0.930400  1.0  -0.1908
  C  C1259  1  0.653400  0.571700  0.899300  1.0  -0.0169
  C  C1260  1  0.643500  0.668800  0.970800  1.0  -0.1413
  C  C1261  1  0.698500  0.688700  0.981400  1.0  0.1573
  C  C1262  1  0.605700  0.686100  0.000700  1.0  0.1722
  C  C1263  1  0.757200  0.683300  0.959600  1.0  -0.3925
  C  C1264  1  0.539800  0.677100  0.006600  1.0  -0.3669
  C  C1265  1  0.412600  0.458900  0.845500  1.0  0.6628
  C  C1266  1  0.398500  0.424500  0.877200  1.0  -0.0147
  C  C1267  1  0.434800  0.386600  0.884900  1.0  -0.0111
  C  C1268  1  0.420500  0.355400  0.914200  1.0  -0.1864
  C  C1269  1  0.370600  0.363400  0.938600  1.0  -0.0248
  C  C1270  1  0.332200  0.397600  0.930400  1.0  -0.1904
  C  C1271  1  0.346600  0.428300  0.899300  1.0  -0.016
  C  C1272  1  0.356500  0.331200  0.970800  1.0  -0.1416
  C  C1273  1  0.301500  0.311300  0.981400  1.0  0.1578
  C  C1274  1  0.394300  0.313900  0.000700  1.0  0.1721
  C  C1275  1  0.242800  0.316700  0.959600  1.0  -0.3945
  C  C1276  1  0.460200  0.322900  0.006600  1.0  -0.368
  C  C1277  1  0.412600  0.958900  0.345500  1.0  0.6628
  C  C1278  1  0.398500  0.924500  0.377200  1.0  -0.0147
  C  C1279  1  0.434800  0.886600  0.384900  1.0  -0.0111
  C  C1280  1  0.420500  0.855400  0.414200  1.0  -0.1864
  C  C1281  1  0.370600  0.863400  0.438600  1.0  -0.0248
  C  C1282  1  0.332200  0.897600  0.430400  1.0  -0.1904
  C  C1283  1  0.346600  0.928300  0.399300  1.0  -0.016
  C  C1284  1  0.356500  0.831200  0.470800  1.0  -0.1416
  C  C1285  1  0.301500  0.811300  0.481400  1.0  0.1578
  C  C1286  1  0.394300  0.813900  0.500700  1.0  0.1721
  C  C1287  1  0.242800  0.816700  0.459600  1.0  -0.3945
  C  C1288  1  0.460200  0.822900  0.506600  1.0  -0.368
  C  C1289  1  0.912600  0.458900  0.345500  1.0  0.6628
  C  C1290  1  0.898500  0.424500  0.377200  1.0  -0.0147
  C  C1291  1  0.934800  0.386600  0.384900  1.0  -0.0111
  C  C1292  1  0.920500  0.355400  0.414200  1.0  -0.1864
  C  C1293  1  0.870600  0.363400  0.438600  1.0  -0.0248
  C  C1294  1  0.832200  0.397600  0.430400  1.0  -0.1904
  C  C1295  1  0.846600  0.428300  0.399300  1.0  -0.016
  C  C1296  1  0.856500  0.331200  0.470800  1.0  -0.1416
  C  C1297  1  0.801500  0.311300  0.481400  1.0  0.1578
  C  C1298  1  0.894300  0.313900  0.500700  1.0  0.1721
  C  C1299  1  0.742800  0.316700  0.459600  1.0  -0.3945
  C  C1300  1  0.960200  0.322900  0.506600  1.0  -0.368
  C  C1301  1  0.912600  0.958900  0.845500  1.0  0.6628
  C  C1302  1  0.898500  0.924500  0.877200  1.0  -0.0147
  C  C1303  1  0.934800  0.886600  0.884900  1.0  -0.0111
  C  C1304  1  0.920500  0.855400  0.914200  1.0  -0.1864
  C  C1305  1  0.870600  0.863400  0.938600  1.0  -0.0248
  C  C1306  1  0.832200  0.897600  0.930400  1.0  -0.1904
  C  C1307  1  0.846600  0.928300  0.899300  1.0  -0.016
  C  C1308  1  0.856500  0.831200  0.970800  1.0  -0.1416
  C  C1309  1  0.801500  0.811300  0.981400  1.0  0.1578
  C  C1310  1  0.894300  0.813900  0.000700  1.0  0.1721
  C  C1311  1  0.742800  0.816700  0.959600  1.0  -0.3945
  C  C1312  1  0.960200  0.822900  0.006600  1.0  -0.368
  C  C1313  1  0.413100  0.713000  0.772900  1.0  0.7085
  C  C1314  1  0.393000  0.678200  0.802800  1.0  -0.1323
  C  C1315  1  0.429200  0.643000  0.814400  1.0  -0.0539
  C  C1316  1  0.413300  0.613400  0.843400  1.0  -0.1283
  C  C1317  1  0.358300  0.617200  0.862300  1.0  -0.0198
  C  C1318  1  0.320000  0.652500  0.850800  1.0  -0.0861
  C  C1319  1  0.337300  0.682600  0.820100  1.0  -0.0621
  C  C1320  1  0.345200  0.587200  0.896900  1.0  -0.0457
  C  C1321  1  0.295700  0.557600  0.901600  1.0  0.2026
  C  C1322  1  0.376700  0.583500  0.930700  1.0  0.1955
  C  C1323  1  0.245700  0.549800  0.873900  1.0  -0.3946
  C  C1324  1  0.430300  0.607400  0.944900  1.0  -0.3626
  C  C1325  1  0.592400  0.709600  0.664100  1.0  0.682
  C  C1326  1  0.603200  0.676500  0.631200  1.0  -0.1603
  C  C1327  1  0.563400  0.641600  0.623400  1.0  -0.0528
  C  C1328  1  0.575700  0.609800  0.593800  1.0  -0.161
  C  C1329  1  0.628400  0.612300  0.571100  1.0  0.0365
  C  C1330  1  0.667700  0.649300  0.579300  1.0  -0.1023
  C  C1331  1  0.655800  0.678800  0.608600  1.0  -0.0315
  C  C1332  1  0.640100  0.580300  0.539200  1.0  -0.1034
  C  C1333  1  0.694300  0.558800  0.530700  1.0  0.2621
  C  C1334  1  0.601500  0.565200  0.508600  1.0  0.1968
  C  C1335  1  0.750700  0.562900  0.553400  1.0  -0.4032
  C  C1336  1  0.539700  0.574200  0.500900  1.0  -0.3892
  C  C1337  1  0.413100  0.213000  0.272900  1.0  0.7085
  C  C1338  1  0.393000  0.178200  0.302800  1.0  -0.1323
  C  C1339  1  0.429200  0.143000  0.314400  1.0  -0.0539
  C  C1340  1  0.413300  0.113400  0.343400  1.0  -0.1283
  C  C1341  1  0.358300  0.117200  0.362300  1.0  -0.0198
  C  C1342  1  0.320000  0.152500  0.350800  1.0  -0.0861
  C  C1343  1  0.337300  0.182600  0.320100  1.0  -0.0621
  C  C1344  1  0.345200  0.087200  0.396900  1.0  -0.0457
  C  C1345  1  0.295700  0.057600  0.401600  1.0  0.2026
  C  C1346  1  0.376700  0.083500  0.430700  1.0  0.1955
  C  C1347  1  0.245700  0.049800  0.373900  1.0  -0.3946
  C  C1348  1  0.430300  0.107400  0.444900  1.0  -0.3626
  C  C1349  1  0.592400  0.209600  0.164100  1.0  0.682
  C  C1350  1  0.603200  0.176500  0.131200  1.0  -0.1603
  C  C1351  1  0.563400  0.141600  0.123400  1.0  -0.0528
  C  C1352  1  0.575700  0.109800  0.093800  1.0  -0.161
  C  C1353  1  0.628400  0.112300  0.071100  1.0  0.0365
  C  C1354  1  0.667700  0.149300  0.079300  1.0  -0.1023
  C  C1355  1  0.655800  0.178800  0.108600  1.0  -0.0315
  C  C1356  1  0.640100  0.080300  0.039200  1.0  -0.1034
  C  C1357  1  0.694300  0.058800  0.030700  1.0  0.2621
  C  C1358  1  0.601500  0.065200  0.008600  1.0  0.1968
  C  C1359  1  0.750700  0.062900  0.053400  1.0  -0.4032
  C  C1360  1  0.539700  0.074200  0.000900  1.0  -0.3892
  C  C1361  1  0.913100  0.713000  0.272900  1.0  0.7085
  C  C1362  1  0.893000  0.678200  0.302800  1.0  -0.1323
  C  C1363  1  0.929200  0.643000  0.314400  1.0  -0.0539
  C  C1364  1  0.913300  0.613400  0.343400  1.0  -0.1283
  C  C1365  1  0.858300  0.617200  0.362300  1.0  -0.0198
  C  C1366  1  0.820000  0.652500  0.350800  1.0  -0.0861
  C  C1367  1  0.837300  0.682600  0.320100  1.0  -0.0621
  C  C1368  1  0.845200  0.587200  0.396900  1.0  -0.0457
  C  C1369  1  0.795700  0.557600  0.401600  1.0  0.2026
  C  C1370  1  0.876700  0.583500  0.430700  1.0  0.1955
  C  C1371  1  0.745700  0.549800  0.373900  1.0  -0.3946
  C  C1372  1  0.930300  0.607400  0.444900  1.0  -0.3626
  C  C1373  1  0.092400  0.709600  0.164100  1.0  0.682
  C  C1374  1  0.103200  0.676500  0.131200  1.0  -0.1603
  C  C1375  1  0.063400  0.641600  0.123400  1.0  -0.0528
  C  C1376  1  0.075700  0.609800  0.093800  1.0  -0.161
  C  C1377  1  0.128400  0.612300  0.071100  1.0  0.0365
  C  C1378  1  0.167700  0.649300  0.079300  1.0  -0.1023
  C  C1379  1  0.155800  0.678800  0.108600  1.0  -0.0315
  C  C1380  1  0.140100  0.580300  0.039200  1.0  -0.1034
  C  C1381  1  0.194300  0.558800  0.030700  1.0  0.2621
  C  C1382  1  0.101500  0.565200  0.008600  1.0  0.1968
  C  C1383  1  0.250700  0.562900  0.053400  1.0  -0.4032
  C  C1384  1  0.039700  0.574200  0.000900  1.0  -0.3892
  C  C1385  1  0.913100  0.213000  0.772900  1.0  0.7085
  C  C1386  1  0.893000  0.178200  0.802800  1.0  -0.1323
  C  C1387  1  0.929200  0.143000  0.814400  1.0  -0.0539
  C  C1388  1  0.913300  0.113400  0.843400  1.0  -0.1283
  C  C1389  1  0.858300  0.117200  0.862300  1.0  -0.0198
  C  C1390  1  0.820000  0.152500  0.850800  1.0  -0.0861
  C  C1391  1  0.837300  0.182600  0.820100  1.0  -0.0621
  C  C1392  1  0.845200  0.087200  0.896900  1.0  -0.0457
  C  C1393  1  0.795700  0.057600  0.901600  1.0  0.2026
  C  C1394  1  0.876700  0.083500  0.930700  1.0  0.1955
  C  C1395  1  0.745700  0.049800  0.873900  1.0  -0.3946
  C  C1396  1  0.930300  0.107400  0.944900  1.0  -0.3626
  C  C1397  1  0.092400  0.209600  0.664100  1.0  0.682
  C  C1398  1  0.103200  0.176500  0.631200  1.0  -0.1603
  C  C1399  1  0.063400  0.141600  0.623400  1.0  -0.0528
  C  C1400  1  0.075700  0.109800  0.593800  1.0  -0.161
  C  C1401  1  0.128400  0.112300  0.571100  1.0  0.0365
  C  C1402  1  0.167700  0.149300  0.579300  1.0  -0.1023
  C  C1403  1  0.155800  0.178800  0.608600  1.0  -0.0315
  C  C1404  1  0.140100  0.080300  0.539200  1.0  -0.1034
  C  C1405  1  0.194300  0.058800  0.530700  1.0  0.2621
  C  C1406  1  0.101500  0.065200  0.508600  1.0  0.1968
  C  C1407  1  0.250700  0.062900  0.553400  1.0  -0.4032
  C  C1408  1  0.039700  0.074200  0.500900  1.0  -0.3892
  C  C1409  1  0.836900  0.963000  0.022900  1.0  0.7085
  C  C1410  1  0.857000  0.928200  0.052800  1.0  -0.1324
  C  C1411  1  0.820800  0.893000  0.064400  1.0  -0.0535
  C  C1412  1  0.836700  0.863400  0.093400  1.0  -0.1265
  C  C1413  1  0.891700  0.867200  0.112300  1.0  -0.0207
  C  C1414  1  0.930000  0.902500  0.100800  1.0  -0.088
  C  C1415  1  0.912700  0.932600  0.070100  1.0  -0.0614
  C  C1416  1  0.904800  0.837200  0.146900  1.0  -0.0462
  C  C1417  1  0.954300  0.807600  0.151600  1.0  0.2028
  C  C1418  1  0.873300  0.833500  0.180700  1.0  0.1942
  C  C1419  1  0.004300  0.799800  0.123900  1.0  -0.3959
  C  C1420  1  0.819700  0.857400  0.194900  1.0  -0.3608
  C  C1421  1  0.657600  0.959600  0.914100  1.0  0.6815
  C  C1422  1  0.646800  0.926500  0.881200  1.0  -0.1593
  C  C1423  1  0.686600  0.891600  0.873400  1.0  -0.0533
  C  C1424  1  0.674300  0.859800  0.843800  1.0  -0.1599
  C  C1425  1  0.621600  0.862300  0.821100  1.0  0.0371
  C  C1426  1  0.582300  0.899300  0.829300  1.0  -0.1013
  C  C1427  1  0.594200  0.928800  0.858600  1.0  -0.0329
  C  C1428  1  0.609900  0.830300  0.789200  1.0  -0.1032
  C  C1429  1  0.555700  0.808800  0.780700  1.0  0.2621
  C  C1430  1  0.648500  0.815200  0.758600  1.0  0.1986
  C  C1431  1  0.499300  0.812900  0.803400  1.0  -0.4029
  C  C1432  1  0.710300  0.824200  0.750900  1.0  -0.3906
  C  C1433  1  0.836900  0.463000  0.522900  1.0  0.7085
  C  C1434  1  0.857000  0.428200  0.552800  1.0  -0.1324
  C  C1435  1  0.820800  0.393000  0.564400  1.0  -0.0535
  C  C1436  1  0.836700  0.363400  0.593400  1.0  -0.1265
  C  C1437  1  0.891700  0.367200  0.612300  1.0  -0.0207
  C  C1438  1  0.930000  0.402500  0.600800  1.0  -0.088
  C  C1439  1  0.912700  0.432600  0.570100  1.0  -0.0614
  C  C1440  1  0.904800  0.337200  0.646900  1.0  -0.0462
  C  C1441  1  0.954300  0.307600  0.651600  1.0  0.2028
  C  C1442  1  0.873300  0.333500  0.680700  1.0  0.1942
  C  C1443  1  0.004300  0.299800  0.623900  1.0  -0.3959
  C  C1444  1  0.819700  0.357400  0.694900  1.0  -0.3608
  C  C1445  1  0.657600  0.459600  0.414100  1.0  0.6815
  C  C1446  1  0.646800  0.426500  0.381200  1.0  -0.1593
  C  C1447  1  0.686600  0.391600  0.373400  1.0  -0.0533
  C  C1448  1  0.674300  0.359800  0.343800  1.0  -0.1599
  C  C1449  1  0.621600  0.362300  0.321100  1.0  0.0371
  C  C1450  1  0.582300  0.399300  0.329300  1.0  -0.1013
  C  C1451  1  0.594200  0.428800  0.358600  1.0  -0.0329
  C  C1452  1  0.609900  0.330300  0.289200  1.0  -0.1032
  C  C1453  1  0.555700  0.308800  0.280700  1.0  0.2621
  C  C1454  1  0.648500  0.315200  0.258600  1.0  0.1986
  C  C1455  1  0.499300  0.312900  0.303400  1.0  -0.4029
  C  C1456  1  0.710300  0.324200  0.250900  1.0  -0.3906
  C  C1457  1  0.336900  0.963000  0.522900  1.0  0.7085
  C  C1458  1  0.357000  0.928200  0.552800  1.0  -0.1324
  C  C1459  1  0.320800  0.893000  0.564400  1.0  -0.0535
  C  C1460  1  0.336700  0.863400  0.593400  1.0  -0.1265
  C  C1461  1  0.391700  0.867200  0.612300  1.0  -0.0207
  C  C1462  1  0.430000  0.902500  0.600800  1.0  -0.088
  C  C1463  1  0.412700  0.932600  0.570100  1.0  -0.0614
  C  C1464  1  0.404800  0.837200  0.646900  1.0  -0.0462
  C  C1465  1  0.454300  0.807600  0.651600  1.0  0.2028
  C  C1466  1  0.373300  0.833500  0.680700  1.0  0.1942
  C  C1467  1  0.504300  0.799800  0.623900  1.0  -0.3959
  C  C1468  1  0.319700  0.857400  0.694900  1.0  -0.3608
  C  C1469  1  0.157600  0.959600  0.414100  1.0  0.6815
  C  C1470  1  0.146800  0.926500  0.381200  1.0  -0.1593
  C  C1471  1  0.186600  0.891600  0.373400  1.0  -0.0533
  C  C1472  1  0.174300  0.859800  0.343800  1.0  -0.1599
  C  C1473  1  0.121600  0.862300  0.321100  1.0  0.0371
  C  C1474  1  0.082300  0.899300  0.329300  1.0  -0.1013
  C  C1475  1  0.094200  0.928800  0.358600  1.0  -0.0329
  C  C1476  1  0.109900  0.830300  0.289200  1.0  -0.1032
  C  C1477  1  0.055700  0.808800  0.280700  1.0  0.2621
  C  C1478  1  0.148500  0.815200  0.258600  1.0  0.1986
  C  C1479  1  0.999300  0.812900  0.303400  1.0  -0.4029
  C  C1480  1  0.210300  0.824200  0.250900  1.0  -0.3906
  C  C1481  1  0.336900  0.463000  0.022900  1.0  0.7085
  C  C1482  1  0.357000  0.428200  0.052800  1.0  -0.1324
  C  C1483  1  0.320800  0.393000  0.064400  1.0  -0.0535
  C  C1484  1  0.336700  0.363400  0.093400  1.0  -0.1265
  C  C1485  1  0.391700  0.367200  0.112300  1.0  -0.0207
  C  C1486  1  0.430000  0.402500  0.100800  1.0  -0.088
  C  C1487  1  0.412700  0.432600  0.070100  1.0  -0.0614
  C  C1488  1  0.404800  0.337200  0.146900  1.0  -0.0462
  C  C1489  1  0.454300  0.307600  0.151600  1.0  0.2028
  C  C1490  1  0.373300  0.333500  0.180700  1.0  0.1942
  C  C1491  1  0.504300  0.299800  0.123900  1.0  -0.3959
  C  C1492  1  0.319700  0.357400  0.194900  1.0  -0.3608
  C  C1493  1  0.157600  0.459600  0.914100  1.0  0.6815
  C  C1494  1  0.146800  0.426500  0.881200  1.0  -0.1593
  C  C1495  1  0.186600  0.391600  0.873400  1.0  -0.0533
  C  C1496  1  0.174300  0.359800  0.843800  1.0  -0.1599
  C  C1497  1  0.121600  0.362300  0.821100  1.0  0.0371
  C  C1498  1  0.082300  0.399300  0.829300  1.0  -0.1013
  C  C1499  1  0.094200  0.428800  0.858600  1.0  -0.0329
  C  C1500  1  0.109900  0.330300  0.789200  1.0  -0.1032
  C  C1501  1  0.055700  0.308800  0.780700  1.0  0.2621
  C  C1502  1  0.148500  0.315200  0.758600  1.0  0.1986
  C  C1503  1  0.999300  0.312900  0.803400  1.0  -0.4029
  C  C1504  1  0.210300  0.324200  0.750900  1.0  -0.3906
  N  N1505  1  0.692700  0.221700  0.973200  1.0  -0.4379
  N  N1506  1  0.653600  0.250100  0.955400  1.0  -0.1021
  N  N1507  1  0.692700  0.721700  0.473200  1.0  -0.4379
  N  N1508  1  0.653600  0.750100  0.455400  1.0  -0.1021
  N  N1509  1  0.192700  0.221700  0.473200  1.0  -0.4379
  N  N1510  1  0.153600  0.250100  0.455400  1.0  -0.1021
  N  N1511  1  0.192700  0.721700  0.973200  1.0  -0.4379
  N  N1512  1  0.153600  0.750100  0.955400  1.0  -0.1021
  N  N1513  1  0.307300  0.778300  0.973200  1.0  -0.4374
  N  N1514  1  0.346400  0.749900  0.955400  1.0  -0.1004
  N  N1515  1  0.307300  0.278300  0.473200  1.0  -0.4374
  N  N1516  1  0.346400  0.249900  0.455400  1.0  -0.1004
  N  N1517  1  0.807300  0.778300  0.473200  1.0  -0.4374
  N  N1518  1  0.846400  0.749900  0.455400  1.0  -0.1004
  N  N1519  1  0.807300  0.278300  0.973200  1.0  -0.4374
  N  N1520  1  0.846400  0.249900  0.955400  1.0  -0.1004
  N  N1521  1  0.942700  0.028300  0.223200  1.0  -0.4378
  N  N1522  1  0.903600  0.999900  0.205400  1.0  -0.1017
  N  N1523  1  0.942700  0.528300  0.723200  1.0  -0.4378
  N  N1524  1  0.903600  0.499900  0.705400  1.0  -0.1017
  N  N1525  1  0.442700  0.028300  0.723200  1.0  -0.4378
  N  N1526  1  0.403600  0.999900  0.705400  1.0  -0.1017
  N  N1527  1  0.442700  0.528300  0.223200  1.0  -0.4378
  N  N1528  1  0.403600  0.499900  0.205400  1.0  -0.1017
  N  N1529  1  0.557300  0.471700  0.223200  1.0  -0.4374
  N  N1530  1  0.596400  0.500100  0.205400  1.0  -0.1009
  N  N1531  1  0.557300  0.971700  0.723200  1.0  -0.4374
  N  N1532  1  0.596400  0.000100  0.705400  1.0  -0.1009
  N  N1533  1  0.057300  0.471700  0.723200  1.0  -0.4374
  N  N1534  1  0.096400  0.500100  0.705400  1.0  -0.1009
  N  N1535  1  0.057300  0.971700  0.223200  1.0  -0.4374
  N  N1536  1  0.096400  0.000100  0.205400  1.0  -0.1009
  N  N1537  1  0.650400  0.447100  0.954200  1.0  -0.1147
  N  N1538  1  0.699400  0.463900  0.936900  1.0  -0.2747
  N  N1539  1  0.367200  0.463000  0.486400  1.0  -0.1067
  N  N1540  1  0.309400  0.467700  0.498700  1.0  -0.4526
  N  N1541  1  0.650400  0.947100  0.454200  1.0  -0.1147
  N  N1542  1  0.699400  0.963900  0.436900  1.0  -0.2747
  N  N1543  1  0.367200  0.963000  0.986400  1.0  -0.1067
  N  N1544  1  0.309400  0.967700  0.998700  1.0  -0.4526
  N  N1545  1  0.150400  0.447100  0.454200  1.0  -0.1147
  N  N1546  1  0.199400  0.463900  0.436900  1.0  -0.2747
  N  N1547  1  0.867200  0.463000  0.986400  1.0  -0.1067
  N  N1548  1  0.809400  0.467700  0.998700  1.0  -0.4526
  N  N1549  1  0.150400  0.947100  0.954200  1.0  -0.1147
  N  N1550  1  0.199400  0.963900  0.936900  1.0  -0.2747
  N  N1551  1  0.867200  0.963000  0.486400  1.0  -0.1067
  N  N1552  1  0.809400  0.967700  0.498700  1.0  -0.4526
  N  N1553  1  0.599600  0.697100  0.204200  1.0  -0.1134
  N  N1554  1  0.550600  0.713900  0.186900  1.0  -0.2751
  N  N1555  1  0.882800  0.713000  0.736400  1.0  -0.108
  N  N1556  1  0.940600  0.717700  0.748700  1.0  -0.4525
  N  N1557  1  0.599600  0.197100  0.704200  1.0  -0.1134
  N  N1558  1  0.550600  0.213900  0.686900  1.0  -0.2751
  N  N1559  1  0.882800  0.213000  0.236400  1.0  -0.108
  N  N1560  1  0.940600  0.217700  0.248700  1.0  -0.4525
  N  N1561  1  0.099600  0.697100  0.704200  1.0  -0.1134
  N  N1562  1  0.050600  0.713900  0.686900  1.0  -0.2751
  N  N1563  1  0.382800  0.713000  0.236400  1.0  -0.108
  N  N1564  1  0.440600  0.717700  0.248700  1.0  -0.4525
  N  N1565  1  0.099600  0.197100  0.204200  1.0  -0.1134
  N  N1566  1  0.050600  0.213900  0.186900  1.0  -0.2751
  N  N1567  1  0.382800  0.213000  0.736400  1.0  -0.108
  N  N1568  1  0.440600  0.217700  0.748700  1.0  -0.4525
  N  N1569  1  0.885700  0.037200  0.773000  1.0  -0.1687
  N  N1570  1  0.943500  0.035500  0.762400  1.0  -0.2566
  N  N1571  1  0.885700  0.537200  0.273000  1.0  -0.1687
  N  N1572  1  0.943500  0.535500  0.262400  1.0  -0.2566
  N  N1573  1  0.385700  0.037200  0.273000  1.0  -0.1687
  N  N1574  1  0.443500  0.035500  0.262400  1.0  -0.2566
  N  N1575  1  0.385700  0.537200  0.773000  1.0  -0.1687
  N  N1576  1  0.443500  0.535500  0.762400  1.0  -0.2566
  N  N1577  1  0.114300  0.962800  0.773000  1.0  -0.1691
  N  N1578  1  0.056500  0.964500  0.762400  1.0  -0.2597
  N  N1579  1  0.114300  0.462800  0.273000  1.0  -0.1691
  N  N1580  1  0.056500  0.464500  0.262400  1.0  -0.2597
  N  N1581  1  0.614300  0.962800  0.273000  1.0  -0.1691
  N  N1582  1  0.556500  0.964500  0.262400  1.0  -0.2597
  N  N1583  1  0.614300  0.462800  0.773000  1.0  -0.1691
  N  N1584  1  0.556500  0.464500  0.762400  1.0  -0.2597
  N  N1585  1  0.135700  0.212800  0.023000  1.0  -0.1691
  N  N1586  1  0.193500  0.214500  0.012400  1.0  -0.2586
  N  N1587  1  0.135700  0.712800  0.523000  1.0  -0.1691
  N  N1588  1  0.193500  0.714500  0.512400  1.0  -0.2586
  N  N1589  1  0.635700  0.212800  0.523000  1.0  -0.1691
  N  N1590  1  0.693500  0.214500  0.512400  1.0  -0.2586
  N  N1591  1  0.635700  0.712800  0.023000  1.0  -0.1691
  N  N1592  1  0.693500  0.714500  0.012400  1.0  -0.2586
  N  N1593  1  0.364300  0.287200  0.023000  1.0  -0.1695
  N  N1594  1  0.306500  0.285500  0.012400  1.0  -0.2584
  N  N1595  1  0.364300  0.787200  0.523000  1.0  -0.1695
  N  N1596  1  0.306500  0.785500  0.512400  1.0  -0.2584
  N  N1597  1  0.864300  0.287200  0.523000  1.0  -0.1695
  N  N1598  1  0.806500  0.285500  0.512400  1.0  -0.2584
  N  N1599  1  0.864300  0.787200  0.023000  1.0  -0.1695
  N  N1600  1  0.806500  0.785500  0.012400  1.0  -0.2584
  N  N1601  1  0.349600  0.552900  0.954200  1.0  -0.1129
  N  N1602  1  0.300600  0.536100  0.936900  1.0  -0.2756
  N  N1603  1  0.632800  0.537000  0.486400  1.0  -0.1094
  N  N1604  1  0.690600  0.532300  0.498700  1.0  -0.4501
  N  N1605  1  0.349600  0.052900  0.454200  1.0  -0.1129
  N  N1606  1  0.300600  0.036100  0.436900  1.0  -0.2756
  N  N1607  1  0.632800  0.037000  0.986400  1.0  -0.1094
  N  N1608  1  0.690600  0.032300  0.998700  1.0  -0.4501
  N  N1609  1  0.849600  0.552900  0.454200  1.0  -0.1129
  N  N1610  1  0.800600  0.536100  0.436900  1.0  -0.2756
  N  N1611  1  0.132800  0.537000  0.986400  1.0  -0.1094
  N  N1612  1  0.190600  0.532300  0.998700  1.0  -0.4501
  N  N1613  1  0.849600  0.052900  0.954200  1.0  -0.1129
  N  N1614  1  0.800600  0.036100  0.936900  1.0  -0.2756
  N  N1615  1  0.132800  0.037000  0.486400  1.0  -0.1094
  N  N1616  1  0.190600  0.032300  0.498700  1.0  -0.4501
  N  N1617  1  0.900400  0.802900  0.204200  1.0  -0.1137
  N  N1618  1  0.949400  0.786100  0.186900  1.0  -0.2747
  N  N1619  1  0.617200  0.787000  0.736400  1.0  -0.1089
  N  N1620  1  0.559400  0.782300  0.748700  1.0  -0.4508
  N  N1621  1  0.900400  0.302900  0.704200  1.0  -0.1137
  N  N1622  1  0.949400  0.286100  0.686900  1.0  -0.2747
  N  N1623  1  0.617200  0.287000  0.236400  1.0  -0.1089
  N  N1624  1  0.559400  0.282300  0.248700  1.0  -0.4508
  N  N1625  1  0.400400  0.802900  0.704200  1.0  -0.1137
  N  N1626  1  0.449400  0.786100  0.686900  1.0  -0.2747
  N  N1627  1  0.117200  0.787000  0.236400  1.0  -0.1089
  N  N1628  1  0.059400  0.782300  0.248700  1.0  -0.4508
  N  N1629  1  0.400400  0.302900  0.204200  1.0  -0.1137
  N  N1630  1  0.449400  0.286100  0.186900  1.0  -0.2747
  N  N1631  1  0.117200  0.287000  0.736400  1.0  -0.1089
  N  N1632  1  0.059400  0.282300  0.748700  1.0  -0.4508
  O  O1633  1  0.539200  0.040300  0.799400  1.0  -0.5982
  O  O1634  1  0.607200  0.071200  0.758600  1.0  -0.561
  O  O1635  1  0.539200  0.540300  0.299400  1.0  -0.5982
  O  O1636  1  0.607200  0.571200  0.258600  1.0  -0.561
  O  O1637  1  0.039200  0.040300  0.299400  1.0  -0.5982
  O  O1638  1  0.107200  0.071200  0.258600  1.0  -0.561
  O  O1639  1  0.039200  0.540300  0.799400  1.0  -0.5982
  O  O1640  1  0.107200  0.571200  0.758600  1.0  -0.561
  O  O1641  1  0.460800  0.959700  0.799400  1.0  -0.5986
  O  O1642  1  0.392800  0.928800  0.758600  1.0  -0.5588
  O  O1643  1  0.460800  0.459700  0.299400  1.0  -0.5986
  O  O1644  1  0.392800  0.428800  0.258600  1.0  -0.5588
  O  O1645  1  0.960800  0.959700  0.299400  1.0  -0.5986
  O  O1646  1  0.892800  0.928800  0.258600  1.0  -0.5588
  O  O1647  1  0.960800  0.459700  0.799400  1.0  -0.5986
  O  O1648  1  0.892800  0.428800  0.758600  1.0  -0.5588
  O  O1649  1  0.789200  0.209700  0.049400  1.0  -0.5984
  O  O1650  1  0.857200  0.178800  0.008600  1.0  -0.5604
  O  O1651  1  0.789200  0.709700  0.549400  1.0  -0.5984
  O  O1652  1  0.857200  0.678800  0.508600  1.0  -0.5604
  O  O1653  1  0.289200  0.209700  0.549400  1.0  -0.5984
  O  O1654  1  0.357200  0.178800  0.508600  1.0  -0.5604
  O  O1655  1  0.289200  0.709700  0.049400  1.0  -0.5984
  O  O1656  1  0.357200  0.678800  0.008600  1.0  -0.5604
  O  O1657  1  0.710800  0.290300  0.049400  1.0  -0.5978
  O  O1658  1  0.642800  0.321200  0.008600  1.0  -0.5555
  O  O1659  1  0.710800  0.790300  0.549400  1.0  -0.5978
  O  O1660  1  0.642800  0.821200  0.508600  1.0  -0.5555
  O  O1661  1  0.210800  0.290300  0.549400  1.0  -0.5978
  O  O1662  1  0.142800  0.321200  0.508600  1.0  -0.5555
  O  O1663  1  0.210800  0.790300  0.049400  1.0  -0.5978
  O  O1664  1  0.142800  0.821200  0.008600  1.0  -0.5555
  O  O1665  1  0.537400  0.293500  0.755600  1.0  -0.6119
  O  O1666  1  0.618700  0.253000  0.767700  1.0  -0.5968
  O  O1667  1  0.456500  0.295200  0.681400  1.0  -0.5933
  O  O1668  1  0.371400  0.260600  0.669900  1.0  -0.5807
  O  O1669  1  0.537400  0.793500  0.255600  1.0  -0.6119
  O  O1670  1  0.618700  0.753000  0.267700  1.0  -0.5968
  O  O1671  1  0.456500  0.795200  0.181400  1.0  -0.5933
  O  O1672  1  0.371400  0.760600  0.169900  1.0  -0.5807
  O  O1673  1  0.037400  0.293500  0.255600  1.0  -0.6119
  O  O1674  1  0.118700  0.253000  0.267700  1.0  -0.5967
  O  O1675  1  0.956500  0.295200  0.181400  1.0  -0.5933
  O  O1676  1  0.871400  0.260600  0.169900  1.0  -0.5805
  O  O1677  1  0.037400  0.793500  0.755600  1.0  -0.6119
  O  O1678  1  0.118700  0.753000  0.767700  1.0  -0.5967
  O  O1679  1  0.956500  0.795200  0.681400  1.0  -0.5933
  O  O1680  1  0.871400  0.760600  0.669900  1.0  -0.5805
  O  O1681  1  0.712600  0.543500  0.005600  1.0  -0.612
  O  O1682  1  0.631300  0.503000  0.017700  1.0  -0.5953
  O  O1683  1  0.793500  0.545200  0.931400  1.0  -0.5924
  O  O1684  1  0.878600  0.510600  0.919900  1.0  -0.5809
  O  O1685  1  0.712600  0.043500  0.505600  1.0  -0.612
  O  O1686  1  0.631300  0.003000  0.517700  1.0  -0.5953
  O  O1687  1  0.793500  0.045200  0.431400  1.0  -0.5924
  O  O1688  1  0.878600  0.010600  0.419900  1.0  -0.5809
  O  O1689  1  0.212600  0.543500  0.505600  1.0  -0.612
  O  O1690  1  0.131300  0.503000  0.517700  1.0  -0.5963
  O  O1691  1  0.293500  0.545200  0.431400  1.0  -0.5924
  O  O1692  1  0.378600  0.510600  0.419900  1.0  -0.5807
  O  O1693  1  0.212600  0.043500  0.005600  1.0  -0.612
  O  O1694  1  0.131300  0.003000  0.017700  1.0  -0.5963
  O  O1695  1  0.293500  0.045200  0.931400  1.0  -0.5924
  O  O1696  1  0.378600  0.010600  0.919900  1.0  -0.5807
  O  O1697  1  0.787500  0.205300  0.578300  1.0  -0.6031
  O  O1698  1  0.872400  0.239000  0.588500  1.0  -0.5797
  O  O1699  1  0.787500  0.705300  0.078300  1.0  -0.6031
  O  O1700  1  0.872400  0.739000  0.088500  1.0  -0.5797
  O  O1701  1  0.287500  0.205300  0.078300  1.0  -0.6031
  O  O1702  1  0.372400  0.239000  0.088500  1.0  -0.5797
  O  O1703  1  0.287500  0.705300  0.578300  1.0  -0.6031
  O  O1704  1  0.372400  0.739000  0.588500  1.0  -0.5797
  O  O1705  1  0.212500  0.794700  0.578300  1.0  -0.6021
  O  O1706  1  0.127600  0.761000  0.588500  1.0  -0.5784
  O  O1707  1  0.212500  0.294700  0.078300  1.0  -0.6021
  O  O1708  1  0.127600  0.261000  0.088500  1.0  -0.5784
  O  O1709  1  0.712500  0.794700  0.078300  1.0  -0.6021
  O  O1710  1  0.627600  0.761000  0.088500  1.0  -0.5784
  O  O1711  1  0.712500  0.294700  0.578300  1.0  -0.6021
  O  O1712  1  0.627600  0.261000  0.588500  1.0  -0.5784
  O  O1713  1  0.037500  0.044700  0.828300  1.0  -0.6029
  O  O1714  1  0.122400  0.011000  0.838500  1.0  -0.578
  O  O1715  1  0.037500  0.544700  0.328300  1.0  -0.6029
  O  O1716  1  0.122400  0.511000  0.338500  1.0  -0.578
  O  O1717  1  0.537500  0.044700  0.328300  1.0  -0.6029
  O  O1718  1  0.622400  0.011000  0.338500  1.0  -0.578
  O  O1719  1  0.537500  0.544700  0.828300  1.0  -0.6029
  O  O1720  1  0.622400  0.511000  0.838500  1.0  -0.578
  O  O1721  1  0.462500  0.455300  0.828300  1.0  -0.6017
  O  O1722  1  0.377600  0.489000  0.838500  1.0  -0.5801
  O  O1723  1  0.462500  0.955300  0.328300  1.0  -0.6017
  O  O1724  1  0.377600  0.989000  0.338500  1.0  -0.5801
  O  O1725  1  0.962500  0.455300  0.328300  1.0  -0.6017
  O  O1726  1  0.877600  0.489000  0.338500  1.0  -0.5801
  O  O1727  1  0.962500  0.955300  0.828300  1.0  -0.6017
  O  O1728  1  0.877600  0.989000  0.838500  1.0  -0.5801
  O  O1729  1  0.462600  0.706500  0.755600  1.0  -0.6117
  O  O1730  1  0.381300  0.747000  0.767700  1.0  -0.596
  O  O1731  1  0.543500  0.704800  0.681400  1.0  -0.5926
  O  O1732  1  0.628600  0.739400  0.669900  1.0  -0.5807
  O  O1733  1  0.462600  0.206500  0.255600  1.0  -0.6117
  O  O1734  1  0.381300  0.247000  0.267700  1.0  -0.596
  O  O1735  1  0.543500  0.204800  0.181400  1.0  -0.5926
  O  O1736  1  0.628600  0.239400  0.169900  1.0  -0.5807
  O  O1737  1  0.962600  0.706500  0.255600  1.0  -0.6117
  O  O1738  1  0.881300  0.747000  0.267700  1.0  -0.5961
  O  O1739  1  0.043500  0.704800  0.181400  1.0  -0.5926
  O  O1740  1  0.128600  0.739400  0.169900  1.0  -0.581
  O  O1741  1  0.962600  0.206500  0.755600  1.0  -0.6117
  O  O1742  1  0.881300  0.247000  0.767700  1.0  -0.5961
  O  O1743  1  0.043500  0.204800  0.681400  1.0  -0.5926
  O  O1744  1  0.128600  0.239400  0.669900  1.0  -0.581
  O  O1745  1  0.787400  0.956500  0.005600  1.0  -0.6117
  O  O1746  1  0.868700  0.997000  0.017700  1.0  -0.5967
  O  O1747  1  0.706500  0.954800  0.931400  1.0  -0.5932
  O  O1748  1  0.621400  0.989400  0.919900  1.0  -0.5806
  O  O1749  1  0.787400  0.456500  0.505600  1.0  -0.6117
  O  O1750  1  0.868700  0.497000  0.517700  1.0  -0.5967
  O  O1751  1  0.706500  0.454800  0.431400  1.0  -0.5932
  O  O1752  1  0.621400  0.489400  0.419900  1.0  -0.5806
  O  O1753  1  0.287400  0.956500  0.505600  1.0  -0.6117
  O  O1754  1  0.368700  0.997000  0.517700  1.0  -0.5958
  O  O1755  1  0.206500  0.954800  0.431400  1.0  -0.5932
  O  O1756  1  0.121400  0.989400  0.419900  1.0  -0.5808
  O  O1757  1  0.287400  0.456500  0.005600  1.0  -0.6117
  O  O1758  1  0.368700  0.497000  0.017700  1.0  -0.5958
  O  O1759  1  0.206500  0.454800  0.931400  1.0  -0.5932
  O  O1760  1  0.121400  0.489400  0.919900  1.0  -0.5808
