# generated using pymatgen
data_ZnH13C22N3O4
_symmetry_space_group_name_H-M   'P 1'
_cell_length_a   29.87500000
_cell_length_b   29.87500000
_cell_length_c   18.07200000
_cell_angle_alpha   90.00000000
_cell_angle_beta   90.00000000
_cell_angle_gamma   120.00000000
_symmetry_Int_Tables_number   1
_chemical_formula_structural   ZnH13C22N3O4
_chemical_formula_sum   'Zn18 H234 C396 N54 O72'
_cell_volume   13968.59344817
_cell_formula_units_Z   18
loop_
 _symmetry_equiv_pos_site_id
 _symmetry_equiv_pos_as_xyz
  1  'x, y, z'
loop_
 _atom_site_type_symbol
 _atom_site_label
 _atom_site_symmetry_multiplicity
 _atom_site_fract_x
 _atom_site_fract_y
 _atom_site_fract_z
 _atom_site_occupancy
 _atom_site_charge
  Zn  Zn1  1  0.625180  0.853760  0.519300  1.0  0.9063
  Zn  Zn2  1  0.291850  0.187090  0.852630  1.0  0.9071
  Zn  Zn3  1  0.958510  0.520430  0.185970  1.0  0.9064
  Zn  Zn4  1  0.146240  0.771420  0.519300  1.0  0.9071
  Zn  Zn5  1  0.812910  0.104750  0.852630  1.0  0.9056
  Zn  Zn6  1  0.479570  0.438090  0.185970  1.0  0.9071
  Zn  Zn7  1  0.228580  0.374820  0.519300  1.0  0.9064
  Zn  Zn8  1  0.895250  0.708150  0.852630  1.0  0.9073
  Zn  Zn9  1  0.561910  0.041490  0.185970  1.0  0.9064
  Zn  Zn10  1  0.374820  0.146240  0.480700  1.0  0.906
  Zn  Zn11  1  0.041490  0.479570  0.814030  1.0  0.906
  Zn  Zn12  1  0.708150  0.812910  0.147370  1.0  0.9067
  Zn  Zn13  1  0.853760  0.228580  0.480700  1.0  0.9069
  Zn  Zn14  1  0.520430  0.561910  0.814030  1.0  0.9069
  Zn  Zn15  1  0.187090  0.895250  0.147370  1.0  0.9053
  Zn  Zn16  1  0.771420  0.625180  0.480700  1.0  0.906
  Zn  Zn17  1  0.438090  0.958510  0.814030  1.0  0.906
  Zn  Zn18  1  0.104750  0.291850  0.147370  1.0  0.907
  H  H19  1  0.660400  0.965400  0.454700  1.0  0.0945
  H  H20  1  0.662400  0.001400  0.339500  1.0  0.1178
  H  H21  1  0.640700  0.949600  0.233600  1.0  0.1196
  H  H22  1  0.614600  0.861500  0.246300  1.0  0.1106
  H  H23  1  0.514400  0.695700  0.240400  1.0  0.1199
  H  H24  1  0.475800  0.617000  0.180000  1.0  0.1108
  H  H25  1  0.517800  0.554800  0.347200  1.0  0.117
  H  H26  1  0.555400  0.633800  0.409100  1.0  0.1158
  H  H27  1  0.638200  0.756900  0.552700  1.0  0.108
  H  H28  1  0.625200  0.713300  0.665100  1.0  0.1249
  H  H29  1  0.476600  0.613600  0.607000  1.0  0.1175
  H  H30  1  0.490400  0.655900  0.493000  1.0  0.1263
  H  H31  1  0.580900  0.770400  0.287000  1.0  0.3223
  H  H32  1  0.327070  0.298730  0.788030  1.0  0.0944
  H  H33  1  0.329070  0.334730  0.672830  1.0  0.1178
  H  H34  1  0.307370  0.282930  0.566930  1.0  0.1196
  H  H35  1  0.281270  0.194830  0.579630  1.0  0.1106
  H  H36  1  0.181070  0.029030  0.573730  1.0  0.1198
  H  H37  1  0.142470  0.950330  0.513330  1.0  0.1116
  H  H38  1  0.184470  0.888130  0.680530  1.0  0.117
  H  H39  1  0.222070  0.967130  0.742430  1.0  0.1158
  H  H40  1  0.304870  0.090230  0.886030  1.0  0.108
  H  H41  1  0.291870  0.046630  0.998430  1.0  0.1249
  H  H42  1  0.143270  0.946930  0.940330  1.0  0.1178
  H  H43  1  0.157070  0.989230  0.826330  1.0  0.1263
  H  H44  1  0.247570  0.103730  0.620330  1.0  0.3223
  H  H45  1  0.993730  0.632070  0.121370  1.0  0.0945
  H  H46  1  0.995730  0.668070  0.006170  1.0  0.1178
  H  H47  1  0.974030  0.616270  0.900270  1.0  0.1196
  H  H48  1  0.947930  0.528170  0.912970  1.0  0.1106
  H  H49  1  0.847730  0.362370  0.907070  1.0  0.1198
  H  H50  1  0.809130  0.283670  0.846670  1.0  0.1108
  H  H51  1  0.851130  0.221470  0.013870  1.0  0.117
  H  H52  1  0.888730  0.300470  0.075770  1.0  0.1158
  H  H53  1  0.971530  0.423570  0.219370  1.0  0.108
  H  H54  1  0.958530  0.379970  0.331770  1.0  0.1249
  H  H55  1  0.809930  0.280270  0.273670  1.0  0.1175
  H  H56  1  0.823730  0.322570  0.159670  1.0  0.1263
  H  H57  1  0.914230  0.437070  0.953670  1.0  0.3222
  H  H58  1  0.034600  0.695000  0.454700  1.0  0.0957
  H  H59  1  0.998600  0.661000  0.339500  1.0  0.1163
  H  H60  1  0.050400  0.691100  0.233600  1.0  0.1195
  H  H61  1  0.138500  0.753100  0.246300  1.0  0.1086
  H  H62  1  0.304300  0.818700  0.240400  1.0  0.1189
  H  H63  1  0.383000  0.858800  0.180000  1.0  0.1118
  H  H64  1  0.445200  0.963000  0.347200  1.0  0.1156
  H  H65  1  0.366200  0.921600  0.409100  1.0  0.1149
  H  H66  1  0.243100  0.881300  0.552700  1.0  0.1082
  H  H67  1  0.286700  0.911900  0.665100  1.0  0.125
  H  H68  1  0.386400  0.863000  0.607000  1.0  0.1167
  H  H69  1  0.344100  0.834500  0.493000  1.0  0.1262
  H  H70  1  0.229600  0.810500  0.287000  1.0  0.3206
  H  H71  1  0.701270  0.028330  0.788030  1.0  0.0957
  H  H72  1  0.665270  0.994330  0.672830  1.0  0.1163
  H  H73  1  0.717070  0.024430  0.566930  1.0  0.1195
  H  H74  1  0.805170  0.086430  0.579630  1.0  0.1086
  H  H75  1  0.970970  0.152030  0.573730  1.0  0.1189
  H  H76  1  0.049670  0.192130  0.513330  1.0  0.1111
  H  H77  1  0.111870  0.296330  0.680530  1.0  0.1156
  H  H78  1  0.032870  0.254930  0.742430  1.0  0.1149
  H  H79  1  0.909770  0.214630  0.886030  1.0  0.1082
  H  H80  1  0.953370  0.245230  0.998430  1.0  0.1249
  H  H81  1  0.053070  0.196330  0.940330  1.0  0.1169
  H  H82  1  0.010770  0.167830  0.826330  1.0  0.1262
  H  H83  1  0.896270  0.143830  0.620330  1.0  0.3209
  H  H84  1  0.367930  0.361670  0.121370  1.0  0.0957
  H  H85  1  0.331930  0.327670  0.006170  1.0  0.1163
  H  H86  1  0.383730  0.357770  0.900270  1.0  0.1195
  H  H87  1  0.471830  0.419770  0.912970  1.0  0.1086
  H  H88  1  0.637630  0.485370  0.907070  1.0  0.1189
  H  H89  1  0.716330  0.525470  0.846670  1.0  0.1118
  H  H90  1  0.778530  0.629670  0.013870  1.0  0.1157
  H  H91  1  0.699530  0.588270  0.075770  1.0  0.1149
  H  H92  1  0.576430  0.547970  0.219370  1.0  0.1082
  H  H93  1  0.620030  0.578570  0.331770  1.0  0.125
  H  H94  1  0.719730  0.529670  0.273670  1.0  0.1167
  H  H95  1  0.677430  0.501170  0.159670  1.0  0.1262
  H  H96  1  0.562930  0.477170  0.953670  1.0  0.3205
  H  H97  1  0.305000  0.339600  0.454700  1.0  0.0957
  H  H98  1  0.339000  0.337600  0.339500  1.0  0.1168
  H  H99  1  0.308900  0.359300  0.233600  1.0  0.1199
  H  H100  1  0.246900  0.385400  0.246300  1.0  0.11
  H  H101  1  0.181300  0.485600  0.240400  1.0  0.121
  H  H102  1  0.141200  0.524200  0.180000  1.0  0.1111
  H  H103  1  0.037000  0.482200  0.347200  1.0  0.1165
  H  H104  1  0.078400  0.444600  0.409100  1.0  0.1167
  H  H105  1  0.118700  0.361800  0.552700  1.0  0.1083
  H  H106  1  0.088100  0.374800  0.665100  1.0  0.1245
  H  H107  1  0.137000  0.523400  0.607000  1.0  0.1185
  H  H108  1  0.165500  0.509600  0.493000  1.0  0.1261
  H  H109  1  0.189500  0.419100  0.287000  1.0  0.3202
  H  H110  1  0.971670  0.672930  0.788030  1.0  0.0957
  H  H111  1  0.005670  0.670930  0.672830  1.0  0.1168
  H  H112  1  0.975570  0.692630  0.566930  1.0  0.1199
  H  H113  1  0.913570  0.718730  0.579630  1.0  0.11
  H  H114  1  0.847970  0.818930  0.573730  1.0  0.121
  H  H115  1  0.807870  0.857530  0.513330  1.0  0.1111
  H  H116  1  0.703670  0.815530  0.680530  1.0  0.1165
  H  H117  1  0.745070  0.777930  0.742430  1.0  0.1167
  H  H118  1  0.785370  0.695130  0.886030  1.0  0.1083
  H  H119  1  0.754770  0.708130  0.998430  1.0  0.1246
  H  H120  1  0.803670  0.856730  0.940330  1.0  0.1185
  H  H121  1  0.832170  0.842930  0.826330  1.0  0.1261
  H  H122  1  0.856170  0.752430  0.620330  1.0  0.3201
  H  H123  1  0.638330  0.006270  0.121370  1.0  0.0956
  H  H124  1  0.672330  0.004270  0.006170  1.0  0.1168
  H  H125  1  0.642230  0.025970  0.900270  1.0  0.1199
  H  H126  1  0.580230  0.052070  0.912970  1.0  0.11
  H  H127  1  0.514630  0.152270  0.907070  1.0  0.121
  H  H128  1  0.474530  0.190870  0.846670  1.0  0.1111
  H  H129  1  0.370330  0.148870  0.013870  1.0  0.1164
  H  H130  1  0.411730  0.111270  0.075770  1.0  0.1167
  H  H131  1  0.452030  0.028470  0.219370  1.0  0.1083
  H  H132  1  0.421430  0.041470  0.331770  1.0  0.1245
  H  H133  1  0.470330  0.190070  0.273670  1.0  0.1185
  H  H134  1  0.498830  0.176270  0.159670  1.0  0.1261
  H  H135  1  0.522830  0.085770  0.953670  1.0  0.3202
  H  H136  1  0.339600  0.034600  0.545300  1.0  0.0952
  H  H137  1  0.337600  0.998600  0.660500  1.0  0.117
  H  H138  1  0.359300  0.050400  0.766400  1.0  0.1198
  H  H139  1  0.385400  0.138500  0.753700  1.0  0.1094
  H  H140  1  0.485600  0.304300  0.759600  1.0  0.12
  H  H141  1  0.524200  0.383000  0.820000  1.0  0.1111
  H  H142  1  0.482200  0.445200  0.652800  1.0  0.1162
  H  H143  1  0.444600  0.366200  0.590900  1.0  0.1158
  H  H144  1  0.361800  0.243100  0.447300  1.0  0.108
  H  H145  1  0.374800  0.286700  0.334900  1.0  0.1239
  H  H146  1  0.523400  0.386400  0.393000  1.0  0.1183
  H  H147  1  0.509600  0.344100  0.507000  1.0  0.1259
  H  H148  1  0.419100  0.229600  0.713000  1.0  0.3228
  H  H149  1  0.006270  0.367930  0.878630  1.0  0.0953
  H  H150  1  0.004270  0.331930  0.993830  1.0  0.1171
  H  H151  1  0.025970  0.383730  0.099730  1.0  0.1198
  H  H152  1  0.052070  0.471830  0.087030  1.0  0.1094
  H  H153  1  0.152270  0.637630  0.092930  1.0  0.12
  H  H154  1  0.190870  0.716330  0.153330  1.0  0.1111
  H  H155  1  0.148870  0.778530  0.986130  1.0  0.1162
  H  H156  1  0.111270  0.699530  0.924230  1.0  0.1158
  H  H157  1  0.028470  0.576430  0.780630  1.0  0.108
  H  H158  1  0.041470  0.620030  0.668230  1.0  0.124
  H  H159  1  0.190070  0.719730  0.726330  1.0  0.1183
  H  H160  1  0.176270  0.677430  0.840330  1.0  0.1259
  H  H161  1  0.085770  0.562930  0.046330  1.0  0.3228
  H  H162  1  0.672930  0.701270  0.211970  1.0  0.0952
  H  H163  1  0.670930  0.665270  0.327170  1.0  0.117
  H  H164  1  0.692630  0.717070  0.433070  1.0  0.1198
  H  H165  1  0.718730  0.805170  0.420370  1.0  0.1094
  H  H166  1  0.818930  0.970970  0.426270  1.0  0.12
  H  H167  1  0.857530  0.049670  0.486670  1.0  0.1119
  H  H168  1  0.815530  0.111870  0.319470  1.0  0.1162
  H  H169  1  0.777930  0.032870  0.257570  1.0  0.1158
  H  H170  1  0.695130  0.909770  0.113970  1.0  0.108
  H  H171  1  0.708130  0.953370  0.001570  1.0  0.1239
  H  H172  1  0.856730  0.053070  0.059670  1.0  0.1187
  H  H173  1  0.842930  0.010770  0.173670  1.0  0.1259
  H  H174  1  0.752430  0.896270  0.379670  1.0  0.3229
  H  H175  1  0.965400  0.305000  0.545300  1.0  0.0956
  H  H176  1  0.001400  0.339000  0.660500  1.0  0.1162
  H  H177  1  0.949600  0.308900  0.766400  1.0  0.1194
  H  H178  1  0.861500  0.246900  0.753700  1.0  0.1085
  H  H179  1  0.695700  0.181300  0.759600  1.0  0.1187
  H  H180  1  0.617000  0.141200  0.820000  1.0  0.1123
  H  H181  1  0.554800  0.037000  0.652800  1.0  0.1155
  H  H182  1  0.633800  0.078400  0.590900  1.0  0.115
  H  H183  1  0.756900  0.118700  0.447300  1.0  0.1076
  H  H184  1  0.713300  0.088100  0.334900  1.0  0.1247
  H  H185  1  0.613600  0.137000  0.393000  1.0  0.1177
  H  H186  1  0.655900  0.165500  0.507000  1.0  0.1272
  H  H187  1  0.770400  0.189500  0.713000  1.0  0.3213
  H  H188  1  0.632070  0.638330  0.878630  1.0  0.0956
  H  H189  1  0.668070  0.672330  0.993830  1.0  0.1162
  H  H190  1  0.616270  0.642230  0.099730  1.0  0.1194
  H  H191  1  0.528170  0.580230  0.087030  1.0  0.1085
  H  H192  1  0.362370  0.514630  0.092930  1.0  0.1187
  H  H193  1  0.283670  0.474530  0.153330  1.0  0.1123
  H  H194  1  0.221470  0.370330  0.986130  1.0  0.1155
  H  H195  1  0.300470  0.411730  0.924230  1.0  0.115
  H  H196  1  0.423570  0.452030  0.780630  1.0  0.1076
  H  H197  1  0.379970  0.421430  0.668230  1.0  0.1247
  H  H198  1  0.280270  0.470330  0.726330  1.0  0.1177
  H  H199  1  0.322570  0.498830  0.840330  1.0  0.1272
  H  H200  1  0.437070  0.522830  0.046330  1.0  0.3212
  H  H201  1  0.298730  0.971670  0.211970  1.0  0.0956
  H  H202  1  0.334730  0.005670  0.327170  1.0  0.1162
  H  H203  1  0.282930  0.975570  0.433070  1.0  0.1194
  H  H204  1  0.194830  0.913570  0.420370  1.0  0.1085
  H  H205  1  0.029030  0.847970  0.426270  1.0  0.1187
  H  H206  1  0.950330  0.807870  0.486670  1.0  0.1115
  H  H207  1  0.888130  0.703670  0.319470  1.0  0.1155
  H  H208  1  0.967130  0.745070  0.257570  1.0  0.115
  H  H209  1  0.090230  0.785370  0.113970  1.0  0.1076
  H  H210  1  0.046630  0.754770  0.001570  1.0  0.1246
  H  H211  1  0.946930  0.803670  0.059670  1.0  0.1173
  H  H212  1  0.989230  0.832170  0.173670  1.0  0.1272
  H  H213  1  0.103730  0.856170  0.379670  1.0  0.3217
  H  H214  1  0.695000  0.660400  0.545300  1.0  0.0954
  H  H215  1  0.661000  0.662400  0.660500  1.0  0.1166
  H  H216  1  0.691100  0.640700  0.766400  1.0  0.1198
  H  H217  1  0.753100  0.614600  0.753700  1.0  0.1099
  H  H218  1  0.818700  0.514400  0.759600  1.0  0.1206
  H  H219  1  0.858800  0.475800  0.820000  1.0  0.1118
  H  H220  1  0.963000  0.517800  0.652800  1.0  0.1156
  H  H221  1  0.921600  0.555400  0.590900  1.0  0.1167
  H  H222  1  0.881300  0.638200  0.447300  1.0  0.1078
  H  H223  1  0.911900  0.625200  0.334900  1.0  0.1252
  H  H224  1  0.863000  0.476600  0.393000  1.0  0.1188
  H  H225  1  0.834500  0.490400  0.507000  1.0  0.1258
  H  H226  1  0.810500  0.580900  0.713000  1.0  0.3222
  H  H227  1  0.361670  0.993730  0.878630  1.0  0.0953
  H  H228  1  0.327670  0.995730  0.993830  1.0  0.1166
  H  H229  1  0.357770  0.974030  0.099730  1.0  0.1198
  H  H230  1  0.419770  0.947930  0.087030  1.0  0.1099
  H  H231  1  0.485370  0.847730  0.092930  1.0  0.1206
  H  H232  1  0.525470  0.809130  0.153330  1.0  0.1118
  H  H233  1  0.629670  0.851130  0.986130  1.0  0.1156
  H  H234  1  0.588270  0.888730  0.924230  1.0  0.1167
  H  H235  1  0.547970  0.971530  0.780630  1.0  0.1078
  H  H236  1  0.578570  0.958530  0.668230  1.0  0.1252
  H  H237  1  0.529670  0.809930  0.726330  1.0  0.1188
  H  H238  1  0.501170  0.823730  0.840330  1.0  0.1258
  H  H239  1  0.477170  0.914230  0.046330  1.0  0.3222
  H  H240  1  0.028330  0.327070  0.211970  1.0  0.0953
  H  H241  1  0.994330  0.329070  0.327170  1.0  0.1166
  H  H242  1  0.024430  0.307370  0.433070  1.0  0.1198
  H  H243  1  0.086430  0.281270  0.420370  1.0  0.1099
  H  H244  1  0.152030  0.181070  0.426270  1.0  0.1206
  H  H245  1  0.192130  0.142470  0.486670  1.0  0.1118
  H  H246  1  0.296330  0.184470  0.319470  1.0  0.1156
  H  H247  1  0.254930  0.222070  0.257570  1.0  0.1167
  H  H248  1  0.214630  0.304870  0.113970  1.0  0.1078
  H  H249  1  0.245230  0.291870  0.001570  1.0  0.1252
  H  H250  1  0.196330  0.143270  0.059670  1.0  0.1188
  H  H251  1  0.167830  0.157070  0.173670  1.0  0.1258
  H  H252  1  0.143830  0.247570  0.379670  1.0  0.3221
  C  C253  1  0.650530  0.944000  0.412000  1.0  0.1599
  C  C254  1  0.652300  0.965840  0.343400  1.0  -0.1294
  C  C255  1  0.639100  0.935270  0.281100  1.0  -0.0959
  C  C256  1  0.623500  0.883190  0.288500  1.0  -0.1408
  C  C257  1  0.621300  0.863570  0.358660  1.0  0.225
  C  C258  1  0.602160  0.809390  0.375340  1.0  0.3003
  C  C259  1  0.575130  0.739840  0.441860  1.0  0.0009
  C  C260  1  0.563850  0.723820  0.368590  1.0  -0.0438
  C  C261  1  0.539200  0.673280  0.331080  1.0  0.0343
  C  C262  1  0.514990  0.667110  0.262400  1.0  -0.1062
  C  C263  1  0.492140  0.620340  0.226430  1.0  -0.0397
  C  C264  1  0.492460  0.577500  0.257010  1.0  -0.1568
  C  C265  1  0.516820  0.583350  0.325660  1.0  -0.0314
  C  C266  1  0.539530  0.630480  0.362390  1.0  -0.1262
  C  C267  1  0.469870  0.527260  0.214420  1.0  0.685
  C  C268  1  0.565540  0.710400  0.511340  1.0  -0.0102
  C  C269  1  0.605600  0.727470  0.563270  1.0  -0.0689
  C  C270  1  0.597880  0.701570  0.630190  1.0  -0.1146
  C  C271  1  0.550020  0.658390  0.646070  1.0  -0.1313
  C  C272  1  0.509660  0.642140  0.595500  1.0  -0.0399
  C  C273  1  0.517760  0.667760  0.527900  1.0  -0.0706
  C  C274  1  0.543340  0.628180  0.716400  1.0  0.7006
  C  C275  1  0.317200  0.277330  0.745330  1.0  0.1599
  C  C276  1  0.318970  0.299170  0.676730  1.0  -0.1294
  C  C277  1  0.305770  0.268600  0.614430  1.0  -0.0959
  C  C278  1  0.290170  0.216520  0.621830  1.0  -0.1408
  C  C279  1  0.287970  0.196900  0.691990  1.0  0.225
  C  C280  1  0.268830  0.142720  0.708670  1.0  0.3003
  C  C281  1  0.241800  0.073170  0.775190  1.0  0.0009
  C  C282  1  0.230520  0.057150  0.701920  1.0  -0.0438
  C  C283  1  0.205870  0.006610  0.664410  1.0  0.0343
  C  C284  1  0.181660  0.000440  0.595730  1.0  -0.1062
  C  C285  1  0.158810  0.953670  0.559760  1.0  -0.0397
  C  C286  1  0.159130  0.910830  0.590340  1.0  -0.1568
  C  C287  1  0.183490  0.916680  0.658990  1.0  -0.0314
  C  C288  1  0.206200  0.963810  0.695720  1.0  -0.1262
  C  C289  1  0.136540  0.860590  0.547750  1.0  0.685
  C  C290  1  0.232210  0.043730  0.844670  1.0  -0.0102
  C  C291  1  0.272270  0.060800  0.896600  1.0  -0.0689
  C  C292  1  0.264550  0.034900  0.963520  1.0  -0.1146
  C  C293  1  0.216690  0.991720  0.979400  1.0  -0.1313
  C  C294  1  0.176330  0.975470  0.928830  1.0  -0.0399
  C  C295  1  0.184430  0.001090  0.861230  1.0  -0.0706
  C  C296  1  0.210010  0.961510  0.049730  1.0  0.7006
  C  C297  1  0.983860  0.610670  0.078670  1.0  0.1601
  C  C298  1  0.985630  0.632510  0.010070  1.0  -0.1295
  C  C299  1  0.972430  0.601940  0.947770  1.0  -0.0958
  C  C300  1  0.956830  0.549860  0.955170  1.0  -0.1408
  C  C301  1  0.954630  0.530240  0.025330  1.0  0.2247
  C  C302  1  0.935490  0.476060  0.042010  1.0  0.3004
  C  C303  1  0.908460  0.406510  0.108530  1.0  0.0009
  C  C304  1  0.897180  0.390490  0.035260  1.0  -0.0438
  C  C305  1  0.872530  0.339950  0.997750  1.0  0.0343
  C  C306  1  0.848320  0.333780  0.929070  1.0  -0.1062
  C  C307  1  0.825470  0.287010  0.893100  1.0  -0.0397
  C  C308  1  0.825790  0.244170  0.923680  1.0  -0.1568
  C  C309  1  0.850150  0.250020  0.992330  1.0  -0.0314
  C  C310  1  0.872860  0.297150  0.029060  1.0  -0.126
  C  C311  1  0.803200  0.193930  0.881090  1.0  0.685
  C  C312  1  0.898870  0.377070  0.178010  1.0  -0.0102
  C  C313  1  0.938930  0.394140  0.229940  1.0  -0.0689
  C  C314  1  0.931210  0.368240  0.296860  1.0  -0.1146
  C  C315  1  0.883350  0.325060  0.312740  1.0  -0.1313
  C  C316  1  0.842990  0.308810  0.262170  1.0  -0.0399
  C  C317  1  0.851090  0.334430  0.194570  1.0  -0.0706
  C  C318  1  0.876670  0.294850  0.383070  1.0  0.7006
  C  C319  1  0.056000  0.706530  0.412000  1.0  0.158
  C  C320  1  0.034160  0.686460  0.343400  1.0  -0.1323
  C  C321  1  0.064730  0.703830  0.281100  1.0  -0.101
  C  C322  1  0.116810  0.740310  0.288500  1.0  -0.1458
  C  C323  1  0.136430  0.757730  0.358660  1.0  0.2238
  C  C324  1  0.190610  0.792770  0.375340  1.0  0.3006
  C  C325  1  0.260160  0.835290  0.441860  1.0  -0.0002
  C  C326  1  0.276180  0.840030  0.368590  1.0  -0.0426
  C  C327  1  0.326720  0.865920  0.331080  1.0  0.0332
  C  C328  1  0.332890  0.847880  0.262400  1.0  -0.1079
  C  C329  1  0.379660  0.871800  0.226430  1.0  -0.0428
  C  C330  1  0.422500  0.914960  0.257010  1.0  -0.1557
  C  C331  1  0.416650  0.933470  0.325660  1.0  -0.0243
  C  C332  1  0.369520  0.909050  0.362390  1.0  -0.1204
  C  C333  1  0.472740  0.942610  0.214420  1.0  0.6837
  C  C334  1  0.289600  0.855140  0.511340  1.0  -0.0092
  C  C335  1  0.272530  0.878130  0.563270  1.0  -0.0696
  C  C336  1  0.298430  0.896310  0.630190  1.0  -0.1157
  C  C337  1  0.341610  0.891630  0.646070  1.0  -0.1313
  C  C338  1  0.357860  0.867520  0.595500  1.0  -0.0375
  C  C339  1  0.332240  0.850000  0.527900  1.0  -0.0717
  C  C340  1  0.371820  0.915160  0.716400  1.0  0.7001
  C  C341  1  0.722670  0.039860  0.745330  1.0  0.1581
  C  C342  1  0.700830  0.019790  0.676730  1.0  -0.1324
  C  C343  1  0.731400  0.037160  0.614430  1.0  -0.1009
  C  C344  1  0.783480  0.073640  0.621830  1.0  -0.1458
  C  C345  1  0.803100  0.091060  0.691990  1.0  0.2235
  C  C346  1  0.857280  0.126100  0.708670  1.0  0.3006
  C  C347  1  0.926830  0.168620  0.775190  1.0  -0.0002
  C  C348  1  0.942850  0.173360  0.701920  1.0  -0.0426
  C  C349  1  0.993390  0.199250  0.664410  1.0  0.0332
  C  C350  1  0.999560  0.181210  0.595730  1.0  -0.1079
  C  C351  1  0.046330  0.205130  0.559760  1.0  -0.0428
  C  C352  1  0.089170  0.248290  0.590340  1.0  -0.1557
  C  C353  1  0.083320  0.266800  0.658990  1.0  -0.0244
  C  C354  1  0.036190  0.242380  0.695720  1.0  -0.1204
  C  C355  1  0.139410  0.275940  0.547750  1.0  0.6837
  C  C356  1  0.956270  0.188470  0.844670  1.0  -0.0092
  C  C357  1  0.939200  0.211460  0.896600  1.0  -0.0696
  C  C358  1  0.965100  0.229640  0.963520  1.0  -0.1157
  C  C359  1  0.008280  0.224960  0.979400  1.0  -0.1313
  C  C360  1  0.024530  0.200850  0.928830  1.0  -0.0375
  C  C361  1  0.998910  0.183330  0.861230  1.0  -0.0717
  C  C362  1  0.038490  0.248490  0.049730  1.0  0.7001
  C  C363  1  0.389330  0.373200  0.078670  1.0  0.1578
  C  C364  1  0.367490  0.353130  0.010070  1.0  -0.1323
  C  C365  1  0.398060  0.370500  0.947770  1.0  -0.1009
  C  C366  1  0.450140  0.406980  0.955170  1.0  -0.1458
  C  C367  1  0.469760  0.424400  0.025330  1.0  0.2238
  C  C368  1  0.523940  0.459440  0.042010  1.0  0.3006
  C  C369  1  0.593490  0.501960  0.108530  1.0  -0.0002
  C  C370  1  0.609510  0.506700  0.035260  1.0  -0.0426
  C  C371  1  0.660050  0.532590  0.997750  1.0  0.0332
  C  C372  1  0.666220  0.514550  0.929070  1.0  -0.1077
  C  C373  1  0.712990  0.538470  0.893100  1.0  -0.0428
  C  C374  1  0.755830  0.581630  0.923680  1.0  -0.1557
  C  C375  1  0.749980  0.600140  0.992330  1.0  -0.0244
  C  C376  1  0.702850  0.575720  0.029060  1.0  -0.1206
  C  C377  1  0.806070  0.609280  0.881090  1.0  0.6837
  C  C378  1  0.622930  0.521810  0.178010  1.0  -0.0093
  C  C379  1  0.605860  0.544800  0.229940  1.0  -0.0696
  C  C380  1  0.631760  0.562980  0.296860  1.0  -0.1157
  C  C381  1  0.674940  0.558300  0.312740  1.0  -0.1313
  C  C382  1  0.691190  0.534190  0.262170  1.0  -0.0375
  C  C383  1  0.665570  0.516670  0.194570  1.0  -0.0717
  C  C384  1  0.705150  0.581830  0.383070  1.0  0.7001
  C  C385  1  0.293470  0.349470  0.412000  1.0  0.1573
  C  C386  1  0.313540  0.347700  0.343400  1.0  -0.129
  C  C387  1  0.296170  0.360900  0.281100  1.0  -0.0989
  C  C388  1  0.259690  0.376500  0.288500  1.0  -0.1456
  C  C389  1  0.242270  0.378700  0.358660  1.0  0.2234
  C  C390  1  0.207230  0.397840  0.375340  1.0  0.2987
  C  C391  1  0.164710  0.424870  0.441860  1.0  -0.0007
  C  C392  1  0.159970  0.436150  0.368590  1.0  -0.0424
  C  C393  1  0.134080  0.460800  0.331080  1.0  0.0337
  C  C394  1  0.152120  0.485010  0.262400  1.0  -0.1092
  C  C395  1  0.128200  0.507860  0.226430  1.0  -0.0431
  C  C396  1  0.085040  0.507540  0.257010  1.0  -0.1503
  C  C397  1  0.066530  0.483180  0.325660  1.0  -0.0281
  C  C398  1  0.090950  0.460470  0.362390  1.0  -0.1276
  C  C399  1  0.057390  0.530130  0.214420  1.0  0.6823
  C  C400  1  0.144860  0.434460  0.511340  1.0  -0.0082
  C  C401  1  0.121870  0.394400  0.563270  1.0  -0.071
  C  C402  1  0.103690  0.402120  0.630190  1.0  -0.1145
  C  C403  1  0.108370  0.449980  0.646070  1.0  -0.1278
  C  C404  1  0.132480  0.490340  0.595500  1.0  -0.0416
  C  C405  1  0.150000  0.482240  0.527900  1.0  -0.0655
  C  C406  1  0.084840  0.456660  0.716400  1.0  0.7002
  C  C407  1  0.960140  0.682800  0.745330  1.0  0.1574
  C  C408  1  0.980210  0.681030  0.676730  1.0  -0.1291
  C  C409  1  0.962840  0.694230  0.614430  1.0  -0.0989
  C  C410  1  0.926360  0.709830  0.621830  1.0  -0.1456
  C  C411  1  0.908940  0.712030  0.691990  1.0  0.2233
  C  C412  1  0.873900  0.731170  0.708670  1.0  0.2987
  C  C413  1  0.831380  0.758200  0.775190  1.0  -0.0007
  C  C414  1  0.826640  0.769480  0.701920  1.0  -0.0424
  C  C415  1  0.800750  0.794130  0.664410  1.0  0.0342
  C  C416  1  0.818790  0.818340  0.595730  1.0  -0.1092
  C  C417  1  0.794870  0.841190  0.559760  1.0  -0.0431
  C  C418  1  0.751710  0.840870  0.590340  1.0  -0.1504
  C  C419  1  0.733200  0.816510  0.658990  1.0  -0.0281
  C  C420  1  0.757620  0.793800  0.695720  1.0  -0.1279
  C  C421  1  0.724060  0.863460  0.547750  1.0  0.6823
  C  C422  1  0.811530  0.767790  0.844670  1.0  -0.0082
  C  C423  1  0.788540  0.727730  0.896600  1.0  -0.071
  C  C424  1  0.770360  0.735450  0.963520  1.0  -0.1145
  C  C425  1  0.775040  0.783310  0.979400  1.0  -0.1278
  C  C426  1  0.799150  0.823670  0.928830  1.0  -0.0415
  C  C427  1  0.816670  0.815570  0.861230  1.0  -0.0655
  C  C428  1  0.751510  0.789990  0.049730  1.0  0.7001
  C  C429  1  0.626800  0.016140  0.078670  1.0  0.1575
  C  C430  1  0.646870  0.014370  0.010070  1.0  -0.1291
  C  C431  1  0.629500  0.027570  0.947770  1.0  -0.0989
  C  C432  1  0.593020  0.043170  0.955170  1.0  -0.1456
  C  C433  1  0.575600  0.045370  0.025330  1.0  0.2233
  C  C434  1  0.540560  0.064510  0.042010  1.0  0.2987
  C  C435  1  0.498040  0.091540  0.108530  1.0  -0.0007
  C  C436  1  0.493300  0.102820  0.035260  1.0  -0.0425
  C  C437  1  0.467410  0.127470  0.997750  1.0  0.0337
  C  C438  1  0.485450  0.151680  0.929070  1.0  -0.1092
  C  C439  1  0.461530  0.174530  0.893100  1.0  -0.0431
  C  C440  1  0.418370  0.174210  0.923680  1.0  -0.1504
  C  C441  1  0.399860  0.149850  0.992330  1.0  -0.0281
  C  C442  1  0.424280  0.127140  0.029060  1.0  -0.1277
  C  C443  1  0.390720  0.196800  0.881090  1.0  0.6824
  C  C444  1  0.478190  0.101130  0.178010  1.0  -0.0082
  C  C445  1  0.455200  0.061070  0.229940  1.0  -0.071
  C  C446  1  0.437020  0.068790  0.296860  1.0  -0.1145
  C  C447  1  0.441700  0.116650  0.312740  1.0  -0.1278
  C  C448  1  0.465810  0.157010  0.262170  1.0  -0.0416
  C  C449  1  0.483330  0.148910  0.194570  1.0  -0.0655
  C  C450  1  0.418170  0.123330  0.383070  1.0  0.7002
  C  C451  1  0.349470  0.056000  0.588000  1.0  0.1606
  C  C452  1  0.347700  0.034160  0.656600  1.0  -0.13
  C  C453  1  0.360900  0.064730  0.718900  1.0  -0.0967
  C  C454  1  0.376500  0.116810  0.711500  1.0  -0.1402
  C  C455  1  0.378700  0.136430  0.641340  1.0  0.2255
  C  C456  1  0.397840  0.190610  0.624660  1.0  0.2984
  C  C457  1  0.424870  0.260160  0.558140  1.0  0.0005
  C  C458  1  0.436150  0.276180  0.631410  1.0  -0.0389
  C  C459  1  0.460800  0.326720  0.668920  1.0  0.0343
  C  C460  1  0.485010  0.332890  0.737600  1.0  -0.1055
  C  C461  1  0.507860  0.379660  0.773570  1.0  -0.0384
  C  C462  1  0.507540  0.422500  0.742990  1.0  -0.1557
  C  C463  1  0.483180  0.416650  0.674340  1.0  -0.0312
  C  C464  1  0.460470  0.369520  0.637610  1.0  -0.1265
  C  C465  1  0.530130  0.472740  0.785580  1.0  0.6858
  C  C466  1  0.434460  0.289600  0.488660  1.0  -0.0109
  C  C467  1  0.394400  0.272530  0.436730  1.0  -0.0685
  C  C468  1  0.402120  0.298430  0.369810  1.0  -0.1126
  C  C469  1  0.449980  0.341610  0.353930  1.0  -0.1299
  C  C470  1  0.490340  0.357860  0.404500  1.0  -0.0398
  C  C471  1  0.482240  0.332240  0.472100  1.0  -0.0679
  C  C472  1  0.456660  0.371820  0.283600  1.0  0.7007
  C  C473  1  0.016140  0.389330  0.921330  1.0  0.1606
  C  C474  1  0.014370  0.367490  0.989930  1.0  -0.1301
  C  C475  1  0.027570  0.398060  0.052230  1.0  -0.0967
  C  C476  1  0.043170  0.450140  0.044830  1.0  -0.1402
  C  C477  1  0.045370  0.469760  0.974670  1.0  0.2253
  C  C478  1  0.064510  0.523940  0.957990  1.0  0.2984
  C  C479  1  0.091540  0.593490  0.891470  1.0  0.0005
  C  C480  1  0.102820  0.609510  0.964740  1.0  -0.039
  C  C481  1  0.127470  0.660050  0.002250  1.0  0.0342
  C  C482  1  0.151680  0.666220  0.070930  1.0  -0.1055
  C  C483  1  0.174530  0.712990  0.106900  1.0  -0.0384
  C  C484  1  0.174210  0.755830  0.076320  1.0  -0.1557
  C  C485  1  0.149850  0.749980  0.007670  1.0  -0.0313
  C  C486  1  0.127140  0.702850  0.970940  1.0  -0.1263
  C  C487  1  0.196800  0.806070  0.118910  1.0  0.6858
  C  C488  1  0.101130  0.622930  0.821990  1.0  -0.0109
  C  C489  1  0.061070  0.605860  0.770060  1.0  -0.0685
  C  C490  1  0.068790  0.631760  0.703140  1.0  -0.1126
  C  C491  1  0.116650  0.674940  0.687260  1.0  -0.1299
  C  C492  1  0.157010  0.691190  0.737830  1.0  -0.0398
  C  C493  1  0.148910  0.665570  0.805430  1.0  -0.0679
  C  C494  1  0.123330  0.705150  0.616930  1.0  0.7007
  C  C495  1  0.682800  0.722670  0.254670  1.0  0.1606
  C  C496  1  0.681030  0.700830  0.323270  1.0  -0.13
  C  C497  1  0.694230  0.731400  0.385570  1.0  -0.0966
  C  C498  1  0.709830  0.783480  0.378170  1.0  -0.1402
  C  C499  1  0.712030  0.803100  0.308010  1.0  0.2255
  C  C500  1  0.731170  0.857280  0.291330  1.0  0.2984
  C  C501  1  0.758200  0.926830  0.224810  1.0  0.0005
  C  C502  1  0.769480  0.942850  0.298080  1.0  -0.0389
  C  C503  1  0.794130  0.993390  0.335590  1.0  0.0343
  C  C504  1  0.818340  0.999560  0.404270  1.0  -0.1055
  C  C505  1  0.841190  0.046330  0.440240  1.0  -0.0384
  C  C506  1  0.840870  0.089170  0.409660  1.0  -0.1557
  C  C507  1  0.816510  0.083320  0.341010  1.0  -0.0312
  C  C508  1  0.793800  0.036190  0.304280  1.0  -0.1265
  C  C509  1  0.863460  0.139410  0.452250  1.0  0.6858
  C  C510  1  0.767790  0.956270  0.155330  1.0  -0.0109
  C  C511  1  0.727730  0.939200  0.103400  1.0  -0.0685
  C  C512  1  0.735450  0.965100  0.036480  1.0  -0.1126
  C  C513  1  0.783310  0.008280  0.020600  1.0  -0.1299
  C  C514  1  0.823670  0.024530  0.071170  1.0  -0.0398
  C  C515  1  0.815570  0.998910  0.138770  1.0  -0.0679
  C  C516  1  0.789990  0.038490  0.950270  1.0  0.7007
  C  C517  1  0.944000  0.293470  0.588000  1.0  0.1587
  C  C518  1  0.965840  0.313540  0.656600  1.0  -0.1313
  C  C519  1  0.935270  0.296170  0.718900  1.0  -0.1005
  C  C520  1  0.883190  0.259690  0.711500  1.0  -0.1451
  C  C521  1  0.863570  0.242270  0.641340  1.0  0.2219
  C  C522  1  0.809390  0.207230  0.624660  1.0  0.3024
  C  C523  1  0.739840  0.164710  0.558140  1.0  -0.0005
  C  C524  1  0.723820  0.159970  0.631410  1.0  -0.0424
  C  C525  1  0.673280  0.134080  0.668920  1.0  0.0362
  C  C526  1  0.667110  0.152120  0.737600  1.0  -0.1083
  C  C527  1  0.620340  0.128200  0.773570  1.0  -0.0416
  C  C528  1  0.577500  0.085040  0.742990  1.0  -0.154
  C  C529  1  0.583350  0.066530  0.674340  1.0  -0.0247
  C  C530  1  0.630480  0.090950  0.637610  1.0  -0.1227
  C  C531  1  0.527260  0.057390  0.785580  1.0  0.6834
  C  C532  1  0.710400  0.144860  0.488660  1.0  -0.0106
  C  C533  1  0.727470  0.121870  0.436730  1.0  -0.072
  C  C534  1  0.701570  0.103690  0.369810  1.0  -0.1116
  C  C535  1  0.658390  0.108370  0.353930  1.0  -0.1308
  C  C536  1  0.642140  0.132480  0.404500  1.0  -0.0391
  C  C537  1  0.667760  0.150000  0.472100  1.0  -0.0731
  C  C538  1  0.628180  0.084840  0.283600  1.0  0.6998
  C  C539  1  0.610670  0.626800  0.921330  1.0  0.1585
  C  C540  1  0.632510  0.646870  0.989930  1.0  -0.1313
  C  C541  1  0.601940  0.629500  0.052230  1.0  -0.1004
  C  C542  1  0.549860  0.593020  0.044830  1.0  -0.1451
  C  C543  1  0.530240  0.575600  0.974670  1.0  0.2219
  C  C544  1  0.476060  0.540560  0.957990  1.0  0.3023
  C  C545  1  0.406510  0.498040  0.891470  1.0  -0.0004
  C  C546  1  0.390490  0.493300  0.964740  1.0  -0.0424
  C  C547  1  0.339950  0.467410  0.002250  1.0  0.0362
  C  C548  1  0.333780  0.485450  0.070930  1.0  -0.1081
  C  C549  1  0.287010  0.461530  0.106900  1.0  -0.0416
  C  C550  1  0.244170  0.418370  0.076320  1.0  -0.1541
  C  C551  1  0.250020  0.399860  0.007670  1.0  -0.0248
  C  C552  1  0.297150  0.424280  0.970940  1.0  -0.1229
  C  C553  1  0.193930  0.390720  0.118910  1.0  0.6834
  C  C554  1  0.377070  0.478190  0.821990  1.0  -0.0106
  C  C555  1  0.394140  0.455200  0.770060  1.0  -0.072
  C  C556  1  0.368240  0.437020  0.703140  1.0  -0.1115
  C  C557  1  0.325060  0.441700  0.687260  1.0  -0.1308
  C  C558  1  0.308810  0.465810  0.737830  1.0  -0.0391
  C  C559  1  0.334430  0.483330  0.805430  1.0  -0.0731
  C  C560  1  0.294850  0.418170  0.616930  1.0  0.6998
  C  C561  1  0.277330  0.960140  0.254670  1.0  0.1588
  C  C562  1  0.299170  0.980210  0.323270  1.0  -0.1313
  C  C563  1  0.268600  0.962840  0.385570  1.0  -0.1004
  C  C564  1  0.216520  0.926360  0.378170  1.0  -0.1451
  C  C565  1  0.196900  0.908940  0.308010  1.0  0.2216
  C  C566  1  0.142720  0.873900  0.291330  1.0  0.3023
  C  C567  1  0.073170  0.831380  0.224810  1.0  -0.0005
  C  C568  1  0.057150  0.826640  0.298080  1.0  -0.0424
  C  C569  1  0.006610  0.800750  0.335590  1.0  0.0362
  C  C570  1  0.000440  0.818790  0.404270  1.0  -0.1083
  C  C571  1  0.953670  0.794870  0.440240  1.0  -0.0416
  C  C572  1  0.910830  0.751710  0.409660  1.0  -0.1541
  C  C573  1  0.916680  0.733200  0.341010  1.0  -0.0248
  C  C574  1  0.963810  0.757620  0.304280  1.0  -0.1227
  C  C575  1  0.860590  0.724060  0.452250  1.0  0.6834
  C  C576  1  0.043730  0.811530  0.155330  1.0  -0.0106
  C  C577  1  0.060800  0.788540  0.103400  1.0  -0.072
  C  C578  1  0.034900  0.770360  0.036480  1.0  -0.1116
  C  C579  1  0.991720  0.775040  0.020600  1.0  -0.1308
  C  C580  1  0.975470  0.799150  0.071170  1.0  -0.0391
  C  C581  1  0.001090  0.816670  0.138770  1.0  -0.0731
  C  C582  1  0.961510  0.751510  0.950270  1.0  0.6998
  C  C583  1  0.706530  0.650530  0.588000  1.0  0.1581
  C  C584  1  0.686460  0.652300  0.656600  1.0  -0.1311
  C  C585  1  0.703830  0.639100  0.718900  1.0  -0.0997
  C  C586  1  0.740310  0.623500  0.711500  1.0  -0.1461
  C  C587  1  0.757730  0.621300  0.641340  1.0  0.2224
  C  C588  1  0.792770  0.602160  0.624660  1.0  0.301
  C  C589  1  0.835290  0.575130  0.558140  1.0  -0.0012
  C  C590  1  0.840030  0.563850  0.631410  1.0  -0.0428
  C  C591  1  0.865920  0.539200  0.668920  1.0  0.0349
  C  C592  1  0.847880  0.514990  0.737600  1.0  -0.108
  C  C593  1  0.871800  0.492140  0.773570  1.0  -0.0401
  C  C594  1  0.914960  0.492460  0.742990  1.0  -0.151
  C  C595  1  0.933470  0.516820  0.674340  1.0  -0.028
  C  C596  1  0.909050  0.539530  0.637610  1.0  -0.1292
  C  C597  1  0.942610  0.469870  0.785580  1.0  0.6803
  C  C598  1  0.855140  0.565540  0.488660  1.0  -0.0097
  C  C599  1  0.878130  0.605600  0.436730  1.0  -0.0717
  C  C600  1  0.896310  0.597880  0.369810  1.0  -0.114
  C  C601  1  0.891630  0.550020  0.353930  1.0  -0.1274
  C  C602  1  0.867520  0.509660  0.404500  1.0  -0.0431
  C  C603  1  0.850000  0.517760  0.472100  1.0  -0.068
  C  C604  1  0.915160  0.543340  0.283600  1.0  0.6988
  C  C605  1  0.373200  0.983860  0.921330  1.0  0.1583
  C  C606  1  0.353130  0.985630  0.989930  1.0  -0.1312
  C  C607  1  0.370500  0.972430  0.052230  1.0  -0.0998
  C  C608  1  0.406980  0.956830  0.044830  1.0  -0.1461
  C  C609  1  0.424400  0.954630  0.974670  1.0  0.2223
  C  C610  1  0.459440  0.935490  0.957990  1.0  0.301
  C  C611  1  0.501960  0.908460  0.891470  1.0  -0.0012
  C  C612  1  0.506700  0.897180  0.964740  1.0  -0.0428
  C  C613  1  0.532590  0.872530  0.002250  1.0  0.0349
  C  C614  1  0.514550  0.848320  0.070930  1.0  -0.108
  C  C615  1  0.538470  0.825470  0.106900  1.0  -0.0401
  C  C616  1  0.581630  0.825790  0.076320  1.0  -0.151
  C  C617  1  0.600140  0.850150  0.007670  1.0  -0.028
  C  C618  1  0.575720  0.872860  0.970940  1.0  -0.1292
  C  C619  1  0.609280  0.803200  0.118910  1.0  0.6804
  C  C620  1  0.521810  0.898870  0.821990  1.0  -0.0097
  C  C621  1  0.544800  0.938930  0.770060  1.0  -0.0717
  C  C622  1  0.562980  0.931210  0.703140  1.0  -0.114
  C  C623  1  0.558300  0.883350  0.687260  1.0  -0.1274
  C  C624  1  0.534190  0.842990  0.737830  1.0  -0.0431
  C  C625  1  0.516670  0.851090  0.805430  1.0  -0.068
  C  C626  1  0.581830  0.876670  0.616930  1.0  0.6988
  C  C627  1  0.039860  0.317200  0.254670  1.0  0.1582
  C  C628  1  0.019790  0.318970  0.323270  1.0  -0.1312
  C  C629  1  0.037160  0.305770  0.385570  1.0  -0.0997
  C  C630  1  0.073640  0.290170  0.378170  1.0  -0.1461
  C  C631  1  0.091060  0.287970  0.308010  1.0  0.2224
  C  C632  1  0.126100  0.268830  0.291330  1.0  0.301
  C  C633  1  0.168620  0.241800  0.224810  1.0  -0.0012
  C  C634  1  0.173360  0.230520  0.298080  1.0  -0.0428
  C  C635  1  0.199250  0.205870  0.335590  1.0  0.0349
  C  C636  1  0.181210  0.181660  0.404270  1.0  -0.108
  C  C637  1  0.205130  0.158810  0.440240  1.0  -0.0401
  C  C638  1  0.248290  0.159130  0.409660  1.0  -0.151
  C  C639  1  0.266800  0.183490  0.341010  1.0  -0.028
  C  C640  1  0.242380  0.206200  0.304280  1.0  -0.1294
  C  C641  1  0.275940  0.136540  0.452250  1.0  0.6803
  C  C642  1  0.188470  0.232210  0.155330  1.0  -0.0097
  C  C643  1  0.211460  0.272270  0.103400  1.0  -0.0717
  C  C644  1  0.229640  0.264550  0.036480  1.0  -0.114
  C  C645  1  0.224960  0.216690  0.020600  1.0  -0.1274
  C  C646  1  0.200850  0.176330  0.071170  1.0  -0.0431
  C  C647  1  0.183330  0.184430  0.138770  1.0  -0.068
  C  C648  1  0.248490  0.210010  0.950270  1.0  0.6987
  N  N649  1  0.635420  0.893780  0.420170  1.0  -0.342
  N  N650  1  0.598820  0.792760  0.444700  1.0  -0.4234
  N  N651  1  0.581570  0.768960  0.328180  1.0  -0.2782
  N  N652  1  0.302090  0.227110  0.753500  1.0  -0.342
  N  N653  1  0.265490  0.126090  0.778030  1.0  -0.4244
  N  N654  1  0.248240  0.102290  0.661510  1.0  -0.2782
  N  N655  1  0.968750  0.560450  0.086840  1.0  -0.3419
  N  N656  1  0.932150  0.459430  0.111370  1.0  -0.4234
  N  N657  1  0.914900  0.435630  0.994850  1.0  -0.2782
  N  N658  1  0.106220  0.741640  0.420170  1.0  -0.3439
  N  N659  1  0.207240  0.806060  0.444700  1.0  -0.4249
  N  N660  1  0.231040  0.812610  0.328180  1.0  -0.2781
  N  N661  1  0.772890  0.074970  0.753500  1.0  -0.3439
  N  N662  1  0.873910  0.139390  0.778030  1.0  -0.4238
  N  N663  1  0.897710  0.145940  0.661510  1.0  -0.2781
  N  N664  1  0.439550  0.408310  0.086840  1.0  -0.3439
  N  N665  1  0.540570  0.472730  0.111370  1.0  -0.4249
  N  N666  1  0.564370  0.479280  0.994850  1.0  -0.2782
  N  N667  1  0.258360  0.364580  0.420170  1.0  -0.3423
  N  N668  1  0.193940  0.401180  0.444700  1.0  -0.425
  N  N669  1  0.187390  0.418430  0.328180  1.0  -0.2823
  N  N670  1  0.925030  0.697910  0.753500  1.0  -0.3423
  N  N671  1  0.860610  0.734510  0.778030  1.0  -0.424
  N  N672  1  0.854060  0.751760  0.661510  1.0  -0.2823
  N  N673  1  0.591690  0.031250  0.086840  1.0  -0.3423
  N  N674  1  0.527270  0.067850  0.111370  1.0  -0.425
  N  N675  1  0.520720  0.085100  0.994850  1.0  -0.2817
  N  N676  1  0.364580  0.106220  0.579830  1.0  -0.3431
  N  N677  1  0.401180  0.207240  0.555300  1.0  -0.4216
  N  N678  1  0.418430  0.231040  0.671820  1.0  -0.2787
  N  N679  1  0.031250  0.439550  0.913160  1.0  -0.3431
  N  N680  1  0.067850  0.540570  0.888630  1.0  -0.4216
  N  N681  1  0.085100  0.564370  0.005150  1.0  -0.2787
  N  N682  1  0.697910  0.772890  0.246500  1.0  -0.3431
  N  N683  1  0.734510  0.873910  0.221970  1.0  -0.4225
  N  N684  1  0.751760  0.897710  0.338490  1.0  -0.2787
  N  N685  1  0.893780  0.258360  0.579830  1.0  -0.3461
  N  N686  1  0.792760  0.193940  0.555300  1.0  -0.4227
  N  N687  1  0.768960  0.187390  0.671820  1.0  -0.2786
  N  N688  1  0.560450  0.591690  0.913160  1.0  -0.3462
  N  N689  1  0.459430  0.527270  0.888630  1.0  -0.4228
  N  N690  1  0.435630  0.520720  0.005150  1.0  -0.2787
  N  N691  1  0.227110  0.925030  0.246500  1.0  -0.3461
  N  N692  1  0.126090  0.860610  0.221970  1.0  -0.4215
  N  N693  1  0.102290  0.854060  0.338490  1.0  -0.2786
  N  N694  1  0.741640  0.635420  0.579830  1.0  -0.3438
  N  N695  1  0.806060  0.598820  0.555300  1.0  -0.422
  N  N696  1  0.812610  0.581570  0.671820  1.0  -0.2812
  N  N697  1  0.408310  0.968750  0.913160  1.0  -0.3438
  N  N698  1  0.472730  0.932150  0.888630  1.0  -0.422
  N  N699  1  0.479280  0.914900  0.005150  1.0  -0.2808
  N  N700  1  0.074970  0.302090  0.246500  1.0  -0.3438
  N  N701  1  0.139390  0.265490  0.221970  1.0  -0.4209
  N  N702  1  0.145940  0.248240  0.338490  1.0  -0.2813
  O  O703  1  0.477060  0.492050  0.243020  1.0  -0.6152
  O  O704  1  0.448070  0.523510  0.154780  1.0  -0.5839
  O  O705  1  0.582010  0.634670  0.751800  1.0  -0.5867
  O  O706  1  0.497620  0.594520  0.735370  1.0  -0.571
  O  O707  1  0.143730  0.825380  0.576350  1.0  -0.6152
  O  O708  1  0.114740  0.856840  0.488110  1.0  -0.5848
  O  O709  1  0.248680  0.968000  0.085130  1.0  -0.5867
  O  O710  1  0.164290  0.927850  0.068700  1.0  -0.571
  O  O711  1  0.810390  0.158720  0.909690  1.0  -0.6146
  O  O712  1  0.781400  0.190180  0.821450  1.0  -0.5839
  O  O713  1  0.915340  0.301340  0.418470  1.0  -0.5867
  O  O714  1  0.830950  0.261190  0.402040  1.0  -0.571
  O  O715  1  0.507950  0.985010  0.243020  1.0  -0.611
  O  O716  1  0.476490  0.924560  0.154780  1.0  -0.5871
  O  O717  1  0.365330  0.947340  0.751800  1.0  -0.585
  O  O718  1  0.405480  0.903100  0.735370  1.0  -0.5715
  O  O719  1  0.174620  0.318340  0.576350  1.0  -0.611
  O  O720  1  0.143160  0.257890  0.488110  1.0  -0.5879
  O  O721  1  0.032000  0.280670  0.085130  1.0  -0.585
  O  O722  1  0.072150  0.236430  0.068700  1.0  -0.5712
  O  O723  1  0.841280  0.651680  0.909690  1.0  -0.6117
  O  O724  1  0.809820  0.591230  0.821450  1.0  -0.5871
  O  O725  1  0.698660  0.614010  0.418470  1.0  -0.585
  O  O726  1  0.738810  0.569770  0.402040  1.0  -0.5715
  O  O727  1  0.014990  0.522940  0.243020  1.0  -0.6114
  O  O728  1  0.075440  0.551930  0.154780  1.0  -0.5871
  O  O729  1  0.052660  0.417990  0.751800  1.0  -0.5899
  O  O730  1  0.096900  0.502380  0.735370  1.0  -0.5725
  O  O731  1  0.681660  0.856270  0.576350  1.0  -0.6114
  O  O732  1  0.742110  0.885260  0.488110  1.0  -0.5882
  O  O733  1  0.719330  0.751320  0.085130  1.0  -0.5902
  O  O734  1  0.763570  0.835710  0.068700  1.0  -0.5726
  O  O735  1  0.348320  0.189610  0.909690  1.0  -0.6118
  O  O736  1  0.408770  0.218600  0.821450  1.0  -0.5871
  O  O737  1  0.385990  0.084660  0.418470  1.0  -0.5899
  O  O738  1  0.430230  0.169050  0.402040  1.0  -0.5725
  O  O739  1  0.522940  0.507950  0.756980  1.0  -0.6151
  O  O740  1  0.551930  0.476490  0.845220  1.0  -0.5857
  O  O741  1  0.417990  0.365330  0.248200  1.0  -0.5861
  O  O742  1  0.502380  0.405480  0.264630  1.0  -0.5735
  O  O743  1  0.189610  0.841280  0.090310  1.0  -0.6143
  O  O744  1  0.218600  0.809820  0.178550  1.0  -0.5856
  O  O745  1  0.084660  0.698660  0.581530  1.0  -0.5861
  O  O746  1  0.169050  0.738810  0.597960  1.0  -0.5735
  O  O747  1  0.856270  0.174620  0.423650  1.0  -0.6151
  O  O748  1  0.885260  0.143160  0.511890  1.0  -0.5866
  O  O749  1  0.751320  0.032000  0.914870  1.0  -0.5861
  O  O750  1  0.835710  0.072150  0.931300  1.0  -0.5735
  O  O751  1  0.492050  0.014990  0.756980  1.0  -0.6128
  O  O752  1  0.523510  0.075440  0.845220  1.0  -0.5863
  O  O753  1  0.634670  0.052660  0.248200  1.0  -0.5852
  O  O754  1  0.594520  0.096900  0.264630  1.0  -0.571
  O  O755  1  0.158720  0.348320  0.090310  1.0  -0.6136
  O  O756  1  0.190180  0.408770  0.178550  1.0  -0.5861
  O  O757  1  0.301340  0.385990  0.581530  1.0  -0.5852
  O  O758  1  0.261190  0.430230  0.597960  1.0  -0.571
  O  O759  1  0.825380  0.681660  0.423650  1.0  -0.6128
  O  O760  1  0.856840  0.742110  0.511890  1.0  -0.5873
  O  O761  1  0.968000  0.719330  0.914870  1.0  -0.5851
  O  O762  1  0.927850  0.763570  0.931300  1.0  -0.5708
  O  O763  1  0.985010  0.477060  0.756980  1.0  -0.6124
  O  O764  1  0.924560  0.448070  0.845220  1.0  -0.5887
  O  O765  1  0.947340  0.582010  0.248200  1.0  -0.5902
  O  O766  1  0.903100  0.497620  0.264630  1.0  -0.5733
  O  O767  1  0.651680  0.810390  0.090310  1.0  -0.6126
  O  O768  1  0.591230  0.781400  0.178550  1.0  -0.5887
  O  O769  1  0.614010  0.915340  0.581530  1.0  -0.5902
  O  O770  1  0.569770  0.830950  0.597960  1.0  -0.5733
  O  O771  1  0.318340  0.143730  0.423650  1.0  -0.6124
  O  O772  1  0.257890  0.114740  0.511890  1.0  -0.5894
  O  O773  1  0.280670  0.248680  0.914870  1.0  -0.5905
  O  O774  1  0.236430  0.164290  0.931300  1.0  -0.5733
