# generated using pymatgen
data_ZnH13C22N3O4
_symmetry_space_group_name_H-M   'P 1'
_cell_length_a   29.67000000
_cell_length_b   29.67000000
_cell_length_c   17.91500000
_cell_angle_alpha   90.00000000
_cell_angle_beta   90.00000000
_cell_angle_gamma   120.00000000
_symmetry_Int_Tables_number   1
_chemical_formula_structural   ZnH13C22N3O4
_chemical_formula_sum   'Zn18 H234 C396 N54 O72'
_cell_volume   13657.85623140
_cell_formula_units_Z   18
loop_
 _symmetry_equiv_pos_site_id
 _symmetry_equiv_pos_as_xyz
  1  'x, y, z'
loop_
 _atom_site_type_symbol
 _atom_site_label
 _atom_site_symmetry_multiplicity
 _atom_site_fract_x
 _atom_site_fract_y
 _atom_site_fract_z
 _atom_site_occupancy
 _atom_site_charge
  Zn  Zn1  1  0.629150  0.856690  0.519570  1.0  0.899
  Zn  Zn2  1  0.295820  0.190020  0.852900  1.0  0.8983
  Zn  Zn3  1  0.962480  0.523360  0.186240  1.0  0.899
  Zn  Zn4  1  0.143310  0.772460  0.519570  1.0  0.8972
  Zn  Zn5  1  0.809980  0.105790  0.852900  1.0  0.8979
  Zn  Zn6  1  0.476640  0.439130  0.186240  1.0  0.8972
  Zn  Zn7  1  0.227540  0.370850  0.519570  1.0  0.8992
  Zn  Zn8  1  0.894210  0.704180  0.852900  1.0  0.8984
  Zn  Zn9  1  0.560870  0.037520  0.186240  1.0  0.8992
  Zn  Zn10  1  0.370850  0.143310  0.480430  1.0  0.8987
  Zn  Zn11  1  0.037520  0.476640  0.813760  1.0  0.8987
  Zn  Zn12  1  0.704180  0.809980  0.147100  1.0  0.898
  Zn  Zn13  1  0.856690  0.227540  0.480430  1.0  0.8994
  Zn  Zn14  1  0.523360  0.560870  0.813760  1.0  0.8994
  Zn  Zn15  1  0.190020  0.894210  0.147100  1.0  0.9001
  Zn  Zn16  1  0.772460  0.629150  0.480430  1.0  0.8984
  Zn  Zn17  1  0.439130  0.962480  0.813760  1.0  0.8984
  Zn  Zn18  1  0.105790  0.295820  0.147100  1.0  0.8976
  H  H19  1  0.575500  0.770900  0.281300  1.0  0.3046
  H  H20  1  0.679100  0.970000  0.450500  1.0  0.0862
  H  H21  1  0.686900  0.006700  0.334200  1.0  0.1249
  H  H22  1  0.656000  0.952800  0.229600  1.0  0.1125
  H  H23  1  0.615700  0.862200  0.244900  1.0  0.1115
  H  H24  1  0.509600  0.696800  0.243000  1.0  0.1181
  H  H25  1  0.472600  0.617800  0.180300  1.0  0.1097
  H  H26  1  0.510100  0.553800  0.351500  1.0  0.114
  H  H27  1  0.547400  0.632800  0.414400  1.0  0.1007
  H  H28  1  0.634700  0.761700  0.558500  1.0  0.1128
  H  H29  1  0.623200  0.717500  0.670800  1.0  0.1129
  H  H30  1  0.475400  0.612900  0.610600  1.0  0.1166
  H  H31  1  0.487800  0.656400  0.496800  1.0  0.1138
  H  H32  1  0.242170  0.104230  0.614630  1.0  0.3046
  H  H33  1  0.345770  0.303330  0.783830  1.0  0.086
  H  H34  1  0.353570  0.340030  0.667530  1.0  0.1249
  H  H35  1  0.322670  0.286130  0.562930  1.0  0.1125
  H  H36  1  0.282370  0.195530  0.578230  1.0  0.1115
  H  H37  1  0.176270  0.030130  0.576330  1.0  0.1181
  H  H38  1  0.139270  0.951130  0.513630  1.0  0.1091
  H  H39  1  0.176770  0.887130  0.684830  1.0  0.114
  H  H40  1  0.214070  0.966130  0.747730  1.0  0.1007
  H  H41  1  0.301370  0.095030  0.891830  1.0  0.1128
  H  H42  1  0.289870  0.050830  0.004130  1.0  0.1129
  H  H43  1  0.142070  0.946230  0.943930  1.0  0.1162
  H  H44  1  0.154470  0.989730  0.830130  1.0  0.1138
  H  H45  1  0.908830  0.437570  0.947970  1.0  0.3045
  H  H46  1  0.012430  0.636670  0.117170  1.0  0.086
  H  H47  1  0.020230  0.673370  0.000870  1.0  0.1249
  H  H48  1  0.989330  0.619470  0.896270  1.0  0.1125
  H  H49  1  0.949030  0.528870  0.911570  1.0  0.1115
  H  H50  1  0.842930  0.363470  0.909670  1.0  0.1181
  H  H51  1  0.805930  0.284470  0.846970  1.0  0.1097
  H  H52  1  0.843430  0.220470  0.018170  1.0  0.1141
  H  H53  1  0.880730  0.299470  0.081070  1.0  0.1007
  H  H54  1  0.968030  0.428370  0.225170  1.0  0.1128
  H  H55  1  0.956530  0.384170  0.337470  1.0  0.1129
  H  H56  1  0.808730  0.279570  0.277270  1.0  0.1166
  H  H57  1  0.821130  0.323070  0.163470  1.0  0.1138
  H  H58  1  0.229100  0.804600  0.281300  1.0  0.3024
  H  H59  1  0.030000  0.709100  0.450500  1.0  0.0871
  H  H60  1  0.993300  0.680200  0.334200  1.0  0.1243
  H  H61  1  0.047200  0.703200  0.229600  1.0  0.112
  H  H62  1  0.137800  0.753500  0.244900  1.0  0.1099
  H  H63  1  0.303200  0.812800  0.243000  1.0  0.1174
  H  H64  1  0.382200  0.854800  0.180300  1.0  0.1091
  H  H65  1  0.446200  0.956300  0.351500  1.0  0.1126
  H  H66  1  0.367200  0.914600  0.414400  1.0  0.0999
  H  H67  1  0.238300  0.873000  0.558500  1.0  0.1128
  H  H68  1  0.282500  0.905700  0.670800  1.0  0.1133
  H  H69  1  0.387100  0.862500  0.610600  1.0  0.1157
  H  H70  1  0.343600  0.831400  0.496800  1.0  0.1143
  H  H71  1  0.895770  0.137930  0.614630  1.0  0.3026
  H  H72  1  0.696670  0.042430  0.783830  1.0  0.0871
  H  H73  1  0.659970  0.013530  0.667530  1.0  0.1243
  H  H74  1  0.713870  0.036530  0.562930  1.0  0.112
  H  H75  1  0.804470  0.086830  0.578230  1.0  0.11
  H  H76  1  0.969870  0.146130  0.576330  1.0  0.1174
  H  H77  1  0.048870  0.188130  0.513630  1.0  0.1099
  H  H78  1  0.112870  0.289630  0.684830  1.0  0.1126
  H  H79  1  0.033870  0.247930  0.747730  1.0  0.0999
  H  H80  1  0.904970  0.206330  0.891830  1.0  0.1128
  H  H81  1  0.949170  0.239030  0.004130  1.0  0.1134
  H  H82  1  0.053770  0.195830  0.943930  1.0  0.1162
  H  H83  1  0.010270  0.164730  0.830130  1.0  0.1143
  H  H84  1  0.562430  0.471270  0.947970  1.0  0.3024
  H  H85  1  0.363330  0.375770  0.117170  1.0  0.0871
  H  H86  1  0.326630  0.346870  0.000870  1.0  0.1242
  H  H87  1  0.380530  0.369870  0.896270  1.0  0.112
  H  H88  1  0.471130  0.420170  0.911570  1.0  0.11
  H  H89  1  0.636530  0.479470  0.909670  1.0  0.1174
  H  H90  1  0.715530  0.521470  0.846970  1.0  0.109
  H  H91  1  0.779530  0.622970  0.018170  1.0  0.1126
  H  H92  1  0.700530  0.581270  0.081070  1.0  0.0999
  H  H93  1  0.571630  0.539670  0.225170  1.0  0.1128
  H  H94  1  0.615830  0.572370  0.337470  1.0  0.1133
  H  H95  1  0.720430  0.529170  0.277270  1.0  0.1157
  H  H96  1  0.676930  0.498070  0.163470  1.0  0.1143
  H  H97  1  0.195400  0.424500  0.281300  1.0  0.3027
  H  H98  1  0.290900  0.320900  0.450500  1.0  0.0886
  H  H99  1  0.319800  0.313100  0.334200  1.0  0.1244
  H  H100  1  0.296800  0.344000  0.229600  1.0  0.1132
  H  H101  1  0.246500  0.384300  0.244900  1.0  0.1111
  H  H102  1  0.187200  0.490400  0.243000  1.0  0.1187
  H  H103  1  0.145200  0.527400  0.180300  1.0  0.1086
  H  H104  1  0.043700  0.489900  0.351500  1.0  0.1139
  H  H105  1  0.085400  0.452600  0.414400  1.0  0.1017
  H  H106  1  0.127000  0.365300  0.558500  1.0  0.1131
  H  H107  1  0.094300  0.376800  0.670800  1.0  0.1139
  H  H108  1  0.137500  0.524600  0.610600  1.0  0.1173
  H  H109  1  0.168600  0.512200  0.496800  1.0  0.1137
  H  H110  1  0.862070  0.757830  0.614630  1.0  0.3029
  H  H111  1  0.957570  0.654230  0.783830  1.0  0.0885
  H  H112  1  0.986470  0.646430  0.667530  1.0  0.1244
  H  H113  1  0.963470  0.677330  0.562930  1.0  0.1132
  H  H114  1  0.913170  0.717630  0.578230  1.0  0.1112
  H  H115  1  0.853870  0.823730  0.576330  1.0  0.1187
  H  H116  1  0.811870  0.860730  0.513630  1.0  0.1086
  H  H117  1  0.710370  0.823230  0.684830  1.0  0.114
  H  H118  1  0.752070  0.785930  0.747730  1.0  0.1017
  H  H119  1  0.793670  0.698630  0.891830  1.0  0.1131
  H  H120  1  0.760970  0.710130  0.004130  1.0  0.1139
  H  H121  1  0.804170  0.857930  0.943930  1.0  0.1173
  H  H122  1  0.835270  0.845530  0.830130  1.0  0.1137
  H  H123  1  0.528730  0.091170  0.947970  1.0  0.3027
  H  H124  1  0.624230  0.987570  0.117170  1.0  0.0886
  H  H125  1  0.653130  0.979770  0.000870  1.0  0.1244
  H  H126  1  0.630130  0.010670  0.896270  1.0  0.1132
  H  H127  1  0.579830  0.050970  0.911570  1.0  0.1111
  H  H128  1  0.520530  0.157070  0.909670  1.0  0.1187
  H  H129  1  0.478530  0.194070  0.846970  1.0  0.1086
  H  H130  1  0.377030  0.156570  0.018170  1.0  0.114
  H  H131  1  0.418730  0.119270  0.081070  1.0  0.1017
  H  H132  1  0.460330  0.031970  0.225170  1.0  0.1131
  H  H133  1  0.427630  0.043470  0.337470  1.0  0.1139
  H  H134  1  0.470830  0.191270  0.277270  1.0  0.1173
  H  H135  1  0.501930  0.178870  0.163470  1.0  0.1137
  H  H136  1  0.424500  0.229100  0.718700  1.0  0.3062
  H  H137  1  0.320900  0.030000  0.549500  1.0  0.0865
  H  H138  1  0.313100  0.993300  0.665800  1.0  0.1243
  H  H139  1  0.344000  0.047200  0.770400  1.0  0.1135
  H  H140  1  0.384300  0.137800  0.755100  1.0  0.1111
  H  H141  1  0.490400  0.303200  0.757000  1.0  0.118
  H  H142  1  0.527400  0.382200  0.819700  1.0  0.1097
  H  H143  1  0.489900  0.446200  0.648500  1.0  0.1134
  H  H144  1  0.452600  0.367200  0.585600  1.0  0.1001
  H  H145  1  0.365300  0.238300  0.441500  1.0  0.1127
  H  H146  1  0.376800  0.282500  0.329200  1.0  0.1132
  H  H147  1  0.524600  0.387100  0.389400  1.0  0.117
  H  H148  1  0.512200  0.343600  0.503200  1.0  0.1133
  H  H149  1  0.091170  0.562430  0.052030  1.0  0.3062
  H  H150  1  0.987570  0.363330  0.882830  1.0  0.0864
  H  H151  1  0.979770  0.326630  0.999130  1.0  0.1243
  H  H152  1  0.010670  0.380530  0.103730  1.0  0.1135
  H  H153  1  0.050970  0.471130  0.088430  1.0  0.1111
  H  H154  1  0.157070  0.636530  0.090330  1.0  0.118
  H  H155  1  0.194070  0.715530  0.153030  1.0  0.1097
  H  H156  1  0.156570  0.779530  0.981830  1.0  0.1134
  H  H157  1  0.119270  0.700530  0.918930  1.0  0.1001
  H  H158  1  0.031970  0.571630  0.774830  1.0  0.1127
  H  H159  1  0.043470  0.615830  0.662530  1.0  0.1132
  H  H160  1  0.191270  0.720430  0.722730  1.0  0.117
  H  H161  1  0.178870  0.676930  0.836530  1.0  0.1133
  H  H162  1  0.757830  0.895770  0.385370  1.0  0.3064
  H  H163  1  0.654230  0.696670  0.216170  1.0  0.0864
  H  H164  1  0.646430  0.659970  0.332470  1.0  0.1243
  H  H165  1  0.677330  0.713870  0.437070  1.0  0.1135
  H  H166  1  0.717630  0.804470  0.421770  1.0  0.1111
  H  H167  1  0.823730  0.969870  0.423670  1.0  0.118
  H  H168  1  0.860730  0.048870  0.486370  1.0  0.1092
  H  H169  1  0.823230  0.112870  0.315170  1.0  0.1133
  H  H170  1  0.785930  0.033870  0.252270  1.0  0.1001
  H  H171  1  0.698630  0.904970  0.108170  1.0  0.1127
  H  H172  1  0.710130  0.949170  0.995870  1.0  0.1131
  H  H173  1  0.857930  0.053770  0.056070  1.0  0.1169
  H  H174  1  0.845530  0.010270  0.169870  1.0  0.1133
  H  H175  1  0.770900  0.195400  0.718700  1.0  0.3046
  H  H176  1  0.970000  0.290900  0.549500  1.0  0.0872
  H  H177  1  0.006700  0.319800  0.665800  1.0  0.1241
  H  H178  1  0.952800  0.296800  0.770400  1.0  0.113
  H  H179  1  0.862200  0.246500  0.755100  1.0  0.1109
  H  H180  1  0.696800  0.187200  0.757000  1.0  0.1174
  H  H181  1  0.617800  0.145200  0.819700  1.0  0.1095
  H  H182  1  0.553800  0.043700  0.648500  1.0  0.1124
  H  H183  1  0.632800  0.085400  0.585600  1.0  0.0998
  H  H184  1  0.761700  0.127000  0.441500  1.0  0.1124
  H  H185  1  0.717500  0.094300  0.329200  1.0  0.1141
  H  H186  1  0.612900  0.137500  0.389400  1.0  0.1162
  H  H187  1  0.656400  0.168600  0.503200  1.0  0.1147
  H  H188  1  0.437570  0.528730  0.052030  1.0  0.3047
  H  H189  1  0.636670  0.624230  0.882830  1.0  0.0873
  H  H190  1  0.673370  0.653130  0.999130  1.0  0.1241
  H  H191  1  0.619470  0.630130  0.103730  1.0  0.1129
  H  H192  1  0.528870  0.579830  0.088430  1.0  0.1109
  H  H193  1  0.363470  0.520530  0.090330  1.0  0.1174
  H  H194  1  0.284470  0.478530  0.153030  1.0  0.1094
  H  H195  1  0.220470  0.377030  0.981830  1.0  0.1123
  H  H196  1  0.299470  0.418730  0.918930  1.0  0.0998
  H  H197  1  0.428370  0.460330  0.774830  1.0  0.1124
  H  H198  1  0.384170  0.427630  0.662530  1.0  0.1141
  H  H199  1  0.279570  0.470830  0.722730  1.0  0.1162
  H  H200  1  0.323070  0.501930  0.836530  1.0  0.1147
  H  H201  1  0.104230  0.862070  0.385370  1.0  0.3048
  H  H202  1  0.303330  0.957570  0.216170  1.0  0.0872
  H  H203  1  0.340030  0.986470  0.332470  1.0  0.1241
  H  H204  1  0.286130  0.963470  0.437070  1.0  0.113
  H  H205  1  0.195530  0.913170  0.421770  1.0  0.1109
  H  H206  1  0.030130  0.853870  0.423670  1.0  0.1174
  H  H207  1  0.951130  0.811870  0.486370  1.0  0.1104
  H  H208  1  0.887130  0.710370  0.315170  1.0  0.1124
  H  H209  1  0.966130  0.752070  0.252270  1.0  0.0998
  H  H210  1  0.095030  0.793670  0.108170  1.0  0.1125
  H  H211  1  0.050830  0.760970  0.995870  1.0  0.1141
  H  H212  1  0.946230  0.804170  0.056070  1.0  0.1166
  H  H213  1  0.989730  0.835270  0.169870  1.0  0.1147
  H  H214  1  0.804600  0.575500  0.718700  1.0  0.3047
  H  H215  1  0.709100  0.679100  0.549500  1.0  0.0886
  H  H216  1  0.680200  0.686900  0.665800  1.0  0.1242
  H  H217  1  0.703200  0.656000  0.770400  1.0  0.1133
  H  H218  1  0.753500  0.615700  0.755100  1.0  0.1119
  H  H219  1  0.812800  0.509600  0.757000  1.0  0.1189
  H  H220  1  0.854800  0.472600  0.819700  1.0  0.109
  H  H221  1  0.956300  0.510100  0.648500  1.0  0.1133
  H  H222  1  0.914600  0.547400  0.585600  1.0  0.1013
  H  H223  1  0.873000  0.634700  0.441500  1.0  0.1128
  H  H224  1  0.905700  0.623200  0.329200  1.0  0.1134
  H  H225  1  0.862500  0.475400  0.389400  1.0  0.1171
  H  H226  1  0.831400  0.487800  0.503200  1.0  0.1141
  H  H227  1  0.471270  0.908830  0.052030  1.0  0.3048
  H  H228  1  0.375770  0.012430  0.882830  1.0  0.0886
  H  H229  1  0.346870  0.020230  0.999130  1.0  0.1242
  H  H230  1  0.369870  0.989330  0.103730  1.0  0.1133
  H  H231  1  0.420170  0.949030  0.088430  1.0  0.1119
  H  H232  1  0.479470  0.842930  0.090330  1.0  0.1189
  H  H233  1  0.521470  0.805930  0.153030  1.0  0.109
  H  H234  1  0.622970  0.843430  0.981830  1.0  0.1134
  H  H235  1  0.581270  0.880730  0.918930  1.0  0.1013
  H  H236  1  0.539670  0.968030  0.774830  1.0  0.1128
  H  H237  1  0.572370  0.956530  0.662530  1.0  0.1134
  H  H238  1  0.529170  0.808730  0.722730  1.0  0.1171
  H  H239  1  0.498070  0.821130  0.836530  1.0  0.1141
  H  H240  1  0.137930  0.242170  0.385370  1.0  0.3049
  H  H241  1  0.042430  0.345770  0.216170  1.0  0.0886
  H  H242  1  0.013530  0.353570  0.332470  1.0  0.1242
  H  H243  1  0.036530  0.322670  0.437070  1.0  0.1133
  H  H244  1  0.086830  0.282370  0.421770  1.0  0.1119
  H  H245  1  0.146130  0.176270  0.423670  1.0  0.1189
  H  H246  1  0.188130  0.139270  0.486370  1.0  0.109
  H  H247  1  0.289630  0.176770  0.315170  1.0  0.1134
  H  H248  1  0.247930  0.214070  0.252270  1.0  0.1013
  H  H249  1  0.206330  0.301370  0.108170  1.0  0.1127
  H  H250  1  0.239030  0.289870  0.995870  1.0  0.1134
  H  H251  1  0.195830  0.142070  0.056070  1.0  0.1171
  H  H252  1  0.164730  0.154470  0.169870  1.0  0.1141
  C  C253  1  0.666020  0.947860  0.408150  1.0  0.169
  C  C254  1  0.670980  0.970050  0.339280  1.0  -0.1064
  C  C255  1  0.652590  0.938270  0.277960  1.0  -0.1137
  C  C256  1  0.628960  0.884820  0.286730  1.0  -0.1556
  C  C257  1  0.625150  0.865290  0.357900  1.0  0.1818
  C  C258  1  0.600960  0.810200  0.375920  1.0  0.3737
  C  C259  1  0.572020  0.741120  0.445120  1.0  -0.0066
  C  C260  1  0.558790  0.724340  0.371690  1.0  -0.0424
  C  C261  1  0.533030  0.673470  0.335170  1.0  0.0325
  C  C262  1  0.510040  0.667960  0.265180  1.0  -0.1482
  C  C263  1  0.488010  0.620890  0.227940  1.0  -0.0373
  C  C264  1  0.487960  0.578000  0.258990  1.0  -0.1519
  C  C265  1  0.510220  0.582920  0.329260  1.0  -0.0465
  C  C266  1  0.532370  0.629970  0.366600  1.0  -0.1122
  C  C267  1  0.466960  0.528340  0.215240  1.0  0.7042
  C  C268  1  0.562670  0.712210  0.515620  1.0  -0.0249
  C  C269  1  0.602590  0.730890  0.568490  1.0  -0.0583
  C  C270  1  0.595720  0.704810  0.635350  1.0  -0.083
  C  C271  1  0.548850  0.660310  0.650530  1.0  -0.119
  C  C272  1  0.508100  0.642600  0.599460  1.0  -0.0458
  C  C273  1  0.515450  0.668660  0.531910  1.0  -0.0639
  C  C274  1  0.543030  0.628510  0.718890  1.0  0.6748
  C  C275  1  0.332690  0.281190  0.741480  1.0  0.169
  C  C276  1  0.337650  0.303380  0.672610  1.0  -0.1064
  C  C277  1  0.319260  0.271600  0.611290  1.0  -0.1137
  C  C278  1  0.295630  0.218150  0.620060  1.0  -0.1556
  C  C279  1  0.291820  0.198620  0.691230  1.0  0.1818
  C  C280  1  0.267630  0.143530  0.709250  1.0  0.3737
  C  C281  1  0.238690  0.074450  0.778450  1.0  -0.0066
  C  C282  1  0.225460  0.057670  0.705020  1.0  -0.0424
  C  C283  1  0.199700  0.006800  0.668500  1.0  0.0325
  C  C284  1  0.176710  0.001290  0.598510  1.0  -0.1482
  C  C285  1  0.154680  0.954220  0.561270  1.0  -0.0373
  C  C286  1  0.154630  0.911330  0.592320  1.0  -0.152
  C  C287  1  0.176890  0.916250  0.662590  1.0  -0.0465
  C  C288  1  0.199040  0.963300  0.699930  1.0  -0.1122
  C  C289  1  0.133630  0.861670  0.548570  1.0  0.7043
  C  C290  1  0.229340  0.045540  0.848950  1.0  -0.0249
  C  C291  1  0.269260  0.064220  0.901820  1.0  -0.0583
  C  C292  1  0.262390  0.038140  0.968680  1.0  -0.083
  C  C293  1  0.215520  0.993640  0.983860  1.0  -0.119
  C  C294  1  0.174770  0.975930  0.932790  1.0  -0.0458
  C  C295  1  0.182120  0.001990  0.865240  1.0  -0.0639
  C  C296  1  0.209700  0.961840  0.052220  1.0  0.6747
  C  C297  1  0.999350  0.614530  0.074820  1.0  0.169
  C  C298  1  0.004310  0.636720  0.005950  1.0  -0.1064
  C  C299  1  0.985920  0.604940  0.944630  1.0  -0.1136
  C  C300  1  0.962290  0.551490  0.953400  1.0  -0.1556
  C  C301  1  0.958480  0.531960  0.024570  1.0  0.1818
  C  C302  1  0.934290  0.476870  0.042590  1.0  0.374
  C  C303  1  0.905350  0.407790  0.111790  1.0  -0.0066
  C  C304  1  0.892120  0.391010  0.038360  1.0  -0.0424
  C  C305  1  0.866360  0.340140  0.001840  1.0  0.0325
  C  C306  1  0.843370  0.334630  0.931850  1.0  -0.1482
  C  C307  1  0.821340  0.287560  0.894610  1.0  -0.0373
  C  C308  1  0.821290  0.244670  0.925660  1.0  -0.1518
  C  C309  1  0.843550  0.249590  0.995930  1.0  -0.0462
  C  C310  1  0.865700  0.296640  0.033270  1.0  -0.1122
  C  C311  1  0.800290  0.195010  0.881910  1.0  0.7043
  C  C312  1  0.896000  0.378880  0.182290  1.0  -0.0249
  C  C313  1  0.935920  0.397560  0.235160  1.0  -0.0582
  C  C314  1  0.929050  0.371480  0.302020  1.0  -0.0831
  C  C315  1  0.882180  0.326980  0.317200  1.0  -0.119
  C  C316  1  0.841430  0.309270  0.266130  1.0  -0.0458
  C  C317  1  0.848780  0.335330  0.198580  1.0  -0.0639
  C  C318  1  0.876360  0.295180  0.385560  1.0  0.6748
  C  C319  1  0.052140  0.718160  0.408150  1.0  0.1669
  C  C320  1  0.029950  0.700930  0.339280  1.0  -0.1079
  C  C321  1  0.061730  0.714320  0.277960  1.0  -0.1155
  C  C322  1  0.115180  0.744140  0.286730  1.0  -0.1597
  C  C323  1  0.134710  0.759860  0.357900  1.0  0.1805
  C  C324  1  0.189800  0.790760  0.375920  1.0  0.3747
  C  C325  1  0.258880  0.830900  0.445120  1.0  -0.0075
  C  C326  1  0.275660  0.834450  0.371690  1.0  -0.0405
  C  C327  1  0.326530  0.859560  0.335170  1.0  0.0309
  C  C328  1  0.332040  0.842080  0.265180  1.0  -0.1474
  C  C329  1  0.379110  0.867120  0.227940  1.0  -0.0409
  C  C330  1  0.422000  0.909960  0.258990  1.0  -0.1501
  C  C331  1  0.417080  0.927300  0.329260  1.0  -0.0442
  C  C332  1  0.370030  0.902400  0.366600  1.0  -0.111
  C  C333  1  0.471660  0.938620  0.215240  1.0  0.7025
  C  C334  1  0.287790  0.850460  0.515620  1.0  -0.0254
  C  C335  1  0.269110  0.871700  0.568490  1.0  -0.0583
  C  C336  1  0.295190  0.890910  0.635350  1.0  -0.083
  C  C337  1  0.339690  0.888540  0.650530  1.0  -0.1188
  C  C338  1  0.357400  0.865500  0.599460  1.0  -0.0445
  C  C339  1  0.331340  0.846790  0.531910  1.0  -0.0632
  C  C340  1  0.371490  0.914520  0.718890  1.0  0.675
  C  C341  1  0.718810  0.051490  0.741480  1.0  0.1669
  C  C342  1  0.696620  0.034260  0.672610  1.0  -0.1079
  C  C343  1  0.728400  0.047650  0.611290  1.0  -0.1156
  C  C344  1  0.781850  0.077470  0.620060  1.0  -0.1597
  C  C345  1  0.801380  0.093190  0.691230  1.0  0.1805
  C  C346  1  0.856470  0.124090  0.709250  1.0  0.3747
  C  C347  1  0.925550  0.164230  0.778450  1.0  -0.0076
  C  C348  1  0.942330  0.167780  0.705020  1.0  -0.0405
  C  C349  1  0.993200  0.192890  0.668500  1.0  0.0309
  C  C350  1  0.998710  0.175410  0.598510  1.0  -0.1474
  C  C351  1  0.045780  0.200450  0.561270  1.0  -0.0409
  C  C352  1  0.088670  0.243290  0.592320  1.0  -0.1506
  C  C353  1  0.083750  0.260630  0.662590  1.0  -0.0442
  C  C354  1  0.036700  0.235730  0.699930  1.0  -0.111
  C  C355  1  0.138330  0.271950  0.548570  1.0  0.7025
  C  C356  1  0.954460  0.183790  0.848950  1.0  -0.0254
  C  C357  1  0.935780  0.205030  0.901820  1.0  -0.0581
  C  C358  1  0.961860  0.224240  0.968680  1.0  -0.0831
  C  C359  1  0.006360  0.221870  0.983860  1.0  -0.1188
  C  C360  1  0.024070  0.198830  0.932790  1.0  -0.0445
  C  C361  1  0.998010  0.180120  0.865240  1.0  -0.0632
  C  C362  1  0.038160  0.247850  0.052220  1.0  0.6749
  C  C363  1  0.385470  0.384830  0.074820  1.0  0.1669
  C  C364  1  0.363280  0.367600  0.005950  1.0  -0.1079
  C  C365  1  0.395060  0.380990  0.944630  1.0  -0.1158
  C  C366  1  0.448510  0.410810  0.953400  1.0  -0.1597
  C  C367  1  0.468040  0.426530  0.024570  1.0  0.1805
  C  C368  1  0.523130  0.457430  0.042590  1.0  0.3747
  C  C369  1  0.592210  0.497570  0.111790  1.0  -0.0076
  C  C370  1  0.608990  0.501120  0.038360  1.0  -0.0405
  C  C371  1  0.659860  0.526230  0.001840  1.0  0.0308
  C  C372  1  0.665370  0.508750  0.931850  1.0  -0.1474
  C  C373  1  0.712440  0.533790  0.894610  1.0  -0.0409
  C  C374  1  0.755330  0.576630  0.925660  1.0  -0.1503
  C  C375  1  0.750410  0.593970  0.995930  1.0  -0.0442
  C  C376  1  0.703360  0.569070  0.033270  1.0  -0.111
  C  C377  1  0.804990  0.605290  0.881910  1.0  0.7026
  C  C378  1  0.621120  0.517130  0.182290  1.0  -0.0254
  C  C379  1  0.602440  0.538370  0.235160  1.0  -0.0583
  C  C380  1  0.628520  0.557580  0.302020  1.0  -0.083
  C  C381  1  0.673020  0.555210  0.317200  1.0  -0.1188
  C  C382  1  0.690730  0.532170  0.266130  1.0  -0.0445
  C  C383  1  0.664670  0.513460  0.198580  1.0  -0.0632
  C  C384  1  0.704820  0.581190  0.385560  1.0  0.675
  C  C385  1  0.281840  0.333980  0.408150  1.0  0.1656
  C  C386  1  0.299070  0.329020  0.339280  1.0  -0.1063
  C  C387  1  0.285680  0.347410  0.277960  1.0  -0.1136
  C  C388  1  0.255860  0.371040  0.286730  1.0  -0.1584
  C  C389  1  0.240140  0.374850  0.357900  1.0  0.181
  C  C390  1  0.209240  0.399040  0.375920  1.0  0.3744
  C  C391  1  0.169100  0.427980  0.445120  1.0  -0.008
  C  C392  1  0.165550  0.441210  0.371690  1.0  -0.0425
  C  C393  1  0.140440  0.466970  0.335170  1.0  0.0323
  C  C394  1  0.157920  0.489960  0.265180  1.0  -0.1507
  C  C395  1  0.132880  0.511990  0.227940  1.0  -0.0396
  C  C396  1  0.090040  0.512040  0.258990  1.0  -0.1468
  C  C397  1  0.072700  0.489780  0.329260  1.0  -0.0466
  C  C398  1  0.097600  0.467630  0.366600  1.0  -0.1123
  C  C399  1  0.061380  0.533040  0.215240  1.0  0.702
  C  C400  1  0.149540  0.437330  0.515620  1.0  -0.0237
  C  C401  1  0.128300  0.397410  0.568490  1.0  -0.0587
  C  C402  1  0.109090  0.404280  0.635350  1.0  -0.082
  C  C403  1  0.111460  0.451150  0.650530  1.0  -0.1166
  C  C404  1  0.134500  0.491900  0.599460  1.0  -0.0476
  C  C405  1  0.153210  0.484550  0.531910  1.0  -0.0586
  C  C406  1  0.085480  0.456970  0.718890  1.0  0.6743
  C  C407  1  0.948510  0.667310  0.741480  1.0  0.1656
  C  C408  1  0.965740  0.662350  0.672610  1.0  -0.1063
  C  C409  1  0.952350  0.680740  0.611290  1.0  -0.1134
  C  C410  1  0.922530  0.704370  0.620060  1.0  -0.1583
  C  C411  1  0.906810  0.708180  0.691230  1.0  0.181
  C  C412  1  0.875910  0.732370  0.709250  1.0  0.3744
  C  C413  1  0.835770  0.761310  0.778450  1.0  -0.0081
  C  C414  1  0.832220  0.774540  0.705020  1.0  -0.0425
  C  C415  1  0.807110  0.800300  0.668500  1.0  0.0322
  C  C416  1  0.824590  0.823290  0.598510  1.0  -0.1507
  C  C417  1  0.799550  0.845320  0.561270  1.0  -0.0396
  C  C418  1  0.756710  0.845370  0.592320  1.0  -0.1469
  C  C419  1  0.739370  0.823110  0.662590  1.0  -0.0466
  C  C420  1  0.764270  0.800960  0.699930  1.0  -0.1123
  C  C421  1  0.728050  0.866370  0.548570  1.0  0.702
  C  C422  1  0.816210  0.770660  0.848950  1.0  -0.0237
  C  C423  1  0.794970  0.730740  0.901820  1.0  -0.0587
  C  C424  1  0.775760  0.737610  0.968680  1.0  -0.082
  C  C425  1  0.778130  0.784480  0.983860  1.0  -0.1166
  C  C426  1  0.801170  0.825230  0.932790  1.0  -0.0476
  C  C427  1  0.819880  0.817880  0.865240  1.0  -0.0586
  C  C428  1  0.752150  0.790300  0.052220  1.0  0.6743
  C  C429  1  0.615170  0.000650  0.074820  1.0  0.1656
  C  C430  1  0.632400  0.995690  0.005950  1.0  -0.1063
  C  C431  1  0.619010  0.014080  0.944630  1.0  -0.1134
  C  C432  1  0.589190  0.037710  0.953400  1.0  -0.1583
  C  C433  1  0.573470  0.041520  0.024570  1.0  0.1809
  C  C434  1  0.542570  0.065710  0.042590  1.0  0.3744
  C  C435  1  0.502430  0.094650  0.111790  1.0  -0.008
  C  C436  1  0.498880  0.107880  0.038360  1.0  -0.0425
  C  C437  1  0.473770  0.133640  0.001840  1.0  0.0333
  C  C438  1  0.491250  0.156630  0.931850  1.0  -0.1507
  C  C439  1  0.466210  0.178660  0.894610  1.0  -0.0396
  C  C440  1  0.423370  0.178710  0.925660  1.0  -0.1468
  C  C441  1  0.406030  0.156450  0.995930  1.0  -0.0466
  C  C442  1  0.430930  0.134300  0.033270  1.0  -0.1125
  C  C443  1  0.394710  0.199710  0.881910  1.0  0.702
  C  C444  1  0.482870  0.104000  0.182290  1.0  -0.0237
  C  C445  1  0.461630  0.064080  0.235160  1.0  -0.0587
  C  C446  1  0.442420  0.070950  0.302020  1.0  -0.0821
  C  C447  1  0.444790  0.117820  0.317200  1.0  -0.1166
  C  C448  1  0.467830  0.158570  0.266130  1.0  -0.0476
  C  C449  1  0.486540  0.151220  0.198580  1.0  -0.0586
  C  C450  1  0.418810  0.123640  0.385560  1.0  0.6743
  C  C451  1  0.333980  0.052140  0.591850  1.0  0.1703
  C  C452  1  0.329020  0.029950  0.660720  1.0  -0.1058
  C  C453  1  0.347410  0.061730  0.722040  1.0  -0.1131
  C  C454  1  0.371040  0.115180  0.713270  1.0  -0.1545
  C  C455  1  0.374850  0.134710  0.642100  1.0  0.1838
  C  C456  1  0.399040  0.189800  0.624080  1.0  0.3736
  C  C457  1  0.427980  0.258880  0.554880  1.0  -0.0068
  C  C458  1  0.441210  0.275660  0.628310  1.0  -0.0422
  C  C459  1  0.466970  0.326530  0.664830  1.0  0.0309
  C  C460  1  0.489960  0.332040  0.734820  1.0  -0.1484
  C  C461  1  0.511990  0.379110  0.772060  1.0  -0.0352
  C  C462  1  0.512040  0.422000  0.741010  1.0  -0.1517
  C  C463  1  0.489780  0.417080  0.670740  1.0  -0.0464
  C  C464  1  0.467630  0.370030  0.633400  1.0  -0.1101
  C  C465  1  0.533040  0.471660  0.784760  1.0  0.7041
  C  C466  1  0.437330  0.287790  0.484380  1.0  -0.0275
  C  C467  1  0.397410  0.269110  0.431510  1.0  -0.057
  C  C468  1  0.404280  0.295190  0.364650  1.0  -0.0829
  C  C469  1  0.451150  0.339690  0.349470  1.0  -0.1178
  C  C470  1  0.491900  0.357400  0.400540  1.0  -0.0452
  C  C471  1  0.484550  0.331340  0.468090  1.0  -0.0594
  C  C472  1  0.456970  0.371490  0.281110  1.0  0.6746
  C  C473  1  0.000650  0.385470  0.925180  1.0  0.1704
  C  C474  1  0.995690  0.363280  0.994050  1.0  -0.1059
  C  C475  1  0.014080  0.395060  0.055370  1.0  -0.113
  C  C476  1  0.037710  0.448510  0.046600  1.0  -0.1544
  C  C477  1  0.041520  0.468040  0.975430  1.0  0.1838
  C  C478  1  0.065710  0.523130  0.957410  1.0  0.3736
  C  C479  1  0.094650  0.592210  0.888210  1.0  -0.0067
  C  C480  1  0.107880  0.608990  0.961640  1.0  -0.0422
  C  C481  1  0.133640  0.659860  0.998160  1.0  0.031
  C  C482  1  0.156630  0.665370  0.068150  1.0  -0.1484
  C  C483  1  0.178660  0.712440  0.105390  1.0  -0.0352
  C  C484  1  0.178710  0.755330  0.074340  1.0  -0.1516
  C  C485  1  0.156450  0.750410  0.004070  1.0  -0.0462
  C  C486  1  0.134300  0.703360  0.966730  1.0  -0.1101
  C  C487  1  0.199710  0.804990  0.118090  1.0  0.7041
  C  C488  1  0.104000  0.621120  0.817710  1.0  -0.0275
  C  C489  1  0.064080  0.602440  0.764840  1.0  -0.057
  C  C490  1  0.070950  0.628520  0.697980  1.0  -0.083
  C  C491  1  0.117820  0.673020  0.682800  1.0  -0.1178
  C  C492  1  0.158570  0.690730  0.733870  1.0  -0.0452
  C  C493  1  0.151220  0.664670  0.801420  1.0  -0.0594
  C  C494  1  0.123640  0.704820  0.614440  1.0  0.6746
  C  C495  1  0.667310  0.718810  0.258520  1.0  0.1703
  C  C496  1  0.662350  0.696620  0.327390  1.0  -0.1058
  C  C497  1  0.680740  0.728400  0.388710  1.0  -0.1131
  C  C498  1  0.704370  0.781850  0.379940  1.0  -0.1545
  C  C499  1  0.708180  0.801380  0.308770  1.0  0.1838
  C  C500  1  0.732370  0.856470  0.290750  1.0  0.3736
  C  C501  1  0.761310  0.925550  0.221550  1.0  -0.0068
  C  C502  1  0.774540  0.942330  0.294980  1.0  -0.0422
  C  C503  1  0.800300  0.993200  0.331500  1.0  0.0309
  C  C504  1  0.823290  0.998710  0.401490  1.0  -0.1484
  C  C505  1  0.845320  0.045780  0.438730  1.0  -0.0352
  C  C506  1  0.845370  0.088670  0.407680  1.0  -0.1517
  C  C507  1  0.823110  0.083750  0.337410  1.0  -0.0464
  C  C508  1  0.800960  0.036700  0.300070  1.0  -0.1101
  C  C509  1  0.866370  0.138330  0.451430  1.0  0.7041
  C  C510  1  0.770660  0.954460  0.151050  1.0  -0.0275
  C  C511  1  0.730740  0.935780  0.098180  1.0  -0.057
  C  C512  1  0.737610  0.961860  0.031320  1.0  -0.0829
  C  C513  1  0.784480  0.006360  0.016140  1.0  -0.1178
  C  C514  1  0.825230  0.024070  0.067210  1.0  -0.0452
  C  C515  1  0.817880  0.998010  0.134760  1.0  -0.0594
  C  C516  1  0.790300  0.038160  0.947780  1.0  0.6745
  C  C517  1  0.947860  0.281840  0.591850  1.0  0.1668
  C  C518  1  0.970050  0.299070  0.660720  1.0  -0.1065
  C  C519  1  0.938270  0.285680  0.722040  1.0  -0.1147
  C  C520  1  0.884820  0.255860  0.713270  1.0  -0.1599
  C  C521  1  0.865290  0.240140  0.642100  1.0  0.1791
  C  C522  1  0.810200  0.209240  0.624080  1.0  0.3742
  C  C523  1  0.741120  0.169100  0.554880  1.0  -0.0072
  C  C524  1  0.724340  0.165550  0.628310  1.0  -0.0413
  C  C525  1  0.673470  0.140440  0.664830  1.0  0.0331
  C  C526  1  0.667960  0.157920  0.734820  1.0  -0.1495
  C  C527  1  0.620890  0.132880  0.772060  1.0  -0.0384
  C  C528  1  0.578000  0.090040  0.741010  1.0  -0.1496
  C  C529  1  0.582920  0.072700  0.670740  1.0  -0.044
  C  C530  1  0.629970  0.097600  0.633400  1.0  -0.1107
  C  C531  1  0.528340  0.061380  0.784760  1.0  0.7031
  C  C532  1  0.712210  0.149540  0.484380  1.0  -0.0264
  C  C533  1  0.730890  0.128300  0.431510  1.0  -0.0603
  C  C534  1  0.704810  0.109090  0.364650  1.0  -0.0827
  C  C535  1  0.660310  0.111460  0.349470  1.0  -0.1183
  C  C536  1  0.642600  0.134500  0.400540  1.0  -0.0462
  C  C537  1  0.668660  0.153210  0.468090  1.0  -0.0641
  C  C538  1  0.628510  0.085480  0.281110  1.0  0.6746
  C  C539  1  0.614530  0.615170  0.925180  1.0  0.1668
  C  C540  1  0.636720  0.632400  0.994050  1.0  -0.1064
  C  C541  1  0.604940  0.619010  0.055370  1.0  -0.1149
  C  C542  1  0.551490  0.589190  0.046600  1.0  -0.1599
  C  C543  1  0.531960  0.573470  0.975430  1.0  0.1791
  C  C544  1  0.476870  0.542570  0.957410  1.0  0.3743
  C  C545  1  0.407790  0.502430  0.888210  1.0  -0.0073
  C  C546  1  0.391010  0.498880  0.961640  1.0  -0.0413
  C  C547  1  0.340140  0.473770  0.998160  1.0  0.0331
  C  C548  1  0.334630  0.491250  0.068150  1.0  -0.1495
  C  C549  1  0.287560  0.466210  0.105390  1.0  -0.0384
  C  C550  1  0.244670  0.423370  0.074340  1.0  -0.1497
  C  C551  1  0.249590  0.406030  0.004070  1.0  -0.044
  C  C552  1  0.296640  0.430930  0.966730  1.0  -0.1107
  C  C553  1  0.195010  0.394710  0.118090  1.0  0.7032
  C  C554  1  0.378880  0.482870  0.817710  1.0  -0.0264
  C  C555  1  0.397560  0.461630  0.764840  1.0  -0.0603
  C  C556  1  0.371480  0.442420  0.697980  1.0  -0.0827
  C  C557  1  0.326980  0.444790  0.682800  1.0  -0.1183
  C  C558  1  0.309270  0.467830  0.733870  1.0  -0.0462
  C  C559  1  0.335330  0.486540  0.801420  1.0  -0.0641
  C  C560  1  0.295180  0.418810  0.614440  1.0  0.6746
  C  C561  1  0.281190  0.948510  0.258520  1.0  0.1668
  C  C562  1  0.303380  0.965740  0.327390  1.0  -0.1065
  C  C563  1  0.271600  0.952350  0.388710  1.0  -0.1147
  C  C564  1  0.218150  0.922530  0.379940  1.0  -0.1599
  C  C565  1  0.198620  0.906810  0.308770  1.0  0.1791
  C  C566  1  0.143530  0.875910  0.290750  1.0  0.3743
  C  C567  1  0.074450  0.835770  0.221550  1.0  -0.0073
  C  C568  1  0.057670  0.832220  0.294980  1.0  -0.0413
  C  C569  1  0.006800  0.807110  0.331500  1.0  0.0331
  C  C570  1  0.001290  0.824590  0.401490  1.0  -0.1495
  C  C571  1  0.954220  0.799550  0.438730  1.0  -0.0384
  C  C572  1  0.911330  0.756710  0.407680  1.0  -0.1499
  C  C573  1  0.916250  0.739370  0.337410  1.0  -0.044
  C  C574  1  0.963300  0.764270  0.300070  1.0  -0.1107
  C  C575  1  0.861670  0.728050  0.451430  1.0  0.7031
  C  C576  1  0.045540  0.816210  0.151050  1.0  -0.0264
  C  C577  1  0.064220  0.794970  0.098180  1.0  -0.0601
  C  C578  1  0.038140  0.775760  0.031320  1.0  -0.0828
  C  C579  1  0.993640  0.778130  0.016140  1.0  -0.1183
  C  C580  1  0.975930  0.801170  0.067210  1.0  -0.0462
  C  C581  1  0.001990  0.819880  0.134760  1.0  -0.0641
  C  C582  1  0.961840  0.752150  0.947780  1.0  0.6745
  C  C583  1  0.718160  0.666020  0.591850  1.0  0.1673
  C  C584  1  0.700930  0.670980  0.660720  1.0  -0.1085
  C  C585  1  0.714320  0.652590  0.722040  1.0  -0.1151
  C  C586  1  0.744140  0.628960  0.713270  1.0  -0.1601
  C  C587  1  0.759860  0.625150  0.642100  1.0  0.1805
  C  C588  1  0.790760  0.600960  0.624080  1.0  0.3761
  C  C589  1  0.830900  0.572020  0.554880  1.0  -0.0089
  C  C590  1  0.834450  0.558790  0.628310  1.0  -0.0407
  C  C591  1  0.859560  0.533030  0.664830  1.0  0.0326
  C  C592  1  0.842080  0.510040  0.734820  1.0  -0.1497
  C  C593  1  0.867120  0.488010  0.772060  1.0  -0.0386
  C  C594  1  0.909960  0.487960  0.741010  1.0  -0.1478
  C  C595  1  0.927300  0.510220  0.670740  1.0  -0.0453
  C  C596  1  0.902400  0.532370  0.633400  1.0  -0.1129
  C  C597  1  0.938620  0.466960  0.784760  1.0  0.701
  C  C598  1  0.850460  0.562670  0.484380  1.0  -0.0257
  C  C599  1  0.871700  0.602590  0.431510  1.0  -0.0589
  C  C600  1  0.890910  0.595720  0.364650  1.0  -0.084
  C  C601  1  0.888540  0.548850  0.349470  1.0  -0.1169
  C  C602  1  0.865500  0.508100  0.400540  1.0  -0.0484
  C  C603  1  0.846790  0.515450  0.468090  1.0  -0.0573
  C  C604  1  0.914520  0.543030  0.281110  1.0  0.6732
  C  C605  1  0.384830  0.999350  0.925180  1.0  0.1673
  C  C606  1  0.367600  0.004310  0.994050  1.0  -0.1085
  C  C607  1  0.380990  0.985920  0.055370  1.0  -0.115
  C  C608  1  0.410810  0.962290  0.046600  1.0  -0.1601
  C  C609  1  0.426530  0.958480  0.975430  1.0  0.1805
  C  C610  1  0.457430  0.934290  0.957410  1.0  0.3761
  C  C611  1  0.497570  0.905350  0.888210  1.0  -0.0089
  C  C612  1  0.501120  0.892120  0.961640  1.0  -0.0407
  C  C613  1  0.526230  0.866360  0.998160  1.0  0.0336
  C  C614  1  0.508750  0.843370  0.068150  1.0  -0.1497
  C  C615  1  0.533790  0.821340  0.105390  1.0  -0.0386
  C  C616  1  0.576630  0.821290  0.074340  1.0  -0.1478
  C  C617  1  0.593970  0.843550  0.004070  1.0  -0.0453
  C  C618  1  0.569070  0.865700  0.966730  1.0  -0.1131
  C  C619  1  0.605290  0.800290  0.118090  1.0  0.701
  C  C620  1  0.517130  0.896000  0.817710  1.0  -0.0257
  C  C621  1  0.538370  0.935920  0.764840  1.0  -0.0591
  C  C622  1  0.557580  0.929050  0.697980  1.0  -0.084
  C  C623  1  0.555210  0.882180  0.682800  1.0  -0.1169
  C  C624  1  0.532170  0.841430  0.733870  1.0  -0.0484
  C  C625  1  0.513460  0.848780  0.801420  1.0  -0.0573
  C  C626  1  0.581190  0.876360  0.614440  1.0  0.6732
  C  C627  1  0.051490  0.332690  0.258520  1.0  0.1673
  C  C628  1  0.034260  0.337650  0.327390  1.0  -0.1085
  C  C629  1  0.047650  0.319260  0.388710  1.0  -0.115
  C  C630  1  0.077470  0.295630  0.379940  1.0  -0.1601
  C  C631  1  0.093190  0.291820  0.308770  1.0  0.1805
  C  C632  1  0.124090  0.267630  0.290750  1.0  0.3761
  C  C633  1  0.164230  0.238690  0.221550  1.0  -0.0089
  C  C634  1  0.167780  0.225460  0.294980  1.0  -0.0407
  C  C635  1  0.192890  0.199700  0.331500  1.0  0.0325
  C  C636  1  0.175410  0.176710  0.401490  1.0  -0.1497
  C  C637  1  0.200450  0.154680  0.438730  1.0  -0.0386
  C  C638  1  0.243290  0.154630  0.407680  1.0  -0.1479
  C  C639  1  0.260630  0.176890  0.337410  1.0  -0.0452
  C  C640  1  0.235730  0.199040  0.300070  1.0  -0.1129
  C  C641  1  0.271950  0.133630  0.451430  1.0  0.701
  C  C642  1  0.183790  0.229340  0.151050  1.0  -0.0257
  C  C643  1  0.205030  0.269260  0.098180  1.0  -0.0589
  C  C644  1  0.224240  0.262390  0.031320  1.0  -0.084
  C  C645  1  0.221870  0.215520  0.016140  1.0  -0.1169
  C  C646  1  0.198830  0.174770  0.067210  1.0  -0.0484
  C  C647  1  0.180120  0.182120  0.134760  1.0  -0.0573
  C  C648  1  0.247850  0.209700  0.947780  1.0  0.6732
  N  N649  1  0.643620  0.896480  0.418330  1.0  -0.3388
  N  N650  1  0.598490  0.794670  0.446170  1.0  -0.4346
  N  N651  1  0.578020  0.769400  0.330030  1.0  -0.2221
  N  N652  1  0.310290  0.229810  0.751660  1.0  -0.3389
  N  N653  1  0.265160  0.128000  0.779500  1.0  -0.4346
  N  N654  1  0.244690  0.102730  0.663360  1.0  -0.2221
  N  N655  1  0.976950  0.563150  0.085000  1.0  -0.3389
  N  N656  1  0.931820  0.461340  0.112840  1.0  -0.4346
  N  N657  1  0.911350  0.436070  0.996700  1.0  -0.2221
  N  N658  1  0.103520  0.747140  0.418330  1.0  -0.3388
  N  N659  1  0.205330  0.803820  0.446170  1.0  -0.439
  N  N660  1  0.230600  0.808620  0.330030  1.0  -0.2209
  N  N661  1  0.770190  0.080470  0.751660  1.0  -0.3389
  N  N662  1  0.872000  0.137150  0.779500  1.0  -0.439
  N  N663  1  0.897270  0.141950  0.663360  1.0  -0.2209
  N  N664  1  0.436850  0.413810  0.085000  1.0  -0.3388
  N  N665  1  0.538660  0.470490  0.112840  1.0  -0.439
  N  N666  1  0.563930  0.475290  0.996700  1.0  -0.2209
  N  N667  1  0.252860  0.356380  0.418330  1.0  -0.3394
  N  N668  1  0.196180  0.401510  0.446170  1.0  -0.436
  N  N669  1  0.191380  0.421980  0.330030  1.0  -0.2219
  N  N670  1  0.919530  0.689710  0.751660  1.0  -0.3394
  N  N671  1  0.862850  0.734840  0.779500  1.0  -0.436
  N  N672  1  0.858050  0.755310  0.663360  1.0  -0.2219
  N  N673  1  0.586190  0.023050  0.085000  1.0  -0.3394
  N  N674  1  0.529510  0.068180  0.112840  1.0  -0.436
  N  N675  1  0.524710  0.088650  0.996700  1.0  -0.2219
  N  N676  1  0.356380  0.103520  0.581670  1.0  -0.3377
  N  N677  1  0.401510  0.205330  0.553830  1.0  -0.4363
  N  N678  1  0.421980  0.230600  0.669970  1.0  -0.2203
  N  N679  1  0.023050  0.436850  0.915000  1.0  -0.3378
  N  N680  1  0.068180  0.538660  0.887160  1.0  -0.4363
  N  N681  1  0.088650  0.563930  0.003300  1.0  -0.2203
  N  N682  1  0.689710  0.770190  0.248340  1.0  -0.3377
  N  N683  1  0.734840  0.872000  0.220500  1.0  -0.4363
  N  N684  1  0.755310  0.897270  0.336640  1.0  -0.2203
  N  N685  1  0.896480  0.252860  0.581670  1.0  -0.341
  N  N686  1  0.794670  0.196180  0.553830  1.0  -0.4382
  N  N687  1  0.769400  0.191380  0.669970  1.0  -0.2231
  N  N688  1  0.563150  0.586190  0.915000  1.0  -0.3409
  N  N689  1  0.461340  0.529510  0.887160  1.0  -0.4382
  N  N690  1  0.436070  0.524710  0.003300  1.0  -0.2231
  N  N691  1  0.229810  0.919530  0.248340  1.0  -0.341
  N  N692  1  0.128000  0.862850  0.220500  1.0  -0.4382
  N  N693  1  0.102730  0.858050  0.336640  1.0  -0.2232
  N  N694  1  0.747140  0.643620  0.581670  1.0  -0.339
  N  N695  1  0.803820  0.598490  0.553830  1.0  -0.4368
  N  N696  1  0.808620  0.578020  0.669970  1.0  -0.2231
  N  N697  1  0.413810  0.976950  0.915000  1.0  -0.339
  N  N698  1  0.470490  0.931820  0.887160  1.0  -0.4368
  N  N699  1  0.475290  0.911350  0.003300  1.0  -0.2231
  N  N700  1  0.080470  0.310290  0.248340  1.0  -0.339
  N  N701  1  0.137150  0.265160  0.220500  1.0  -0.4368
  N  N702  1  0.141950  0.244690  0.336640  1.0  -0.2231
  O  O703  1  0.473180  0.492800  0.244010  1.0  -0.5964
  O  O704  1  0.446380  0.525180  0.153740  1.0  -0.6143
  O  O705  1  0.581900  0.637250  0.756560  1.0  -0.5746
  O  O706  1  0.498010  0.591660  0.734670  1.0  -0.5677
  O  O707  1  0.139850  0.826130  0.577340  1.0  -0.5964
  O  O708  1  0.113050  0.858510  0.487070  1.0  -0.6143
  O  O709  1  0.248570  0.970580  0.089890  1.0  -0.5746
  O  O710  1  0.164680  0.924990  0.068000  1.0  -0.5677
  O  O711  1  0.806510  0.159470  0.910680  1.0  -0.5962
  O  O712  1  0.779710  0.191850  0.820410  1.0  -0.6145
  O  O713  1  0.915230  0.303920  0.423230  1.0  -0.5746
  O  O714  1  0.831340  0.258330  0.401340  1.0  -0.5677
  O  O715  1  0.507200  0.980380  0.244010  1.0  -0.5964
  O  O716  1  0.474820  0.921200  0.153740  1.0  -0.6177
  O  O717  1  0.362750  0.944650  0.756560  1.0  -0.574
  O  O718  1  0.408340  0.906350  0.734670  1.0  -0.5671
  O  O719  1  0.173870  0.313710  0.577340  1.0  -0.5964
  O  O720  1  0.141490  0.254530  0.487070  1.0  -0.6169
  O  O721  1  0.029420  0.277980  0.089890  1.0  -0.574
  O  O722  1  0.075010  0.239680  0.068000  1.0  -0.5671
  O  O723  1  0.840530  0.647050  0.910680  1.0  -0.5964
  O  O724  1  0.808150  0.587870  0.820410  1.0  -0.618
  O  O725  1  0.696080  0.611320  0.423230  1.0  -0.574
  O  O726  1  0.741670  0.573020  0.401340  1.0  -0.5671
  O  O727  1  0.019620  0.526820  0.244010  1.0  -0.596
  O  O728  1  0.078800  0.553620  0.153740  1.0  -0.6195
  O  O729  1  0.055350  0.418100  0.756560  1.0  -0.5765
  O  O730  1  0.093650  0.501990  0.734670  1.0  -0.5706
  O  O731  1  0.686290  0.860150  0.577340  1.0  -0.596
  O  O732  1  0.745470  0.886950  0.487070  1.0  -0.619
  O  O733  1  0.722020  0.751430  0.089890  1.0  -0.5765
  O  O734  1  0.760320  0.835320  0.068000  1.0  -0.5706
  O  O735  1  0.352950  0.193490  0.910680  1.0  -0.5961
  O  O736  1  0.412130  0.220290  0.820410  1.0  -0.619
  O  O737  1  0.388680  0.084770  0.423230  1.0  -0.5765
  O  O738  1  0.426980  0.168660  0.401340  1.0  -0.5706
  O  O739  1  0.526820  0.507200  0.755990  1.0  -0.5968
  O  O740  1  0.553620  0.474820  0.846260  1.0  -0.6151
  O  O741  1  0.418100  0.362750  0.243440  1.0  -0.5739
  O  O742  1  0.501990  0.408340  0.265330  1.0  -0.5677
  O  O743  1  0.193490  0.840530  0.089320  1.0  -0.5967
  O  O744  1  0.220290  0.808150  0.179590  1.0  -0.6153
  O  O745  1  0.084770  0.696080  0.576770  1.0  -0.5739
  O  O746  1  0.168660  0.741670  0.598660  1.0  -0.5677
  O  O747  1  0.860150  0.173870  0.422660  1.0  -0.5968
  O  O748  1  0.886950  0.141490  0.512930  1.0  -0.6151
  O  O749  1  0.751430  0.029420  0.910110  1.0  -0.5739
  O  O750  1  0.835320  0.075010  0.932000  1.0  -0.5677
  O  O751  1  0.492800  0.019620  0.755990  1.0  -0.5943
  O  O752  1  0.525180  0.078800  0.846260  1.0  -0.6182
  O  O753  1  0.637250  0.055350  0.243440  1.0  -0.5742
  O  O754  1  0.591660  0.093650  0.265330  1.0  -0.5679
  O  O755  1  0.159470  0.352950  0.089320  1.0  -0.5943
  O  O756  1  0.191850  0.412130  0.179590  1.0  -0.6185
  O  O757  1  0.303920  0.388680  0.576770  1.0  -0.5742
  O  O758  1  0.258330  0.426980  0.598660  1.0  -0.5679
  O  O759  1  0.826130  0.686290  0.422660  1.0  -0.5943
  O  O760  1  0.858510  0.745470  0.512930  1.0  -0.6175
  O  O761  1  0.970580  0.722020  0.910110  1.0  -0.5741
  O  O762  1  0.924990  0.760320  0.932000  1.0  -0.5679
  O  O763  1  0.980380  0.473180  0.755990  1.0  -0.5937
  O  O764  1  0.921200  0.446380  0.846260  1.0  -0.6207
  O  O765  1  0.944650  0.581900  0.243440  1.0  -0.5772
  O  O766  1  0.906350  0.498010  0.265330  1.0  -0.5705
  O  O767  1  0.647050  0.806510  0.089320  1.0  -0.5938
  O  O768  1  0.587870  0.779710  0.179590  1.0  -0.6202
  O  O769  1  0.611320  0.915230  0.576770  1.0  -0.5772
  O  O770  1  0.573020  0.831340  0.598660  1.0  -0.5705
  O  O771  1  0.313710  0.139850  0.422660  1.0  -0.5937
  O  O772  1  0.254530  0.113050  0.512930  1.0  -0.6202
  O  O773  1  0.277980  0.248570  0.910110  1.0  -0.5772
  O  O774  1  0.239680  0.164680  0.932000  1.0  -0.5705
