# generated using pymatgen
data_ZnH13C22N3O4
_symmetry_space_group_name_H-M   'P 1'
_cell_length_a   29.60800000
_cell_length_b   29.60800000
_cell_length_c   18.15800000
_cell_angle_alpha   90.00000000
_cell_angle_beta   90.00000000
_cell_angle_gamma   120.00000000
_symmetry_Int_Tables_number   1
_chemical_formula_structural   ZnH13C22N3O4
_chemical_formula_sum   'Zn18 H234 C396 N54 O72'
_cell_volume   13785.31796067
_cell_formula_units_Z   18
loop_
 _symmetry_equiv_pos_site_id
 _symmetry_equiv_pos_as_xyz
  1  'x, y, z'
loop_
 _atom_site_type_symbol
 _atom_site_label
 _atom_site_symmetry_multiplicity
 _atom_site_fract_x
 _atom_site_fract_y
 _atom_site_fract_z
 _atom_site_occupancy
 _atom_site_charge
  Zn  Zn1  1  0.625720  0.854430  0.521700  1.0  0.9595
  Zn  Zn2  1  0.292390  0.187760  0.855030  1.0  0.9595
  Zn  Zn3  1  0.959050  0.521100  0.188370  1.0  0.9595
  Zn  Zn4  1  0.145570  0.771290  0.521700  1.0  0.9655
  Zn  Zn5  1  0.812240  0.104620  0.855030  1.0  0.9649
  Zn  Zn6  1  0.478900  0.437960  0.188370  1.0  0.9655
  Zn  Zn7  1  0.228710  0.374280  0.521700  1.0  0.9645
  Zn  Zn8  1  0.895380  0.707610  0.855030  1.0  0.9645
  Zn  Zn9  1  0.562040  0.040950  0.188370  1.0  0.9645
  Zn  Zn10  1  0.374280  0.145570  0.478300  1.0  0.9629
  Zn  Zn11  1  0.040950  0.478900  0.811630  1.0  0.9629
  Zn  Zn12  1  0.707610  0.812240  0.144970  1.0  0.9629
  Zn  Zn13  1  0.854430  0.228710  0.478300  1.0  0.9604
  Zn  Zn14  1  0.521100  0.562040  0.811630  1.0  0.9604
  Zn  Zn15  1  0.187760  0.895380  0.144970  1.0  0.9602
  Zn  Zn16  1  0.771290  0.625720  0.478300  1.0  0.9592
  Zn  Zn17  1  0.437960  0.959050  0.811630  1.0  0.9592
  Zn  Zn18  1  0.104620  0.292390  0.144970  1.0  0.9591
  H  H19  1  0.660900  0.966600  0.460900  1.0  0.0891
  H  H20  1  0.669100  0.005700  0.347500  1.0  0.1131
  H  H21  1  0.647700  0.955200  0.240900  1.0  0.1132
  H  H22  1  0.618600  0.865400  0.250700  1.0  0.1168
  H  H23  1  0.515300  0.698800  0.241600  1.0  0.1145
  H  H24  1  0.478100  0.620800  0.178700  1.0  0.1082
  H  H25  1  0.516700  0.555300  0.344800  1.0  0.1085
  H  H26  1  0.557300  0.634500  0.406100  1.0  0.1077
  H  H27  1  0.634200  0.760800  0.558400  1.0  0.1073
  H  H28  1  0.620200  0.714900  0.668000  1.0  0.1094
  H  H29  1  0.477800  0.604900  0.596900  1.0  0.1128
  H  H30  1  0.491400  0.650100  0.486100  1.0  0.1148
  H  H31  1  0.585300  0.775300  0.277000  1.0  0.3025
  H  H32  1  0.327570  0.299930  0.794230  1.0  0.0888
  H  H33  1  0.335770  0.339030  0.680830  1.0  0.1131
  H  H34  1  0.314370  0.288530  0.574230  1.0  0.1132
  H  H35  1  0.285270  0.198730  0.584030  1.0  0.1169
  H  H36  1  0.181970  0.032130  0.574930  1.0  0.1145
  H  H37  1  0.144770  0.954130  0.512030  1.0  0.1084
  H  H38  1  0.183370  0.888630  0.678130  1.0  0.1085
  H  H39  1  0.223970  0.967830  0.739430  1.0  0.1077
  H  H40  1  0.300870  0.094130  0.891730  1.0  0.1073
  H  H41  1  0.286870  0.048230  0.001330  1.0  0.1095
  H  H42  1  0.144470  0.938230  0.930230  1.0  0.1126
  H  H43  1  0.158070  0.983430  0.819430  1.0  0.1148
  H  H44  1  0.251970  0.108630  0.610330  1.0  0.3025
  H  H45  1  0.994230  0.633270  0.127570  1.0  0.0891
  H  H46  1  0.002430  0.672370  0.014170  1.0  0.1132
  H  H47  1  0.981030  0.621870  0.907570  1.0  0.1132
  H  H48  1  0.951930  0.532070  0.917370  1.0  0.1168
  H  H49  1  0.848630  0.365470  0.908270  1.0  0.1145
  H  H50  1  0.811430  0.287470  0.845370  1.0  0.1082
  H  H51  1  0.850030  0.221970  0.011470  1.0  0.1085
  H  H52  1  0.890630  0.301170  0.072770  1.0  0.1077
  H  H53  1  0.967530  0.427470  0.225070  1.0  0.1073
  H  H54  1  0.953530  0.381570  0.334670  1.0  0.1094
  H  H55  1  0.811130  0.271570  0.263570  1.0  0.1128
  H  H56  1  0.824730  0.316770  0.152770  1.0  0.1148
  H  H57  1  0.918630  0.441970  0.943670  1.0  0.303
  H  H58  1  0.033400  0.694300  0.460900  1.0  0.0901
  H  H59  1  0.994300  0.663400  0.347500  1.0  0.1133
  H  H60  1  0.044800  0.692500  0.240900  1.0  0.1132
  H  H61  1  0.134600  0.753200  0.250700  1.0  0.1151
  H  H62  1  0.301200  0.816500  0.241600  1.0  0.1142
  H  H63  1  0.379200  0.857300  0.178700  1.0  0.1085
  H  H64  1  0.444700  0.961400  0.344800  1.0  0.1078
  H  H65  1  0.365500  0.922800  0.406100  1.0  0.1063
  H  H66  1  0.239200  0.873400  0.558400  1.0  0.108
  H  H67  1  0.285100  0.905300  0.668000  1.0  0.1093
  H  H68  1  0.395100  0.872900  0.596900  1.0  0.1124
  H  H69  1  0.349900  0.841300  0.486100  1.0  0.1148
  H  H70  1  0.224700  0.810000  0.277000  1.0  0.3005
  H  H71  1  0.700070  0.027630  0.794230  1.0  0.0901
  H  H72  1  0.660970  0.996730  0.680830  1.0  0.1133
  H  H73  1  0.711470  0.025830  0.574230  1.0  0.1132
  H  H74  1  0.801270  0.086530  0.584030  1.0  0.1151
  H  H75  1  0.967870  0.149830  0.574930  1.0  0.1142
  H  H76  1  0.045870  0.190630  0.512030  1.0  0.1084
  H  H77  1  0.111370  0.294730  0.678130  1.0  0.1078
  H  H78  1  0.032170  0.256130  0.739430  1.0  0.1063
  H  H79  1  0.905870  0.206730  0.891730  1.0  0.1083
  H  H80  1  0.951770  0.238630  0.001330  1.0  0.1093
  H  H81  1  0.061770  0.206230  0.930230  1.0  0.1124
  H  H82  1  0.016570  0.174630  0.819430  1.0  0.1148
  H  H83  1  0.891370  0.143330  0.610330  1.0  0.3002
  H  H84  1  0.366730  0.360970  0.127570  1.0  0.0901
  H  H85  1  0.327630  0.330070  0.014170  1.0  0.1133
  H  H86  1  0.378130  0.359170  0.907570  1.0  0.1134
  H  H87  1  0.467930  0.419870  0.917370  1.0  0.1152
  H  H88  1  0.634530  0.483170  0.908270  1.0  0.1142
  H  H89  1  0.712530  0.523970  0.845370  1.0  0.1085
  H  H90  1  0.778030  0.628070  0.011470  1.0  0.1078
  H  H91  1  0.698830  0.589470  0.072770  1.0  0.1067
  H  H92  1  0.572530  0.540070  0.225070  1.0  0.108
  H  H93  1  0.618430  0.571970  0.334670  1.0  0.1093
  H  H94  1  0.728430  0.539570  0.263570  1.0  0.1124
  H  H95  1  0.683230  0.507970  0.152770  1.0  0.1148
  H  H96  1  0.558030  0.476670  0.943670  1.0  0.2999
  H  H97  1  0.305700  0.339100  0.460900  1.0  0.0893
  H  H98  1  0.336600  0.330900  0.347500  1.0  0.1139
  H  H99  1  0.307500  0.352300  0.240900  1.0  0.1133
  H  H100  1  0.246800  0.381400  0.250700  1.0  0.1173
  H  H101  1  0.183500  0.484700  0.241600  1.0  0.1157
  H  H102  1  0.142700  0.521900  0.178700  1.0  0.1079
  H  H103  1  0.038600  0.483300  0.344800  1.0  0.1085
  H  H104  1  0.077200  0.442700  0.406100  1.0  0.1088
  H  H105  1  0.126600  0.365800  0.558400  1.0  0.1084
  H  H106  1  0.094700  0.379800  0.668000  1.0  0.11
  H  H107  1  0.127100  0.522200  0.596900  1.0  0.1142
  H  H108  1  0.158700  0.508600  0.486100  1.0  0.1157
  H  H109  1  0.190000  0.414700  0.277000  1.0  0.3026
  H  H110  1  0.972370  0.672430  0.794230  1.0  0.0893
  H  H111  1  0.003270  0.664230  0.680830  1.0  0.1139
  H  H112  1  0.974170  0.685630  0.574230  1.0  0.1133
  H  H113  1  0.913470  0.714730  0.584030  1.0  0.1173
  H  H114  1  0.850170  0.818030  0.574930  1.0  0.1157
  H  H115  1  0.809370  0.855230  0.512030  1.0  0.1079
  H  H116  1  0.705270  0.816630  0.678130  1.0  0.1085
  H  H117  1  0.743870  0.776030  0.739430  1.0  0.1088
  H  H118  1  0.793270  0.699130  0.891730  1.0  0.1084
  H  H119  1  0.761370  0.713130  0.001330  1.0  0.1099
  H  H120  1  0.793770  0.855530  0.930230  1.0  0.1142
  H  H121  1  0.825370  0.841930  0.819430  1.0  0.1157
  H  H122  1  0.856670  0.748030  0.610330  1.0  0.3014
  H  H123  1  0.639030  0.005770  0.127570  1.0  0.0893
  H  H124  1  0.669930  0.997570  0.014170  1.0  0.1139
  H  H125  1  0.640830  0.018970  0.907570  1.0  0.1133
  H  H126  1  0.580130  0.048070  0.917370  1.0  0.1173
  H  H127  1  0.516830  0.151370  0.908270  1.0  0.1157
  H  H128  1  0.476030  0.188570  0.845370  1.0  0.1079
  H  H129  1  0.371930  0.149970  0.011470  1.0  0.1085
  H  H130  1  0.410530  0.109370  0.072770  1.0  0.1088
  H  H131  1  0.459930  0.032470  0.225070  1.0  0.1084
  H  H132  1  0.428030  0.046470  0.334670  1.0  0.11
  H  H133  1  0.460430  0.188870  0.263570  1.0  0.1142
  H  H134  1  0.492030  0.175270  0.152770  1.0  0.1157
  H  H135  1  0.523330  0.081370  0.943670  1.0  0.3027
  H  H136  1  0.339100  0.033400  0.539100  1.0  0.0899
  H  H137  1  0.330900  0.994300  0.652500  1.0  0.113
  H  H138  1  0.352300  0.044800  0.759100  1.0  0.1129
  H  H139  1  0.381400  0.134600  0.749300  1.0  0.1154
  H  H140  1  0.484700  0.301200  0.758400  1.0  0.115
  H  H141  1  0.521900  0.379200  0.821300  1.0  0.1085
  H  H142  1  0.483300  0.444700  0.655200  1.0  0.1079
  H  H143  1  0.442700  0.365500  0.593900  1.0  0.1069
  H  H144  1  0.365800  0.239200  0.441600  1.0  0.1077
  H  H145  1  0.379800  0.285100  0.332000  1.0  0.1099
  H  H146  1  0.522200  0.395100  0.403100  1.0  0.1135
  H  H147  1  0.508600  0.349900  0.513900  1.0  0.1144
  H  H148  1  0.414700  0.224700  0.723000  1.0  0.3037
  H  H149  1  0.005770  0.366730  0.872430  1.0  0.0899
  H  H150  1  0.997570  0.327630  0.985830  1.0  0.1131
  H  H151  1  0.018970  0.378130  0.092430  1.0  0.1129
  H  H152  1  0.048070  0.467930  0.082630  1.0  0.1155
  H  H153  1  0.151370  0.634530  0.091730  1.0  0.115
  H  H154  1  0.188570  0.712530  0.154630  1.0  0.1085
  H  H155  1  0.149970  0.778030  0.988530  1.0  0.1079
  H  H156  1  0.109370  0.698830  0.927230  1.0  0.107
  H  H157  1  0.032470  0.572530  0.774930  1.0  0.1077
  H  H158  1  0.046470  0.618430  0.665330  1.0  0.1099
  H  H159  1  0.188870  0.728430  0.736430  1.0  0.1135
  H  H160  1  0.175270  0.683230  0.847230  1.0  0.1144
  H  H161  1  0.081370  0.558030  0.056330  1.0  0.3043
  H  H162  1  0.672430  0.700070  0.205770  1.0  0.0899
  H  H163  1  0.664230  0.660970  0.319170  1.0  0.113
  H  H164  1  0.685630  0.711470  0.425770  1.0  0.1129
  H  H165  1  0.714730  0.801270  0.415970  1.0  0.1155
  H  H166  1  0.818030  0.967870  0.425070  1.0  0.115
  H  H167  1  0.855230  0.045870  0.487970  1.0  0.1085
  H  H168  1  0.816630  0.111370  0.321870  1.0  0.1079
  H  H169  1  0.776030  0.032170  0.260570  1.0  0.1069
  H  H170  1  0.699130  0.905870  0.108270  1.0  0.1077
  H  H171  1  0.713130  0.951770  0.998670  1.0  0.11
  H  H172  1  0.855530  0.061770  0.069770  1.0  0.1134
  H  H173  1  0.841930  0.016570  0.180570  1.0  0.1144
  H  H174  1  0.748030  0.891370  0.389670  1.0  0.3037
  H  H175  1  0.966600  0.305700  0.539100  1.0  0.0897
  H  H176  1  0.005700  0.336600  0.652500  1.0  0.1121
  H  H177  1  0.955200  0.307500  0.759100  1.0  0.1129
  H  H178  1  0.865400  0.246800  0.749300  1.0  0.1156
  H  H179  1  0.698800  0.183500  0.758400  1.0  0.1137
  H  H180  1  0.620800  0.142700  0.821300  1.0  0.109
  H  H181  1  0.555300  0.038600  0.655200  1.0  0.1078
  H  H182  1  0.634500  0.077200  0.593900  1.0  0.1075
  H  H183  1  0.760800  0.126600  0.441600  1.0  0.1071
  H  H184  1  0.714900  0.094700  0.332000  1.0  0.1099
  H  H185  1  0.604900  0.127100  0.403100  1.0  0.1125
  H  H186  1  0.650100  0.158700  0.513900  1.0  0.1149
  H  H187  1  0.775300  0.190000  0.723000  1.0  0.3052
  H  H188  1  0.633270  0.639030  0.872430  1.0  0.0897
  H  H189  1  0.672370  0.669930  0.985830  1.0  0.1121
  H  H190  1  0.621870  0.640830  0.092430  1.0  0.1132
  H  H191  1  0.532070  0.580130  0.082630  1.0  0.1155
  H  H192  1  0.365470  0.516830  0.091730  1.0  0.1137
  H  H193  1  0.287470  0.476030  0.154630  1.0  0.109
  H  H194  1  0.221970  0.371930  0.988530  1.0  0.1078
  H  H195  1  0.301170  0.410530  0.927230  1.0  0.1075
  H  H196  1  0.427470  0.459930  0.774930  1.0  0.1071
  H  H197  1  0.381570  0.428030  0.665330  1.0  0.1099
  H  H198  1  0.271570  0.460430  0.736430  1.0  0.1125
  H  H199  1  0.316770  0.492030  0.847230  1.0  0.1149
  H  H200  1  0.441970  0.523330  0.056330  1.0  0.3048
  H  H201  1  0.299930  0.972370  0.205770  1.0  0.0897
  H  H202  1  0.339030  0.003270  0.319170  1.0  0.1121
  H  H203  1  0.288530  0.974170  0.425770  1.0  0.1129
  H  H204  1  0.198730  0.913470  0.415970  1.0  0.1156
  H  H205  1  0.032130  0.850170  0.425070  1.0  0.1137
  H  H206  1  0.954130  0.809370  0.487970  1.0  0.1089
  H  H207  1  0.888630  0.705270  0.321870  1.0  0.1078
  H  H208  1  0.967830  0.743870  0.260570  1.0  0.1075
  H  H209  1  0.094130  0.793270  0.108270  1.0  0.1073
  H  H210  1  0.048230  0.761370  0.998670  1.0  0.11
  H  H211  1  0.938230  0.793770  0.069770  1.0  0.1124
  H  H212  1  0.983430  0.825370  0.180570  1.0  0.1149
  H  H213  1  0.108630  0.856670  0.389670  1.0  0.305
  H  H214  1  0.694300  0.660900  0.539100  1.0  0.0895
  H  H215  1  0.663400  0.669100  0.652500  1.0  0.1123
  H  H216  1  0.692500  0.647700  0.759100  1.0  0.1132
  H  H217  1  0.753200  0.618600  0.749300  1.0  0.1165
  H  H218  1  0.816500  0.515300  0.758400  1.0  0.1154
  H  H219  1  0.857300  0.478100  0.821300  1.0  0.1084
  H  H220  1  0.961400  0.516700  0.655200  1.0  0.1084
  H  H221  1  0.922800  0.557300  0.593900  1.0  0.1081
  H  H222  1  0.873400  0.634200  0.441600  1.0  0.1073
  H  H223  1  0.905300  0.620200  0.332000  1.0  0.1099
  H  H224  1  0.872900  0.477800  0.403100  1.0  0.1137
  H  H225  1  0.841300  0.491400  0.513900  1.0  0.1152
  H  H226  1  0.810000  0.585300  0.723000  1.0  0.306
  H  H227  1  0.360970  0.994230  0.872430  1.0  0.0895
  H  H228  1  0.330070  0.002430  0.985830  1.0  0.1123
  H  H229  1  0.359170  0.981030  0.092430  1.0  0.1132
  H  H230  1  0.419870  0.951930  0.082630  1.0  0.1165
  H  H231  1  0.483170  0.848630  0.091730  1.0  0.1153
  H  H232  1  0.523970  0.811430  0.154630  1.0  0.1084
  H  H233  1  0.628070  0.850030  0.988530  1.0  0.1083
  H  H234  1  0.589470  0.890630  0.927230  1.0  0.108
  H  H235  1  0.540070  0.967530  0.774930  1.0  0.1073
  H  H236  1  0.571970  0.953530  0.665330  1.0  0.1099
  H  H237  1  0.539570  0.811130  0.736430  1.0  0.1137
  H  H238  1  0.507970  0.824730  0.847230  1.0  0.1152
  H  H239  1  0.476670  0.918630  0.056330  1.0  0.3061
  H  H240  1  0.027630  0.327570  0.205770  1.0  0.0895
  H  H241  1  0.996730  0.335770  0.319170  1.0  0.1123
  H  H242  1  0.025830  0.314370  0.425770  1.0  0.1132
  H  H243  1  0.086530  0.285270  0.415970  1.0  0.1165
  H  H244  1  0.149830  0.181970  0.425070  1.0  0.1154
  H  H245  1  0.190630  0.144770  0.487970  1.0  0.1084
  H  H246  1  0.294730  0.183370  0.321870  1.0  0.1084
  H  H247  1  0.256130  0.223970  0.260570  1.0  0.1081
  H  H248  1  0.206730  0.300870  0.108270  1.0  0.1073
  H  H249  1  0.238630  0.286870  0.998670  1.0  0.1098
  H  H250  1  0.206230  0.144470  0.069770  1.0  0.1137
  H  H251  1  0.174630  0.158070  0.180570  1.0  0.1152
  H  H252  1  0.143330  0.251970  0.389670  1.0  0.3049
  C  C253  1  0.652200  0.945850  0.417700  1.0  0.1687
  C  C254  1  0.657200  0.969440  0.350400  1.0  -0.1157
  C  C255  1  0.644600  0.939650  0.287800  1.0  -0.0911
  C  C256  1  0.627300  0.886760  0.293300  1.0  -0.1607
  C  C257  1  0.623160  0.866090  0.362900  1.0  0.1791
  C  C258  1  0.602650  0.810910  0.378520  1.0  0.3236
  C  C259  1  0.575370  0.740560  0.442600  1.0  0.0244
  C  C260  1  0.564540  0.725490  0.369480  1.0  -0.0524
  C  C261  1  0.540210  0.675180  0.331100  1.0  0.0696
  C  C262  1  0.516110  0.669860  0.262500  1.0  -0.1439
  C  C263  1  0.493840  0.623390  0.225300  1.0  -0.0319
  C  C264  1  0.493820  0.579990  0.254380  1.0  -0.1603
  C  C265  1  0.517110  0.584780  0.323300  1.0  -0.0552
  C  C266  1  0.540600  0.631650  0.360300  1.0  -0.1243
  C  C267  1  0.471430  0.530280  0.211510  1.0  0.7017
  C  C268  1  0.564690  0.709770  0.510730  1.0  -0.0254
  C  C269  1  0.602540  0.728900  0.565600  1.0  -0.0737
  C  C270  1  0.594200  0.701520  0.630800  1.0  -0.1005
  C  C271  1  0.548730  0.655300  0.642200  1.0  -0.1271
  C  C272  1  0.509800  0.636300  0.588500  1.0  -0.0607
  C  C273  1  0.517800  0.663230  0.522800  1.0  -0.0768
  C  C274  1  0.541920  0.624700  0.711200  1.0  0.6853
  C  C275  1  0.318870  0.279180  0.751030  1.0  0.1694
  C  C276  1  0.323870  0.302770  0.683730  1.0  -0.1157
  C  C277  1  0.311270  0.272980  0.621130  1.0  -0.0939
  C  C278  1  0.293970  0.220090  0.626630  1.0  -0.1607
  C  C279  1  0.289830  0.199420  0.696230  1.0  0.1791
  C  C280  1  0.269320  0.144240  0.711850  1.0  0.3235
  C  C281  1  0.242040  0.073890  0.775930  1.0  0.0244
  C  C282  1  0.231210  0.058820  0.702810  1.0  -0.0525
  C  C283  1  0.206880  0.008510  0.664430  1.0  0.0696
  C  C284  1  0.182780  0.003190  0.595830  1.0  -0.1439
  C  C285  1  0.160510  0.956720  0.558630  1.0  -0.0319
  C  C286  1  0.160490  0.913320  0.587710  1.0  -0.1603
  C  C287  1  0.183780  0.918110  0.656630  1.0  -0.0553
  C  C288  1  0.207270  0.964980  0.693630  1.0  -0.1243
  C  C289  1  0.138100  0.863610  0.544840  1.0  0.7018
  C  C290  1  0.231360  0.043100  0.844060  1.0  -0.0254
  C  C291  1  0.269210  0.062230  0.898930  1.0  -0.0739
  C  C292  1  0.260870  0.034850  0.964130  1.0  -0.1005
  C  C293  1  0.215400  0.988630  0.975530  1.0  -0.1271
  C  C294  1  0.176470  0.969630  0.921830  1.0  -0.0607
  C  C295  1  0.184470  0.996560  0.856130  1.0  -0.0767
  C  C296  1  0.208590  0.958030  0.044530  1.0  0.6852
  C  C297  1  0.985530  0.612520  0.084370  1.0  0.169
  C  C298  1  0.990530  0.636110  0.017070  1.0  -0.1157
  C  C299  1  0.977930  0.606320  0.954470  1.0  -0.0906
  C  C300  1  0.960630  0.553430  0.959970  1.0  -0.1602
  C  C301  1  0.956490  0.532760  0.029570  1.0  0.1791
  C  C302  1  0.935980  0.477580  0.045190  1.0  0.3234
  C  C303  1  0.908700  0.407230  0.109270  1.0  0.0244
  C  C304  1  0.897870  0.392160  0.036150  1.0  -0.0524
  C  C305  1  0.873540  0.341850  0.997770  1.0  0.0697
  C  C306  1  0.849440  0.336530  0.929170  1.0  -0.1439
  C  C307  1  0.827170  0.290060  0.891970  1.0  -0.032
  C  C308  1  0.827150  0.246660  0.921050  1.0  -0.1602
  C  C309  1  0.850440  0.251450  0.989970  1.0  -0.0552
  C  C310  1  0.873930  0.298320  0.026970  1.0  -0.1243
  C  C311  1  0.804760  0.196950  0.878180  1.0  0.7017
  C  C312  1  0.898020  0.376440  0.177400  1.0  -0.0254
  C  C313  1  0.935870  0.395570  0.232270  1.0  -0.0737
  C  C314  1  0.927530  0.368190  0.297470  1.0  -0.1005
  C  C315  1  0.882060  0.321970  0.308870  1.0  -0.1271
  C  C316  1  0.843130  0.302970  0.255170  1.0  -0.0607
  C  C317  1  0.851130  0.329900  0.189470  1.0  -0.0768
  C  C318  1  0.875250  0.291370  0.377870  1.0  0.6853
  C  C319  1  0.054150  0.706350  0.417700  1.0  0.167
  C  C320  1  0.030560  0.687760  0.350400  1.0  -0.1213
  C  C321  1  0.060350  0.704950  0.287800  1.0  -0.0981
  C  C322  1  0.113240  0.740540  0.293300  1.0  -0.1628
  C  C323  1  0.133910  0.757070  0.362900  1.0  0.1736
  C  C324  1  0.189090  0.791740  0.378520  1.0  0.3268
  C  C325  1  0.259440  0.834810  0.442600  1.0  0.0252
  C  C326  1  0.274510  0.839050  0.369480  1.0  -0.049
  C  C327  1  0.324820  0.865030  0.331100  1.0  0.0679
  C  C328  1  0.330140  0.846250  0.262500  1.0  -0.1448
  C  C329  1  0.376610  0.870450  0.225300  1.0  -0.0354
  C  C330  1  0.420010  0.913830  0.254380  1.0  -0.1591
  C  C331  1  0.415220  0.932330  0.323300  1.0  -0.0508
  C  C332  1  0.368350  0.908950  0.360300  1.0  -0.1214
  C  C333  1  0.469720  0.941150  0.211510  1.0  0.6999
  C  C334  1  0.290230  0.854920  0.510730  1.0  -0.0197
  C  C335  1  0.271100  0.873640  0.565600  1.0  -0.0765
  C  C336  1  0.298480  0.892680  0.630800  1.0  -0.1044
  C  C337  1  0.344700  0.893430  0.642200  1.0  -0.1202
  C  C338  1  0.363700  0.873500  0.588500  1.0  -0.0492
  C  C339  1  0.336770  0.854570  0.522800  1.0  -0.0756
  C  C340  1  0.375300  0.917220  0.711200  1.0  0.6808
  C  C341  1  0.720820  0.039680  0.751030  1.0  0.167
  C  C342  1  0.697230  0.021090  0.683730  1.0  -0.1213
  C  C343  1  0.727020  0.038280  0.621130  1.0  -0.0981
  C  C344  1  0.779910  0.073870  0.626630  1.0  -0.1626
  C  C345  1  0.800580  0.090400  0.696230  1.0  0.1736
  C  C346  1  0.855760  0.125070  0.711850  1.0  0.3269
  C  C347  1  0.926110  0.168140  0.775930  1.0  0.0252
  C  C348  1  0.941180  0.172380  0.702810  1.0  -0.049
  C  C349  1  0.991490  0.198360  0.664430  1.0  0.0679
  C  C350  1  0.996810  0.179580  0.595830  1.0  -0.1448
  C  C351  1  0.043280  0.203780  0.558630  1.0  -0.0354
  C  C352  1  0.086680  0.247160  0.587710  1.0  -0.1592
  C  C353  1  0.081890  0.265660  0.656630  1.0  -0.0508
  C  C354  1  0.035020  0.242280  0.693630  1.0  -0.1214
  C  C355  1  0.136390  0.274480  0.544840  1.0  0.6999
  C  C356  1  0.956900  0.188250  0.844060  1.0  -0.0197
  C  C357  1  0.937770  0.206970  0.898930  1.0  -0.0765
  C  C358  1  0.965150  0.226010  0.964130  1.0  -0.0968
  C  C359  1  0.011370  0.226760  0.975530  1.0  -0.1202
  C  C360  1  0.030370  0.206830  0.921830  1.0  -0.0492
  C  C361  1  0.003440  0.187900  0.856130  1.0  -0.0756
  C  C362  1  0.041970  0.250550  0.044530  1.0  0.6832
  C  C363  1  0.387480  0.373020  0.084370  1.0  0.1671
  C  C364  1  0.363890  0.354430  0.017070  1.0  -0.1213
  C  C365  1  0.393680  0.371620  0.954470  1.0  -0.0976
  C  C366  1  0.446570  0.407210  0.959970  1.0  -0.1626
  C  C367  1  0.467240  0.423740  0.029570  1.0  0.1737
  C  C368  1  0.522420  0.458410  0.045190  1.0  0.3269
  C  C369  1  0.592770  0.501480  0.109270  1.0  0.0252
  C  C370  1  0.607840  0.505720  0.036150  1.0  -0.0489
  C  C371  1  0.658150  0.531700  0.997770  1.0  0.0677
  C  C372  1  0.663470  0.512920  0.929170  1.0  -0.1447
  C  C373  1  0.709940  0.537120  0.891970  1.0  -0.0354
  C  C374  1  0.753340  0.580500  0.921050  1.0  -0.1591
  C  C375  1  0.748550  0.599000  0.989970  1.0  -0.0508
  C  C376  1  0.701680  0.575620  0.026970  1.0  -0.1202
  C  C377  1  0.803050  0.607820  0.878180  1.0  0.6999
  C  C378  1  0.623560  0.521590  0.177400  1.0  -0.0197
  C  C379  1  0.604430  0.540310  0.232270  1.0  -0.0765
  C  C380  1  0.631810  0.559350  0.297470  1.0  -0.1045
  C  C381  1  0.678030  0.560100  0.308870  1.0  -0.1202
  C  C382  1  0.697030  0.540170  0.255170  1.0  -0.0492
  C  C383  1  0.670100  0.521240  0.189470  1.0  -0.0756
  C  C384  1  0.708630  0.583890  0.377870  1.0  0.6808
  C  C385  1  0.293650  0.347800  0.417700  1.0  0.1593
  C  C386  1  0.312240  0.342800  0.350400  1.0  -0.115
  C  C387  1  0.295050  0.355400  0.287800  1.0  -0.0956
  C  C388  1  0.259460  0.372700  0.293300  1.0  -0.1628
  C  C389  1  0.242930  0.376840  0.362900  1.0  0.1725
  C  C390  1  0.208260  0.397350  0.378520  1.0  0.326
  C  C391  1  0.165190  0.424630  0.442600  1.0  0.0258
  C  C392  1  0.160950  0.435460  0.369480  1.0  -0.052
  C  C393  1  0.134970  0.459790  0.331100  1.0  0.0651
  C  C394  1  0.153750  0.483890  0.262500  1.0  -0.1471
  C  C395  1  0.129550  0.506160  0.225300  1.0  -0.0304
  C  C396  1  0.086170  0.506180  0.254380  1.0  -0.1551
  C  C397  1  0.067670  0.482890  0.323300  1.0  -0.0578
  C  C398  1  0.091050  0.459400  0.360300  1.0  -0.1279
  C  C399  1  0.058850  0.528570  0.211510  1.0  0.699
  C  C400  1  0.145080  0.435310  0.510730  1.0  -0.0191
  C  C401  1  0.126360  0.397460  0.565600  1.0  -0.0741
  C  C402  1  0.107320  0.405800  0.630800  1.0  -0.0985
  C  C403  1  0.106570  0.451270  0.642200  1.0  -0.1242
  C  C404  1  0.126500  0.490200  0.588500  1.0  -0.0585
  C  C405  1  0.145430  0.482200  0.522800  1.0  -0.0716
  C  C406  1  0.082780  0.458080  0.711200  1.0  0.6812
  C  C407  1  0.960320  0.681130  0.751030  1.0  0.1594
  C  C408  1  0.978910  0.676130  0.683730  1.0  -0.115
  C  C409  1  0.961720  0.688730  0.621130  1.0  -0.0927
  C  C410  1  0.926130  0.706030  0.626630  1.0  -0.1628
  C  C411  1  0.909600  0.710170  0.696230  1.0  0.1725
  C  C412  1  0.874930  0.730680  0.711850  1.0  0.326
  C  C413  1  0.831860  0.757960  0.775930  1.0  0.0258
  C  C414  1  0.827620  0.768790  0.702810  1.0  -0.052
  C  C415  1  0.801640  0.793120  0.664430  1.0  0.0651
  C  C416  1  0.820420  0.817220  0.595830  1.0  -0.147
  C  C417  1  0.796220  0.839490  0.558630  1.0  -0.0304
  C  C418  1  0.752840  0.839510  0.587710  1.0  -0.1551
  C  C419  1  0.734340  0.816220  0.656630  1.0  -0.0578
  C  C420  1  0.757720  0.792730  0.693630  1.0  -0.1279
  C  C421  1  0.725520  0.861900  0.544840  1.0  0.699
  C  C422  1  0.811750  0.768640  0.844060  1.0  -0.0191
  C  C423  1  0.793030  0.730790  0.898930  1.0  -0.0741
  C  C424  1  0.773990  0.739130  0.964130  1.0  -0.0984
  C  C425  1  0.773240  0.784600  0.975530  1.0  -0.1242
  C  C426  1  0.793170  0.823530  0.921830  1.0  -0.0585
  C  C427  1  0.812100  0.815530  0.856130  1.0  -0.0717
  C  C428  1  0.749450  0.791410  0.044530  1.0  0.681
  C  C429  1  0.626980  0.014470  0.084370  1.0  0.1582
  C  C430  1  0.645570  0.009470  0.017070  1.0  -0.115
  C  C431  1  0.628380  0.022070  0.954470  1.0  -0.0957
  C  C432  1  0.592790  0.039370  0.959970  1.0  -0.1628
  C  C433  1  0.576260  0.043510  0.029570  1.0  0.1725
  C  C434  1  0.541590  0.064020  0.045190  1.0  0.3272
  C  C435  1  0.498520  0.091300  0.109270  1.0  0.0258
  C  C436  1  0.494280  0.102130  0.036150  1.0  -0.052
  C  C437  1  0.468300  0.126460  0.997770  1.0  0.065
  C  C438  1  0.487080  0.150560  0.929170  1.0  -0.1471
  C  C439  1  0.462880  0.172830  0.891970  1.0  -0.0304
  C  C440  1  0.419500  0.172850  0.921050  1.0  -0.1551
  C  C441  1  0.401000  0.149560  0.989970  1.0  -0.0577
  C  C442  1  0.424380  0.126070  0.026970  1.0  -0.1268
  C  C443  1  0.392180  0.195240  0.878180  1.0  0.6991
  C  C444  1  0.478410  0.101980  0.177400  1.0  -0.0191
  C  C445  1  0.459690  0.064130  0.232270  1.0  -0.0741
  C  C446  1  0.440650  0.072470  0.297470  1.0  -0.0985
  C  C447  1  0.439900  0.117940  0.308870  1.0  -0.1242
  C  C448  1  0.459830  0.156870  0.255170  1.0  -0.0585
  C  C449  1  0.478760  0.148870  0.189470  1.0  -0.0716
  C  C450  1  0.416110  0.124750  0.377870  1.0  0.6812
  C  C451  1  0.347800  0.054150  0.582300  1.0  0.1629
  C  C452  1  0.342800  0.030560  0.649600  1.0  -0.1157
  C  C453  1  0.355400  0.060350  0.712200  1.0  -0.093
  C  C454  1  0.372700  0.113240  0.706700  1.0  -0.1602
  C  C455  1  0.376840  0.133910  0.637100  1.0  0.175
  C  C456  1  0.397350  0.189090  0.621480  1.0  0.3244
  C  C457  1  0.424630  0.259440  0.557400  1.0  0.0239
  C  C458  1  0.435460  0.274510  0.630520  1.0  -0.052
  C  C459  1  0.459790  0.324820  0.668900  1.0  0.0605
  C  C460  1  0.483890  0.330140  0.737500  1.0  -0.1427
  C  C461  1  0.506160  0.376610  0.774700  1.0  -0.0289
  C  C462  1  0.506180  0.420010  0.745620  1.0  -0.1595
  C  C463  1  0.482890  0.415220  0.676700  1.0  -0.0559
  C  C464  1  0.459400  0.368350  0.639700  1.0  -0.1275
  C  C465  1  0.528570  0.469720  0.788490  1.0  0.7004
  C  C466  1  0.435310  0.290230  0.489270  1.0  -0.0215
  C  C467  1  0.397460  0.271100  0.434400  1.0  -0.0721
  C  C468  1  0.405800  0.298480  0.369200  1.0  -0.1047
  C  C469  1  0.451270  0.344700  0.357800  1.0  -0.1186
  C  C470  1  0.490200  0.363700  0.411500  1.0  -0.0572
  C  C471  1  0.482200  0.336770  0.477200  1.0  -0.073
  C  C472  1  0.458080  0.375300  0.288800  1.0  0.6856
  C  C473  1  0.014470  0.387480  0.915630  1.0  0.1632
  C  C474  1  0.009470  0.363890  0.982930  1.0  -0.1157
  C  C475  1  0.022070  0.393680  0.045530  1.0  -0.0933
  C  C476  1  0.039370  0.446570  0.040030  1.0  -0.1605
  C  C477  1  0.043510  0.467240  0.970430  1.0  0.175
  C  C478  1  0.064020  0.522420  0.954810  1.0  0.3233
  C  C479  1  0.091300  0.592770  0.890730  1.0  0.0239
  C  C480  1  0.102130  0.607840  0.963850  1.0  -0.0518
  C  C481  1  0.126460  0.658150  0.002230  1.0  0.0607
  C  C482  1  0.150560  0.663470  0.070830  1.0  -0.1427
  C  C483  1  0.172830  0.709940  0.108030  1.0  -0.0273
  C  C484  1  0.172850  0.753340  0.078950  1.0  -0.1595
  C  C485  1  0.149560  0.748550  0.010030  1.0  -0.056
  C  C486  1  0.126070  0.701680  0.973030  1.0  -0.1275
  C  C487  1  0.195240  0.803050  0.121820  1.0  0.7004
  C  C488  1  0.101980  0.623560  0.822600  1.0  -0.0215
  C  C489  1  0.064130  0.604430  0.767730  1.0  -0.0721
  C  C490  1  0.072470  0.631810  0.702530  1.0  -0.1047
  C  C491  1  0.117940  0.678030  0.691130  1.0  -0.1186
  C  C492  1  0.156870  0.697030  0.744830  1.0  -0.0572
  C  C493  1  0.148870  0.670100  0.810530  1.0  -0.073
  C  C494  1  0.124750  0.708630  0.622130  1.0  0.6856
  C  C495  1  0.681130  0.720820  0.248970  1.0  0.1629
  C  C496  1  0.676130  0.697230  0.316270  1.0  -0.1157
  C  C497  1  0.688730  0.727020  0.378870  1.0  -0.093
  C  C498  1  0.706030  0.779910  0.373370  1.0  -0.1602
  C  C499  1  0.710170  0.800580  0.303770  1.0  0.175
  C  C500  1  0.730680  0.855760  0.288150  1.0  0.3243
  C  C501  1  0.757960  0.926110  0.224070  1.0  0.0239
  C  C502  1  0.768790  0.941180  0.297190  1.0  -0.052
  C  C503  1  0.793120  0.991490  0.335570  1.0  0.0605
  C  C504  1  0.817220  0.996810  0.404170  1.0  -0.1427
  C  C505  1  0.839490  0.043280  0.441370  1.0  -0.029
  C  C506  1  0.839510  0.086680  0.412290  1.0  -0.1596
  C  C507  1  0.816220  0.081890  0.343370  1.0  -0.0559
  C  C508  1  0.792730  0.035020  0.306370  1.0  -0.1275
  C  C509  1  0.861900  0.136390  0.455160  1.0  0.7004
  C  C510  1  0.768640  0.956900  0.155940  1.0  -0.0215
  C  C511  1  0.730790  0.937770  0.101070  1.0  -0.0721
  C  C512  1  0.739130  0.965150  0.035870  1.0  -0.1047
  C  C513  1  0.784600  0.011370  0.024470  1.0  -0.1186
  C  C514  1  0.823530  0.030370  0.078170  1.0  -0.0572
  C  C515  1  0.815530  0.003440  0.143870  1.0  -0.073
  C  C516  1  0.791410  0.041970  0.955470  1.0  0.6855
  C  C517  1  0.945850  0.293650  0.582300  1.0  0.16
  C  C518  1  0.969440  0.312240  0.649600  1.0  -0.1189
  C  C519  1  0.939650  0.295050  0.712200  1.0  -0.0979
  C  C520  1  0.886760  0.259460  0.706700  1.0  -0.1638
  C  C521  1  0.866090  0.242930  0.637100  1.0  0.1728
  C  C522  1  0.810910  0.208260  0.621480  1.0  0.3259
  C  C523  1  0.740560  0.165190  0.557400  1.0  0.0242
  C  C524  1  0.725490  0.160950  0.630520  1.0  -0.0517
  C  C525  1  0.675180  0.134970  0.668900  1.0  0.0646
  C  C526  1  0.669860  0.153750  0.737500  1.0  -0.1469
  C  C527  1  0.623390  0.129550  0.774700  1.0  -0.0291
  C  C528  1  0.579990  0.086170  0.745620  1.0  -0.1585
  C  C529  1  0.584780  0.067670  0.676700  1.0  -0.055
  C  C530  1  0.631650  0.091050  0.639700  1.0  -0.1232
  C  C531  1  0.530280  0.058850  0.788490  1.0  0.7014
  C  C532  1  0.709770  0.145080  0.489270  1.0  -0.0199
  C  C533  1  0.728900  0.126360  0.434400  1.0  -0.0773
  C  C534  1  0.701520  0.107320  0.369200  1.0  -0.1016
  C  C535  1  0.655300  0.106570  0.357800  1.0  -0.128
  C  C536  1  0.636300  0.126500  0.411500  1.0  -0.0548
  C  C537  1  0.663230  0.145430  0.477200  1.0  -0.0775
  C  C538  1  0.624700  0.082780  0.288800  1.0  0.6819
  C  C539  1  0.612520  0.626980  0.915630  1.0  0.1602
  C  C540  1  0.636110  0.645570  0.982930  1.0  -0.1189
  C  C541  1  0.606320  0.628380  0.045530  1.0  -0.0967
  C  C542  1  0.553430  0.592790  0.040030  1.0  -0.1638
  C  C543  1  0.532760  0.576260  0.970430  1.0  0.173
  C  C544  1  0.477580  0.541590  0.954810  1.0  0.3242
  C  C545  1  0.407230  0.498520  0.890730  1.0  0.0242
  C  C546  1  0.392160  0.494280  0.963850  1.0  -0.0509
  C  C547  1  0.341850  0.468300  0.002230  1.0  0.0644
  C  C548  1  0.336530  0.487080  0.070830  1.0  -0.1469
  C  C549  1  0.290060  0.462880  0.108030  1.0  -0.0291
  C  C550  1  0.246660  0.419500  0.078950  1.0  -0.1587
  C  C551  1  0.251450  0.401000  0.010030  1.0  -0.0547
  C  C552  1  0.298320  0.424380  0.973030  1.0  -0.1231
  C  C553  1  0.196950  0.392180  0.121820  1.0  0.7014
  C  C554  1  0.376440  0.478410  0.822600  1.0  -0.0199
  C  C555  1  0.395570  0.459690  0.767730  1.0  -0.0773
  C  C556  1  0.368190  0.440650  0.702530  1.0  -0.1016
  C  C557  1  0.321970  0.439900  0.691130  1.0  -0.128
  C  C558  1  0.302970  0.459830  0.744830  1.0  -0.0548
  C  C559  1  0.329900  0.478760  0.810530  1.0  -0.0775
  C  C560  1  0.291370  0.416110  0.622130  1.0  0.6819
  C  C561  1  0.279180  0.960320  0.248970  1.0  0.16
  C  C562  1  0.302770  0.978910  0.316270  1.0  -0.1189
  C  C563  1  0.272980  0.961720  0.378870  1.0  -0.098
  C  C564  1  0.220090  0.926130  0.373370  1.0  -0.1638
  C  C565  1  0.199420  0.909600  0.303770  1.0  0.1728
  C  C566  1  0.144240  0.874930  0.288150  1.0  0.326
  C  C567  1  0.073890  0.831860  0.224070  1.0  0.0242
  C  C568  1  0.058820  0.827620  0.297190  1.0  -0.051
  C  C569  1  0.008510  0.801640  0.335570  1.0  0.0646
  C  C570  1  0.003190  0.820420  0.404170  1.0  -0.1469
  C  C571  1  0.956720  0.796220  0.441370  1.0  -0.0291
  C  C572  1  0.913320  0.752840  0.412290  1.0  -0.1586
  C  C573  1  0.918110  0.734340  0.343370  1.0  -0.055
  C  C574  1  0.964980  0.757720  0.306370  1.0  -0.1232
  C  C575  1  0.863610  0.725520  0.455160  1.0  0.7014
  C  C576  1  0.043100  0.811750  0.155940  1.0  -0.0199
  C  C577  1  0.062230  0.793030  0.101070  1.0  -0.0764
  C  C578  1  0.034850  0.773990  0.035870  1.0  -0.1017
  C  C579  1  0.988630  0.773240  0.024470  1.0  -0.1284
  C  C580  1  0.969630  0.793170  0.078170  1.0  -0.0545
  C  C581  1  0.996560  0.812100  0.143870  1.0  -0.0774
  C  C582  1  0.958030  0.749450  0.955470  1.0  0.6831
  C  C583  1  0.706350  0.652200  0.582300  1.0  0.1682
  C  C584  1  0.687760  0.657200  0.649600  1.0  -0.1169
  C  C585  1  0.704950  0.644600  0.712200  1.0  -0.0968
  C  C586  1  0.740540  0.627300  0.706700  1.0  -0.1629
  C  C587  1  0.757070  0.623160  0.637100  1.0  0.1747
  C  C588  1  0.791740  0.602650  0.621480  1.0  0.3277
  C  C589  1  0.834810  0.575370  0.557400  1.0  0.0244
  C  C590  1  0.839050  0.564540  0.630520  1.0  -0.0506
  C  C591  1  0.865030  0.540210  0.668900  1.0  0.0721
  C  C592  1  0.846250  0.516110  0.737500  1.0  -0.1468
  C  C593  1  0.870450  0.493840  0.774700  1.0  -0.0333
  C  C594  1  0.913830  0.493820  0.745620  1.0  -0.1566
  C  C595  1  0.932330  0.517110  0.676700  1.0  -0.0529
  C  C596  1  0.908950  0.540600  0.639700  1.0  -0.1292
  C  C597  1  0.941150  0.471430  0.788490  1.0  0.6976
  C  C598  1  0.854920  0.564690  0.489270  1.0  -0.0202
  C  C599  1  0.873640  0.602540  0.434400  1.0  -0.073
  C  C600  1  0.892680  0.594200  0.369200  1.0  -0.1031
  C  C601  1  0.893430  0.548730  0.357800  1.0  -0.125
  C  C602  1  0.873500  0.509800  0.411500  1.0  -0.0596
  C  C603  1  0.854570  0.517800  0.477200  1.0  -0.0728
  C  C604  1  0.917220  0.541920  0.288800  1.0  0.6844
  C  C605  1  0.373020  0.985530  0.915630  1.0  0.1659
  C  C606  1  0.354430  0.990530  0.982930  1.0  -0.1169
  C  C607  1  0.371620  0.977930  0.045530  1.0  -0.097
  C  C608  1  0.407210  0.960630  0.040030  1.0  -0.1629
  C  C609  1  0.423740  0.956490  0.970430  1.0  0.1747
  C  C610  1  0.458410  0.935980  0.954810  1.0  0.3253
  C  C611  1  0.501480  0.908700  0.890730  1.0  0.0244
  C  C612  1  0.505720  0.897870  0.963850  1.0  -0.0512
  C  C613  1  0.531700  0.873540  0.002230  1.0  0.0718
  C  C614  1  0.512920  0.849440  0.070830  1.0  -0.1468
  C  C615  1  0.537120  0.827170  0.108030  1.0  -0.0337
  C  C616  1  0.580500  0.827150  0.078950  1.0  -0.1566
  C  C617  1  0.599000  0.850440  0.010030  1.0  -0.0529
  C  C618  1  0.575620  0.873930  0.973030  1.0  -0.1291
  C  C619  1  0.607820  0.804760  0.121820  1.0  0.6977
  C  C620  1  0.521590  0.898020  0.822600  1.0  -0.0202
  C  C621  1  0.540310  0.935870  0.767730  1.0  -0.073
  C  C622  1  0.559350  0.927530  0.702530  1.0  -0.1031
  C  C623  1  0.560100  0.882060  0.691130  1.0  -0.125
  C  C624  1  0.540170  0.843130  0.744830  1.0  -0.0596
  C  C625  1  0.521240  0.851130  0.810530  1.0  -0.0728
  C  C626  1  0.583890  0.875250  0.622130  1.0  0.6844
  C  C627  1  0.039680  0.318870  0.248970  1.0  0.1682
  C  C628  1  0.021090  0.323870  0.316270  1.0  -0.1169
  C  C629  1  0.038280  0.311270  0.378870  1.0  -0.0968
  C  C630  1  0.073870  0.293970  0.373370  1.0  -0.1629
  C  C631  1  0.090400  0.289830  0.303770  1.0  0.1747
  C  C632  1  0.125070  0.269320  0.288150  1.0  0.3277
  C  C633  1  0.168140  0.242040  0.224070  1.0  0.0244
  C  C634  1  0.172380  0.231210  0.297190  1.0  -0.0506
  C  C635  1  0.198360  0.206880  0.335570  1.0  0.0721
  C  C636  1  0.179580  0.182780  0.404170  1.0  -0.1468
  C  C637  1  0.203780  0.160510  0.441370  1.0  -0.0332
  C  C638  1  0.247160  0.160490  0.412290  1.0  -0.1566
  C  C639  1  0.265660  0.183780  0.343370  1.0  -0.0529
  C  C640  1  0.242280  0.207270  0.306370  1.0  -0.1292
  C  C641  1  0.274480  0.138100  0.455160  1.0  0.6976
  C  C642  1  0.188250  0.231360  0.155940  1.0  -0.0202
  C  C643  1  0.206970  0.269210  0.101070  1.0  -0.073
  C  C644  1  0.226010  0.260870  0.035870  1.0  -0.1031
  C  C645  1  0.226760  0.215400  0.024470  1.0  -0.125
  C  C646  1  0.206830  0.176470  0.078170  1.0  -0.0599
  C  C647  1  0.187900  0.184470  0.143870  1.0  -0.0729
  C  C648  1  0.250550  0.208590  0.955470  1.0  0.6844
  N  N649  1  0.635780  0.894990  0.424590  1.0  -0.3424
  N  N650  1  0.598800  0.793680  0.446590  1.0  -0.4193
  N  N651  1  0.582550  0.771350  0.330250  1.0  -0.1941
  N  N652  1  0.302450  0.228320  0.757920  1.0  -0.3424
  N  N653  1  0.265470  0.127010  0.779920  1.0  -0.4193
  N  N654  1  0.249220  0.104680  0.663580  1.0  -0.1941
  N  N655  1  0.969110  0.561660  0.091260  1.0  -0.3424
  N  N656  1  0.932130  0.460350  0.113260  1.0  -0.4193
  N  N657  1  0.915880  0.438020  0.996920  1.0  -0.194
  N  N658  1  0.105010  0.740790  0.424590  1.0  -0.3435
  N  N659  1  0.206320  0.805120  0.446590  1.0  -0.4218
  N  N660  1  0.228650  0.811200  0.330250  1.0  -0.1917
  N  N661  1  0.771680  0.074120  0.757920  1.0  -0.3435
  N  N662  1  0.872990  0.138450  0.779920  1.0  -0.4217
  N  N663  1  0.895320  0.144530  0.663580  1.0  -0.1917
  N  N664  1  0.438340  0.407460  0.091260  1.0  -0.3435
  N  N665  1  0.539650  0.471790  0.113260  1.0  -0.4218
  N  N666  1  0.561980  0.477870  0.996920  1.0  -0.192
  N  N667  1  0.259210  0.364220  0.424590  1.0  -0.3395
  N  N668  1  0.194880  0.401200  0.446590  1.0  -0.4188
  N  N669  1  0.188800  0.417450  0.330250  1.0  -0.1917
  N  N670  1  0.925880  0.697550  0.757920  1.0  -0.3395
  N  N671  1  0.861550  0.734530  0.779920  1.0  -0.4188
  N  N672  1  0.855470  0.750780  0.663580  1.0  -0.1917
  N  N673  1  0.592540  0.030890  0.091260  1.0  -0.3395
  N  N674  1  0.528210  0.067870  0.113260  1.0  -0.4187
  N  N675  1  0.522130  0.084120  0.996920  1.0  -0.1916
  N  N676  1  0.364220  0.105010  0.575410  1.0  -0.3418
  N  N677  1  0.401200  0.206320  0.553410  1.0  -0.4204
  N  N678  1  0.417450  0.228650  0.669750  1.0  -0.1963
  N  N679  1  0.030890  0.438340  0.908740  1.0  -0.3418
  N  N680  1  0.067870  0.539650  0.886740  1.0  -0.4204
  N  N681  1  0.084120  0.561980  0.003080  1.0  -0.1963
  N  N682  1  0.697550  0.771680  0.242080  1.0  -0.3418
  N  N683  1  0.734530  0.872990  0.220080  1.0  -0.4204
  N  N684  1  0.750780  0.895320  0.336420  1.0  -0.1963
  N  N685  1  0.894990  0.259210  0.575410  1.0  -0.3429
  N  N686  1  0.793680  0.194880  0.553410  1.0  -0.4219
  N  N687  1  0.771350  0.188800  0.669750  1.0  -0.1916
  N  N688  1  0.561660  0.592540  0.908740  1.0  -0.3429
  N  N689  1  0.460350  0.528210  0.886740  1.0  -0.422
  N  N690  1  0.438020  0.522130  0.003080  1.0  -0.192
  N  N691  1  0.228320  0.925880  0.242080  1.0  -0.3429
  N  N692  1  0.127010  0.861550  0.220080  1.0  -0.4219
  N  N693  1  0.104680  0.855470  0.336420  1.0  -0.1916
  N  N694  1  0.740790  0.635780  0.575410  1.0  -0.344
  N  N695  1  0.805120  0.598800  0.553410  1.0  -0.4189
  N  N696  1  0.811200  0.582550  0.669750  1.0  -0.1938
  N  N697  1  0.407460  0.969110  0.908740  1.0  -0.3434
  N  N698  1  0.471790  0.932130  0.886740  1.0  -0.4188
  N  N699  1  0.477870  0.915880  0.003080  1.0  -0.1938
  N  N700  1  0.074120  0.302450  0.242080  1.0  -0.344
  N  N701  1  0.138450  0.265470  0.220080  1.0  -0.4189
  N  N702  1  0.144530  0.249220  0.336420  1.0  -0.1938
  O  O703  1  0.475320  0.493130  0.241230  1.0  -0.608
  O  O704  1  0.452160  0.527880  0.149930  1.0  -0.6374
  O  O705  1  0.580950  0.632180  0.747610  1.0  -0.5647
  O  O706  1  0.496350  0.590700  0.729990  1.0  -0.5606
  O  O707  1  0.141990  0.826460  0.574560  1.0  -0.608
  O  O708  1  0.118830  0.861210  0.483260  1.0  -0.6368
  O  O709  1  0.247620  0.965510  0.080940  1.0  -0.5639
  O  O710  1  0.163020  0.924030  0.063320  1.0  -0.5606
  O  O711  1  0.808650  0.159800  0.907900  1.0  -0.608
  O  O712  1  0.785490  0.194550  0.816600  1.0  -0.6374
  O  O713  1  0.914280  0.298850  0.414280  1.0  -0.5647
  O  O714  1  0.829680  0.257370  0.396660  1.0  -0.5606
  O  O715  1  0.506870  0.982190  0.241230  1.0  -0.6067
  O  O716  1  0.472120  0.924280  0.149930  1.0  -0.6401
  O  O717  1  0.367820  0.948770  0.747610  1.0  -0.5619
  O  O718  1  0.409300  0.905650  0.729990  1.0  -0.5599
  O  O719  1  0.173540  0.315520  0.574560  1.0  -0.6067
  O  O720  1  0.138790  0.257610  0.483260  1.0  -0.6408
  O  O721  1  0.034490  0.282100  0.080940  1.0  -0.5616
  O  O722  1  0.075970  0.238980  0.063320  1.0  -0.5599
  O  O723  1  0.840200  0.648860  0.907900  1.0  -0.6065
  O  O724  1  0.805450  0.590950  0.816600  1.0  -0.6405
  O  O725  1  0.701150  0.615440  0.414280  1.0  -0.5619
  O  O726  1  0.742630  0.572320  0.396660  1.0  -0.5599
  O  O727  1  0.017810  0.524680  0.241230  1.0  -0.6084
  O  O728  1  0.075720  0.547840  0.149930  1.0  -0.6405
  O  O729  1  0.051230  0.419050  0.747610  1.0  -0.5666
  O  O730  1  0.094350  0.503650  0.729990  1.0  -0.5628
  O  O731  1  0.684480  0.858010  0.574560  1.0  -0.6084
  O  O732  1  0.742390  0.881170  0.483260  1.0  -0.6404
  O  O733  1  0.717900  0.752380  0.080940  1.0  -0.5658
  O  O734  1  0.761020  0.836980  0.063320  1.0  -0.5627
  O  O735  1  0.351140  0.191350  0.907900  1.0  -0.6079
  O  O736  1  0.409050  0.214510  0.816600  1.0  -0.6407
  O  O737  1  0.384560  0.085720  0.414280  1.0  -0.5666
  O  O738  1  0.427680  0.170320  0.396660  1.0  -0.5627
  O  O739  1  0.524680  0.506870  0.758770  1.0  -0.6082
  O  O740  1  0.547840  0.472120  0.850070  1.0  -0.6356
  O  O741  1  0.419050  0.367820  0.252390  1.0  -0.5656
  O  O742  1  0.503650  0.409300  0.270010  1.0  -0.5617
  O  O743  1  0.191350  0.840200  0.092100  1.0  -0.6082
  O  O744  1  0.214510  0.805450  0.183400  1.0  -0.6356
  O  O745  1  0.085720  0.701150  0.585720  1.0  -0.5656
  O  O746  1  0.170320  0.742630  0.603340  1.0  -0.5617
  O  O747  1  0.858010  0.173540  0.425440  1.0  -0.6082
  O  O748  1  0.881170  0.138790  0.516740  1.0  -0.6349
  O  O749  1  0.752380  0.034490  0.919060  1.0  -0.5656
  O  O750  1  0.836980  0.075970  0.936680  1.0  -0.5615
  O  O751  1  0.493130  0.017810  0.758770  1.0  -0.6064
  O  O752  1  0.527880  0.075720  0.850070  1.0  -0.6384
  O  O753  1  0.632180  0.051230  0.252390  1.0  -0.5611
  O  O754  1  0.590700  0.094350  0.270010  1.0  -0.5621
  O  O755  1  0.159800  0.351140  0.092100  1.0  -0.6062
  O  O756  1  0.194550  0.409050  0.183400  1.0  -0.6386
  O  O757  1  0.298850  0.384560  0.585720  1.0  -0.5611
  O  O758  1  0.257370  0.427680  0.603340  1.0  -0.5622
  O  O759  1  0.826460  0.684480  0.425440  1.0  -0.6064
  O  O760  1  0.861210  0.742390  0.516740  1.0  -0.6391
  O  O761  1  0.965510  0.717900  0.919060  1.0  -0.5611
  O  O762  1  0.924030  0.761020  0.936680  1.0  -0.5622
  O  O763  1  0.982190  0.475320  0.758770  1.0  -0.6052
  O  O764  1  0.924280  0.452160  0.850070  1.0  -0.6398
  O  O765  1  0.948770  0.580950  0.252390  1.0  -0.5662
  O  O766  1  0.905650  0.496350  0.270010  1.0  -0.5628
  O  O767  1  0.648860  0.808650  0.092100  1.0  -0.6052
  O  O768  1  0.590950  0.785490  0.183400  1.0  -0.6402
  O  O769  1  0.615440  0.914280  0.585720  1.0  -0.5662
  O  O770  1  0.572320  0.829680  0.603340  1.0  -0.5627
  O  O771  1  0.315520  0.141990  0.425440  1.0  -0.6052
  O  O772  1  0.257610  0.118830  0.516740  1.0  -0.6398
  O  O773  1  0.282100  0.247620  0.919060  1.0  -0.5669
  O  O774  1  0.238980  0.163020  0.936680  1.0  -0.5618
