# generated using pymatgen
data_ZnH13C22N3O4
_symmetry_space_group_name_H-M   'P 1'
_cell_length_a   30.51600000
_cell_length_b   30.51600000
_cell_length_c   17.70400000
_cell_angle_alpha   90.00000000
_cell_angle_beta   90.00000000
_cell_angle_gamma   120.00000000
_symmetry_Int_Tables_number   1
_chemical_formula_structural   ZnH13C22N3O4
_chemical_formula_sum   'Zn18 H234 C396 N54 O72'
_cell_volume   14277.66688267
_cell_formula_units_Z   18
loop_
 _symmetry_equiv_pos_site_id
 _symmetry_equiv_pos_as_xyz
  1  'x, y, z'
loop_
 _atom_site_type_symbol
 _atom_site_label
 _atom_site_symmetry_multiplicity
 _atom_site_fract_x
 _atom_site_fract_y
 _atom_site_fract_z
 _atom_site_occupancy
 _atom_site_charge
  Zn  Zn1  1  0.631840  0.853630  0.523400  1.0  0.9083
  Zn  Zn2  1  0.298510  0.186960  0.856730  1.0  0.9091
  Zn  Zn3  1  0.965170  0.520300  0.190070  1.0  0.9083
  Zn  Zn4  1  0.146370  0.778210  0.523400  1.0  0.9076
  Zn  Zn5  1  0.813040  0.111540  0.856730  1.0  0.9077
  Zn  Zn6  1  0.479700  0.444880  0.190070  1.0  0.9076
  Zn  Zn7  1  0.221790  0.368160  0.523400  1.0  0.908
  Zn  Zn8  1  0.888460  0.701490  0.856730  1.0  0.908
  Zn  Zn9  1  0.555120  0.034830  0.190070  1.0  0.908
  Zn  Zn10  1  0.368160  0.146370  0.476600  1.0  0.9073
  Zn  Zn11  1  0.034830  0.479700  0.809930  1.0  0.9073
  Zn  Zn12  1  0.701490  0.813040  0.143270  1.0  0.9082
  Zn  Zn13  1  0.853630  0.221790  0.476600  1.0  0.9064
  Zn  Zn14  1  0.520300  0.555120  0.809930  1.0  0.9064
  Zn  Zn15  1  0.186960  0.888460  0.143270  1.0  0.9065
  Zn  Zn16  1  0.778210  0.631840  0.476600  1.0  0.9064
  Zn  Zn17  1  0.444880  0.965170  0.809930  1.0  0.9064
  Zn  Zn18  1  0.111540  0.298510  0.143270  1.0  0.9064
  H  H19  1  0.582900  0.773500  0.279200  1.0  0.2923
  H  H20  1  0.663200  0.962200  0.460700  1.0  0.0928
  H  H21  1  0.663500  0.998000  0.344700  1.0  0.1148
  H  H22  1  0.640600  0.947800  0.236200  1.0  0.117
  H  H23  1  0.615800  0.861700  0.246500  1.0  0.1083
  H  H24  1  0.514500  0.698100  0.243600  1.0  0.1162
  H  H25  1  0.474800  0.619900  0.183400  1.0  0.1134
  H  H26  1  0.527100  0.563300  0.344200  1.0  0.114
  H  H27  1  0.567200  0.641300  0.404300  1.0  0.1158
  H  H28  1  0.640200  0.759200  0.561800  1.0  0.1104
  H  H29  1  0.626700  0.711800  0.671400  1.0  0.1136
  H  H30  1  0.486100  0.610300  0.598600  1.0  0.1127
  H  H31  1  0.500200  0.656500  0.487300  1.0  0.1267
  H  H32  1  0.249570  0.106830  0.612530  1.0  0.2922
  H  H33  1  0.329870  0.295530  0.794030  1.0  0.0931
  H  H34  1  0.330170  0.331330  0.678030  1.0  0.1148
  H  H35  1  0.307270  0.281130  0.569530  1.0  0.117
  H  H36  1  0.282470  0.195030  0.579830  1.0  0.1079
  H  H37  1  0.181170  0.031430  0.576930  1.0  0.1162
  H  H38  1  0.141470  0.953230  0.516730  1.0  0.1128
  H  H39  1  0.193770  0.896630  0.677530  1.0  0.114
  H  H40  1  0.233870  0.974630  0.737630  1.0  0.1158
  H  H41  1  0.306870  0.092530  0.895130  1.0  0.1104
  H  H42  1  0.293370  0.045130  0.004730  1.0  0.1136
  H  H43  1  0.152770  0.943630  0.931930  1.0  0.1138
  H  H44  1  0.166870  0.989830  0.820630  1.0  0.1267
  H  H45  1  0.916230  0.440170  0.945870  1.0  0.2923
  H  H46  1  0.996530  0.628870  0.127370  1.0  0.0928
  H  H47  1  0.996830  0.664670  0.011370  1.0  0.1149
  H  H48  1  0.973930  0.614470  0.902870  1.0  0.117
  H  H49  1  0.949130  0.528370  0.913170  1.0  0.1083
  H  H50  1  0.847830  0.364770  0.910270  1.0  0.1162
  H  H51  1  0.808130  0.286570  0.850070  1.0  0.1134
  H  H52  1  0.860430  0.229970  0.010870  1.0  0.114
  H  H53  1  0.900530  0.307970  0.070970  1.0  0.1158
  H  H54  1  0.973530  0.425870  0.228470  1.0  0.1105
  H  H55  1  0.960030  0.378470  0.338070  1.0  0.1136
  H  H56  1  0.819430  0.276970  0.265270  1.0  0.1127
  H  H57  1  0.833530  0.323170  0.153970  1.0  0.1267
  H  H58  1  0.226500  0.809400  0.279200  1.0  0.2918
  H  H59  1  0.037800  0.701000  0.460700  1.0  0.0936
  H  H60  1  0.002000  0.665500  0.344700  1.0  0.1131
  H  H61  1  0.052200  0.692800  0.236200  1.0  0.1168
  H  H62  1  0.138300  0.754100  0.246500  1.0  0.1068
  H  H63  1  0.301900  0.816400  0.243600  1.0  0.1154
  H  H64  1  0.380100  0.854900  0.183400  1.0  0.113
  H  H65  1  0.436700  0.963800  0.344200  1.0  0.1123
  H  H66  1  0.358700  0.925900  0.404300  1.0  0.1149
  H  H67  1  0.240800  0.881000  0.561800  1.0  0.1104
  H  H68  1  0.288200  0.914900  0.671400  1.0  0.114
  H  H69  1  0.389700  0.875800  0.598600  1.0  0.1143
  H  H70  1  0.343500  0.843700  0.487300  1.0  0.1273
  H  H71  1  0.893170  0.142730  0.612530  1.0  0.2917
  H  H72  1  0.704470  0.034330  0.794030  1.0  0.0934
  H  H73  1  0.668670  0.998830  0.678030  1.0  0.1131
  H  H74  1  0.718870  0.026130  0.569530  1.0  0.1167
  H  H75  1  0.804970  0.087430  0.579830  1.0  0.1065
  H  H76  1  0.968570  0.149730  0.576930  1.0  0.1155
  H  H77  1  0.046770  0.188230  0.516730  1.0  0.1133
  H  H78  1  0.103370  0.297130  0.677530  1.0  0.1123
  H  H79  1  0.025370  0.259230  0.737630  1.0  0.1149
  H  H80  1  0.907470  0.214330  0.895130  1.0  0.1104
  H  H81  1  0.954870  0.248230  0.004730  1.0  0.1139
  H  H82  1  0.056370  0.209130  0.931930  1.0  0.1132
  H  H83  1  0.010170  0.177030  0.820630  1.0  0.1273
  H  H84  1  0.559830  0.476070  0.945870  1.0  0.2918
  H  H85  1  0.371130  0.367670  0.127370  1.0  0.0936
  H  H86  1  0.335330  0.332170  0.011370  1.0  0.1131
  H  H87  1  0.385530  0.359470  0.902870  1.0  0.1167
  H  H88  1  0.471630  0.420770  0.913170  1.0  0.1068
  H  H89  1  0.635230  0.483070  0.910270  1.0  0.1154
  H  H90  1  0.713430  0.521570  0.850070  1.0  0.113
  H  H91  1  0.770030  0.630470  0.010870  1.0  0.1123
  H  H92  1  0.692030  0.592570  0.070970  1.0  0.1149
  H  H93  1  0.574130  0.547670  0.228470  1.0  0.1104
  H  H94  1  0.621530  0.581570  0.338070  1.0  0.114
  H  H95  1  0.723030  0.542470  0.265270  1.0  0.1143
  H  H96  1  0.676830  0.510370  0.153970  1.0  0.1273
  H  H97  1  0.190600  0.417100  0.279200  1.0  0.2916
  H  H98  1  0.299000  0.336800  0.460700  1.0  0.0935
  H  H99  1  0.334500  0.336500  0.344700  1.0  0.1138
  H  H100  1  0.307200  0.359400  0.236200  1.0  0.1167
  H  H101  1  0.245900  0.384200  0.246500  1.0  0.1085
  H  H102  1  0.183600  0.485500  0.243600  1.0  0.1165
  H  H103  1  0.145100  0.525200  0.183400  1.0  0.1119
  H  H104  1  0.036200  0.472900  0.344200  1.0  0.1126
  H  H105  1  0.074100  0.432800  0.404300  1.0  0.116
  H  H106  1  0.119000  0.359800  0.561800  1.0  0.1105
  H  H107  1  0.085100  0.373300  0.671400  1.0  0.1145
  H  H108  1  0.124200  0.513900  0.598600  1.0  0.1155
  H  H109  1  0.156300  0.499800  0.487300  1.0  0.1273
  H  H110  1  0.857270  0.750430  0.612530  1.0  0.2916
  H  H111  1  0.965670  0.670130  0.794030  1.0  0.0933
  H  H112  1  0.001170  0.669830  0.678030  1.0  0.1138
  H  H113  1  0.973870  0.692730  0.569530  1.0  0.1167
  H  H114  1  0.912570  0.717530  0.579830  1.0  0.1085
  H  H115  1  0.850270  0.818830  0.576930  1.0  0.1164
  H  H116  1  0.811770  0.858530  0.516730  1.0  0.1119
  H  H117  1  0.702870  0.806230  0.677530  1.0  0.1126
  H  H118  1  0.740770  0.766130  0.737630  1.0  0.116
  H  H119  1  0.785670  0.693130  0.895130  1.0  0.1105
  H  H120  1  0.751770  0.706630  0.004730  1.0  0.1145
  H  H121  1  0.790870  0.847230  0.931930  1.0  0.1155
  H  H122  1  0.822970  0.833130  0.820630  1.0  0.1273
  H  H123  1  0.523930  0.083770  0.945870  1.0  0.2916
  H  H124  1  0.632330  0.003470  0.127370  1.0  0.0935
  H  H125  1  0.667830  0.003170  0.011370  1.0  0.1138
  H  H126  1  0.640530  0.026070  0.902870  1.0  0.1167
  H  H127  1  0.579230  0.050870  0.913170  1.0  0.1085
  H  H128  1  0.516930  0.152170  0.910270  1.0  0.1165
  H  H129  1  0.478430  0.191870  0.850070  1.0  0.1119
  H  H130  1  0.369530  0.139570  0.010870  1.0  0.1126
  H  H131  1  0.407430  0.099470  0.070970  1.0  0.116
  H  H132  1  0.452330  0.026470  0.228470  1.0  0.1105
  H  H133  1  0.418430  0.039970  0.338070  1.0  0.1145
  H  H134  1  0.457530  0.180570  0.265270  1.0  0.1155
  H  H135  1  0.489630  0.166470  0.153970  1.0  0.1273
  H  H136  1  0.417100  0.226500  0.720800  1.0  0.2945
  H  H137  1  0.336800  0.037800  0.539300  1.0  0.0929
  H  H138  1  0.336500  0.002000  0.655300  1.0  0.1141
  H  H139  1  0.359400  0.052200  0.763800  1.0  0.1167
  H  H140  1  0.384200  0.138300  0.753500  1.0  0.107
  H  H141  1  0.485500  0.301900  0.756400  1.0  0.1166
  H  H142  1  0.525200  0.380100  0.816600  1.0  0.1134
  H  H143  1  0.472900  0.436700  0.655800  1.0  0.1132
  H  H144  1  0.432800  0.358700  0.595700  1.0  0.1147
  H  H145  1  0.359800  0.240800  0.438200  1.0  0.1098
  H  H146  1  0.373300  0.288200  0.328600  1.0  0.1133
  H  H147  1  0.513900  0.389700  0.401400  1.0  0.1136
  H  H148  1  0.499800  0.343500  0.512700  1.0  0.1265
  H  H149  1  0.083770  0.559830  0.054130  1.0  0.2945
  H  H150  1  0.003470  0.371130  0.872630  1.0  0.0929
  H  H151  1  0.003170  0.335330  0.988630  1.0  0.1141
  H  H152  1  0.026070  0.385530  0.097130  1.0  0.1167
  H  H153  1  0.050870  0.471630  0.086830  1.0  0.107
  H  H154  1  0.152170  0.635230  0.089730  1.0  0.1166
  H  H155  1  0.191870  0.713430  0.149930  1.0  0.1134
  H  H156  1  0.139570  0.770030  0.989130  1.0  0.1132
  H  H157  1  0.099470  0.692030  0.929030  1.0  0.1147
  H  H158  1  0.026470  0.574130  0.771530  1.0  0.1099
  H  H159  1  0.039970  0.621530  0.661930  1.0  0.1133
  H  H160  1  0.180570  0.723030  0.734730  1.0  0.1136
  H  H161  1  0.166470  0.676830  0.846030  1.0  0.1265
  H  H162  1  0.750430  0.893170  0.387470  1.0  0.2944
  H  H163  1  0.670130  0.704470  0.205970  1.0  0.0931
  H  H164  1  0.669830  0.668670  0.321970  1.0  0.1141
  H  H165  1  0.692730  0.718870  0.430470  1.0  0.1167
  H  H166  1  0.717530  0.804970  0.420170  1.0  0.1066
  H  H167  1  0.818830  0.968570  0.423070  1.0  0.1166
  H  H168  1  0.858530  0.046770  0.483270  1.0  0.1128
  H  H169  1  0.806230  0.103370  0.322470  1.0  0.1132
  H  H170  1  0.766130  0.025370  0.262370  1.0  0.1147
  H  H171  1  0.693130  0.907470  0.104870  1.0  0.1098
  H  H172  1  0.706630  0.954870  0.995270  1.0  0.1133
  H  H173  1  0.847230  0.056370  0.068070  1.0  0.1149
  H  H174  1  0.833130  0.010170  0.179370  1.0  0.1265
  H  H175  1  0.773500  0.190600  0.720800  1.0  0.2923
  H  H176  1  0.962200  0.299000  0.539300  1.0  0.0941
  H  H177  1  0.998000  0.334500  0.655300  1.0  0.1135
  H  H178  1  0.947800  0.307200  0.763800  1.0  0.1167
  H  H179  1  0.861700  0.245900  0.753500  1.0  0.1068
  H  H180  1  0.698100  0.183600  0.756400  1.0  0.1152
  H  H181  1  0.619900  0.145100  0.816600  1.0  0.1136
  H  H182  1  0.563300  0.036200  0.655800  1.0  0.112
  H  H183  1  0.641300  0.074100  0.595700  1.0  0.1148
  H  H184  1  0.759200  0.119000  0.438200  1.0  0.1103
  H  H185  1  0.711800  0.085100  0.328600  1.0  0.1137
  H  H186  1  0.610300  0.124200  0.401400  1.0  0.1138
  H  H187  1  0.656500  0.156300  0.512700  1.0  0.1273
  H  H188  1  0.440170  0.523930  0.054130  1.0  0.2923
  H  H189  1  0.628870  0.632330  0.872630  1.0  0.0941
  H  H190  1  0.664670  0.667830  0.988630  1.0  0.1135
  H  H191  1  0.614470  0.640530  0.097130  1.0  0.1167
  H  H192  1  0.528370  0.579230  0.086830  1.0  0.1068
  H  H193  1  0.364770  0.516930  0.089730  1.0  0.1152
  H  H194  1  0.286570  0.478430  0.149930  1.0  0.1136
  H  H195  1  0.229970  0.369530  0.989130  1.0  0.112
  H  H196  1  0.307970  0.407430  0.929030  1.0  0.1148
  H  H197  1  0.425870  0.452330  0.771530  1.0  0.1103
  H  H198  1  0.378470  0.418430  0.661930  1.0  0.1137
  H  H199  1  0.276970  0.457530  0.734730  1.0  0.1138
  H  H200  1  0.323170  0.489630  0.846030  1.0  0.1273
  H  H201  1  0.106830  0.857270  0.387470  1.0  0.2922
  H  H202  1  0.295530  0.965670  0.205970  1.0  0.0938
  H  H203  1  0.331330  0.001170  0.321970  1.0  0.1135
  H  H204  1  0.281130  0.973870  0.430470  1.0  0.1167
  H  H205  1  0.195030  0.912570  0.420170  1.0  0.1065
  H  H206  1  0.031430  0.850270  0.423070  1.0  0.1153
  H  H207  1  0.953230  0.811770  0.483270  1.0  0.1141
  H  H208  1  0.896630  0.702870  0.322470  1.0  0.112
  H  H209  1  0.974630  0.740770  0.262370  1.0  0.1148
  H  H210  1  0.092530  0.785670  0.104870  1.0  0.1103
  H  H211  1  0.045130  0.751770  0.995270  1.0  0.1137
  H  H212  1  0.943630  0.790870  0.068070  1.0  0.1129
  H  H213  1  0.989830  0.822970  0.179370  1.0  0.1273
  H  H214  1  0.809400  0.582900  0.720800  1.0  0.2925
  H  H215  1  0.701000  0.663200  0.539300  1.0  0.0937
  H  H216  1  0.665500  0.663500  0.655300  1.0  0.1135
  H  H217  1  0.692800  0.640600  0.763800  1.0  0.1166
  H  H218  1  0.754100  0.615800  0.753500  1.0  0.1085
  H  H219  1  0.816400  0.514500  0.756400  1.0  0.1166
  H  H220  1  0.854900  0.474800  0.816600  1.0  0.1128
  H  H221  1  0.963800  0.527100  0.655800  1.0  0.1122
  H  H222  1  0.925900  0.567200  0.595700  1.0  0.1159
  H  H223  1  0.881000  0.640200  0.438200  1.0  0.1102
  H  H224  1  0.914900  0.626700  0.328600  1.0  0.1138
  H  H225  1  0.875800  0.486100  0.401400  1.0  0.1149
  H  H226  1  0.843700  0.500200  0.512700  1.0  0.1266
  H  H227  1  0.476070  0.916230  0.054130  1.0  0.2925
  H  H228  1  0.367670  0.996530  0.872630  1.0  0.0937
  H  H229  1  0.332170  0.996830  0.988630  1.0  0.1135
  H  H230  1  0.359470  0.973930  0.097130  1.0  0.1166
  H  H231  1  0.420770  0.949130  0.086830  1.0  0.1085
  H  H232  1  0.483070  0.847830  0.089730  1.0  0.1166
  H  H233  1  0.521570  0.808130  0.149930  1.0  0.1128
  H  H234  1  0.630470  0.860430  0.989130  1.0  0.1122
  H  H235  1  0.592570  0.900530  0.929030  1.0  0.1159
  H  H236  1  0.547670  0.973530  0.771530  1.0  0.1102
  H  H237  1  0.581570  0.960030  0.661930  1.0  0.1138
  H  H238  1  0.542470  0.819430  0.734730  1.0  0.1149
  H  H239  1  0.510370  0.833530  0.846030  1.0  0.1266
  H  H240  1  0.142730  0.249570  0.387470  1.0  0.2926
  H  H241  1  0.034330  0.329870  0.205970  1.0  0.0935
  H  H242  1  0.998830  0.330170  0.321970  1.0  0.1135
  H  H243  1  0.026130  0.307270  0.430470  1.0  0.1166
  H  H244  1  0.087430  0.282470  0.420170  1.0  0.1085
  H  H245  1  0.149730  0.181170  0.423070  1.0  0.1165
  H  H246  1  0.188230  0.141470  0.483270  1.0  0.1128
  H  H247  1  0.297130  0.193770  0.322470  1.0  0.1122
  H  H248  1  0.259230  0.233870  0.262370  1.0  0.1159
  H  H249  1  0.214330  0.306870  0.104870  1.0  0.1102
  H  H250  1  0.248230  0.293370  0.995270  1.0  0.1138
  H  H251  1  0.209130  0.152770  0.068070  1.0  0.1149
  H  H252  1  0.177030  0.166870  0.179370  1.0  0.1266
  C  C253  1  0.653160  0.941560  0.416790  1.0  0.1502
  C  C254  1  0.653730  0.963200  0.347960  1.0  -0.1003
  C  C255  1  0.639980  0.933500  0.284170  1.0  -0.105
  C  C256  1  0.625180  0.882720  0.290010  1.0  -0.1575
  C  C257  1  0.624460  0.863420  0.361130  1.0  0.1794
  C  C258  1  0.605960  0.809960  0.377230  1.0  0.3797
  C  C259  1  0.581340  0.741940  0.443460  1.0  -0.0033
  C  C260  1  0.569300  0.727050  0.368670  1.0  -0.029
  C  C261  1  0.544690  0.677820  0.330960  1.0  0.0674
  C  C262  1  0.517040  0.670740  0.264240  1.0  -0.1216
  C  C263  1  0.493460  0.624190  0.228370  1.0  -0.044
  C  C264  1  0.496870  0.583660  0.257520  1.0  -0.1464
  C  C265  1  0.524560  0.590660  0.323700  1.0  -0.0429
  C  C266  1  0.548270  0.637080  0.359620  1.0  -0.1278
  C  C267  1  0.473020  0.533950  0.216200  1.0  0.6952
  C  C268  1  0.571910  0.711900  0.512860  1.0  -0.0164
  C  C269  1  0.609160  0.728480  0.568620  1.0  -0.0641
  C  C270  1  0.601080  0.700360  0.633870  1.0  -0.0994
  C  C271  1  0.555730  0.655620  0.644590  1.0  -0.1279
  C  C272  1  0.517790  0.640040  0.590470  1.0  -0.0592
  C  C273  1  0.526050  0.667770  0.524520  1.0  -0.0748
  C  C274  1  0.548620  0.623440  0.712470  1.0  0.6764
  C  C275  1  0.319830  0.274890  0.750120  1.0  0.1502
  C  C276  1  0.320400  0.296530  0.681290  1.0  -0.1002
  C  C277  1  0.306650  0.266830  0.617500  1.0  -0.1051
  C  C278  1  0.291850  0.216050  0.623340  1.0  -0.1575
  C  C279  1  0.291130  0.196750  0.694460  1.0  0.1794
  C  C280  1  0.272630  0.143290  0.710560  1.0  0.3796
  C  C281  1  0.248010  0.075270  0.776790  1.0  -0.0033
  C  C282  1  0.235970  0.060380  0.702000  1.0  -0.029
  C  C283  1  0.211360  0.011150  0.664290  1.0  0.0674
  C  C284  1  0.183710  0.004070  0.597570  1.0  -0.1216
  C  C285  1  0.160130  0.957520  0.561700  1.0  -0.0439
  C  C286  1  0.163540  0.916990  0.590850  1.0  -0.1463
  C  C287  1  0.191230  0.923990  0.657030  1.0  -0.0428
  C  C288  1  0.214940  0.970410  0.692950  1.0  -0.1278
  C  C289  1  0.139690  0.867280  0.549530  1.0  0.6952
  C  C290  1  0.238580  0.045230  0.846190  1.0  -0.0164
  C  C291  1  0.275830  0.061810  0.901950  1.0  -0.0642
  C  C292  1  0.267750  0.033690  0.967200  1.0  -0.0994
  C  C293  1  0.222400  0.988950  0.977920  1.0  -0.1279
  C  C294  1  0.184460  0.973370  0.923800  1.0  -0.0592
  C  C295  1  0.192720  0.001100  0.857850  1.0  -0.0749
  C  C296  1  0.215290  0.956770  0.045800  1.0  0.6765
  C  C297  1  0.986490  0.608230  0.083460  1.0  0.1501
  C  C298  1  0.987060  0.629870  0.014630  1.0  -0.1003
  C  C299  1  0.973310  0.600170  0.950840  1.0  -0.1051
  C  C300  1  0.958510  0.549390  0.956680  1.0  -0.1575
  C  C301  1  0.957790  0.530090  0.027800  1.0  0.1796
  C  C302  1  0.939290  0.476630  0.043900  1.0  0.3797
  C  C303  1  0.914670  0.408610  0.110130  1.0  -0.0033
  C  C304  1  0.902630  0.393720  0.035340  1.0  -0.0289
  C  C305  1  0.878020  0.344490  0.997630  1.0  0.0675
  C  C306  1  0.850370  0.337410  0.930910  1.0  -0.1216
  C  C307  1  0.826790  0.290860  0.895040  1.0  -0.0439
  C  C308  1  0.830200  0.250330  0.924190  1.0  -0.1464
  C  C309  1  0.857890  0.257330  0.990370  1.0  -0.0428
  C  C310  1  0.881600  0.303750  0.026290  1.0  -0.1278
  C  C311  1  0.806350  0.200620  0.882870  1.0  0.6952
  C  C312  1  0.905240  0.378570  0.179530  1.0  -0.0164
  C  C313  1  0.942490  0.395150  0.235290  1.0  -0.0642
  C  C314  1  0.934410  0.367030  0.300540  1.0  -0.0994
  C  C315  1  0.889060  0.322290  0.311260  1.0  -0.1279
  C  C316  1  0.851120  0.306710  0.257140  1.0  -0.0592
  C  C317  1  0.859380  0.334440  0.191190  1.0  -0.0749
  C  C318  1  0.881950  0.290110  0.379140  1.0  0.6764
  C  C319  1  0.058440  0.711600  0.416790  1.0  0.1492
  C  C320  1  0.036800  0.690530  0.347960  1.0  -0.103
  C  C321  1  0.066500  0.706480  0.284170  1.0  -0.106
  C  C322  1  0.117280  0.742460  0.290010  1.0  -0.1589
  C  C323  1  0.136580  0.761040  0.361130  1.0  0.1747
  C  C324  1  0.190040  0.796000  0.377230  1.0  0.3831
  C  C325  1  0.258060  0.839400  0.443460  1.0  -0.0042
  C  C326  1  0.272950  0.842250  0.368670  1.0  -0.0266
  C  C327  1  0.322180  0.866870  0.330960  1.0  0.0676
  C  C328  1  0.329260  0.846300  0.264240  1.0  -0.1223
  C  C329  1  0.375810  0.869270  0.228370  1.0  -0.0468
  C  C330  1  0.416340  0.913210  0.257520  1.0  -0.1448
  C  C331  1  0.409340  0.933900  0.323700  1.0  -0.0371
  C  C332  1  0.362920  0.911190  0.359620  1.0  -0.1226
  C  C333  1  0.466050  0.939070  0.216200  1.0  0.6912
  C  C334  1  0.288100  0.860010  0.512860  1.0  -0.0173
  C  C335  1  0.271520  0.880680  0.568620  1.0  -0.0656
  C  C336  1  0.299640  0.900720  0.633870  1.0  -0.1
  C  C337  1  0.344380  0.900110  0.644590  1.0  -0.1291
  C  C338  1  0.359960  0.877750  0.590470  1.0  -0.056
  C  C339  1  0.332230  0.858280  0.524520  1.0  -0.0768
  C  C340  1  0.376560  0.925180  0.712470  1.0  0.6756
  C  C341  1  0.725110  0.044930  0.750120  1.0  0.1492
  C  C342  1  0.703470  0.023860  0.681290  1.0  -0.103
  C  C343  1  0.733170  0.039810  0.617500  1.0  -0.106
  C  C344  1  0.783950  0.075790  0.623340  1.0  -0.1589
  C  C345  1  0.803250  0.094370  0.694460  1.0  0.1747
  C  C346  1  0.856710  0.129330  0.710560  1.0  0.3831
  C  C347  1  0.924730  0.172730  0.776790  1.0  -0.0043
  C  C348  1  0.939620  0.175580  0.702000  1.0  -0.0266
  C  C349  1  0.988850  0.200200  0.664290  1.0  0.0676
  C  C350  1  0.995930  0.179630  0.597570  1.0  -0.1223
  C  C351  1  0.042480  0.202600  0.561700  1.0  -0.0468
  C  C352  1  0.083010  0.246540  0.590850  1.0  -0.1448
  C  C353  1  0.076010  0.267230  0.657030  1.0  -0.0371
  C  C354  1  0.029590  0.244520  0.692950  1.0  -0.1226
  C  C355  1  0.132720  0.272400  0.549530  1.0  0.6912
  C  C356  1  0.954770  0.193340  0.846190  1.0  -0.0174
  C  C357  1  0.938190  0.214010  0.901950  1.0  -0.0656
  C  C358  1  0.966310  0.234050  0.967200  1.0  -0.0999
  C  C359  1  0.011050  0.233440  0.977920  1.0  -0.1291
  C  C360  1  0.026630  0.211080  0.923800  1.0  -0.056
  C  C361  1  0.998900  0.191610  0.857850  1.0  -0.0768
  C  C362  1  0.043230  0.258510  0.045800  1.0  0.6756
  C  C363  1  0.391770  0.378270  0.083460  1.0  0.1493
  C  C364  1  0.370130  0.357200  0.014630  1.0  -0.1029
  C  C365  1  0.399830  0.373150  0.950840  1.0  -0.106
  C  C366  1  0.450610  0.409130  0.956680  1.0  -0.1589
  C  C367  1  0.469910  0.427710  0.027800  1.0  0.1745
  C  C368  1  0.523370  0.462670  0.043900  1.0  0.3831
  C  C369  1  0.591390  0.506070  0.110130  1.0  -0.0042
  C  C370  1  0.606280  0.508920  0.035340  1.0  -0.0266
  C  C371  1  0.655510  0.533540  0.997630  1.0  0.0674
  C  C372  1  0.662590  0.512970  0.930910  1.0  -0.1223
  C  C373  1  0.709140  0.535940  0.895040  1.0  -0.0467
  C  C374  1  0.749670  0.579880  0.924190  1.0  -0.1448
  C  C375  1  0.742670  0.600570  0.990370  1.0  -0.0372
  C  C376  1  0.696250  0.577860  0.026290  1.0  -0.1227
  C  C377  1  0.799380  0.605740  0.882870  1.0  0.6912
  C  C378  1  0.621430  0.526680  0.179530  1.0  -0.0173
  C  C379  1  0.604850  0.547350  0.235290  1.0  -0.0656
  C  C380  1  0.632970  0.567390  0.300540  1.0  -0.1
  C  C381  1  0.677710  0.566780  0.311260  1.0  -0.1291
  C  C382  1  0.693290  0.544420  0.257140  1.0  -0.056
  C  C383  1  0.665560  0.524950  0.191190  1.0  -0.0767
  C  C384  1  0.709890  0.591850  0.379140  1.0  0.6756
  C  C385  1  0.288400  0.346840  0.416790  1.0  0.1488
  C  C386  1  0.309470  0.346270  0.347960  1.0  -0.0986
  C  C387  1  0.293520  0.360020  0.284170  1.0  -0.104
  C  C388  1  0.257540  0.374820  0.290010  1.0  -0.1597
  C  C389  1  0.238960  0.375540  0.361130  1.0  0.1757
  C  C390  1  0.204000  0.394040  0.377230  1.0  0.3818
  C  C391  1  0.160600  0.418660  0.443460  1.0  -0.0046
  C  C392  1  0.157750  0.430700  0.368670  1.0  -0.0275
  C  C393  1  0.133130  0.455310  0.330960  1.0  0.0687
  C  C394  1  0.153700  0.482960  0.264240  1.0  -0.1233
  C  C395  1  0.130730  0.506540  0.228370  1.0  -0.047
  C  C396  1  0.086790  0.503130  0.257520  1.0  -0.1396
  C  C397  1  0.066100  0.475440  0.323700  1.0  -0.0421
  C  C398  1  0.088810  0.451730  0.359620  1.0  -0.1305
  C  C399  1  0.060930  0.526980  0.216200  1.0  0.6927
  C  C400  1  0.139990  0.428090  0.512860  1.0  -0.017
  C  C401  1  0.119320  0.390840  0.568620  1.0  -0.0661
  C  C402  1  0.099280  0.398920  0.633870  1.0  -0.1006
  C  C403  1  0.099890  0.444270  0.644590  1.0  -0.1266
  C  C404  1  0.122250  0.482210  0.590470  1.0  -0.0608
  C  C405  1  0.141720  0.473950  0.524520  1.0  -0.0707
  C  C406  1  0.074820  0.451380  0.712470  1.0  0.6754
  C  C407  1  0.955070  0.680170  0.750120  1.0  0.1488
  C  C408  1  0.976140  0.679600  0.681290  1.0  -0.0987
  C  C409  1  0.960190  0.693350  0.617500  1.0  -0.104
  C  C410  1  0.924210  0.708150  0.623340  1.0  -0.1597
  C  C411  1  0.905630  0.708870  0.694460  1.0  0.1757
  C  C412  1  0.870670  0.727370  0.710560  1.0  0.3819
  C  C413  1  0.827270  0.751990  0.776790  1.0  -0.0046
  C  C414  1  0.824420  0.764030  0.702000  1.0  -0.0275
  C  C415  1  0.799800  0.788640  0.664290  1.0  0.0687
  C  C416  1  0.820370  0.816290  0.597570  1.0  -0.1233
  C  C417  1  0.797400  0.839870  0.561700  1.0  -0.047
  C  C418  1  0.753460  0.836460  0.590850  1.0  -0.1396
  C  C419  1  0.732770  0.808770  0.657030  1.0  -0.0421
  C  C420  1  0.755480  0.785060  0.692950  1.0  -0.1305
  C  C421  1  0.727600  0.860310  0.549530  1.0  0.6927
  C  C422  1  0.806660  0.761420  0.846190  1.0  -0.017
  C  C423  1  0.785990  0.724170  0.901950  1.0  -0.0661
  C  C424  1  0.765950  0.732250  0.967200  1.0  -0.1007
  C  C425  1  0.766560  0.777600  0.977920  1.0  -0.1266
  C  C426  1  0.788920  0.815540  0.923800  1.0  -0.0608
  C  C427  1  0.808390  0.807280  0.857850  1.0  -0.0706
  C  C428  1  0.741490  0.784710  0.045800  1.0  0.6753
  C  C429  1  0.621730  0.013510  0.083460  1.0  0.1488
  C  C430  1  0.642800  0.012940  0.014630  1.0  -0.0987
  C  C431  1  0.626850  0.026690  0.950840  1.0  -0.104
  C  C432  1  0.590870  0.041490  0.956680  1.0  -0.1597
  C  C433  1  0.572290  0.042210  0.027800  1.0  0.1759
  C  C434  1  0.537330  0.060710  0.043900  1.0  0.382
  C  C435  1  0.493930  0.085330  0.110130  1.0  -0.0046
  C  C436  1  0.491080  0.097370  0.035340  1.0  -0.0275
  C  C437  1  0.466460  0.121980  0.997630  1.0  0.0688
  C  C438  1  0.487030  0.149630  0.930910  1.0  -0.1233
  C  C439  1  0.464060  0.173210  0.895040  1.0  -0.047
  C  C440  1  0.420120  0.169800  0.924190  1.0  -0.1396
  C  C441  1  0.399430  0.142110  0.990370  1.0  -0.0421
  C  C442  1  0.422140  0.118400  0.026290  1.0  -0.1305
  C  C443  1  0.394260  0.193650  0.882870  1.0  0.6927
  C  C444  1  0.473320  0.094760  0.179530  1.0  -0.017
  C  C445  1  0.452650  0.057510  0.235290  1.0  -0.0661
  C  C446  1  0.432610  0.065590  0.300540  1.0  -0.1006
  C  C447  1  0.433220  0.110940  0.311260  1.0  -0.1266
  C  C448  1  0.455580  0.148880  0.257140  1.0  -0.0608
  C  C449  1  0.475050  0.140620  0.191190  1.0  -0.0707
  C  C450  1  0.408150  0.118050  0.379140  1.0  0.6754
  C  C451  1  0.346840  0.058440  0.583210  1.0  0.1515
  C  C452  1  0.346270  0.036800  0.652040  1.0  -0.0997
  C  C453  1  0.360020  0.066500  0.715830  1.0  -0.1038
  C  C454  1  0.374820  0.117280  0.709990  1.0  -0.1563
  C  C455  1  0.375540  0.136580  0.638870  1.0  0.1772
  C  C456  1  0.394040  0.190040  0.622770  1.0  0.3805
  C  C457  1  0.418660  0.258060  0.556540  1.0  -0.0041
  C  C458  1  0.430700  0.272950  0.631330  1.0  -0.027
  C  C459  1  0.455310  0.322180  0.669040  1.0  0.0676
  C  C460  1  0.482960  0.329260  0.735760  1.0  -0.1221
  C  C461  1  0.506540  0.375810  0.771630  1.0  -0.044
  C  C462  1  0.503130  0.416340  0.742480  1.0  -0.1465
  C  C463  1  0.475440  0.409340  0.676300  1.0  -0.0414
  C  C464  1  0.451730  0.362920  0.640380  1.0  -0.1264
  C  C465  1  0.526980  0.466050  0.783800  1.0  0.6919
  C  C466  1  0.428090  0.288100  0.487140  1.0  -0.0193
  C  C467  1  0.390840  0.271520  0.431380  1.0  -0.0636
  C  C468  1  0.398920  0.299640  0.366130  1.0  -0.0971
  C  C469  1  0.444270  0.344380  0.355410  1.0  -0.1274
  C  C470  1  0.482210  0.359960  0.409530  1.0  -0.059
  C  C471  1  0.473950  0.332230  0.475480  1.0  -0.0742
  C  C472  1  0.451380  0.376560  0.287530  1.0  0.6762
  C  C473  1  0.013510  0.391770  0.916540  1.0  0.1515
  C  C474  1  0.012940  0.370130  0.985370  1.0  -0.0997
  C  C475  1  0.026690  0.399830  0.049160  1.0  -0.1038
  C  C476  1  0.041490  0.450610  0.043320  1.0  -0.1564
  C  C477  1  0.042210  0.469910  0.972200  1.0  0.1774
  C  C478  1  0.060710  0.523370  0.956100  1.0  0.3805
  C  C479  1  0.085330  0.591390  0.889870  1.0  -0.0041
  C  C480  1  0.097370  0.606280  0.964660  1.0  -0.027
  C  C481  1  0.121980  0.655510  0.002370  1.0  0.0678
  C  C482  1  0.149630  0.662590  0.069090  1.0  -0.1221
  C  C483  1  0.173210  0.709140  0.104960  1.0  -0.044
  C  C484  1  0.169800  0.749670  0.075810  1.0  -0.1465
  C  C485  1  0.142110  0.742670  0.009630  1.0  -0.0413
  C  C486  1  0.118400  0.696250  0.973710  1.0  -0.1264
  C  C487  1  0.193650  0.799380  0.117130  1.0  0.6919
  C  C488  1  0.094760  0.621430  0.820470  1.0  -0.0193
  C  C489  1  0.057510  0.604850  0.764710  1.0  -0.0636
  C  C490  1  0.065590  0.632970  0.699460  1.0  -0.0971
  C  C491  1  0.110940  0.677710  0.688740  1.0  -0.1274
  C  C492  1  0.148880  0.693290  0.742860  1.0  -0.059
  C  C493  1  0.140620  0.665560  0.808810  1.0  -0.0743
  C  C494  1  0.118050  0.709890  0.620860  1.0  0.6762
  C  C495  1  0.680170  0.725110  0.249880  1.0  0.1515
  C  C496  1  0.679600  0.703470  0.318710  1.0  -0.0996
  C  C497  1  0.693350  0.733170  0.382500  1.0  -0.1038
  C  C498  1  0.708150  0.783950  0.376660  1.0  -0.1563
  C  C499  1  0.708870  0.803250  0.305540  1.0  0.1773
  C  C500  1  0.727370  0.856710  0.289440  1.0  0.3804
  C  C501  1  0.751990  0.924730  0.223210  1.0  -0.0041
  C  C502  1  0.764030  0.939620  0.298000  1.0  -0.027
  C  C503  1  0.788640  0.988850  0.335710  1.0  0.0676
  C  C504  1  0.816290  0.995930  0.402430  1.0  -0.1221
  C  C505  1  0.839870  0.042480  0.438300  1.0  -0.044
  C  C506  1  0.836460  0.083010  0.409150  1.0  -0.1464
  C  C507  1  0.808770  0.076010  0.342970  1.0  -0.0413
  C  C508  1  0.785060  0.029590  0.307050  1.0  -0.1264
  C  C509  1  0.860310  0.132720  0.450470  1.0  0.6919
  C  C510  1  0.761420  0.954770  0.153810  1.0  -0.0193
  C  C511  1  0.724170  0.938190  0.098050  1.0  -0.0636
  C  C512  1  0.732250  0.966310  0.032800  1.0  -0.0971
  C  C513  1  0.777600  0.011050  0.022080  1.0  -0.1274
  C  C514  1  0.815540  0.026630  0.076200  1.0  -0.059
  C  C515  1  0.807280  0.998900  0.142150  1.0  -0.0743
  C  C516  1  0.784710  0.043230  0.954200  1.0  0.6763
  C  C517  1  0.941560  0.288400  0.583210  1.0  0.1495
  C  C518  1  0.963200  0.309470  0.652040  1.0  -0.1007
  C  C519  1  0.933500  0.293520  0.715830  1.0  -0.1058
  C  C520  1  0.882720  0.257540  0.709990  1.0  -0.1588
  C  C521  1  0.863420  0.238960  0.638870  1.0  0.1761
  C  C522  1  0.809960  0.204000  0.622770  1.0  0.3811
  C  C523  1  0.741940  0.160600  0.556540  1.0  -0.0052
  C  C524  1  0.727050  0.157750  0.631330  1.0  -0.0276
  C  C525  1  0.677820  0.133130  0.669040  1.0  0.0695
  C  C526  1  0.670740  0.153700  0.735760  1.0  -0.122
  C  C527  1  0.624190  0.130730  0.771630  1.0  -0.0462
  C  C528  1  0.583660  0.086790  0.742480  1.0  -0.1447
  C  C529  1  0.590660  0.066100  0.676300  1.0  -0.0364
  C  C530  1  0.637080  0.088810  0.640380  1.0  -0.1251
  C  C531  1  0.533950  0.060930  0.783800  1.0  0.6909
  C  C532  1  0.711900  0.139990  0.487140  1.0  -0.0185
  C  C533  1  0.728480  0.119320  0.431380  1.0  -0.0665
  C  C534  1  0.700360  0.099280  0.366130  1.0  -0.0971
  C  C535  1  0.655620  0.099890  0.355410  1.0  -0.1276
  C  C536  1  0.640040  0.122250  0.409530  1.0  -0.058
  C  C537  1  0.667770  0.141720  0.475480  1.0  -0.0777
  C  C538  1  0.623440  0.074820  0.287530  1.0  0.6751
  C  C539  1  0.608230  0.621730  0.916540  1.0  0.1495
  C  C540  1  0.629870  0.642800  0.985370  1.0  -0.1007
  C  C541  1  0.600170  0.626850  0.049160  1.0  -0.1058
  C  C542  1  0.549390  0.590870  0.043320  1.0  -0.1588
  C  C543  1  0.530090  0.572290  0.972200  1.0  0.1759
  C  C544  1  0.476630  0.537330  0.956100  1.0  0.381
  C  C545  1  0.408610  0.493930  0.889870  1.0  -0.0051
  C  C546  1  0.393720  0.491080  0.964660  1.0  -0.0277
  C  C547  1  0.344490  0.466460  0.002370  1.0  0.0694
  C  C548  1  0.337410  0.487030  0.069090  1.0  -0.122
  C  C549  1  0.290860  0.464060  0.104960  1.0  -0.0461
  C  C550  1  0.250330  0.420120  0.075810  1.0  -0.1447
  C  C551  1  0.257330  0.399430  0.009630  1.0  -0.0365
  C  C552  1  0.303750  0.422140  0.973710  1.0  -0.1252
  C  C553  1  0.200620  0.394260  0.117130  1.0  0.6909
  C  C554  1  0.378570  0.473320  0.820470  1.0  -0.0185
  C  C555  1  0.395150  0.452650  0.764710  1.0  -0.0665
  C  C556  1  0.367030  0.432610  0.699460  1.0  -0.0971
  C  C557  1  0.322290  0.433220  0.688740  1.0  -0.1276
  C  C558  1  0.306710  0.455580  0.742860  1.0  -0.058
  C  C559  1  0.334440  0.475050  0.808810  1.0  -0.0776
  C  C560  1  0.290110  0.408150  0.620860  1.0  0.6751
  C  C561  1  0.274890  0.955070  0.249880  1.0  0.1494
  C  C562  1  0.296530  0.976140  0.318710  1.0  -0.1007
  C  C563  1  0.266830  0.960190  0.382500  1.0  -0.1058
  C  C564  1  0.216050  0.924210  0.376660  1.0  -0.1588
  C  C565  1  0.196750  0.905630  0.305540  1.0  0.1761
  C  C566  1  0.143290  0.870670  0.289440  1.0  0.3811
  C  C567  1  0.075270  0.827270  0.223210  1.0  -0.0052
  C  C568  1  0.060380  0.824420  0.298000  1.0  -0.0276
  C  C569  1  0.011150  0.799800  0.335710  1.0  0.0695
  C  C570  1  0.004070  0.820370  0.402430  1.0  -0.122
  C  C571  1  0.957520  0.797400  0.438300  1.0  -0.0462
  C  C572  1  0.916990  0.753460  0.409150  1.0  -0.1446
  C  C573  1  0.923990  0.732770  0.342970  1.0  -0.0364
  C  C574  1  0.970410  0.755480  0.307050  1.0  -0.1251
  C  C575  1  0.867280  0.727600  0.450470  1.0  0.6909
  C  C576  1  0.045230  0.806660  0.153810  1.0  -0.0185
  C  C577  1  0.061810  0.785990  0.098050  1.0  -0.0665
  C  C578  1  0.033690  0.765950  0.032800  1.0  -0.097
  C  C579  1  0.988950  0.766560  0.022080  1.0  -0.1276
  C  C580  1  0.973370  0.788920  0.076200  1.0  -0.058
  C  C581  1  0.001100  0.808390  0.142150  1.0  -0.0777
  C  C582  1  0.956770  0.741490  0.954200  1.0  0.6751
  C  C583  1  0.711600  0.653160  0.583210  1.0  0.1488
  C  C584  1  0.690530  0.653730  0.652040  1.0  -0.1018
  C  C585  1  0.706480  0.639980  0.715830  1.0  -0.1042
  C  C586  1  0.742460  0.625180  0.709990  1.0  -0.1595
  C  C587  1  0.761040  0.624460  0.638870  1.0  0.1749
  C  C588  1  0.796000  0.605960  0.622770  1.0  0.3813
  C  C589  1  0.839400  0.581340  0.556540  1.0  -0.0055
  C  C590  1  0.842250  0.569300  0.631330  1.0  -0.0282
  C  C591  1  0.866870  0.544690  0.669040  1.0  0.0693
  C  C592  1  0.846300  0.517040  0.735760  1.0  -0.124
  C  C593  1  0.869270  0.493460  0.771630  1.0  -0.0442
  C  C594  1  0.913210  0.496870  0.742480  1.0  -0.1406
  C  C595  1  0.933900  0.524560  0.676300  1.0  -0.0411
  C  C596  1  0.911190  0.548270  0.640380  1.0  -0.1301
  C  C597  1  0.939070  0.473020  0.783800  1.0  0.688
  C  C598  1  0.860010  0.571910  0.487140  1.0  -0.0186
  C  C599  1  0.880680  0.609160  0.431380  1.0  -0.0647
  C  C600  1  0.900720  0.601080  0.366130  1.0  -0.0986
  C  C601  1  0.900110  0.555730  0.355410  1.0  -0.1261
  C  C602  1  0.877750  0.517790  0.409530  1.0  -0.0623
  C  C603  1  0.858280  0.526050  0.475480  1.0  -0.0725
  C  C604  1  0.925180  0.548620  0.287530  1.0  0.674
  C  C605  1  0.378270  0.986490  0.916540  1.0  0.1488
  C  C606  1  0.357200  0.987060  0.985370  1.0  -0.1019
  C  C607  1  0.373150  0.973310  0.049160  1.0  -0.1042
  C  C608  1  0.409130  0.958510  0.043320  1.0  -0.1595
  C  C609  1  0.427710  0.957790  0.972200  1.0  0.1751
  C  C610  1  0.462670  0.939290  0.956100  1.0  0.3813
  C  C611  1  0.506070  0.914670  0.889870  1.0  -0.0055
  C  C612  1  0.508920  0.902630  0.964660  1.0  -0.0282
  C  C613  1  0.533540  0.878020  0.002370  1.0  0.0694
  C  C614  1  0.512970  0.850370  0.069090  1.0  -0.124
  C  C615  1  0.535940  0.826790  0.104960  1.0  -0.0442
  C  C616  1  0.579880  0.830200  0.075810  1.0  -0.1406
  C  C617  1  0.600570  0.857890  0.009630  1.0  -0.0411
  C  C618  1  0.577860  0.881600  0.973710  1.0  -0.1301
  C  C619  1  0.605740  0.806350  0.117130  1.0  0.6879
  C  C620  1  0.526680  0.905240  0.820470  1.0  -0.0186
  C  C621  1  0.547350  0.942490  0.764710  1.0  -0.0647
  C  C622  1  0.567390  0.934410  0.699460  1.0  -0.0986
  C  C623  1  0.566780  0.889060  0.688740  1.0  -0.1261
  C  C624  1  0.544420  0.851120  0.742860  1.0  -0.0623
  C  C625  1  0.524950  0.859380  0.808810  1.0  -0.0725
  C  C626  1  0.591850  0.881950  0.620860  1.0  0.674
  C  C627  1  0.044930  0.319830  0.249880  1.0  0.1488
  C  C628  1  0.023860  0.320400  0.318710  1.0  -0.1018
  C  C629  1  0.039810  0.306650  0.382500  1.0  -0.1042
  C  C630  1  0.075790  0.291850  0.376660  1.0  -0.1595
  C  C631  1  0.094370  0.291130  0.305540  1.0  0.1749
  C  C632  1  0.129330  0.272630  0.289440  1.0  0.3812
  C  C633  1  0.172730  0.248010  0.223210  1.0  -0.0055
  C  C634  1  0.175580  0.235970  0.298000  1.0  -0.0282
  C  C635  1  0.200200  0.211360  0.335710  1.0  0.0693
  C  C636  1  0.179630  0.183710  0.402430  1.0  -0.124
  C  C637  1  0.202600  0.160130  0.438300  1.0  -0.0442
  C  C638  1  0.246540  0.163540  0.409150  1.0  -0.1406
  C  C639  1  0.267230  0.191230  0.342970  1.0  -0.0411
  C  C640  1  0.244520  0.214940  0.307050  1.0  -0.1301
  C  C641  1  0.272400  0.139690  0.450470  1.0  0.688
  C  C642  1  0.193340  0.238580  0.153810  1.0  -0.0186
  C  C643  1  0.214010  0.275830  0.098050  1.0  -0.0646
  C  C644  1  0.234050  0.267750  0.032800  1.0  -0.0987
  C  C645  1  0.233440  0.222400  0.022080  1.0  -0.1261
  C  C646  1  0.211080  0.184460  0.076200  1.0  -0.0623
  C  C647  1  0.191610  0.192720  0.142150  1.0  -0.0724
  C  C648  1  0.258510  0.215290  0.954200  1.0  0.6739
  N  N649  1  0.638860  0.892470  0.423690  1.0  -0.2985
  N  N650  1  0.604530  0.793950  0.447290  1.0  -0.4618
  N  N651  1  0.585500  0.771180  0.328360  1.0  -0.2238
  N  N652  1  0.305530  0.225800  0.757020  1.0  -0.2985
  N  N653  1  0.271200  0.127280  0.780620  1.0  -0.4618
  N  N654  1  0.252170  0.104510  0.661690  1.0  -0.2238
  N  N655  1  0.972190  0.559140  0.090360  1.0  -0.2985
  N  N656  1  0.937860  0.460620  0.113960  1.0  -0.4618
  N  N657  1  0.918830  0.437850  0.995030  1.0  -0.2236
  N  N658  1  0.107530  0.746390  0.423690  1.0  -0.2998
  N  N659  1  0.206050  0.810580  0.447290  1.0  -0.4636
  N  N660  1  0.228820  0.814320  0.328360  1.0  -0.2244
  N  N661  1  0.774200  0.079720  0.757020  1.0  -0.2998
  N  N662  1  0.872720  0.143910  0.780620  1.0  -0.4637
  N  N663  1  0.895490  0.147650  0.661690  1.0  -0.2244
  N  N664  1  0.440860  0.413060  0.090360  1.0  -0.2997
  N  N665  1  0.539380  0.477250  0.113960  1.0  -0.4636
  N  N666  1  0.562150  0.480990  0.995030  1.0  -0.2242
  N  N667  1  0.253610  0.361140  0.423690  1.0  -0.2993
  N  N668  1  0.189420  0.395470  0.447290  1.0  -0.4618
  N  N669  1  0.185680  0.414500  0.328360  1.0  -0.2247
  N  N670  1  0.920280  0.694470  0.757020  1.0  -0.2993
  N  N671  1  0.856090  0.728800  0.780620  1.0  -0.4618
  N  N672  1  0.852350  0.747830  0.661690  1.0  -0.2246
  N  N673  1  0.586940  0.027810  0.090360  1.0  -0.2993
  N  N674  1  0.522750  0.062140  0.113960  1.0  -0.4618
  N  N675  1  0.519010  0.081170  0.995030  1.0  -0.2249
  N  N676  1  0.361140  0.107530  0.576310  1.0  -0.2974
  N  N677  1  0.395470  0.206050  0.552710  1.0  -0.4626
  N  N678  1  0.414500  0.228820  0.671640  1.0  -0.2238
  N  N679  1  0.027810  0.440860  0.909640  1.0  -0.2974
  N  N680  1  0.062140  0.539380  0.886040  1.0  -0.4626
  N  N681  1  0.081170  0.562150  0.004970  1.0  -0.2236
  N  N682  1  0.694470  0.774200  0.242980  1.0  -0.2974
  N  N683  1  0.728800  0.872720  0.219380  1.0  -0.4626
  N  N684  1  0.747830  0.895490  0.338310  1.0  -0.2238
  N  N685  1  0.892470  0.253610  0.576310  1.0  -0.3009
  N  N686  1  0.793950  0.189420  0.552710  1.0  -0.4643
  N  N687  1  0.771180  0.185680  0.671640  1.0  -0.2214
  N  N688  1  0.559140  0.586940  0.909640  1.0  -0.3009
  N  N689  1  0.460620  0.522750  0.886040  1.0  -0.4642
  N  N690  1  0.437850  0.519010  0.004970  1.0  -0.2212
  N  N691  1  0.225800  0.920280  0.242980  1.0  -0.3009
  N  N692  1  0.127280  0.856090  0.219380  1.0  -0.4643
  N  N693  1  0.104510  0.852350  0.338310  1.0  -0.2214
  N  N694  1  0.746390  0.638860  0.576310  1.0  -0.2984
  N  N695  1  0.810580  0.604530  0.552710  1.0  -0.4617
  N  N696  1  0.814320  0.585500  0.671640  1.0  -0.2252
  N  N697  1  0.413060  0.972190  0.909640  1.0  -0.2984
  N  N698  1  0.477250  0.937860  0.886040  1.0  -0.4617
  N  N699  1  0.480990  0.918830  0.004970  1.0  -0.2256
  N  N700  1  0.079720  0.305530  0.242980  1.0  -0.2984
  N  N701  1  0.143910  0.271200  0.219380  1.0  -0.4617
  N  N702  1  0.147650  0.252170  0.338310  1.0  -0.2251
  O  O703  1  0.479400  0.499530  0.245830  1.0  -0.5892
  O  O704  1  0.450280  0.529590  0.156040  1.0  -0.6192
  O  O705  1  0.585920  0.627490  0.747090  1.0  -0.6079
  O  O706  1  0.503350  0.590830  0.731540  1.0  -0.5754
  O  O707  1  0.146070  0.832860  0.579160  1.0  -0.5892
  O  O708  1  0.116950  0.862920  0.489370  1.0  -0.6193
  O  O709  1  0.252590  0.960820  0.080420  1.0  -0.6078
  O  O710  1  0.170020  0.924160  0.064870  1.0  -0.5755
  O  O711  1  0.812730  0.166200  0.912500  1.0  -0.5896
  O  O712  1  0.783610  0.196260  0.822710  1.0  -0.6192
  O  O713  1  0.919250  0.294160  0.413760  1.0  -0.6079
  O  O714  1  0.836680  0.257500  0.398210  1.0  -0.5754
  O  O715  1  0.500470  0.979870  0.245830  1.0  -0.5877
  O  O716  1  0.470410  0.920690  0.156040  1.0  -0.6241
  O  O717  1  0.372510  0.958430  0.747090  1.0  -0.6065
  O  O718  1  0.409170  0.912520  0.731540  1.0  -0.5763
  O  O719  1  0.167140  0.313200  0.579160  1.0  -0.5877
  O  O720  1  0.137080  0.254020  0.489370  1.0  -0.6241
  O  O721  1  0.039180  0.291760  0.080420  1.0  -0.6065
  O  O722  1  0.075840  0.245850  0.064870  1.0  -0.5763
  O  O723  1  0.833800  0.646540  0.912500  1.0  -0.5877
  O  O724  1  0.803740  0.587360  0.822710  1.0  -0.6241
  O  O725  1  0.705840  0.625100  0.413760  1.0  -0.6065
  O  O726  1  0.742500  0.579190  0.398210  1.0  -0.5763
  O  O727  1  0.020130  0.520600  0.245830  1.0  -0.588
  O  O728  1  0.079310  0.549720  0.156040  1.0  -0.6221
  O  O729  1  0.041570  0.414080  0.747090  1.0  -0.6081
  O  O730  1  0.087480  0.496650  0.731540  1.0  -0.576
  O  O731  1  0.686800  0.853930  0.579160  1.0  -0.588
  O  O732  1  0.745980  0.883050  0.489370  1.0  -0.6222
  O  O733  1  0.708240  0.747410  0.080420  1.0  -0.6089
  O  O734  1  0.754150  0.829980  0.064870  1.0  -0.5759
  O  O735  1  0.353460  0.187270  0.912500  1.0  -0.5874
  O  O736  1  0.412640  0.216390  0.822710  1.0  -0.6221
  O  O737  1  0.374900  0.080750  0.413760  1.0  -0.6081
  O  O738  1  0.420810  0.163320  0.398210  1.0  -0.576
  O  O739  1  0.520600  0.500470  0.754170  1.0  -0.5877
  O  O740  1  0.549720  0.470410  0.843960  1.0  -0.6213
  O  O741  1  0.414080  0.372510  0.252910  1.0  -0.6061
  O  O742  1  0.496650  0.409170  0.268460  1.0  -0.5749
  O  O743  1  0.187270  0.833800  0.087500  1.0  -0.588
  O  O744  1  0.216390  0.803740  0.177290  1.0  -0.6212
  O  O745  1  0.080750  0.705840  0.586240  1.0  -0.606
  O  O746  1  0.163320  0.742500  0.601790  1.0  -0.5749
  O  O747  1  0.853930  0.167140  0.420840  1.0  -0.5877
  O  O748  1  0.883050  0.137080  0.510630  1.0  -0.6213
  O  O749  1  0.747410  0.039180  0.919580  1.0  -0.606
  O  O750  1  0.829980  0.075840  0.935130  1.0  -0.575
  O  O751  1  0.499530  0.020130  0.754170  1.0  -0.5866
  O  O752  1  0.529590  0.079310  0.843960  1.0  -0.6215
  O  O753  1  0.627490  0.041570  0.252910  1.0  -0.6058
  O  O754  1  0.590830  0.087480  0.268460  1.0  -0.5774
  O  O755  1  0.166200  0.353460  0.087500  1.0  -0.5865
  O  O756  1  0.196260  0.412640  0.177290  1.0  -0.6215
  O  O757  1  0.294160  0.374900  0.586240  1.0  -0.6058
  O  O758  1  0.257500  0.420810  0.601790  1.0  -0.5774
  O  O759  1  0.832860  0.686800  0.420840  1.0  -0.5866
  O  O760  1  0.862920  0.745980  0.510630  1.0  -0.6215
  O  O761  1  0.960820  0.708240  0.919580  1.0  -0.6058
  O  O762  1  0.924160  0.754150  0.935130  1.0  -0.5773
  O  O763  1  0.979870  0.479400  0.754170  1.0  -0.5878
  O  O764  1  0.920690  0.450280  0.843960  1.0  -0.6238
  O  O765  1  0.958430  0.585920  0.252910  1.0  -0.6085
  O  O766  1  0.912520  0.503350  0.268460  1.0  -0.5764
  O  O767  1  0.646540  0.812730  0.087500  1.0  -0.5872
  O  O768  1  0.587360  0.783610  0.177290  1.0  -0.6238
  O  O769  1  0.625100  0.919250  0.586240  1.0  -0.6085
  O  O770  1  0.579190  0.836680  0.601790  1.0  -0.5764
  O  O771  1  0.313200  0.146070  0.420840  1.0  -0.5878
  O  O772  1  0.254020  0.116950  0.510630  1.0  -0.6239
  O  O773  1  0.291760  0.252590  0.919580  1.0  -0.6098
  O  O774  1  0.245850  0.170020  0.935130  1.0  -0.5764
