# generated using pymatgen
data_Cr3H12C24O13
_symmetry_space_group_name_H-M   'P 1'
_cell_length_a   62.83990000
_cell_length_b   62.83990000
_cell_length_c   62.83990000
_cell_angle_alpha   60.00000000
_cell_angle_beta   60.00000000
_cell_angle_gamma   60.00000000
_symmetry_Int_Tables_number   1
_chemical_formula_structural   Cr3H12C24O13
_chemical_formula_sum   'Cr204 H816 C1632 O884'
_cell_volume   175465.38673396
_cell_formula_units_Z   68
loop_
 _symmetry_equiv_pos_site_id
 _symmetry_equiv_pos_as_xyz
  1  'x, y, z'
loop_
 _atom_site_type_symbol
 _atom_site_label
 _atom_site_symmetry_multiplicity
 _atom_site_fract_x
 _atom_site_fract_y
 _atom_site_fract_z
 _atom_site_occupancy
 _atom_site_charge
  Cr  Cr1  1  0.114230  0.283840  0.657700  1.0  1.4894
  Cr  Cr2  1  0.306560  0.359630  0.530340  1.0  1.5186
  Cr  Cr3  1  0.283840  0.114230  0.944230  1.0  1.4863
  Cr  Cr4  1  0.359630  0.306560  0.803480  1.0  1.5124
  Cr  Cr5  1  0.657700  0.944230  0.114230  1.0  1.4913
  Cr  Cr6  1  0.530340  0.803480  0.306560  1.0  1.505
  Cr  Cr7  1  0.944230  0.657700  0.283840  1.0  1.4929
  Cr  Cr8  1  0.803480  0.530340  0.359630  1.0  1.5071
  Cr  Cr9  1  0.657700  0.114230  0.283840  1.0  1.4877
  Cr  Cr10  1  0.530340  0.306560  0.359630  1.0  1.5096
  Cr  Cr11  1  0.944230  0.283840  0.114230  1.0  1.4854
  Cr  Cr12  1  0.803480  0.359630  0.306560  1.0  1.5156
  Cr  Cr13  1  0.114230  0.657700  0.944230  1.0  1.4903
  Cr  Cr14  1  0.306560  0.530340  0.803480  1.0  1.506
  Cr  Cr15  1  0.283840  0.944230  0.657700  1.0  1.4833
  Cr  Cr16  1  0.359630  0.803480  0.530340  1.0  1.5115
  Cr  Cr17  1  0.283840  0.657700  0.114230  1.0  1.4916
  Cr  Cr18  1  0.359630  0.530340  0.306560  1.0  1.5154
  Cr  Cr19  1  0.114230  0.944230  0.283840  1.0  1.4828
  Cr  Cr20  1  0.306560  0.803480  0.359630  1.0  1.5174
  Cr  Cr21  1  0.944230  0.114230  0.657700  1.0  1.4863
  Cr  Cr22  1  0.803480  0.306560  0.530340  1.0  1.5128
  Cr  Cr23  1  0.657700  0.283840  0.944230  1.0  1.4897
  Cr  Cr24  1  0.530340  0.359630  0.803480  1.0  1.5166
  Cr  Cr25  1  0.135770  0.966160  0.305770  1.0  1.4916
  Cr  Cr26  1  0.943440  0.890370  0.446520  1.0  1.5143
  Cr  Cr27  1  0.966160  0.135770  0.592300  1.0  1.4896
  Cr  Cr28  1  0.890370  0.943440  0.719660  1.0  1.5179
  Cr  Cr29  1  0.592300  0.305770  0.966160  1.0  1.4871
  Cr  Cr30  1  0.719660  0.446520  0.890370  1.0  1.5078
  Cr  Cr31  1  0.305770  0.592300  0.135770  1.0  1.4908
  Cr  Cr32  1  0.446520  0.719660  0.943440  1.0  1.5082
  Cr  Cr33  1  0.592300  0.135770  0.305770  1.0  1.4883
  Cr  Cr34  1  0.719660  0.943440  0.446520  1.0  1.5089
  Cr  Cr35  1  0.305770  0.966160  0.592300  1.0  1.4883
  Cr  Cr36  1  0.446520  0.890370  0.719660  1.0  1.5113
  Cr  Cr37  1  0.135770  0.592300  0.966160  1.0  1.4884
  Cr  Cr38  1  0.943440  0.719660  0.890370  1.0  1.507
  Cr  Cr39  1  0.966160  0.305770  0.135770  1.0  1.485
  Cr  Cr40  1  0.890370  0.446520  0.943440  1.0  1.5107
  Cr  Cr41  1  0.966160  0.592300  0.305770  1.0  1.4912
  Cr  Cr42  1  0.890370  0.719660  0.446520  1.0  1.516
  Cr  Cr43  1  0.135770  0.305770  0.592300  1.0  1.4816
  Cr  Cr44  1  0.943440  0.446520  0.719660  1.0  1.5146
  Cr  Cr45  1  0.305770  0.135770  0.966160  1.0  1.485
  Cr  Cr46  1  0.446520  0.943440  0.890370  1.0  1.5143
  Cr  Cr47  1  0.592300  0.966160  0.135770  1.0  1.4915
  Cr  Cr48  1  0.719660  0.890370  0.943440  1.0  1.5169
  Cr  Cr49  1  0.135770  0.966160  0.592300  1.0  1.4926
  Cr  Cr50  1  0.943440  0.890370  0.719660  1.0  1.5165
  Cr  Cr51  1  0.966160  0.135770  0.305770  1.0  1.4887
  Cr  Cr52  1  0.890370  0.943440  0.446520  1.0  1.5145
  Cr  Cr53  1  0.592300  0.305770  0.135770  1.0  1.486
  Cr  Cr54  1  0.719660  0.446520  0.943440  1.0  1.5083
  Cr  Cr55  1  0.305770  0.592300  0.966160  1.0  1.4911
  Cr  Cr56  1  0.446520  0.719660  0.890370  1.0  1.5053
  Cr  Cr57  1  0.592300  0.135770  0.966160  1.0  1.486
  Cr  Cr58  1  0.719660  0.943440  0.890370  1.0  1.5096
  Cr  Cr59  1  0.305770  0.966160  0.135770  1.0  1.4879
  Cr  Cr60  1  0.446520  0.890370  0.943440  1.0  1.5119
  Cr  Cr61  1  0.135770  0.592300  0.305770  1.0  1.4901
  Cr  Cr62  1  0.943440  0.719660  0.446520  1.0  1.5079
  Cr  Cr63  1  0.966160  0.305770  0.592300  1.0  1.4842
  Cr  Cr64  1  0.890370  0.446520  0.719660  1.0  1.5122
  Cr  Cr65  1  0.966160  0.592300  0.135770  1.0  1.4903
  Cr  Cr66  1  0.890370  0.719660  0.943440  1.0  1.5184
  Cr  Cr67  1  0.135770  0.305770  0.966160  1.0  1.4856
  Cr  Cr68  1  0.943440  0.446520  0.890370  1.0  1.5135
  Cr  Cr69  1  0.305770  0.135770  0.592300  1.0  1.4822
  Cr  Cr70  1  0.446520  0.943440  0.719660  1.0  1.5148
  Cr  Cr71  1  0.592300  0.966160  0.305770  1.0  1.4923
  Cr  Cr72  1  0.719660  0.890370  0.446520  1.0  1.5148
  Cr  Cr73  1  0.114230  0.283840  0.944230  1.0  1.4905
  Cr  Cr74  1  0.306560  0.359630  0.803480  1.0  1.5175
  Cr  Cr75  1  0.283840  0.114230  0.657700  1.0  1.4854
  Cr  Cr76  1  0.359630  0.306560  0.530340  1.0  1.5152
  Cr  Cr77  1  0.657700  0.944230  0.283840  1.0  1.4911
  Cr  Cr78  1  0.530340  0.803480  0.359630  1.0  1.5082
  Cr  Cr79  1  0.944230  0.657700  0.114230  1.0  1.4931
  Cr  Cr80  1  0.803480  0.530340  0.306560  1.0  1.5062
  Cr  Cr81  1  0.657700  0.114230  0.944230  1.0  1.4869
  Cr  Cr82  1  0.530340  0.306560  0.803480  1.0  1.5049
  Cr  Cr83  1  0.944230  0.283840  0.657700  1.0  1.4863
  Cr  Cr84  1  0.803480  0.359630  0.530340  1.0  1.515
  Cr  Cr85  1  0.114230  0.657700  0.283840  1.0  1.4911
  Cr  Cr86  1  0.306560  0.530340  0.359630  1.0  1.5083
  Cr  Cr87  1  0.283840  0.944230  0.114230  1.0  1.4837
  Cr  Cr88  1  0.359630  0.803480  0.306560  1.0  1.5099
  Cr  Cr89  1  0.283840  0.657700  0.944230  1.0  1.4928
  Cr  Cr90  1  0.359630  0.530340  0.803480  1.0  1.5134
  Cr  Cr91  1  0.114230  0.944230  0.657700  1.0  1.4857
  Cr  Cr92  1  0.306560  0.803480  0.530340  1.0  1.5162
  Cr  Cr93  1  0.944230  0.114230  0.283840  1.0  1.4817
  Cr  Cr94  1  0.803480  0.306560  0.359630  1.0  1.5141
  Cr  Cr95  1  0.657700  0.283840  0.114230  1.0  1.4887
  Cr  Cr96  1  0.530340  0.359630  0.306560  1.0  1.5186
  Cr  Cr97  1  0.418800  0.471850  0.471850  1.0  1.5157
  Cr  Cr98  1  0.471850  0.418800  0.637500  1.0  1.5116
  Cr  Cr99  1  0.471850  0.637500  0.418800  1.0  1.502
  Cr  Cr100  1  0.637500  0.471850  0.471850  1.0  1.503
  Cr  Cr101  1  0.471850  0.418800  0.471850  1.0  1.5118
  Cr  Cr102  1  0.637500  0.471850  0.418800  1.0  1.5025
  Cr  Cr103  1  0.418800  0.471850  0.637500  1.0  1.5157
  Cr  Cr104  1  0.471850  0.637500  0.471850  1.0  1.5028
  Cr  Cr105  1  0.471850  0.471850  0.418800  1.0  1.5097
  Cr  Cr106  1  0.418800  0.637500  0.471850  1.0  1.5144
  Cr  Cr107  1  0.637500  0.418800  0.471850  1.0  1.514
  Cr  Cr108  1  0.471850  0.471850  0.637500  1.0  1.506
  Cr  Cr109  1  0.831200  0.778150  0.612500  1.0  1.5126
  Cr  Cr110  1  0.778150  0.831200  0.778150  1.0  1.5136
  Cr  Cr111  1  0.778150  0.612500  0.778150  1.0  1.5006
  Cr  Cr112  1  0.612500  0.778150  0.831200  1.0  1.5074
  Cr  Cr113  1  0.778150  0.831200  0.612500  1.0  1.5137
  Cr  Cr114  1  0.612500  0.778150  0.778150  1.0  1.501
  Cr  Cr115  1  0.831200  0.778150  0.778150  1.0  1.5117
  Cr  Cr116  1  0.778150  0.612500  0.831200  1.0  1.5066
  Cr  Cr117  1  0.778150  0.778150  0.612500  1.0  1.5071
  Cr  Cr118  1  0.831200  0.612500  0.778150  1.0  1.5118
  Cr  Cr119  1  0.612500  0.831200  0.778150  1.0  1.5148
  Cr  Cr120  1  0.778150  0.778150  0.831200  1.0  1.511
  Cr  Cr121  1  0.125000  0.340650  0.625000  1.0  1.4773
  Cr  Cr122  1  0.340650  0.125000  0.909350  1.0  1.4731
  Cr  Cr123  1  0.625000  0.909350  0.125000  1.0  1.477
  Cr  Cr124  1  0.909350  0.625000  0.340650  1.0  1.4808
  Cr  Cr125  1  0.625000  0.125000  0.340650  1.0  1.468
  Cr  Cr126  1  0.909350  0.340650  0.125000  1.0  1.4802
  Cr  Cr127  1  0.125000  0.625000  0.909350  1.0  1.4658
  Cr  Cr128  1  0.340650  0.909350  0.625000  1.0  1.475
  Cr  Cr129  1  0.340650  0.625000  0.125000  1.0  1.4737
  Cr  Cr130  1  0.125000  0.909350  0.340650  1.0  1.4771
  Cr  Cr131  1  0.909350  0.125000  0.625000  1.0  1.4817
  Cr  Cr132  1  0.625000  0.340650  0.909350  1.0  1.4767
  Cr  Cr133  1  0.125000  0.909350  0.625000  1.0  1.477
  Cr  Cr134  1  0.909350  0.125000  0.340650  1.0  1.4812
  Cr  Cr135  1  0.625000  0.340650  0.125000  1.0  1.4773
  Cr  Cr136  1  0.340650  0.625000  0.909350  1.0  1.4726
  Cr  Cr137  1  0.625000  0.125000  0.909350  1.0  1.4658
  Cr  Cr138  1  0.340650  0.909350  0.125000  1.0  1.4755
  Cr  Cr139  1  0.125000  0.625000  0.340650  1.0  1.468
  Cr  Cr140  1  0.909350  0.340650  0.625000  1.0  1.4797
  Cr  Cr141  1  0.909350  0.625000  0.125000  1.0  1.4817
  Cr  Cr142  1  0.125000  0.340650  0.909350  1.0  1.4771
  Cr  Cr143  1  0.340650  0.125000  0.625000  1.0  1.4737
  Cr  Cr144  1  0.625000  0.909350  0.340650  1.0  1.4766
  Cr  Cr145  1  0.229830  0.229830  0.770170  1.0  1.5523
  Cr  Cr146  1  0.770170  0.770170  0.229830  1.0  1.5561
  Cr  Cr147  1  0.770170  0.229830  0.229830  1.0  1.548
  Cr  Cr148  1  0.229830  0.770170  0.770170  1.0  1.5484
  Cr  Cr149  1  0.229830  0.770170  0.229830  1.0  1.5494
  Cr  Cr150  1  0.770170  0.229830  0.770170  1.0  1.55
  Cr  Cr151  1  0.020170  0.020170  0.479830  1.0  1.5559
  Cr  Cr152  1  0.479830  0.479830  0.020170  1.0  1.5526
  Cr  Cr153  1  0.479830  0.020170  0.479830  1.0  1.5496
  Cr  Cr154  1  0.020170  0.479830  0.020170  1.0  1.5497
  Cr  Cr155  1  0.020170  0.479830  0.479830  1.0  1.5482
  Cr  Cr156  1  0.479830  0.020170  0.020170  1.0  1.5482
  Cr  Cr157  1  0.235920  0.288960  0.737560  1.0  1.5291
  Cr  Cr158  1  0.288960  0.235920  0.737560  1.0  1.5293
  Cr  Cr159  1  0.737560  0.737560  0.235920  1.0  1.5407
  Cr  Cr160  1  0.737560  0.737560  0.288960  1.0  1.5421
  Cr  Cr161  1  0.737560  0.235920  0.288960  1.0  1.5244
  Cr  Cr162  1  0.737560  0.288960  0.235920  1.0  1.5294
  Cr  Cr163  1  0.235920  0.737560  0.737560  1.0  1.5408
  Cr  Cr164  1  0.288960  0.737560  0.737560  1.0  1.5485
  Cr  Cr165  1  0.288960  0.737560  0.235920  1.0  1.5287
  Cr  Cr166  1  0.235920  0.737560  0.288960  1.0  1.5231
  Cr  Cr167  1  0.737560  0.235920  0.737560  1.0  1.5413
  Cr  Cr168  1  0.737560  0.288960  0.737560  1.0  1.5492
  Cr  Cr169  1  0.014080  0.961040  0.512440  1.0  1.5284
  Cr  Cr170  1  0.961040  0.014080  0.512440  1.0  1.5275
  Cr  Cr171  1  0.512440  0.512440  0.961040  1.0  1.5386
  Cr  Cr172  1  0.512440  0.512440  0.014080  1.0  1.5418
  Cr  Cr173  1  0.512440  0.014080  0.512440  1.0  1.5431
  Cr  Cr174  1  0.512440  0.961040  0.512440  1.0  1.5485
  Cr  Cr175  1  0.014080  0.512440  0.961040  1.0  1.5184
  Cr  Cr176  1  0.961040  0.512440  0.014080  1.0  1.5267
  Cr  Cr177  1  0.961040  0.512440  0.512440  1.0  1.546
  Cr  Cr178  1  0.014080  0.512440  0.512440  1.0  1.5422
  Cr  Cr179  1  0.512440  0.014080  0.961040  1.0  1.5199
  Cr  Cr180  1  0.512440  0.961040  0.014080  1.0  1.529
  Cr  Cr181  1  0.325740  0.325740  0.492850  1.0  1.5132
  Cr  Cr182  1  0.325740  0.325740  0.855660  1.0  1.5124
  Cr  Cr183  1  0.492850  0.855660  0.325740  1.0  1.504
  Cr  Cr184  1  0.855660  0.492850  0.325740  1.0  1.5001
  Cr  Cr185  1  0.492850  0.325740  0.325740  1.0  1.5188
  Cr  Cr186  1  0.855660  0.325740  0.325740  1.0  1.5203
  Cr  Cr187  1  0.325740  0.492850  0.855660  1.0  1.4983
  Cr  Cr188  1  0.325740  0.855660  0.492850  1.0  1.5027
  Cr  Cr189  1  0.325740  0.492850  0.325740  1.0  1.5194
  Cr  Cr190  1  0.325740  0.855660  0.325740  1.0  1.5205
  Cr  Cr191  1  0.855660  0.325740  0.492850  1.0  1.5008
  Cr  Cr192  1  0.492850  0.325740  0.855660  1.0  1.4965
  Cr  Cr193  1  0.924260  0.924260  0.394340  1.0  1.511
  Cr  Cr194  1  0.924260  0.924260  0.757150  1.0  1.5122
  Cr  Cr195  1  0.757150  0.394340  0.924260  1.0  1.5023
  Cr  Cr196  1  0.394340  0.757150  0.924260  1.0  1.5032
  Cr  Cr197  1  0.757150  0.924260  0.394340  1.0  1.4966
  Cr  Cr198  1  0.394340  0.924260  0.757150  1.0  1.5026
  Cr  Cr199  1  0.924260  0.757150  0.924260  1.0  1.5181
  Cr  Cr200  1  0.924260  0.394340  0.924260  1.0  1.5223
  Cr  Cr201  1  0.924260  0.757150  0.394340  1.0  1.5
  Cr  Cr202  1  0.924260  0.394340  0.757150  1.0  1.5017
  Cr  Cr203  1  0.394340  0.924260  0.924260  1.0  1.5234
  Cr  Cr204  1  0.757150  0.924260  0.924260  1.0  1.516
  H  H205  1  0.407290  0.476220  0.539020  1.0  0.1047
  H  H206  1  0.340370  0.409170  0.515320  1.0  0.1089
  H  H207  1  0.366490  0.435290  0.500730  1.0  0.1072
  H  H208  1  0.321740  0.386950  0.425540  1.0  0.1054
  H  H209  1  0.299990  0.432360  0.471310  1.0  0.1032
  H  H210  1  0.171760  0.210610  0.666980  1.0  0.1062
  H  H211  1  0.199500  0.238420  0.582900  1.0  0.1065
  H  H212  1  0.155790  0.253740  0.708490  1.0  0.1077
  H  H213  1  0.179980  0.242410  0.735570  1.0  0.1074
  H  H214  1  0.165670  0.329170  0.666980  1.0  0.1069
  H  H215  1  0.189610  0.317970  0.693940  1.0  0.1082
  H  H216  1  0.272420  0.341070  0.610900  1.0  0.107
  H  H217  1  0.256650  0.325490  0.658350  1.0  0.1061
  H  H218  1  0.310590  0.257300  0.524080  1.0  0.1031
  H  H219  1  0.304830  0.214520  0.546900  1.0  0.1034
  H  H220  1  0.368140  0.229280  0.558950  1.0  0.1024
  H  H221  1  0.362600  0.187110  0.581310  1.0  0.1093
  H  H222  1  0.476220  0.407290  0.577470  1.0  0.1045
  H  H223  1  0.409170  0.340370  0.735150  1.0  0.1092
  H  H224  1  0.435290  0.366490  0.697490  1.0  0.1054
  H  H225  1  0.386950  0.321740  0.865770  1.0  0.1057
  H  H226  1  0.432360  0.299990  0.796340  1.0  0.1045
  H  H227  1  0.210610  0.171760  0.950640  1.0  0.1062
  H  H228  1  0.238420  0.199500  0.979180  1.0  0.1078
  H  H229  1  0.253740  0.155790  0.881990  1.0  0.1075
  H  H230  1  0.242410  0.179980  0.842030  1.0  0.1048
  H  H231  1  0.329170  0.165670  0.838190  1.0  0.1062
  H  H232  1  0.317970  0.189610  0.798490  1.0  0.1065
  H  H233  1  0.341070  0.272420  0.775610  1.0  0.1068
  H  H234  1  0.325490  0.256650  0.759510  1.0  0.1062
  H  H235  1  0.257300  0.310590  0.908020  1.0  0.1043
  H  H236  1  0.214520  0.304830  0.933760  1.0  0.1058
  H  H237  1  0.229280  0.368140  0.843630  1.0  0.1036
  H  H238  1  0.187110  0.362600  0.868980  1.0  0.1107
  H  H239  1  0.539020  0.577470  0.407290  1.0  0.1007
  H  H240  1  0.515320  0.735150  0.340370  1.0  0.1086
  H  H241  1  0.500730  0.697490  0.366490  1.0  0.1037
  H  H242  1  0.425540  0.865770  0.321740  1.0  0.1046
  H  H243  1  0.471310  0.796340  0.299990  1.0  0.1062
  H  H244  1  0.666980  0.950640  0.171760  1.0  0.1056
  H  H245  1  0.582900  0.979180  0.199500  1.0  0.1069
  H  H246  1  0.708490  0.881990  0.155790  1.0  0.1091
  H  H247  1  0.735570  0.842030  0.179980  1.0  0.105
  H  H248  1  0.666980  0.838190  0.165670  1.0  0.1055
  H  H249  1  0.693940  0.798490  0.189610  1.0  0.1078
  H  H250  1  0.610900  0.775610  0.272420  1.0  0.1062
  H  H251  1  0.658350  0.759510  0.256650  1.0  0.1034
  H  H252  1  0.524080  0.908020  0.310590  1.0  0.1031
  H  H253  1  0.546900  0.933760  0.304830  1.0  0.105
  H  H254  1  0.558950  0.843630  0.368140  1.0  0.1037
  H  H255  1  0.581310  0.868980  0.362600  1.0  0.1105
  H  H256  1  0.577470  0.539020  0.476220  1.0  0.1036
  H  H257  1  0.735150  0.515320  0.409170  1.0  0.1089
  H  H258  1  0.697490  0.500730  0.435290  1.0  0.1044
  H  H259  1  0.865770  0.425540  0.386950  1.0  0.1042
  H  H260  1  0.796340  0.471310  0.432360  1.0  0.1066
  H  H261  1  0.950640  0.666980  0.210610  1.0  0.1078
  H  H262  1  0.979180  0.582900  0.238420  1.0  0.1063
  H  H263  1  0.881990  0.708490  0.253740  1.0  0.1073
  H  H264  1  0.842030  0.735570  0.242410  1.0  0.1044
  H  H265  1  0.838190  0.666980  0.329170  1.0  0.1058
  H  H266  1  0.798490  0.693940  0.317970  1.0  0.1081
  H  H267  1  0.775610  0.610900  0.341070  1.0  0.1061
  H  H268  1  0.759510  0.658350  0.325490  1.0  0.1044
  H  H269  1  0.908020  0.524080  0.257300  1.0  0.1051
  H  H270  1  0.933760  0.546900  0.214520  1.0  0.1061
  H  H271  1  0.843630  0.558950  0.229280  1.0  0.1023
  H  H272  1  0.868980  0.581310  0.187110  1.0  0.1085
  H  H273  1  0.539020  0.407290  0.476220  1.0  0.1052
  H  H274  1  0.515320  0.340370  0.409170  1.0  0.1108
  H  H275  1  0.500730  0.366490  0.435290  1.0  0.1074
  H  H276  1  0.425540  0.321740  0.386950  1.0  0.103
  H  H277  1  0.471310  0.299990  0.432360  1.0  0.1045
  H  H278  1  0.666980  0.171760  0.210610  1.0  0.106
  H  H279  1  0.582900  0.199500  0.238420  1.0  0.1053
  H  H280  1  0.708490  0.155790  0.253740  1.0  0.1065
  H  H281  1  0.735570  0.179980  0.242410  1.0  0.1058
  H  H282  1  0.666980  0.165670  0.329170  1.0  0.1062
  H  H283  1  0.693940  0.189610  0.317970  1.0  0.1061
  H  H284  1  0.610900  0.272420  0.341070  1.0  0.1074
  H  H285  1  0.658350  0.256650  0.325490  1.0  0.105
  H  H286  1  0.524080  0.310590  0.257300  1.0  0.1034
  H  H287  1  0.546900  0.304830  0.214520  1.0  0.1027
  H  H288  1  0.558950  0.368140  0.229280  1.0  0.1015
  H  H289  1  0.581310  0.362600  0.187110  1.0  0.1116
  H  H290  1  0.577470  0.476220  0.407290  1.0  0.106
  H  H291  1  0.735150  0.409170  0.340370  1.0  0.108
  H  H292  1  0.697490  0.435290  0.366490  1.0  0.1064
  H  H293  1  0.865770  0.386950  0.321740  1.0  0.1064
  H  H294  1  0.796340  0.432360  0.299990  1.0  0.105
  H  H295  1  0.950640  0.210610  0.171760  1.0  0.1047
  H  H296  1  0.979180  0.238420  0.199500  1.0  0.1063
  H  H297  1  0.881990  0.253740  0.155790  1.0  0.1096
  H  H298  1  0.842030  0.242410  0.179980  1.0  0.1054
  H  H299  1  0.838190  0.329170  0.165670  1.0  0.1057
  H  H300  1  0.798490  0.317970  0.189610  1.0  0.1098
  H  H301  1  0.775610  0.341070  0.272420  1.0  0.1074
  H  H302  1  0.759510  0.325490  0.256650  1.0  0.1073
  H  H303  1  0.908020  0.257300  0.310590  1.0  0.1047
  H  H304  1  0.933760  0.214520  0.304830  1.0  0.1062
  H  H305  1  0.843630  0.229280  0.368140  1.0  0.103
  H  H306  1  0.868980  0.187110  0.362600  1.0  0.1104
  H  H307  1  0.407290  0.539020  0.577470  1.0  0.1012
  H  H308  1  0.340370  0.515320  0.735150  1.0  0.1096
  H  H309  1  0.366490  0.500730  0.697490  1.0  0.1047
  H  H310  1  0.321740  0.425540  0.865770  1.0  0.1043
  H  H311  1  0.299990  0.471310  0.796340  1.0  0.1047
  H  H312  1  0.171760  0.666980  0.950640  1.0  0.1068
  H  H313  1  0.199500  0.582900  0.979180  1.0  0.1072
  H  H314  1  0.155790  0.708490  0.881990  1.0  0.1069
  H  H315  1  0.179980  0.735570  0.842030  1.0  0.1069
  H  H316  1  0.165670  0.666980  0.838190  1.0  0.1061
  H  H317  1  0.189610  0.693940  0.798490  1.0  0.1051
  H  H318  1  0.272420  0.610900  0.775610  1.0  0.1069
  H  H319  1  0.256650  0.658350  0.759510  1.0  0.1048
  H  H320  1  0.310590  0.524080  0.908020  1.0  0.1039
  H  H321  1  0.304830  0.546900  0.933760  1.0  0.1037
  H  H322  1  0.368140  0.558950  0.843630  1.0  0.1022
  H  H323  1  0.362600  0.581310  0.868980  1.0  0.1097
  H  H324  1  0.476220  0.577470  0.539020  1.0  0.1038
  H  H325  1  0.409170  0.735150  0.515320  1.0  0.1097
  H  H326  1  0.435290  0.697490  0.500730  1.0  0.1044
  H  H327  1  0.386950  0.865770  0.425540  1.0  0.1074
  H  H328  1  0.432360  0.796340  0.471310  1.0  0.1048
  H  H329  1  0.210610  0.950640  0.666980  1.0  0.1067
  H  H330  1  0.238420  0.979180  0.582900  1.0  0.1062
  H  H331  1  0.253740  0.881990  0.708490  1.0  0.1084
  H  H332  1  0.242410  0.842030  0.735570  1.0  0.1056
  H  H333  1  0.329170  0.838190  0.666980  1.0  0.1061
  H  H334  1  0.317970  0.798490  0.693940  1.0  0.107
  H  H335  1  0.341070  0.775610  0.610900  1.0  0.1065
  H  H336  1  0.325490  0.759510  0.658350  1.0  0.1051
  H  H337  1  0.257300  0.908020  0.524080  1.0  0.1066
  H  H338  1  0.214520  0.933760  0.546900  1.0  0.106
  H  H339  1  0.229280  0.843630  0.558950  1.0  0.1016
  H  H340  1  0.187110  0.868980  0.581310  1.0  0.1097
  H  H341  1  0.476220  0.539020  0.407290  1.0  0.1039
  H  H342  1  0.409170  0.515320  0.340370  1.0  0.1094
  H  H343  1  0.435290  0.500730  0.366490  1.0  0.1062
  H  H344  1  0.386950  0.425540  0.321740  1.0  0.105
  H  H345  1  0.432360  0.471310  0.299990  1.0  0.1058
  H  H346  1  0.210610  0.666980  0.171760  1.0  0.1065
  H  H347  1  0.238420  0.582900  0.199500  1.0  0.1065
  H  H348  1  0.253740  0.708490  0.155790  1.0  0.1073
  H  H349  1  0.242410  0.735570  0.179980  1.0  0.1087
  H  H350  1  0.329170  0.666980  0.165670  1.0  0.1071
  H  H351  1  0.317970  0.693940  0.189610  1.0  0.1059
  H  H352  1  0.341070  0.610900  0.272420  1.0  0.1069
  H  H353  1  0.325490  0.658350  0.256650  1.0  0.1052
  H  H354  1  0.257300  0.524080  0.310590  1.0  0.1028
  H  H355  1  0.214520  0.546900  0.304830  1.0  0.1024
  H  H356  1  0.229280  0.558950  0.368140  1.0  0.0996
  H  H357  1  0.187110  0.581310  0.362600  1.0  0.1103
  H  H358  1  0.407290  0.577470  0.476220  1.0  0.1032
  H  H359  1  0.340370  0.735150  0.409170  1.0  0.1082
  H  H360  1  0.366490  0.697490  0.435290  1.0  0.1043
  H  H361  1  0.321740  0.865770  0.386950  1.0  0.1068
  H  H362  1  0.299990  0.796340  0.432360  1.0  0.1055
  H  H363  1  0.171760  0.950640  0.210610  1.0  0.1055
  H  H364  1  0.199500  0.979180  0.238420  1.0  0.106
  H  H365  1  0.155790  0.881990  0.253740  1.0  0.1091
  H  H366  1  0.179980  0.842030  0.242410  1.0  0.1025
  H  H367  1  0.165670  0.838190  0.329170  1.0  0.1049
  H  H368  1  0.189610  0.798490  0.317970  1.0  0.1077
  H  H369  1  0.272420  0.775610  0.341070  1.0  0.107
  H  H370  1  0.256650  0.759510  0.325490  1.0  0.106
  H  H371  1  0.310590  0.908020  0.257300  1.0  0.1049
  H  H372  1  0.304830  0.933760  0.214520  1.0  0.1091
  H  H373  1  0.368140  0.843630  0.229280  1.0  0.1036
  H  H374  1  0.362600  0.868980  0.187110  1.0  0.1085
  H  H375  1  0.577470  0.407290  0.539020  1.0  0.101
  H  H376  1  0.735150  0.340370  0.515320  1.0  0.1099
  H  H377  1  0.697490  0.366490  0.500730  1.0  0.1044
  H  H378  1  0.865770  0.321740  0.425540  1.0  0.1042
  H  H379  1  0.796340  0.299990  0.471310  1.0  0.1043
  H  H380  1  0.950640  0.171760  0.666980  1.0  0.1062
  H  H381  1  0.979180  0.199500  0.582900  1.0  0.1071
  H  H382  1  0.881990  0.155790  0.708490  1.0  0.1076
  H  H383  1  0.842030  0.179980  0.735570  1.0  0.1047
  H  H384  1  0.838190  0.165670  0.666980  1.0  0.1046
  H  H385  1  0.798490  0.189610  0.693940  1.0  0.1064
  H  H386  1  0.775610  0.272420  0.610900  1.0  0.1077
  H  H387  1  0.759510  0.256650  0.658350  1.0  0.1042
  H  H388  1  0.908020  0.310590  0.524080  1.0  0.1026
  H  H389  1  0.933760  0.304830  0.546900  1.0  0.1059
  H  H390  1  0.843630  0.368140  0.558950  1.0  0.1043
  H  H391  1  0.868980  0.362600  0.581310  1.0  0.1101
  H  H392  1  0.539020  0.476220  0.577470  1.0  0.1049
  H  H393  1  0.515320  0.409170  0.735150  1.0  0.1099
  H  H394  1  0.500730  0.435290  0.697490  1.0  0.1064
  H  H395  1  0.425540  0.386950  0.865770  1.0  0.1048
  H  H396  1  0.471310  0.432360  0.796340  1.0  0.105
  H  H397  1  0.666980  0.210610  0.950640  1.0  0.1069
  H  H398  1  0.582900  0.238420  0.979180  1.0  0.1056
  H  H399  1  0.708490  0.253740  0.881990  1.0  0.1082
  H  H400  1  0.735570  0.242410  0.842030  1.0  0.1072
  H  H401  1  0.666980  0.329170  0.838190  1.0  0.1083
  H  H402  1  0.693940  0.317970  0.798490  1.0  0.1081
  H  H403  1  0.610900  0.341070  0.775610  1.0  0.1067
  H  H404  1  0.658350  0.325490  0.759510  1.0  0.1063
  H  H405  1  0.524080  0.257300  0.908020  1.0  0.1052
  H  H406  1  0.546900  0.214520  0.933760  1.0  0.1049
  H  H407  1  0.558950  0.229280  0.843630  1.0  0.1002
  H  H408  1  0.581310  0.187110  0.868980  1.0  0.1098
  H  H409  1  0.842710  0.773780  0.672530  1.0  0.1048
  H  H410  1  0.909630  0.840830  0.514850  1.0  0.11
  H  H411  1  0.883510  0.814710  0.552510  1.0  0.105
  H  H412  1  0.928260  0.863050  0.384230  1.0  0.1068
  H  H413  1  0.950010  0.817640  0.453660  1.0  0.1039
  H  H414  1  0.078240  0.039390  0.299360  1.0  0.1062
  H  H415  1  0.050500  0.011580  0.270820  1.0  0.1054
  H  H416  1  0.094210  0.996260  0.368010  1.0  0.1089
  H  H417  1  0.070020  0.007590  0.407970  1.0  0.1087
  H  H418  1  0.084330  0.920830  0.411810  1.0  0.1064
  H  H419  1  0.060390  0.932030  0.451510  1.0  0.1079
  H  H420  1  0.977580  0.908930  0.474390  1.0  0.1081
  H  H421  1  0.993350  0.924510  0.490490  1.0  0.1067
  H  H422  1  0.939410  0.992700  0.341980  1.0  0.1057
  H  H423  1  0.945170  0.035480  0.316240  1.0  0.1061
  H  H424  1  0.881860  0.020720  0.406370  1.0  0.1034
  H  H425  1  0.887400  0.062890  0.381020  1.0  0.109
  H  H426  1  0.773780  0.842710  0.710980  1.0  0.1061
  H  H427  1  0.840830  0.909630  0.734680  1.0  0.1099
  H  H428  1  0.814710  0.883510  0.749270  1.0  0.104
  H  H429  1  0.863050  0.928260  0.824460  1.0  0.1056
  H  H430  1  0.817640  0.950010  0.778690  1.0  0.1029
  H  H431  1  0.039390  0.078240  0.583020  1.0  0.1068
  H  H432  1  0.011580  0.050500  0.667100  1.0  0.1077
  H  H433  1  0.996260  0.094210  0.541510  1.0  0.1072
  H  H434  1  0.007590  0.070020  0.514430  1.0  0.1072
  H  H435  1  0.920830  0.084330  0.583020  1.0  0.1056
  H  H436  1  0.932030  0.060390  0.556060  1.0  0.1054
  H  H437  1  0.908930  0.977580  0.639100  1.0  0.108
  H  H438  1  0.924510  0.993350  0.591650  1.0  0.1063
  H  H439  1  0.992700  0.939410  0.725920  1.0  0.1071
  H  H440  1  0.035480  0.945170  0.703100  1.0  0.1043
  H  H441  1  0.020720  0.881860  0.691050  1.0  0.1024
  H  H442  1  0.062890  0.887400  0.668690  1.0  0.1106
  H  H443  1  0.710980  0.672530  0.773780  1.0  0.1022
  H  H444  1  0.734680  0.514850  0.840830  1.0  0.1078
  H  H445  1  0.749270  0.552510  0.814710  1.0  0.1029
  H  H446  1  0.824460  0.384230  0.863050  1.0  0.1048
  H  H447  1  0.778690  0.453660  0.817640  1.0  0.107
  H  H448  1  0.583020  0.299360  0.039390  1.0  0.1069
  H  H449  1  0.667100  0.270820  0.011580  1.0  0.1053
  H  H450  1  0.541510  0.368010  0.996260  1.0  0.108
  H  H451  1  0.514430  0.407970  0.007590  1.0  0.1041
  H  H452  1  0.583020  0.411810  0.920830  1.0  0.1063
  H  H453  1  0.556060  0.451510  0.932030  1.0  0.1081
  H  H454  1  0.639100  0.474390  0.908930  1.0  0.1061
  H  H455  1  0.591650  0.490490  0.924510  1.0  0.1043
  H  H456  1  0.725920  0.341980  0.992700  1.0  0.1054
  H  H457  1  0.703100  0.316240  0.035480  1.0  0.1058
  H  H458  1  0.691050  0.406370  0.020720  1.0  0.1037
  H  H459  1  0.668690  0.381020  0.062890  1.0  0.1098
  H  H460  1  0.672530  0.710980  0.842710  1.0  0.1013
  H  H461  1  0.514850  0.734680  0.909630  1.0  0.1085
  H  H462  1  0.552510  0.749270  0.883510  1.0  0.1038
  H  H463  1  0.384230  0.824460  0.928260  1.0  0.1041
  H  H464  1  0.453660  0.778690  0.950010  1.0  0.1069
  H  H465  1  0.299360  0.583020  0.078240  1.0  0.1056
  H  H466  1  0.270820  0.667100  0.050500  1.0  0.1077
  H  H467  1  0.368010  0.541510  0.094210  1.0  0.1074
  H  H468  1  0.407970  0.514430  0.070020  1.0  0.1047
  H  H469  1  0.411810  0.583020  0.084330  1.0  0.1055
  H  H470  1  0.451510  0.556060  0.060390  1.0  0.108
  H  H471  1  0.474390  0.639100  0.977580  1.0  0.1093
  H  H472  1  0.490490  0.591650  0.993350  1.0  0.1051
  H  H473  1  0.341980  0.725920  0.939410  1.0  0.1024
  H  H474  1  0.316240  0.703100  0.945170  1.0  0.1042
  H  H475  1  0.406370  0.691050  0.881860  1.0  0.1027
  H  H476  1  0.381020  0.668690  0.887400  1.0  0.1095
  H  H477  1  0.710980  0.842710  0.672530  1.0  0.1025
  H  H478  1  0.734680  0.909630  0.514850  1.0  0.1116
  H  H479  1  0.749270  0.883510  0.552510  1.0  0.1056
  H  H480  1  0.824460  0.928260  0.384230  1.0  0.1033
  H  H481  1  0.778690  0.950010  0.453660  1.0  0.1056
  H  H482  1  0.583020  0.078240  0.299360  1.0  0.1047
  H  H483  1  0.667100  0.050500  0.270820  1.0  0.1072
  H  H484  1  0.541510  0.094210  0.368010  1.0  0.1067
  H  H485  1  0.514430  0.070020  0.407970  1.0  0.1051
  H  H486  1  0.583020  0.084330  0.411810  1.0  0.1066
  H  H487  1  0.556060  0.060390  0.451510  1.0  0.107
  H  H488  1  0.639100  0.977580  0.474390  1.0  0.1112
  H  H489  1  0.591650  0.993350  0.490490  1.0  0.1074
  H  H490  1  0.725920  0.939410  0.341980  1.0  0.1046
  H  H491  1  0.703100  0.945170  0.316240  1.0  0.1035
  H  H492  1  0.691050  0.881860  0.406370  1.0  0.102
  H  H493  1  0.668690  0.887400  0.381020  1.0  0.1096
  H  H494  1  0.672530  0.773780  0.710980  1.0  0.1045
  H  H495  1  0.514850  0.840830  0.734680  1.0  0.1097
  H  H496  1  0.552510  0.814710  0.749270  1.0  0.1047
  H  H497  1  0.384230  0.863050  0.824460  1.0  0.1053
  H  H498  1  0.453660  0.817640  0.778690  1.0  0.1048
  H  H499  1  0.299360  0.039390  0.583020  1.0  0.1069
  H  H500  1  0.270820  0.011580  0.667100  1.0  0.1063
  H  H501  1  0.368010  0.996260  0.541510  1.0  0.1106
  H  H502  1  0.407970  0.007590  0.514430  1.0  0.1062
  H  H503  1  0.411810  0.920830  0.583020  1.0  0.1048
  H  H504  1  0.451510  0.932030  0.556060  1.0  0.1076
  H  H505  1  0.474390  0.908930  0.639100  1.0  0.1069
  H  H506  1  0.490490  0.924510  0.591650  1.0  0.1059
  H  H507  1  0.341980  0.992700  0.725920  1.0  0.1061
  H  H508  1  0.316240  0.035480  0.703100  1.0  0.1048
  H  H509  1  0.406370  0.020720  0.691050  1.0  0.1023
  H  H510  1  0.381020  0.062890  0.668690  1.0  0.1101
  H  H511  1  0.842710  0.710980  0.773780  1.0  0.104
  H  H512  1  0.909630  0.734680  0.840830  1.0  0.1089
  H  H513  1  0.883510  0.749270  0.814710  1.0  0.1037
  H  H514  1  0.928260  0.824460  0.863050  1.0  0.104
  H  H515  1  0.950010  0.778690  0.817640  1.0  0.1049
  H  H516  1  0.078240  0.583020  0.039390  1.0  0.1056
  H  H517  1  0.050500  0.667100  0.011580  1.0  0.1077
  H  H518  1  0.094210  0.541510  0.996260  1.0  0.1067
  H  H519  1  0.070020  0.514430  0.007590  1.0  0.1084
  H  H520  1  0.084330  0.583020  0.920830  1.0  0.1064
  H  H521  1  0.060390  0.556060  0.932030  1.0  0.1053
  H  H522  1  0.977580  0.639100  0.908930  1.0  0.1086
  H  H523  1  0.993350  0.591650  0.924510  1.0  0.1057
  H  H524  1  0.939410  0.725920  0.992700  1.0  0.1071
  H  H525  1  0.945170  0.703100  0.035480  1.0  0.1041
  H  H526  1  0.881860  0.691050  0.020720  1.0  0.1008
  H  H527  1  0.887400  0.668690  0.062890  1.0  0.1091
  H  H528  1  0.773780  0.672530  0.842710  1.0  0.1048
  H  H529  1  0.840830  0.514850  0.909630  1.0  0.1094
  H  H530  1  0.814710  0.552510  0.883510  1.0  0.1043
  H  H531  1  0.863050  0.384230  0.928260  1.0  0.1069
  H  H532  1  0.817640  0.453660  0.950010  1.0  0.1056
  H  H533  1  0.039390  0.299360  0.078240  1.0  0.105
  H  H534  1  0.011580  0.270820  0.050500  1.0  0.1038
  H  H535  1  0.996260  0.368010  0.094210  1.0  0.1082
  H  H536  1  0.007590  0.407970  0.070020  1.0  0.1075
  H  H537  1  0.920830  0.411810  0.084330  1.0  0.1059
  H  H538  1  0.932030  0.451510  0.060390  1.0  0.1073
  H  H539  1  0.908930  0.474390  0.977580  1.0  0.1085
  H  H540  1  0.924510  0.490490  0.993350  1.0  0.1056
  H  H541  1  0.992700  0.341980  0.939410  1.0  0.1062
  H  H542  1  0.035480  0.316240  0.945170  1.0  0.1067
  H  H543  1  0.020720  0.406370  0.881860  1.0  0.1043
  H  H544  1  0.062890  0.381020  0.887400  1.0  0.1102
  H  H545  1  0.773780  0.710980  0.672530  1.0  0.1027
  H  H546  1  0.840830  0.734680  0.514850  1.0  0.1086
  H  H547  1  0.814710  0.749270  0.552510  1.0  0.1037
  H  H548  1  0.863050  0.824460  0.384230  1.0  0.1045
  H  H549  1  0.817640  0.778690  0.453660  1.0  0.1052
  H  H550  1  0.039390  0.583020  0.299360  1.0  0.1076
  H  H551  1  0.011580  0.667100  0.270820  1.0  0.1063
  H  H552  1  0.996260  0.541510  0.368010  1.0  0.1073
  H  H553  1  0.007590  0.514430  0.407970  1.0  0.1075
  H  H554  1  0.920830  0.583020  0.411810  1.0  0.1068
  H  H555  1  0.932030  0.556060  0.451510  1.0  0.1059
  H  H556  1  0.908930  0.639100  0.474390  1.0  0.1058
  H  H557  1  0.924510  0.591650  0.490490  1.0  0.104
  H  H558  1  0.992700  0.725920  0.341980  1.0  0.1061
  H  H559  1  0.035480  0.703100  0.316240  1.0  0.1033
  H  H560  1  0.020720  0.691050  0.406370  1.0  0.0997
  H  H561  1  0.062890  0.668690  0.381020  1.0  0.1112
  H  H562  1  0.842710  0.672530  0.710980  1.0  0.1008
  H  H563  1  0.909630  0.514850  0.734680  1.0  0.1097
  H  H564  1  0.883510  0.552510  0.749270  1.0  0.1031
  H  H565  1  0.928260  0.384230  0.824460  1.0  0.1053
  H  H566  1  0.950010  0.453660  0.778690  1.0  0.106
  H  H567  1  0.078240  0.299360  0.583020  1.0  0.1063
  H  H568  1  0.050500  0.270820  0.667100  1.0  0.1061
  H  H569  1  0.094210  0.368010  0.541510  1.0  0.1085
  H  H570  1  0.070020  0.407970  0.514430  1.0  0.1036
  H  H571  1  0.084330  0.411810  0.583020  1.0  0.1045
  H  H572  1  0.060390  0.451510  0.556060  1.0  0.1083
  H  H573  1  0.977580  0.474390  0.639100  1.0  0.1104
  H  H574  1  0.993350  0.490490  0.591650  1.0  0.1055
  H  H575  1  0.939410  0.341980  0.725920  1.0  0.104
  H  H576  1  0.945170  0.316240  0.703100  1.0  0.106
  H  H577  1  0.881860  0.406370  0.691050  1.0  0.1035
  H  H578  1  0.887400  0.381020  0.668690  1.0  0.1084
  H  H579  1  0.672530  0.842710  0.773780  1.0  0.1051
  H  H580  1  0.514850  0.909630  0.840830  1.0  0.11
  H  H581  1  0.552510  0.883510  0.814710  1.0  0.1045
  H  H582  1  0.384230  0.928260  0.863050  1.0  0.1047
  H  H583  1  0.453660  0.950010  0.817640  1.0  0.1045
  H  H584  1  0.299360  0.078240  0.039390  1.0  0.1058
  H  H585  1  0.270820  0.050500  0.011580  1.0  0.1032
  H  H586  1  0.368010  0.094210  0.996260  1.0  0.1064
  H  H587  1  0.407970  0.070020  0.007590  1.0  0.1053
  H  H588  1  0.411810  0.084330  0.920830  1.0  0.105
  H  H589  1  0.451510  0.060390  0.932030  1.0  0.1067
  H  H590  1  0.474390  0.977580  0.908930  1.0  0.1088
  H  H591  1  0.490490  0.993350  0.924510  1.0  0.1067
  H  H592  1  0.341980  0.939410  0.992700  1.0  0.1053
  H  H593  1  0.316240  0.945170  0.035480  1.0  0.1068
  H  H594  1  0.406370  0.881860  0.020720  1.0  0.1053
  H  H595  1  0.381020  0.887400  0.062890  1.0  0.1103
  H  H596  1  0.710980  0.773780  0.842710  1.0  0.1054
  H  H597  1  0.734680  0.840830  0.909630  1.0  0.1098
  H  H598  1  0.749270  0.814710  0.883510  1.0  0.1044
  H  H599  1  0.824460  0.863050  0.928260  1.0  0.1054
  H  H600  1  0.778690  0.817640  0.950010  1.0  0.1045
  H  H601  1  0.583020  0.039390  0.078240  1.0  0.1039
  H  H602  1  0.667100  0.011580  0.050500  1.0  0.1085
  H  H603  1  0.541510  0.996260  0.094210  1.0  0.109
  H  H604  1  0.514430  0.007590  0.070020  1.0  0.1102
  H  H605  1  0.583020  0.920830  0.084330  1.0  0.1071
  H  H606  1  0.556060  0.932030  0.060390  1.0  0.1066
  H  H607  1  0.639100  0.908930  0.977580  1.0  0.1077
  H  H608  1  0.591650  0.924510  0.993350  1.0  0.1058
  H  H609  1  0.725920  0.992700  0.939410  1.0  0.1062
  H  H610  1  0.703100  0.035480  0.945170  1.0  0.1031
  H  H611  1  0.691050  0.020720  0.881860  1.0  0.1001
  H  H612  1  0.668690  0.062890  0.887400  1.0  0.11
  H  H613  1  0.842710  0.773780  0.710980  1.0  0.1044
  H  H614  1  0.909630  0.840830  0.734680  1.0  0.1093
  H  H615  1  0.883510  0.814710  0.749270  1.0  0.1039
  H  H616  1  0.928260  0.863050  0.824460  1.0  0.1065
  H  H617  1  0.950010  0.817640  0.778690  1.0  0.1038
  H  H618  1  0.078240  0.039390  0.583020  1.0  0.1062
  H  H619  1  0.050500  0.011580  0.667100  1.0  0.1082
  H  H620  1  0.094210  0.996260  0.541510  1.0  0.1086
  H  H621  1  0.070020  0.007590  0.514430  1.0  0.1091
  H  H622  1  0.084330  0.920830  0.583020  1.0  0.1061
  H  H623  1  0.060390  0.932030  0.556060  1.0  0.1071
  H  H624  1  0.977580  0.908930  0.639100  1.0  0.1079
  H  H625  1  0.993350  0.924510  0.591650  1.0  0.1063
  H  H626  1  0.939410  0.992700  0.725920  1.0  0.1071
  H  H627  1  0.945170  0.035480  0.703100  1.0  0.1043
  H  H628  1  0.881860  0.020720  0.691050  1.0  0.1021
  H  H629  1  0.887400  0.062890  0.668690  1.0  0.1085
  H  H630  1  0.773780  0.842710  0.672530  1.0  0.1056
  H  H631  1  0.840830  0.909630  0.514850  1.0  0.1096
  H  H632  1  0.814710  0.883510  0.552510  1.0  0.1045
  H  H633  1  0.863050  0.928260  0.384230  1.0  0.1062
  H  H634  1  0.817640  0.950010  0.453660  1.0  0.1034
  H  H635  1  0.039390  0.078240  0.299360  1.0  0.1063
  H  H636  1  0.011580  0.050500  0.270820  1.0  0.1049
  H  H637  1  0.996260  0.094210  0.368010  1.0  0.1076
  H  H638  1  0.007590  0.070020  0.407970  1.0  0.1068
  H  H639  1  0.920830  0.084330  0.411810  1.0  0.1063
  H  H640  1  0.932030  0.060390  0.451510  1.0  0.106
  H  H641  1  0.908930  0.977580  0.474390  1.0  0.1085
  H  H642  1  0.924510  0.993350  0.490490  1.0  0.106
  H  H643  1  0.992700  0.939410  0.341980  1.0  0.1068
  H  H644  1  0.035480  0.945170  0.316240  1.0  0.1062
  H  H645  1  0.020720  0.881860  0.406370  1.0  0.1042
  H  H646  1  0.062890  0.887400  0.381020  1.0  0.111
  H  H647  1  0.710980  0.672530  0.842710  1.0  0.1006
  H  H648  1  0.734680  0.514850  0.909630  1.0  0.1088
  H  H649  1  0.749270  0.552510  0.883510  1.0  0.1023
  H  H650  1  0.824460  0.384230  0.928260  1.0  0.105
  H  H651  1  0.778690  0.453660  0.950010  1.0  0.1075
  H  H652  1  0.583020  0.299360  0.078240  1.0  0.1042
  H  H653  1  0.667100  0.270820  0.050500  1.0  0.1069
  H  H654  1  0.541510  0.368010  0.094210  1.0  0.1079
  H  H655  1  0.514430  0.407970  0.070020  1.0  0.1043
  H  H656  1  0.583020  0.411810  0.084330  1.0  0.1064
  H  H657  1  0.556060  0.451510  0.060390  1.0  0.109
  H  H658  1  0.639100  0.474390  0.977580  1.0  0.1101
  H  H659  1  0.591650  0.490490  0.993350  1.0  0.1052
  H  H660  1  0.725920  0.341980  0.939410  1.0  0.1034
  H  H661  1  0.703100  0.316240  0.945170  1.0  0.1047
  H  H662  1  0.691050  0.406370  0.881860  1.0  0.1042
  H  H663  1  0.668690  0.381020  0.887400  1.0  0.1097
  H  H664  1  0.672530  0.710980  0.773780  1.0  0.1023
  H  H665  1  0.514850  0.734680  0.840830  1.0  0.1077
  H  H666  1  0.552510  0.749270  0.814710  1.0  0.1038
  H  H667  1  0.384230  0.824460  0.863050  1.0  0.1037
  H  H668  1  0.453660  0.778690  0.817640  1.0  0.1055
  H  H669  1  0.299360  0.583020  0.039390  1.0  0.1073
  H  H670  1  0.270820  0.667100  0.011580  1.0  0.1058
  H  H671  1  0.368010  0.541510  0.996260  1.0  0.107
  H  H672  1  0.407970  0.514430  0.007590  1.0  0.1045
  H  H673  1  0.411810  0.583020  0.920830  1.0  0.1059
  H  H674  1  0.451510  0.556060  0.932030  1.0  0.1073
  H  H675  1  0.474390  0.639100  0.908930  1.0  0.1055
  H  H676  1  0.490490  0.591650  0.924510  1.0  0.1041
  H  H677  1  0.341980  0.725920  0.992700  1.0  0.1051
  H  H678  1  0.316240  0.703100  0.035480  1.0  0.1054
  H  H679  1  0.406370  0.691050  0.020720  1.0  0.1024
  H  H680  1  0.381020  0.668690  0.062890  1.0  0.1095
  H  H681  1  0.710980  0.842710  0.773780  1.0  0.1067
  H  H682  1  0.734680  0.909630  0.840830  1.0  0.1105
  H  H683  1  0.749270  0.883510  0.814710  1.0  0.104
  H  H684  1  0.824460  0.928260  0.863050  1.0  0.104
  H  H685  1  0.778690  0.950010  0.817640  1.0  0.1044
  H  H686  1  0.583020  0.078240  0.039390  1.0  0.1043
  H  H687  1  0.667100  0.050500  0.011580  1.0  0.1071
  H  H688  1  0.541510  0.094210  0.996260  1.0  0.1066
  H  H689  1  0.514430  0.070020  0.007590  1.0  0.107
  H  H690  1  0.583020  0.084330  0.920830  1.0  0.107
  H  H691  1  0.556060  0.060390  0.932030  1.0  0.1055
  H  H692  1  0.639100  0.977580  0.908930  1.0  0.1091
  H  H693  1  0.591650  0.993350  0.924510  1.0  0.1061
  H  H694  1  0.725920  0.939410  0.992700  1.0  0.1071
  H  H695  1  0.703100  0.945170  0.035480  1.0  0.1033
  H  H696  1  0.691050  0.881860  0.020720  1.0  0.1008
  H  H697  1  0.668690  0.887400  0.062890  1.0  0.1094
  H  H698  1  0.672530  0.773780  0.842710  1.0  0.106
  H  H699  1  0.514850  0.840830  0.909630  1.0  0.1101
  H  H700  1  0.552510  0.814710  0.883510  1.0  0.1055
  H  H701  1  0.384230  0.863050  0.928260  1.0  0.1062
  H  H702  1  0.453660  0.817640  0.950010  1.0  0.105
  H  H703  1  0.299360  0.039390  0.078240  1.0  0.1053
  H  H704  1  0.270820  0.011580  0.050500  1.0  0.104
  H  H705  1  0.368010  0.996260  0.094210  1.0  0.1108
  H  H706  1  0.407970  0.007590  0.070020  1.0  0.1089
  H  H707  1  0.411810  0.920830  0.084330  1.0  0.1048
  H  H708  1  0.451510  0.932030  0.060390  1.0  0.108
  H  H709  1  0.474390  0.908930  0.977580  1.0  0.1094
  H  H710  1  0.490490  0.924510  0.993350  1.0  0.1066
  H  H711  1  0.341980  0.992700  0.939410  1.0  0.1065
  H  H712  1  0.316240  0.035480  0.945170  1.0  0.1054
  H  H713  1  0.406370  0.020720  0.881860  1.0  0.1034
  H  H714  1  0.381020  0.062890  0.887400  1.0  0.1103
  H  H715  1  0.842710  0.710980  0.672530  1.0  0.1007
  H  H716  1  0.909630  0.734680  0.514850  1.0  0.1094
  H  H717  1  0.883510  0.749270  0.552510  1.0  0.1045
  H  H718  1  0.928260  0.824460  0.384230  1.0  0.1029
  H  H719  1  0.950010  0.778690  0.453660  1.0  0.1065
  H  H720  1  0.078240  0.583020  0.299360  1.0  0.1067
  H  H721  1  0.050500  0.667100  0.270820  1.0  0.1078
  H  H722  1  0.094210  0.541510  0.368010  1.0  0.1076
  H  H723  1  0.070020  0.514430  0.407970  1.0  0.106
  H  H724  1  0.084330  0.583020  0.411810  1.0  0.1061
  H  H725  1  0.060390  0.556060  0.451510  1.0  0.1068
  H  H726  1  0.977580  0.639100  0.474390  1.0  0.11
  H  H727  1  0.993350  0.591650  0.490490  1.0  0.1065
  H  H728  1  0.939410  0.725920  0.341980  1.0  0.105
  H  H729  1  0.945170  0.703100  0.316240  1.0  0.1039
  H  H730  1  0.881860  0.691050  0.406370  1.0  0.1016
  H  H731  1  0.887400  0.668690  0.381020  1.0  0.1092
  H  H732  1  0.773780  0.672530  0.710980  1.0  0.1034
  H  H733  1  0.840830  0.514850  0.734680  1.0  0.1089
  H  H734  1  0.814710  0.552510  0.749270  1.0  0.1035
  H  H735  1  0.863050  0.384230  0.824460  1.0  0.1061
  H  H736  1  0.817640  0.453660  0.778690  1.0  0.1051
  H  H737  1  0.039390  0.299360  0.583020  1.0  0.1067
  H  H738  1  0.011580  0.270820  0.667100  1.0  0.1054
  H  H739  1  0.996260  0.368010  0.541510  1.0  0.1082
  H  H740  1  0.007590  0.407970  0.514430  1.0  0.1049
  H  H741  1  0.920830  0.411810  0.583020  1.0  0.1054
  H  H742  1  0.932030  0.451510  0.556060  1.0  0.1065
  H  H743  1  0.908930  0.474390  0.639100  1.0  0.1064
  H  H744  1  0.924510  0.490490  0.591650  1.0  0.1045
  H  H745  1  0.992700  0.341980  0.725920  1.0  0.1061
  H  H746  1  0.035480  0.316240  0.703100  1.0  0.1061
  H  H747  1  0.020720  0.406370  0.691050  1.0  0.1026
  H  H748  1  0.062890  0.381020  0.668690  1.0  0.1099
  H  H749  1  0.773780  0.710980  0.842710  1.0  0.105
  H  H750  1  0.840830  0.734680  0.909630  1.0  0.1091
  H  H751  1  0.814710  0.749270  0.883510  1.0  0.1034
  H  H752  1  0.863050  0.824460  0.928260  1.0  0.1048
  H  H753  1  0.817640  0.778690  0.950010  1.0  0.1051
  H  H754  1  0.039390  0.583020  0.078240  1.0  0.1061
  H  H755  1  0.011580  0.667100  0.050500  1.0  0.1083
  H  H756  1  0.996260  0.541510  0.094210  1.0  0.1072
  H  H757  1  0.007590  0.514430  0.070020  1.0  0.1093
  H  H758  1  0.920830  0.583020  0.084330  1.0  0.1063
  H  H759  1  0.932030  0.556060  0.060390  1.0  0.1055
  H  H760  1  0.908930  0.639100  0.977580  1.0  0.1083
  H  H761  1  0.924510  0.591650  0.993350  1.0  0.105
  H  H762  1  0.992700  0.725920  0.939410  1.0  0.1068
  H  H763  1  0.035480  0.703100  0.945170  1.0  0.1025
  H  H764  1  0.020720  0.691050  0.881860  1.0  0.0985
  H  H765  1  0.062890  0.668690  0.887400  1.0  0.1103
  H  H766  1  0.842710  0.672530  0.773780  1.0  0.1035
  H  H767  1  0.909630  0.514850  0.840830  1.0  0.1095
  H  H768  1  0.883510  0.552510  0.814710  1.0  0.1039
  H  H769  1  0.928260  0.384230  0.863050  1.0  0.1058
  H  H770  1  0.950010  0.453660  0.817640  1.0  0.1053
  H  H771  1  0.078240  0.299360  0.039390  1.0  0.1059
  H  H772  1  0.050500  0.270820  0.011580  1.0  0.1033
  H  H773  1  0.094210  0.368010  0.996260  1.0  0.1082
  H  H774  1  0.070020  0.407970  0.007590  1.0  0.1045
  H  H775  1  0.084330  0.411810  0.920830  1.0  0.1043
  H  H776  1  0.060390  0.451510  0.932030  1.0  0.1076
  H  H777  1  0.977580  0.474390  0.908930  1.0  0.1087
  H  H778  1  0.993350  0.490490  0.924510  1.0  0.1059
  H  H779  1  0.939410  0.341980  0.992700  1.0  0.1055
  H  H780  1  0.945170  0.316240  0.035480  1.0  0.1084
  H  H781  1  0.881860  0.406370  0.020720  1.0  0.1043
  H  H782  1  0.887400  0.381020  0.062890  1.0  0.1088
  H  H783  1  0.672530  0.842710  0.710980  1.0  0.1017
  H  H784  1  0.514850  0.909630  0.734680  1.0  0.11
  H  H785  1  0.552510  0.883510  0.749270  1.0  0.104
  H  H786  1  0.384230  0.928260  0.824460  1.0  0.1043
  H  H787  1  0.453660  0.950010  0.778690  1.0  0.1057
  H  H788  1  0.299360  0.078240  0.583020  1.0  0.1067
  H  H789  1  0.270820  0.050500  0.667100  1.0  0.1064
  H  H790  1  0.368010  0.094210  0.541510  1.0  0.1073
  H  H791  1  0.407970  0.070020  0.514430  1.0  0.1036
  H  H792  1  0.411810  0.084330  0.583020  1.0  0.1046
  H  H793  1  0.451510  0.060390  0.556060  1.0  0.107
  H  H794  1  0.474390  0.977580  0.639100  1.0  0.1108
  H  H795  1  0.490490  0.993350  0.591650  1.0  0.1071
  H  H796  1  0.341980  0.939410  0.725920  1.0  0.1031
  H  H797  1  0.316240  0.945170  0.703100  1.0  0.105
  H  H798  1  0.406370  0.881860  0.691050  1.0  0.1043
  H  H799  1  0.381020  0.887400  0.668690  1.0  0.1097
  H  H800  1  0.710980  0.773780  0.672530  1.0  0.1031
  H  H801  1  0.734680  0.840830  0.514850  1.0  0.1092
  H  H802  1  0.749270  0.814710  0.552510  1.0  0.1047
  H  H803  1  0.824460  0.863050  0.384230  1.0  0.1055
  H  H804  1  0.778690  0.817640  0.453660  1.0  0.1043
  H  H805  1  0.583020  0.039390  0.299360  1.0  0.1065
  H  H806  1  0.667100  0.011580  0.270820  1.0  0.1062
  H  H807  1  0.541510  0.996260  0.368010  1.0  0.1086
  H  H808  1  0.514430  0.007590  0.407970  1.0  0.1078
  H  H809  1  0.583020  0.920830  0.411810  1.0  0.1075
  H  H810  1  0.556060  0.932030  0.451510  1.0  0.1074
  H  H811  1  0.639100  0.908930  0.474390  1.0  0.1055
  H  H812  1  0.591650  0.924510  0.490490  1.0  0.1051
  H  H813  1  0.725920  0.992700  0.341980  1.0  0.1051
  H  H814  1  0.703100  0.035480  0.316240  1.0  0.1039
  H  H815  1  0.691050  0.020720  0.406370  1.0  0.1012
  H  H816  1  0.668690  0.062890  0.381020  1.0  0.1104
  H  H817  1  0.407290  0.476220  0.577470  1.0  0.1043
  H  H818  1  0.340370  0.409170  0.735150  1.0  0.1079
  H  H819  1  0.366490  0.435290  0.697490  1.0  0.1058
  H  H820  1  0.321740  0.386950  0.865770  1.0  0.1074
  H  H821  1  0.299990  0.432360  0.796340  1.0  0.1039
  H  H822  1  0.171760  0.210610  0.950640  1.0  0.1058
  H  H823  1  0.199500  0.238420  0.979180  1.0  0.1069
  H  H824  1  0.155790  0.253740  0.881990  1.0  0.1085
  H  H825  1  0.179980  0.242410  0.842030  1.0  0.1056
  H  H826  1  0.165670  0.329170  0.838190  1.0  0.1066
  H  H827  1  0.189610  0.317970  0.798490  1.0  0.1083
  H  H828  1  0.272420  0.341070  0.775610  1.0  0.1069
  H  H829  1  0.256650  0.325490  0.759510  1.0  0.1076
  H  H830  1  0.310590  0.257300  0.908020  1.0  0.1037
  H  H831  1  0.304830  0.214520  0.933760  1.0  0.1053
  H  H832  1  0.368140  0.229280  0.843630  1.0  0.1037
  H  H833  1  0.362600  0.187110  0.868980  1.0  0.1091
  H  H834  1  0.476220  0.407290  0.539020  1.0  0.1046
  H  H835  1  0.409170  0.340370  0.515320  1.0  0.11
  H  H836  1  0.435290  0.366490  0.500730  1.0  0.1063
  H  H837  1  0.386950  0.321740  0.425540  1.0  0.1044
  H  H838  1  0.432360  0.299990  0.471310  1.0  0.1033
  H  H839  1  0.210610  0.171760  0.666980  1.0  0.1075
  H  H840  1  0.238420  0.199500  0.582900  1.0  0.1071
  H  H841  1  0.253740  0.155790  0.708490  1.0  0.1068
  H  H842  1  0.242410  0.179980  0.735570  1.0  0.1061
  H  H843  1  0.329170  0.165670  0.666980  1.0  0.1067
  H  H844  1  0.317970  0.189610  0.693940  1.0  0.1059
  H  H845  1  0.341070  0.272420  0.610900  1.0  0.1068
  H  H846  1  0.325490  0.256650  0.658350  1.0  0.1045
  H  H847  1  0.257300  0.310590  0.524080  1.0  0.1032
  H  H848  1  0.214520  0.304830  0.546900  1.0  0.1036
  H  H849  1  0.229280  0.368140  0.558950  1.0  0.1025
  H  H850  1  0.187110  0.362600  0.581310  1.0  0.1113
  H  H851  1  0.539020  0.577470  0.476220  1.0  0.103
  H  H852  1  0.515320  0.735150  0.409170  1.0  0.1094
  H  H853  1  0.500730  0.697490  0.435290  1.0  0.1034
  H  H854  1  0.425540  0.865770  0.386950  1.0  0.1049
  H  H855  1  0.471310  0.796340  0.432360  1.0  0.1062
  H  H856  1  0.666980  0.950640  0.210610  1.0  0.1077
  H  H857  1  0.582900  0.979180  0.238420  1.0  0.1058
  H  H858  1  0.708490  0.881990  0.253740  1.0  0.1093
  H  H859  1  0.735570  0.842030  0.242410  1.0  0.1045
  H  H860  1  0.666980  0.838190  0.329170  1.0  0.106
  H  H861  1  0.693940  0.798490  0.317970  1.0  0.1085
  H  H862  1  0.610900  0.775610  0.341070  1.0  0.1064
  H  H863  1  0.658350  0.759510  0.325490  1.0  0.1045
  H  H864  1  0.524080  0.908020  0.257300  1.0  0.1055
  H  H865  1  0.546900  0.933760  0.214520  1.0  0.106
  H  H866  1  0.558950  0.843630  0.229280  1.0  0.1028
  H  H867  1  0.581310  0.868980  0.187110  1.0  0.1096
  H  H868  1  0.577470  0.539020  0.407290  1.0  0.1013
  H  H869  1  0.735150  0.515320  0.340370  1.0  0.1079
  H  H870  1  0.697490  0.500730  0.366490  1.0  0.1044
  H  H871  1  0.865770  0.425540  0.321740  1.0  0.1043
  H  H872  1  0.796340  0.471310  0.299990  1.0  0.1059
  H  H873  1  0.950640  0.666980  0.171760  1.0  0.1068
  H  H874  1  0.979180  0.582900  0.199500  1.0  0.1075
  H  H875  1  0.881990  0.708490  0.155790  1.0  0.108
  H  H876  1  0.842030  0.735570  0.179980  1.0  0.1055
  H  H877  1  0.838190  0.666980  0.165670  1.0  0.1048
  H  H878  1  0.798490  0.693940  0.189610  1.0  0.1078
  H  H879  1  0.775610  0.610900  0.272420  1.0  0.1061
  H  H880  1  0.759510  0.658350  0.256650  1.0  0.1038
  H  H881  1  0.908020  0.524080  0.310590  1.0  0.1026
  H  H882  1  0.933760  0.546900  0.304830  1.0  0.1042
  H  H883  1  0.843630  0.558950  0.368140  1.0  0.103
  H  H884  1  0.868980  0.581310  0.362600  1.0  0.1093
  H  H885  1  0.539020  0.407290  0.577470  1.0  0.1021
  H  H886  1  0.515320  0.340370  0.735150  1.0  0.1108
  H  H887  1  0.500730  0.366490  0.697490  1.0  0.1058
  H  H888  1  0.425540  0.321740  0.865770  1.0  0.1044
  H  H889  1  0.471310  0.299990  0.796340  1.0  0.1049
  H  H890  1  0.666980  0.171760  0.950640  1.0  0.1053
  H  H891  1  0.582900  0.199500  0.979180  1.0  0.1063
  H  H892  1  0.708490  0.155790  0.881990  1.0  0.1062
  H  H893  1  0.735570  0.179980  0.842030  1.0  0.1059
  H  H894  1  0.666980  0.165670  0.838190  1.0  0.1064
  H  H895  1  0.693940  0.189610  0.798490  1.0  0.1062
  H  H896  1  0.610900  0.272420  0.775610  1.0  0.1073
  H  H897  1  0.658350  0.256650  0.759510  1.0  0.1046
  H  H898  1  0.524080  0.310590  0.908020  1.0  0.1035
  H  H899  1  0.546900  0.304830  0.933760  1.0  0.1037
  H  H900  1  0.558950  0.368140  0.843630  1.0  0.1027
  H  H901  1  0.581310  0.362600  0.868980  1.0  0.1113
  H  H902  1  0.577470  0.476220  0.539020  1.0  0.106
  H  H903  1  0.735150  0.409170  0.515320  1.0  0.1103
  H  H904  1  0.697490  0.435290  0.500730  1.0  0.1058
  H  H905  1  0.865770  0.386950  0.425540  1.0  0.105
  H  H906  1  0.796340  0.432360  0.471310  1.0  0.104
  H  H907  1  0.950640  0.210610  0.666980  1.0  0.1067
  H  H908  1  0.979180  0.238420  0.582900  1.0  0.1058
  H  H909  1  0.881990  0.253740  0.708490  1.0  0.1094
  H  H910  1  0.842030  0.242410  0.735570  1.0  0.1058
  H  H911  1  0.838190  0.329170  0.666980  1.0  0.1058
  H  H912  1  0.798490  0.317970  0.693940  1.0  0.1098
  H  H913  1  0.775610  0.341070  0.610900  1.0  0.1074
  H  H914  1  0.759510  0.325490  0.658350  1.0  0.1067
  H  H915  1  0.908020  0.257300  0.524080  1.0  0.1067
  H  H916  1  0.933760  0.214520  0.546900  1.0  0.1053
  H  H917  1  0.843630  0.229280  0.558950  1.0  0.1017
  H  H918  1  0.868980  0.187110  0.581310  1.0  0.1103
  H  H919  1  0.407290  0.539020  0.476220  1.0  0.104
  H  H920  1  0.340370  0.515320  0.409170  1.0  0.1096
  H  H921  1  0.366490  0.500730  0.435290  1.0  0.1061
  H  H922  1  0.321740  0.425540  0.386950  1.0  0.1029
  H  H923  1  0.299990  0.471310  0.432360  1.0  0.1054
  H  H924  1  0.171760  0.666980  0.210610  1.0  0.1079
  H  H925  1  0.199500  0.582900  0.238420  1.0  0.1062
  H  H926  1  0.155790  0.708490  0.253740  1.0  0.1069
  H  H927  1  0.179980  0.735570  0.242410  1.0  0.1062
  H  H928  1  0.165670  0.666980  0.329170  1.0  0.1063
  H  H929  1  0.189610  0.693940  0.317970  1.0  0.1055
  H  H930  1  0.272420  0.610900  0.341070  1.0  0.1068
  H  H931  1  0.256650  0.658350  0.325490  1.0  0.1052
  H  H932  1  0.310590  0.524080  0.257300  1.0  0.104
  H  H933  1  0.304830  0.546900  0.214520  1.0  0.103
  H  H934  1  0.368140  0.558950  0.229280  1.0  0.1007
  H  H935  1  0.362600  0.581310  0.187110  1.0  0.1099
  H  H936  1  0.476220  0.577470  0.407290  1.0  0.104
  H  H937  1  0.409170  0.735150  0.340370  1.0  0.1081
  H  H938  1  0.435290  0.697490  0.366490  1.0  0.105
  H  H939  1  0.386950  0.865770  0.321740  1.0  0.1083
  H  H940  1  0.432360  0.796340  0.299990  1.0  0.1057
  H  H941  1  0.210610  0.950640  0.171760  1.0  0.1043
  H  H942  1  0.238420  0.979180  0.199500  1.0  0.1075
  H  H943  1  0.253740  0.881990  0.155790  1.0  0.1089
  H  H944  1  0.242410  0.842030  0.179980  1.0  0.1054
  H  H945  1  0.329170  0.838190  0.165670  1.0  0.106
  H  H946  1  0.317970  0.798490  0.189610  1.0  0.1069
  H  H947  1  0.341070  0.775610  0.272420  1.0  0.1065
  H  H948  1  0.325490  0.759510  0.256650  1.0  0.1061
  H  H949  1  0.257300  0.908020  0.310590  1.0  0.1048
  H  H950  1  0.214520  0.933760  0.304830  1.0  0.1078
  H  H951  1  0.229280  0.843630  0.368140  1.0  0.1034
  H  H952  1  0.187110  0.868980  0.362600  1.0  0.1097
  H  H953  1  0.476220  0.539020  0.577470  1.0  0.1041
  H  H954  1  0.409170  0.515320  0.735150  1.0  0.1098
  H  H955  1  0.435290  0.500730  0.697490  1.0  0.1046
  H  H956  1  0.386950  0.425540  0.865770  1.0  0.1052
  H  H957  1  0.432360  0.471310  0.796340  1.0  0.1063
  H  H958  1  0.210610  0.666980  0.950640  1.0  0.1073
  H  H959  1  0.238420  0.582900  0.979180  1.0  0.1063
  H  H960  1  0.253740  0.708490  0.881990  1.0  0.1069
  H  H961  1  0.242410  0.735570  0.842030  1.0  0.1068
  H  H962  1  0.329170  0.666980  0.838190  1.0  0.1066
  H  H963  1  0.317970  0.693940  0.798490  1.0  0.1065
  H  H964  1  0.341070  0.610900  0.775610  1.0  0.1071
  H  H965  1  0.325490  0.658350  0.759510  1.0  0.105
  H  H966  1  0.257300  0.524080  0.908020  1.0  0.1059
  H  H967  1  0.214520  0.546900  0.933760  1.0  0.1047
  H  H968  1  0.229280  0.558950  0.843630  1.0  0.0986
  H  H969  1  0.187110  0.581310  0.868980  1.0  0.1095
  H  H970  1  0.407290  0.577470  0.539020  1.0  0.1004
  H  H971  1  0.340370  0.735150  0.515320  1.0  0.1093
  H  H972  1  0.366490  0.697490  0.500730  1.0  0.1035
  H  H973  1  0.321740  0.865770  0.425540  1.0  0.1052
  H  H974  1  0.299990  0.796340  0.471310  1.0  0.1048
  H  H975  1  0.171760  0.950640  0.666980  1.0  0.1045
  H  H976  1  0.199500  0.979180  0.582900  1.0  0.1064
  H  H977  1  0.155790  0.881990  0.708490  1.0  0.1083
  H  H978  1  0.179980  0.842030  0.735570  1.0  0.1041
  H  H979  1  0.165670  0.838190  0.666980  1.0  0.1045
  H  H980  1  0.189610  0.798490  0.693940  1.0  0.1067
  H  H981  1  0.272420  0.775610  0.610900  1.0  0.1071
  H  H982  1  0.256650  0.759510  0.658350  1.0  0.1042
  H  H983  1  0.310590  0.908020  0.524080  1.0  0.1033
  H  H984  1  0.304830  0.933760  0.546900  1.0  0.1074
  H  H985  1  0.368140  0.843630  0.558950  1.0  0.1034
  H  H986  1  0.362600  0.868980  0.581310  1.0  0.1092
  H  H987  1  0.577470  0.407290  0.476220  1.0  0.1048
  H  H988  1  0.735150  0.340370  0.409170  1.0  0.1092
  H  H989  1  0.697490  0.366490  0.435290  1.0  0.1049
  H  H990  1  0.865770  0.321740  0.386950  1.0  0.1055
  H  H991  1  0.796340  0.299990  0.432360  1.0  0.1052
  H  H992  1  0.950640  0.171760  0.210610  1.0  0.1067
  H  H993  1  0.979180  0.199500  0.238420  1.0  0.1061
  H  H994  1  0.881990  0.155790  0.253740  1.0  0.108
  H  H995  1  0.842030  0.179980  0.242410  1.0  0.1033
  H  H996  1  0.838190  0.165670  0.329170  1.0  0.1051
  H  H997  1  0.798490  0.189610  0.317970  1.0  0.107
  H  H998  1  0.775610  0.272420  0.341070  1.0  0.1076
  H  H999  1  0.759510  0.256650  0.325490  1.0  0.1061
  H  H1000  1  0.908020  0.310590  0.257300  1.0  0.103
  H  H1001  1  0.933760  0.304830  0.214520  1.0  0.1074
  H  H1002  1  0.843630  0.368140  0.229280  1.0  0.1045
  H  H1003  1  0.868980  0.362600  0.187110  1.0  0.1092
  H  H1004  1  0.539020  0.476220  0.407290  1.0  0.1049
  H  H1005  1  0.515320  0.409170  0.340370  1.0  0.1088
  H  H1006  1  0.500730  0.435290  0.366490  1.0  0.1081
  H  H1007  1  0.425540  0.386950  0.321740  1.0  0.1045
  H  H1008  1  0.471310  0.432360  0.299990  1.0  0.1044
  H  H1009  1  0.666980  0.210610  0.171760  1.0  0.1051
  H  H1010  1  0.582900  0.238420  0.199500  1.0  0.1055
  H  H1011  1  0.708490  0.253740  0.155790  1.0  0.1084
  H  H1012  1  0.735570  0.242410  0.179980  1.0  0.109
  H  H1013  1  0.666980  0.329170  0.165670  1.0  0.1086
  H  H1014  1  0.693940  0.317970  0.189610  1.0  0.1076
  H  H1015  1  0.610900  0.341070  0.272420  1.0  0.106
  H  H1016  1  0.658350  0.325490  0.256650  1.0  0.1062
  H  H1017  1  0.524080  0.257300  0.310590  1.0  0.103
  H  H1018  1  0.546900  0.214520  0.304830  1.0  0.1021
  H  H1019  1  0.558950  0.229280  0.368140  1.0  0.1014
  H  H1020  1  0.581310  0.187110  0.362600  1.0  0.1115
  C  C1021  1  0.422400  0.460920  0.547230  1.0  -0.1286
  C  C1022  1  0.361020  0.399550  0.512470  1.0  -0.0714
  C  C1023  1  0.376030  0.414550  0.504030  1.0  -0.0928
  C  C1024  1  0.316790  0.405210  0.427460  1.0  -0.0947
  C  C1025  1  0.312270  0.382200  0.474890  1.0  0.7202
  C  C1026  1  0.310890  0.406410  0.451670  1.0  -0.1148
  C  C1027  1  0.304580  0.430680  0.453040  1.0  -0.0815
  C  C1028  1  0.185940  0.208370  0.648430  1.0  -0.0915
  C  C1029  1  0.159360  0.253050  0.625010  1.0  0.7126
  C  C1030  1  0.182180  0.227950  0.624940  1.0  -0.118
  C  C1031  1  0.201450  0.223900  0.601430  1.0  -0.0992
  C  C1032  1  0.162970  0.267990  0.705160  1.0  -0.096
  C  C1033  1  0.144040  0.299610  0.668310  1.0  0.6932
  C  C1034  1  0.158700  0.292400  0.685300  1.0  -0.118
  C  C1035  1  0.176810  0.261520  0.720830  1.0  -0.1017
  C  C1036  1  0.203100  0.271990  0.732610  1.0  0.7094
  C  C1037  1  0.186750  0.279270  0.717260  1.0  -0.1178
  C  C1038  1  0.168510  0.310160  0.681900  1.0  -0.0855
  C  C1039  1  0.182220  0.303740  0.697570  1.0  -0.0892
  C  C1040  1  0.284250  0.322640  0.620990  1.0  -0.0853
  C  C1041  1  0.275200  0.313630  0.648410  1.0  -0.092
  C  C1042  1  0.322240  0.241940  0.536320  1.0  -0.0822
  C  C1043  1  0.341660  0.273040  0.528300  1.0  0.7154
  C  C1044  1  0.339720  0.246720  0.539870  1.0  -0.1106
  C  C1045  1  0.318890  0.217500  0.549380  1.0  -0.0965
  C  C1046  1  0.077960  0.332570  0.668080  1.0  0.7157
  C  C1047  1  0.332990  0.197470  0.566150  1.0  -0.1099
  C  C1048  1  0.354380  0.226380  0.555920  1.0  -0.0849
  C  C1049  1  0.351110  0.202130  0.568810  1.0  -0.1062
  C  C1050  1  0.460920  0.422400  0.569440  1.0  -0.1156
  C  C1051  1  0.399550  0.361020  0.726960  1.0  -0.0755
  C  C1052  1  0.414550  0.376030  0.705390  1.0  -0.0898
  C  C1053  1  0.405210  0.316790  0.850540  1.0  -0.0909
  C  C1054  1  0.382200  0.312270  0.830630  1.0  0.7173
  C  C1055  1  0.406410  0.310890  0.831040  1.0  -0.1143
  C  C1056  1  0.430680  0.304580  0.811700  1.0  -0.0777
  C  C1057  1  0.208370  0.185940  0.957260  1.0  -0.0919
  C  C1058  1  0.253050  0.159360  0.962580  1.0  0.7103
  C  C1059  1  0.227950  0.182180  0.964940  1.0  -0.1192
  C  C1060  1  0.223900  0.201450  0.973220  1.0  -0.093
  C  C1061  1  0.267990  0.162970  0.863890  1.0  -0.0944
  C  C1062  1  0.299610  0.144040  0.888040  1.0  0.6934
  C  C1063  1  0.292400  0.158700  0.863600  1.0  -0.1175
  C  C1064  1  0.261520  0.176810  0.840850  1.0  -0.0992
  C  C1065  1  0.271990  0.203100  0.792300  1.0  0.7106
  C  C1066  1  0.279270  0.186750  0.816720  1.0  -0.1152
  C  C1067  1  0.310160  0.168510  0.839430  1.0  -0.0812
  C  C1068  1  0.303740  0.182220  0.816470  1.0  -0.0828
  C  C1069  1  0.322640  0.284250  0.772120  1.0  -0.0813
  C  C1070  1  0.313630  0.275200  0.762760  1.0  -0.0897
  C  C1071  1  0.241940  0.322240  0.899500  1.0  -0.0798
  C  C1072  1  0.273040  0.341660  0.857000  1.0  0.7141
  C  C1073  1  0.246720  0.339720  0.873690  1.0  -0.1086
  C  C1074  1  0.217500  0.318890  0.914230  1.0  -0.0974
  C  C1075  1  0.332570  0.077960  0.921380  1.0  0.7173
  C  C1076  1  0.197470  0.332990  0.903390  1.0  -0.109
  C  C1077  1  0.226380  0.354380  0.863310  1.0  -0.0906
  C  C1078  1  0.202130  0.351110  0.877940  1.0  -0.109
  C  C1079  1  0.547230  0.569440  0.422400  1.0  -0.1061
  C  C1080  1  0.512470  0.726960  0.361020  1.0  -0.0692
  C  C1081  1  0.504030  0.705390  0.376030  1.0  -0.0872
  C  C1082  1  0.427460  0.850540  0.316790  1.0  -0.0971
  C  C1083  1  0.474890  0.830630  0.312270  1.0  0.7158
  C  C1084  1  0.451670  0.831040  0.310890  1.0  -0.1125
  C  C1085  1  0.453040  0.811700  0.304580  1.0  -0.0828
  C  C1086  1  0.648430  0.957260  0.185940  1.0  -0.0936
  C  C1087  1  0.625010  0.962580  0.159360  1.0  0.7105
  C  C1088  1  0.624940  0.964940  0.182180  1.0  -0.1197
  C  C1089  1  0.601430  0.973220  0.201450  1.0  -0.095
  C  C1090  1  0.705160  0.863890  0.162970  1.0  -0.0907
  C  C1091  1  0.668310  0.888040  0.144040  1.0  0.6926
  C  C1092  1  0.685300  0.863600  0.158700  1.0  -0.1161
  C  C1093  1  0.720830  0.840850  0.176810  1.0  -0.1006
  C  C1094  1  0.732610  0.792300  0.203100  1.0  0.7105
  C  C1095  1  0.717260  0.816720  0.186750  1.0  -0.115
  C  C1096  1  0.681900  0.839430  0.168510  1.0  -0.0805
  C  C1097  1  0.697570  0.816470  0.182220  1.0  -0.0842
  C  C1098  1  0.620990  0.772120  0.284250  1.0  -0.0797
  C  C1099  1  0.648410  0.762760  0.275200  1.0  -0.0869
  C  C1100  1  0.536320  0.899500  0.322240  1.0  -0.0819
  C  C1101  1  0.528300  0.857000  0.341660  1.0  0.7206
  C  C1102  1  0.539870  0.873690  0.339720  1.0  -0.1101
  C  C1103  1  0.549380  0.914230  0.318890  1.0  -0.1001
  C  C1104  1  0.668080  0.921380  0.077960  1.0  0.7142
  C  C1105  1  0.566150  0.903390  0.332990  1.0  -0.1102
  C  C1106  1  0.555920  0.863310  0.354380  1.0  -0.0884
  C  C1107  1  0.568810  0.877940  0.351110  1.0  -0.1012
  C  C1108  1  0.569440  0.547230  0.460920  1.0  -0.1059
  C  C1109  1  0.726960  0.512470  0.399550  1.0  -0.069
  C  C1110  1  0.705390  0.504030  0.414550  1.0  -0.0859
  C  C1111  1  0.850540  0.427460  0.405210  1.0  -0.0908
  C  C1112  1  0.830630  0.474890  0.382200  1.0  0.7208
  C  C1113  1  0.831040  0.451670  0.406410  1.0  -0.1132
  C  C1114  1  0.811700  0.453040  0.430680  1.0  -0.0857
  C  C1115  1  0.957260  0.648430  0.208370  1.0  -0.0958
  C  C1116  1  0.962580  0.625010  0.253050  1.0  0.7118
  C  C1117  1  0.964940  0.624940  0.227950  1.0  -0.1204
  C  C1118  1  0.973220  0.601430  0.223900  1.0  -0.0969
  C  C1119  1  0.863890  0.705160  0.267990  1.0  -0.0965
  C  C1120  1  0.888040  0.668310  0.299610  1.0  0.6922
  C  C1121  1  0.863600  0.685300  0.292400  1.0  -0.1152
  C  C1122  1  0.840850  0.720830  0.261520  1.0  -0.1042
  C  C1123  1  0.792300  0.732610  0.271990  1.0  0.7109
  C  C1124  1  0.816720  0.717260  0.279270  1.0  -0.114
  C  C1125  1  0.839430  0.681900  0.310160  1.0  -0.0819
  C  C1126  1  0.816470  0.697570  0.303740  1.0  -0.0847
  C  C1127  1  0.772120  0.620990  0.322640  1.0  -0.0813
  C  C1128  1  0.762760  0.648410  0.313630  1.0  -0.0876
  C  C1129  1  0.899500  0.536320  0.241940  1.0  -0.0812
  C  C1130  1  0.857000  0.528300  0.273040  1.0  0.7197
  C  C1131  1  0.873690  0.539870  0.246720  1.0  -0.1086
  C  C1132  1  0.914230  0.549380  0.217500  1.0  -0.1043
  C  C1133  1  0.921380  0.668080  0.332570  1.0  0.7182
  C  C1134  1  0.903390  0.566150  0.197470  1.0  -0.1092
  C  C1135  1  0.863310  0.555920  0.226380  1.0  -0.0877
  C  C1136  1  0.877940  0.568810  0.202130  1.0  -0.1066
  C  C1137  1  0.547230  0.422400  0.460920  1.0  -0.1273
  C  C1138  1  0.512470  0.361020  0.399550  1.0  -0.0717
  C  C1139  1  0.504030  0.376030  0.414550  1.0  -0.0892
  C  C1140  1  0.427460  0.316790  0.405210  1.0  -0.0913
  C  C1141  1  0.474890  0.312270  0.382200  1.0  0.7199
  C  C1142  1  0.451670  0.310890  0.406410  1.0  -0.1148
  C  C1143  1  0.453040  0.304580  0.430680  1.0  -0.0823
  C  C1144  1  0.648430  0.185940  0.208370  1.0  -0.0925
  C  C1145  1  0.625010  0.159360  0.253050  1.0  0.7148
  C  C1146  1  0.624940  0.182180  0.227950  1.0  -0.1175
  C  C1147  1  0.601430  0.201450  0.223900  1.0  -0.0992
  C  C1148  1  0.705160  0.162970  0.267990  1.0  -0.0941
  C  C1149  1  0.668310  0.144040  0.299610  1.0  0.6922
  C  C1150  1  0.685300  0.158700  0.292400  1.0  -0.1175
  C  C1151  1  0.720830  0.176810  0.261520  1.0  -0.1011
  C  C1152  1  0.732610  0.203100  0.271990  1.0  0.7078
  C  C1153  1  0.717260  0.186750  0.279270  1.0  -0.1168
  C  C1154  1  0.681900  0.168510  0.310160  1.0  -0.0822
  C  C1155  1  0.697570  0.182220  0.303740  1.0  -0.0843
  C  C1156  1  0.620990  0.284250  0.322640  1.0  -0.0822
  C  C1157  1  0.648410  0.275200  0.313630  1.0  -0.0897
  C  C1158  1  0.536320  0.322240  0.241940  1.0  -0.0805
  C  C1159  1  0.528300  0.341660  0.273040  1.0  0.7142
  C  C1160  1  0.539870  0.339720  0.246720  1.0  -0.1099
  C  C1161  1  0.549380  0.318890  0.217500  1.0  -0.0984
  C  C1162  1  0.668080  0.077960  0.332570  1.0  0.7179
  C  C1163  1  0.566150  0.332990  0.197470  1.0  -0.112
  C  C1164  1  0.555920  0.354380  0.226380  1.0  -0.0907
  C  C1165  1  0.568810  0.351110  0.202130  1.0  -0.1087
  C  C1166  1  0.569440  0.460920  0.422400  1.0  -0.1165
  C  C1167  1  0.726960  0.399550  0.361020  1.0  -0.072
  C  C1168  1  0.705390  0.414550  0.376030  1.0  -0.0904
  C  C1169  1  0.850540  0.405210  0.316790  1.0  -0.0923
  C  C1170  1  0.830630  0.382200  0.312270  1.0  0.7206
  C  C1171  1  0.831040  0.406410  0.310890  1.0  -0.1146
  C  C1172  1  0.811700  0.430680  0.304580  1.0  -0.0791
  C  C1173  1  0.957260  0.208370  0.185940  1.0  -0.0895
  C  C1174  1  0.962580  0.253050  0.159360  1.0  0.7107
  C  C1175  1  0.964940  0.227950  0.182180  1.0  -0.118
  C  C1176  1  0.973220  0.223900  0.201450  1.0  -0.0957
  C  C1177  1  0.863890  0.267990  0.162970  1.0  -0.0957
  C  C1178  1  0.888040  0.299610  0.144040  1.0  0.6923
  C  C1179  1  0.863600  0.292400  0.158700  1.0  -0.1191
  C  C1180  1  0.840850  0.261520  0.176810  1.0  -0.1024
  C  C1181  1  0.792300  0.271990  0.203100  1.0  0.7086
  C  C1182  1  0.816720  0.279270  0.186750  1.0  -0.1141
  C  C1183  1  0.839430  0.310160  0.168510  1.0  -0.0862
  C  C1184  1  0.816470  0.303740  0.182220  1.0  -0.0894
  C  C1185  1  0.772120  0.322640  0.284250  1.0  -0.0864
  C  C1186  1  0.762760  0.313630  0.275200  1.0  -0.0894
  C  C1187  1  0.899500  0.241940  0.322240  1.0  -0.0811
  C  C1188  1  0.857000  0.273040  0.341660  1.0  0.7154
  C  C1189  1  0.873690  0.246720  0.339720  1.0  -0.1094
  C  C1190  1  0.914230  0.217500  0.318890  1.0  -0.0944
  C  C1191  1  0.921380  0.332570  0.077960  1.0  0.718
  C  C1192  1  0.903390  0.197470  0.332990  1.0  -0.1087
  C  C1193  1  0.863310  0.226380  0.354380  1.0  -0.086
  C  C1194  1  0.877940  0.202130  0.351110  1.0  -0.1072
  C  C1195  1  0.422400  0.547230  0.569440  1.0  -0.1048
  C  C1196  1  0.361020  0.512470  0.726960  1.0  -0.0695
  C  C1197  1  0.376030  0.504030  0.705390  1.0  -0.0851
  C  C1198  1  0.316790  0.427460  0.850540  1.0  -0.0906
  C  C1199  1  0.312270  0.474890  0.830630  1.0  0.7172
  C  C1200  1  0.310890  0.451670  0.831040  1.0  -0.1126
  C  C1201  1  0.304580  0.453040  0.811700  1.0  -0.0838
  C  C1202  1  0.185940  0.648430  0.957260  1.0  -0.0981
  C  C1203  1  0.159360  0.625010  0.962580  1.0  0.7097
  C  C1204  1  0.182180  0.624940  0.964940  1.0  -0.1189
  C  C1205  1  0.201450  0.601430  0.973220  1.0  -0.0973
  C  C1206  1  0.162970  0.705160  0.863890  1.0  -0.0889
  C  C1207  1  0.144040  0.668310  0.888040  1.0  0.6924
  C  C1208  1  0.158700  0.685300  0.863600  1.0  -0.1174
  C  C1209  1  0.176810  0.720830  0.840850  1.0  -0.1034
  C  C1210  1  0.203100  0.732610  0.792300  1.0  0.7109
  C  C1211  1  0.186750  0.717260  0.816720  1.0  -0.1159
  C  C1212  1  0.168510  0.681900  0.839430  1.0  -0.0823
  C  C1213  1  0.182220  0.697570  0.816470  1.0  -0.0821
  C  C1214  1  0.284250  0.620990  0.772120  1.0  -0.0807
  C  C1215  1  0.275200  0.648410  0.762760  1.0  -0.0877
  C  C1216  1  0.322240  0.536320  0.899500  1.0  -0.083
  C  C1217  1  0.341660  0.528300  0.857000  1.0  0.7201
  C  C1218  1  0.339720  0.539870  0.873690  1.0  -0.1099
  C  C1219  1  0.318890  0.549380  0.914230  1.0  -0.0959
  C  C1220  1  0.077960  0.668080  0.921380  1.0  0.7136
  C  C1221  1  0.332990  0.566150  0.903390  1.0  -0.1094
  C  C1222  1  0.354380  0.555920  0.863310  1.0  -0.0861
  C  C1223  1  0.351110  0.568810  0.877940  1.0  -0.1033
  C  C1224  1  0.460920  0.569440  0.547230  1.0  -0.1061
  C  C1225  1  0.399550  0.726960  0.512470  1.0  -0.0686
  C  C1226  1  0.414550  0.705390  0.504030  1.0  -0.0877
  C  C1227  1  0.405210  0.850540  0.427460  1.0  -0.0975
  C  C1228  1  0.382200  0.830630  0.474890  1.0  0.7206
  C  C1229  1  0.406410  0.831040  0.451670  1.0  -0.1138
  C  C1230  1  0.430680  0.811700  0.453040  1.0  -0.0841
  C  C1231  1  0.208370  0.957260  0.648430  1.0  -0.0932
  C  C1232  1  0.253050  0.962580  0.625010  1.0  0.711
  C  C1233  1  0.227950  0.964940  0.624940  1.0  -0.1203
  C  C1234  1  0.223900  0.973220  0.601430  1.0  -0.0952
  C  C1235  1  0.267990  0.863890  0.705160  1.0  -0.0979
  C  C1236  1  0.299610  0.888040  0.668310  1.0  0.6918
  C  C1237  1  0.292400  0.863600  0.685300  1.0  -0.1136
  C  C1238  1  0.261520  0.840850  0.720830  1.0  -0.1014
  C  C1239  1  0.271990  0.792300  0.732610  1.0  0.7115
  C  C1240  1  0.279270  0.816720  0.717260  1.0  -0.1133
  C  C1241  1  0.310160  0.839430  0.681900  1.0  -0.0815
  C  C1242  1  0.303740  0.816470  0.697570  1.0  -0.0856
  C  C1243  1  0.322640  0.772120  0.620990  1.0  -0.0828
  C  C1244  1  0.313630  0.762760  0.648410  1.0  -0.0869
  C  C1245  1  0.241940  0.899500  0.536320  1.0  -0.0825
  C  C1246  1  0.273040  0.857000  0.528300  1.0  0.7203
  C  C1247  1  0.246720  0.873690  0.539870  1.0  -0.1092
  C  C1248  1  0.217500  0.914230  0.549380  1.0  -0.1083
  C  C1249  1  0.332570  0.921380  0.668080  1.0  0.719
  C  C1250  1  0.197470  0.903390  0.566150  1.0  -0.109
  C  C1251  1  0.226380  0.863310  0.555920  1.0  -0.0911
  C  C1252  1  0.202130  0.877940  0.568810  1.0  -0.1045
  C  C1253  1  0.460920  0.547230  0.422400  1.0  -0.1215
  C  C1254  1  0.399550  0.512470  0.361020  1.0  -0.069
  C  C1255  1  0.414550  0.504030  0.376030  1.0  -0.0887
  C  C1256  1  0.405210  0.427460  0.316790  1.0  -0.0908
  C  C1257  1  0.382200  0.474890  0.312270  1.0  0.7207
  C  C1258  1  0.406410  0.451670  0.310890  1.0  -0.1141
  C  C1259  1  0.430680  0.453040  0.304580  1.0  -0.085
  C  C1260  1  0.208370  0.648430  0.185940  1.0  -0.0955
  C  C1261  1  0.253050  0.625010  0.159360  1.0  0.7123
  C  C1262  1  0.227950  0.624940  0.182180  1.0  -0.1206
  C  C1263  1  0.223900  0.601430  0.201450  1.0  -0.103
  C  C1264  1  0.267990  0.705160  0.162970  1.0  -0.095
  C  C1265  1  0.299610  0.668310  0.144040  1.0  0.6935
  C  C1266  1  0.292400  0.685300  0.158700  1.0  -0.1168
  C  C1267  1  0.261520  0.720830  0.176810  1.0  -0.1018
  C  C1268  1  0.271990  0.732610  0.203100  1.0  0.7077
  C  C1269  1  0.279270  0.717260  0.186750  1.0  -0.1153
  C  C1270  1  0.310160  0.681900  0.168510  1.0  -0.0827
  C  C1271  1  0.303740  0.697570  0.182220  1.0  -0.0835
  C  C1272  1  0.322640  0.620990  0.284250  1.0  -0.0823
  C  C1273  1  0.313630  0.648410  0.275200  1.0  -0.0883
  C  C1274  1  0.241940  0.536320  0.322240  1.0  -0.0839
  C  C1275  1  0.273040  0.528300  0.341660  1.0  0.7153
  C  C1276  1  0.246720  0.539870  0.339720  1.0  -0.1103
  C  C1277  1  0.217500  0.549380  0.318890  1.0  -0.0933
  C  C1278  1  0.332570  0.668080  0.077960  1.0  0.7178
  C  C1279  1  0.197470  0.566150  0.332990  1.0  -0.1095
  C  C1280  1  0.226380  0.555920  0.354380  1.0  -0.0846
  C  C1281  1  0.202130  0.568810  0.351110  1.0  -0.1085
  C  C1282  1  0.422400  0.569440  0.460920  1.0  -0.1137
  C  C1283  1  0.361020  0.726960  0.399550  1.0  -0.0723
  C  C1284  1  0.376030  0.705390  0.414550  1.0  -0.0864
  C  C1285  1  0.316790  0.850540  0.405210  1.0  -0.0952
  C  C1286  1  0.312270  0.830630  0.382200  1.0  0.7186
  C  C1287  1  0.310890  0.831040  0.406410  1.0  -0.1167
  C  C1288  1  0.304580  0.811700  0.430680  1.0  -0.0804
  C  C1289  1  0.185940  0.957260  0.208370  1.0  -0.0912
  C  C1290  1  0.159360  0.962580  0.253050  1.0  0.7084
  C  C1291  1  0.182180  0.964940  0.227950  1.0  -0.1182
  C  C1292  1  0.201450  0.973220  0.223900  1.0  -0.094
  C  C1293  1  0.162970  0.863890  0.267990  1.0  -0.0961
  C  C1294  1  0.144040  0.888040  0.299610  1.0  0.6923
  C  C1295  1  0.158700  0.863600  0.292400  1.0  -0.1159
  C  C1296  1  0.176810  0.840850  0.261520  1.0  -0.0972
  C  C1297  1  0.203100  0.792300  0.271990  1.0  0.7115
  C  C1298  1  0.186750  0.816720  0.279270  1.0  -0.1148
  C  C1299  1  0.168510  0.839430  0.310160  1.0  -0.0807
  C  C1300  1  0.182220  0.816470  0.303740  1.0  -0.0843
  C  C1301  1  0.284250  0.772120  0.322640  1.0  -0.0802
  C  C1302  1  0.275200  0.762760  0.313630  1.0  -0.088
  C  C1303  1  0.322240  0.899500  0.241940  1.0  -0.0822
  C  C1304  1  0.341660  0.857000  0.273040  1.0  0.7149
  C  C1305  1  0.339720  0.873690  0.246720  1.0  -0.1099
  C  C1306  1  0.318890  0.914230  0.217500  1.0  -0.1003
  C  C1307  1  0.077960  0.921380  0.332570  1.0  0.7175
  C  C1308  1  0.332990  0.903390  0.197470  1.0  -0.1091
  C  C1309  1  0.354380  0.863310  0.226380  1.0  -0.0893
  C  C1310  1  0.351110  0.877940  0.202130  1.0  -0.1063
  C  C1311  1  0.569440  0.422400  0.547230  1.0  -0.1077
  C  C1312  1  0.726960  0.361020  0.512470  1.0  -0.073
  C  C1313  1  0.705390  0.376030  0.504030  1.0  -0.0877
  C  C1314  1  0.850540  0.316790  0.427460  1.0  -0.0902
  C  C1315  1  0.830630  0.312270  0.474890  1.0  0.7167
  C  C1316  1  0.831040  0.310890  0.451670  1.0  -0.1122
  C  C1317  1  0.811700  0.304580  0.453040  1.0  -0.0824
  C  C1318  1  0.957260  0.185940  0.648430  1.0  -0.0947
  C  C1319  1  0.962580  0.159360  0.625010  1.0  0.7105
  C  C1320  1  0.964940  0.182180  0.624940  1.0  -0.1182
  C  C1321  1  0.973220  0.201450  0.601430  1.0  -0.0937
  C  C1322  1  0.863890  0.162970  0.705160  1.0  -0.0903
  C  C1323  1  0.888040  0.144040  0.668310  1.0  0.6922
  C  C1324  1  0.863600  0.158700  0.685300  1.0  -0.1187
  C  C1325  1  0.840850  0.176810  0.720830  1.0  -0.0997
  C  C1326  1  0.792300  0.203100  0.732610  1.0  0.7113
  C  C1327  1  0.816720  0.186750  0.717260  1.0  -0.1161
  C  C1328  1  0.839430  0.168510  0.681900  1.0  -0.0797
  C  C1329  1  0.816470  0.182220  0.697570  1.0  -0.0831
  C  C1330  1  0.772120  0.284250  0.620990  1.0  -0.0806
  C  C1331  1  0.762760  0.275200  0.648410  1.0  -0.0896
  C  C1332  1  0.899500  0.322240  0.536320  1.0  -0.0808
  C  C1333  1  0.857000  0.341660  0.528300  1.0  0.7205
  C  C1334  1  0.873690  0.339720  0.539870  1.0  -0.1109
  C  C1335  1  0.914230  0.318890  0.549380  1.0  -0.0978
  C  C1336  1  0.921380  0.077960  0.668080  1.0  0.7135
  C  C1337  1  0.903390  0.332990  0.566150  1.0  -0.1095
  C  C1338  1  0.863310  0.354380  0.555920  1.0  -0.0923
  C  C1339  1  0.877940  0.351110  0.568810  1.0  -0.105
  C  C1340  1  0.547230  0.460920  0.569440  1.0  -0.1107
  C  C1341  1  0.512470  0.399550  0.726960  1.0  -0.0691
  C  C1342  1  0.504030  0.414550  0.705390  1.0  -0.0913
  C  C1343  1  0.427460  0.405210  0.850540  1.0  -0.095
  C  C1344  1  0.474890  0.382200  0.830630  1.0  0.721
  C  C1345  1  0.451670  0.406410  0.831040  1.0  -0.1137
  C  C1346  1  0.453040  0.430680  0.811700  1.0  -0.0829
  C  C1347  1  0.648430  0.208370  0.957260  1.0  -0.0925
  C  C1348  1  0.625010  0.253050  0.962580  1.0  0.7114
  C  C1349  1  0.624940  0.227950  0.964940  1.0  -0.1193
  C  C1350  1  0.601430  0.223900  0.973220  1.0  -0.096
  C  C1351  1  0.705160  0.267990  0.863890  1.0  -0.0956
  C  C1352  1  0.668310  0.299610  0.888040  1.0  0.6925
  C  C1353  1  0.685300  0.292400  0.863600  1.0  -0.116
  C  C1354  1  0.720830  0.261520  0.840850  1.0  -0.1016
  C  C1355  1  0.732610  0.271990  0.792300  1.0  0.711
  C  C1356  1  0.717260  0.279270  0.816720  1.0  -0.115
  C  C1357  1  0.681900  0.310160  0.839430  1.0  -0.0873
  C  C1358  1  0.697570  0.303740  0.816470  1.0  -0.0879
  C  C1359  1  0.620990  0.322640  0.772120  1.0  -0.0868
  C  C1360  1  0.648410  0.313630  0.762760  1.0  -0.0895
  C  C1361  1  0.536320  0.241940  0.899500  1.0  -0.0819
  C  C1362  1  0.528300  0.273040  0.857000  1.0  0.7195
  C  C1363  1  0.539870  0.246720  0.873690  1.0  -0.1089
  C  C1364  1  0.549380  0.217500  0.914230  1.0  -0.1031
  C  C1365  1  0.668080  0.332570  0.921380  1.0  0.7183
  C  C1366  1  0.566150  0.197470  0.903390  1.0  -0.1093
  C  C1367  1  0.555920  0.226380  0.863310  1.0  -0.0865
  C  C1368  1  0.568810  0.202130  0.877940  1.0  -0.106
  C  C1369  1  0.827600  0.789080  0.680560  1.0  -0.1123
  C  C1370  1  0.888980  0.850450  0.523040  1.0  -0.0731
  C  C1371  1  0.873970  0.835450  0.544610  1.0  -0.0898
  C  C1372  1  0.933210  0.844790  0.399460  1.0  -0.0921
  C  C1373  1  0.937730  0.867800  0.419370  1.0  0.7184
  C  C1374  1  0.939110  0.843590  0.418960  1.0  -0.1144
  C  C1375  1  0.945420  0.819320  0.438300  1.0  -0.0779
  C  C1376  1  0.064060  0.041630  0.292740  1.0  -0.09
  C  C1377  1  0.090640  0.996950  0.287420  1.0  0.7117
  C  C1378  1  0.067820  0.022050  0.285060  1.0  -0.1173
  C  C1379  1  0.048550  0.026100  0.276780  1.0  -0.0967
  C  C1380  1  0.087030  0.982010  0.386110  1.0  -0.0967
  C  C1381  1  0.105960  0.950390  0.361960  1.0  0.693
  C  C1382  1  0.091300  0.957600  0.386400  1.0  -0.1181
  C  C1383  1  0.073190  0.988480  0.409150  1.0  -0.1031
  C  C1384  1  0.046900  0.978010  0.457700  1.0  0.7121
  C  C1385  1  0.063250  0.970730  0.433280  1.0  -0.115
  C  C1386  1  0.081490  0.939840  0.410570  1.0  -0.0843
  C  C1387  1  0.067780  0.946260  0.433530  1.0  -0.0871
  C  C1388  1  0.965750  0.927360  0.477880  1.0  -0.0846
  C  C1389  1  0.974800  0.936370  0.487240  1.0  -0.0904
  C  C1390  1  0.927760  0.008060  0.350500  1.0  -0.0821
  C  C1391  1  0.908340  0.976960  0.393000  1.0  0.7158
  C  C1392  1  0.910280  0.003280  0.376310  1.0  -0.1089
  C  C1393  1  0.931110  0.032500  0.335770  1.0  -0.0949
  C  C1394  1  0.172040  0.917430  0.328620  1.0  0.7164
  C  C1395  1  0.917010  0.052530  0.346610  1.0  -0.1092
  C  C1396  1  0.895620  0.023620  0.386690  1.0  -0.0849
  C  C1397  1  0.898890  0.047870  0.372060  1.0  -0.1103
  C  C1398  1  0.789080  0.827600  0.702770  1.0  -0.1302
  C  C1399  1  0.850450  0.888980  0.737530  1.0  -0.074
  C  C1400  1  0.835450  0.873970  0.745970  1.0  -0.0907
  C  C1401  1  0.844790  0.933210  0.822540  1.0  -0.0921
  C  C1402  1  0.867800  0.937730  0.775110  1.0  0.7197
  C  C1403  1  0.843590  0.939110  0.798330  1.0  -0.1149
  C  C1404  1  0.819320  0.945420  0.796960  1.0  -0.0814
  C  C1405  1  0.041630  0.064060  0.601570  1.0  -0.0916
  C  C1406  1  0.996950  0.090640  0.624990  1.0  0.7134
  C  C1407  1  0.022050  0.067820  0.625060  1.0  -0.1174
  C  C1408  1  0.026100  0.048550  0.648570  1.0  -0.0985
  C  C1409  1  0.982010  0.087030  0.544840  1.0  -0.0952
  C  C1410  1  0.950390  0.105960  0.581690  1.0  0.693
  C  C1411  1  0.957600  0.091300  0.564700  1.0  -0.1166
  C  C1412  1  0.988480  0.073190  0.529170  1.0  -0.102
  C  C1413  1  0.978010  0.046900  0.517390  1.0  0.7082
  C  C1414  1  0.970730  0.063250  0.532740  1.0  -0.1166
  C  C1415  1  0.939840  0.081490  0.568100  1.0  -0.0815
  C  C1416  1  0.946260  0.067780  0.552430  1.0  -0.085
  C  C1417  1  0.927360  0.965750  0.629010  1.0  -0.0834
  C  C1418  1  0.936370  0.974800  0.601590  1.0  -0.0911
  C  C1419  1  0.008060  0.927760  0.713680  1.0  -0.0807
  C  C1420  1  0.976960  0.908340  0.721700  1.0  0.7146
  C  C1421  1  0.003280  0.910280  0.710130  1.0  -0.1104
  C  C1422  1  0.032500  0.931110  0.700620  1.0  -0.0989
  C  C1423  1  0.917430  0.172040  0.581920  1.0  0.717
  C  C1424  1  0.052530  0.917010  0.683850  1.0  -0.1093
  C  C1425  1  0.023620  0.895620  0.694080  1.0  -0.0896
  C  C1426  1  0.047870  0.898890  0.681190  1.0  -0.1078
  C  C1427  1  0.702770  0.680560  0.789080  1.0  -0.1061
  C  C1428  1  0.737530  0.523040  0.850450  1.0  -0.0686
  C  C1429  1  0.745970  0.544610  0.835450  1.0  -0.087
  C  C1430  1  0.822540  0.399460  0.844790  1.0  -0.0959
  C  C1431  1  0.775110  0.419370  0.867800  1.0  0.7197
  C  C1432  1  0.798330  0.418960  0.843590  1.0  -0.1141
  C  C1433  1  0.796960  0.438300  0.819320  1.0  -0.0858
  C  C1434  1  0.601570  0.292740  0.041630  1.0  -0.0927
  C  C1435  1  0.624990  0.287420  0.996950  1.0  0.7112
  C  C1436  1  0.625060  0.285060  0.022050  1.0  -0.1202
  C  C1437  1  0.648570  0.276780  0.026100  1.0  -0.0961
  C  C1438  1  0.544840  0.386110  0.982010  1.0  -0.096
  C  C1439  1  0.581690  0.361960  0.950390  1.0  0.6926
  C  C1440  1  0.564700  0.386400  0.957600  1.0  -0.1158
  C  C1441  1  0.529170  0.409150  0.988480  1.0  -0.1022
  C  C1442  1  0.517390  0.457700  0.978010  1.0  0.71
  C  C1443  1  0.532740  0.433280  0.970730  1.0  -0.1148
  C  C1444  1  0.568100  0.410570  0.939840  1.0  -0.081
  C  C1445  1  0.552430  0.433530  0.946260  1.0  -0.0852
  C  C1446  1  0.629010  0.477880  0.927360  1.0  -0.0803
  C  C1447  1  0.601590  0.487240  0.936370  1.0  -0.0877
  C  C1448  1  0.713680  0.350500  0.008060  1.0  -0.0824
  C  C1449  1  0.721700  0.393000  0.976960  1.0  0.7211
  C  C1450  1  0.710130  0.376310  0.003280  1.0  -0.1084
  C  C1451  1  0.700620  0.335770  0.032500  1.0  -0.1084
  C  C1452  1  0.581920  0.328620  0.917430  1.0  0.7175
  C  C1453  1  0.683850  0.346610  0.052530  1.0  -0.1094
  C  C1454  1  0.694080  0.386690  0.023620  1.0  -0.0917
  C  C1455  1  0.681190  0.372060  0.047870  1.0  -0.1054
  C  C1456  1  0.680560  0.702770  0.827600  1.0  -0.1058
  C  C1457  1  0.523040  0.737530  0.888980  1.0  -0.0694
  C  C1458  1  0.544610  0.745970  0.873970  1.0  -0.0862
  C  C1459  1  0.399460  0.822540  0.933210  1.0  -0.0895
  C  C1460  1  0.419370  0.775110  0.937730  1.0  0.7168
  C  C1461  1  0.418960  0.798330  0.939110  1.0  -0.1119
  C  C1462  1  0.438300  0.796960  0.945420  1.0  -0.0833
  C  C1463  1  0.292740  0.601570  0.064060  1.0  -0.0958
  C  C1464  1  0.287420  0.624990  0.090640  1.0  0.7109
  C  C1465  1  0.285060  0.625060  0.067820  1.0  -0.1207
  C  C1466  1  0.276780  0.648570  0.048550  1.0  -0.1035
  C  C1467  1  0.386110  0.544840  0.087030  1.0  -0.0895
  C  C1468  1  0.361960  0.581690  0.105960  1.0  0.6927
  C  C1469  1  0.386400  0.564700  0.091300  1.0  -0.1172
  C  C1470  1  0.409150  0.529170  0.073190  1.0  -0.1017
  C  C1471  1  0.457700  0.517390  0.046900  1.0  0.7103
  C  C1472  1  0.433280  0.532740  0.063250  1.0  -0.1159
  C  C1473  1  0.410570  0.568100  0.081490  1.0  -0.0821
  C  C1474  1  0.433530  0.552430  0.067780  1.0  -0.084
  C  C1475  1  0.477880  0.629010  0.965750  1.0  -0.0808
  C  C1476  1  0.487240  0.601590  0.974800  1.0  -0.0874
  C  C1477  1  0.350500  0.713680  0.927760  1.0  -0.0827
  C  C1478  1  0.393000  0.721700  0.908340  1.0  0.7188
  C  C1479  1  0.376310  0.710130  0.910280  1.0  -0.1101
  C  C1480  1  0.335770  0.700620  0.931110  1.0  -0.0961
  C  C1481  1  0.328620  0.581920  0.172040  1.0  0.7138
  C  C1482  1  0.346610  0.683850  0.917010  1.0  -0.1098
  C  C1483  1  0.386690  0.694080  0.895620  1.0  -0.0869
  C  C1484  1  0.372060  0.681190  0.898890  1.0  -0.1028
  C  C1485  1  0.702770  0.827600  0.680560  1.0  -0.1106
  C  C1486  1  0.737530  0.888980  0.523040  1.0  -0.0723
  C  C1487  1  0.745970  0.873970  0.544610  1.0  -0.0892
  C  C1488  1  0.822540  0.933210  0.399460  1.0  -0.0889
  C  C1489  1  0.775110  0.937730  0.419370  1.0  0.7154
  C  C1490  1  0.798330  0.939110  0.418960  1.0  -0.1119
  C  C1491  1  0.796960  0.945420  0.438300  1.0  -0.0829
  C  C1492  1  0.601570  0.064060  0.292740  1.0  -0.0958
  C  C1493  1  0.624990  0.090640  0.287420  1.0  0.7123
  C  C1494  1  0.625060  0.067820  0.285060  1.0  -0.1186
  C  C1495  1  0.648570  0.048550  0.276780  1.0  -0.0994
  C  C1496  1  0.544840  0.087030  0.386110  1.0  -0.0879
  C  C1497  1  0.581690  0.105960  0.361960  1.0  0.6924
  C  C1498  1  0.564700  0.091300  0.386400  1.0  -0.1184
  C  C1499  1  0.529170  0.073190  0.409150  1.0  -0.1007
  C  C1500  1  0.517390  0.046900  0.457700  1.0  0.7105
  C  C1501  1  0.532740  0.063250  0.433280  1.0  -0.1159
  C  C1502  1  0.568100  0.081490  0.410570  1.0  -0.0808
  C  C1503  1  0.552430  0.067780  0.433530  1.0  -0.0828
  C  C1504  1  0.629010  0.965750  0.477880  1.0  -0.0835
  C  C1505  1  0.601590  0.974800  0.487240  1.0  -0.0905
  C  C1506  1  0.713680  0.927760  0.350500  1.0  -0.0805
  C  C1507  1  0.721700  0.908340  0.393000  1.0  0.7194
  C  C1508  1  0.710130  0.910280  0.376310  1.0  -0.1096
  C  C1509  1  0.700620  0.931110  0.335770  1.0  -0.0973
  C  C1510  1  0.581920  0.172040  0.328620  1.0  0.7134
  C  C1511  1  0.683850  0.917010  0.346610  1.0  -0.1115
  C  C1512  1  0.694080  0.895620  0.386690  1.0  -0.0906
  C  C1513  1  0.681190  0.898890  0.372060  1.0  -0.1027
  C  C1514  1  0.680560  0.789080  0.702770  1.0  -0.1111
  C  C1515  1  0.523040  0.850450  0.737530  1.0  -0.0702
  C  C1516  1  0.544610  0.835450  0.745970  1.0  -0.09
  C  C1517  1  0.399460  0.844790  0.822540  1.0  -0.0948
  C  C1518  1  0.419370  0.867800  0.775110  1.0  0.7222
  C  C1519  1  0.418960  0.843590  0.798330  1.0  -0.1143
  C  C1520  1  0.438300  0.819320  0.796960  1.0  -0.0831
  C  C1521  1  0.292740  0.041630  0.601570  1.0  -0.0922
  C  C1522  1  0.287420  0.996950  0.624990  1.0  0.7115
  C  C1523  1  0.285060  0.022050  0.625060  1.0  -0.1201
  C  C1524  1  0.276780  0.026100  0.648570  1.0  -0.0956
  C  C1525  1  0.386110  0.982010  0.544840  1.0  -0.0993
  C  C1526  1  0.361960  0.950390  0.581690  1.0  0.691
  C  C1527  1  0.386400  0.957600  0.564700  1.0  -0.1155
  C  C1528  1  0.409150  0.988480  0.529170  1.0  -0.1047
  C  C1529  1  0.457700  0.978010  0.517390  1.0  0.7099
  C  C1530  1  0.433280  0.970730  0.532740  1.0  -0.1147
  C  C1531  1  0.410570  0.939840  0.568100  1.0  -0.0856
  C  C1532  1  0.433530  0.946260  0.552430  1.0  -0.0886
  C  C1533  1  0.477880  0.927360  0.629010  1.0  -0.0843
  C  C1534  1  0.487240  0.936370  0.601590  1.0  -0.0897
  C  C1535  1  0.350500  0.008060  0.713680  1.0  -0.0816
  C  C1536  1  0.393000  0.976960  0.721700  1.0  0.7206
  C  C1537  1  0.376310  0.003280  0.710130  1.0  -0.1081
  C  C1538  1  0.335770  0.032500  0.700620  1.0  -0.1033
  C  C1539  1  0.328620  0.917430  0.581920  1.0  0.7183
  C  C1540  1  0.346610  0.052530  0.683850  1.0  -0.109
  C  C1541  1  0.386690  0.023620  0.694080  1.0  -0.0874
  C  C1542  1  0.372060  0.047870  0.681190  1.0  -0.1064
  C  C1543  1  0.827600  0.702770  0.789080  1.0  -0.1238
  C  C1544  1  0.888980  0.737530  0.850450  1.0  -0.0683
  C  C1545  1  0.873970  0.745970  0.835450  1.0  -0.0875
  C  C1546  1  0.933210  0.822540  0.844790  1.0  -0.0913
  C  C1547  1  0.937730  0.775110  0.867800  1.0  0.7219
  C  C1548  1  0.939110  0.798330  0.843590  1.0  -0.1137
  C  C1549  1  0.945420  0.796960  0.819320  1.0  -0.0849
  C  C1550  1  0.064060  0.601570  0.041630  1.0  -0.0941
  C  C1551  1  0.090640  0.624990  0.996950  1.0  0.7133
  C  C1552  1  0.067820  0.625060  0.022050  1.0  -0.1176
  C  C1553  1  0.048550  0.648570  0.026100  1.0  -0.1033
  C  C1554  1  0.087030  0.544840  0.982010  1.0  -0.0924
  C  C1555  1  0.105960  0.581690  0.950390  1.0  0.6923
  C  C1556  1  0.091300  0.564700  0.957600  1.0  -0.1162
  C  C1557  1  0.073190  0.529170  0.988480  1.0  -0.1021
  C  C1558  1  0.046900  0.517390  0.978010  1.0  0.7071
  C  C1559  1  0.063250  0.532740  0.970730  1.0  -0.1155
  C  C1560  1  0.081490  0.568100  0.939840  1.0  -0.084
  C  C1561  1  0.067780  0.552430  0.946260  1.0  -0.0837
  C  C1562  1  0.965750  0.629010  0.927360  1.0  -0.0813
  C  C1563  1  0.974800  0.601590  0.936370  1.0  -0.0872
  C  C1564  1  0.927760  0.713680  0.008060  1.0  -0.0814
  C  C1565  1  0.908340  0.721700  0.976960  1.0  0.7152
  C  C1566  1  0.910280  0.710130  0.003280  1.0  -0.1102
  C  C1567  1  0.931110  0.700620  0.032500  1.0  -0.094
  C  C1568  1  0.172040  0.581920  0.917430  1.0  0.7178
  C  C1569  1  0.917010  0.683850  0.052530  1.0  -0.1095
  C  C1570  1  0.895620  0.694080  0.023620  1.0  -0.0845
  C  C1571  1  0.898890  0.681190  0.047870  1.0  -0.1074
  C  C1572  1  0.789080  0.680560  0.827600  1.0  -0.1115
  C  C1573  1  0.850450  0.523040  0.888980  1.0  -0.0711
  C  C1574  1  0.835450  0.544610  0.873970  1.0  -0.0864
  C  C1575  1  0.844790  0.399460  0.933210  1.0  -0.0943
  C  C1576  1  0.867800  0.419370  0.937730  1.0  0.7195
  C  C1577  1  0.843590  0.418960  0.939110  1.0  -0.1151
  C  C1578  1  0.819320  0.438300  0.945420  1.0  -0.0833
  C  C1579  1  0.041630  0.292740  0.064060  1.0  -0.0906
  C  C1580  1  0.996950  0.287420  0.090640  1.0  0.7094
  C  C1581  1  0.022050  0.285060  0.067820  1.0  -0.1187
  C  C1582  1  0.026100  0.276780  0.048550  1.0  -0.0981
  C  C1583  1  0.982010  0.386110  0.087030  1.0  -0.0929
  C  C1584  1  0.950390  0.361960  0.105960  1.0  0.693
  C  C1585  1  0.957600  0.386400  0.091300  1.0  -0.1169
  C  C1586  1  0.988480  0.409150  0.073190  1.0  -0.0998
  C  C1587  1  0.978010  0.457700  0.046900  1.0  0.7107
  C  C1588  1  0.970730  0.433280  0.063250  1.0  -0.1141
  C  C1589  1  0.939840  0.410570  0.081490  1.0  -0.0812
  C  C1590  1  0.946260  0.433530  0.067780  1.0  -0.086
  C  C1591  1  0.927360  0.477880  0.965750  1.0  -0.0805
  C  C1592  1  0.936370  0.487240  0.974800  1.0  -0.0876
  C  C1593  1  0.008060  0.350500  0.927760  1.0  -0.0816
  C  C1594  1  0.976960  0.393000  0.908340  1.0  0.7155
  C  C1595  1  0.003280  0.376310  0.910280  1.0  -0.1099
  C  C1596  1  0.032500  0.335770  0.931110  1.0  -0.0985
  C  C1597  1  0.917430  0.328620  0.172040  1.0  0.7186
  C  C1598  1  0.052530  0.346610  0.917010  1.0  -0.1091
  C  C1599  1  0.023620  0.386690  0.895620  1.0  -0.0887
  C  C1600  1  0.047870  0.372060  0.898890  1.0  -0.107
  C  C1601  1  0.789080  0.702770  0.680560  1.0  -0.1078
  C  C1602  1  0.850450  0.737530  0.523040  1.0  -0.0691
  C  C1603  1  0.835450  0.745970  0.544610  1.0  -0.0867
  C  C1604  1  0.844790  0.822540  0.399460  1.0  -0.0909
  C  C1605  1  0.867800  0.775110  0.419370  1.0  0.7216
  C  C1606  1  0.843590  0.798330  0.418960  1.0  -0.1144
  C  C1607  1  0.819320  0.796960  0.438300  1.0  -0.0858
  C  C1608  1  0.041630  0.601570  0.292740  1.0  -0.0955
  C  C1609  1  0.996950  0.624990  0.287420  1.0  0.7097
  C  C1610  1  0.022050  0.625060  0.285060  1.0  -0.1199
  C  C1611  1  0.026100  0.648570  0.276780  1.0  -0.0999
  C  C1612  1  0.982010  0.544840  0.386110  1.0  -0.0951
  C  C1613  1  0.950390  0.581690  0.361960  1.0  0.6929
  C  C1614  1  0.957600  0.564700  0.386400  1.0  -0.1146
  C  C1615  1  0.988480  0.529170  0.409150  1.0  -0.1022
  C  C1616  1  0.978010  0.517390  0.457700  1.0  0.7102
  C  C1617  1  0.970730  0.532740  0.433280  1.0  -0.115
  C  C1618  1  0.939840  0.568100  0.410570  1.0  -0.0829
  C  C1619  1  0.946260  0.552430  0.433530  1.0  -0.0846
  C  C1620  1  0.927360  0.629010  0.477880  1.0  -0.0817
  C  C1621  1  0.936370  0.601590  0.487240  1.0  -0.0886
  C  C1622  1  0.008060  0.713680  0.350500  1.0  -0.0842
  C  C1623  1  0.976960  0.721700  0.393000  1.0  0.7206
  C  C1624  1  0.003280  0.710130  0.376310  1.0  -0.1086
  C  C1625  1  0.032500  0.700620  0.335770  1.0  -0.1004
  C  C1626  1  0.917430  0.581920  0.328620  1.0  0.718
  C  C1627  1  0.052530  0.683850  0.346610  1.0  -0.109
  C  C1628  1  0.023620  0.694080  0.386690  1.0  -0.0872
  C  C1629  1  0.047870  0.681190  0.372060  1.0  -0.1054
  C  C1630  1  0.827600  0.680560  0.702770  1.0  -0.105
  C  C1631  1  0.888980  0.523040  0.737530  1.0  -0.0701
  C  C1632  1  0.873970  0.544610  0.745970  1.0  -0.0876
  C  C1633  1  0.933210  0.399460  0.822540  1.0  -0.0939
  C  C1634  1  0.937730  0.419370  0.775110  1.0  0.7167
  C  C1635  1  0.939110  0.418960  0.798330  1.0  -0.1137
  C  C1636  1  0.945420  0.438300  0.796960  1.0  -0.0839
  C  C1637  1  0.064060  0.292740  0.601570  1.0  -0.0945
  C  C1638  1  0.090640  0.287420  0.624990  1.0  0.7097
  C  C1639  1  0.067820  0.285060  0.625060  1.0  -0.1192
  C  C1640  1  0.048550  0.276780  0.648570  1.0  -0.0984
  C  C1641  1  0.087030  0.386110  0.544840  1.0  -0.0909
  C  C1642  1  0.105960  0.361960  0.581690  1.0  0.6921
  C  C1643  1  0.091300  0.386400  0.564700  1.0  -0.1162
  C  C1644  1  0.073190  0.409150  0.529170  1.0  -0.1
  C  C1645  1  0.046900  0.457700  0.517390  1.0  0.7111
  C  C1646  1  0.063250  0.433280  0.532740  1.0  -0.1147
  C  C1647  1  0.081490  0.410570  0.568100  1.0  -0.0797
  C  C1648  1  0.067780  0.433530  0.552430  1.0  -0.0855
  C  C1649  1  0.965750  0.477880  0.629010  1.0  -0.079
  C  C1650  1  0.974800  0.487240  0.601590  1.0  -0.0868
  C  C1651  1  0.927760  0.350500  0.713680  1.0  -0.0823
  C  C1652  1  0.908340  0.393000  0.721700  1.0  0.7195
  C  C1653  1  0.910280  0.376310  0.710130  1.0  -0.1101
  C  C1654  1  0.931110  0.335770  0.700620  1.0  -0.1005
  C  C1655  1  0.172040  0.328620  0.581920  1.0  0.7127
  C  C1656  1  0.917010  0.346610  0.683850  1.0  -0.1095
  C  C1657  1  0.895620  0.386690  0.694080  1.0  -0.0913
  C  C1658  1  0.898890  0.372060  0.681190  1.0  -0.1032
  C  C1659  1  0.680560  0.827600  0.789080  1.0  -0.1172
  C  C1660  1  0.523040  0.888980  0.850450  1.0  -0.0752
  C  C1661  1  0.544610  0.873970  0.835450  1.0  -0.0882
  C  C1662  1  0.399460  0.933210  0.844790  1.0  -0.0887
  C  C1663  1  0.419370  0.937730  0.867800  1.0  0.7188
  C  C1664  1  0.418960  0.939110  0.843590  1.0  -0.1154
  C  C1665  1  0.438300  0.945420  0.819320  1.0  -0.0779
  C  C1666  1  0.292740  0.064060  0.041630  1.0  -0.093
  C  C1667  1  0.287420  0.090640  0.996950  1.0  0.7109
  C  C1668  1  0.285060  0.067820  0.022050  1.0  -0.1187
  C  C1669  1  0.276780  0.048550  0.026100  1.0  -0.0969
  C  C1670  1  0.386110  0.087030  0.982010  1.0  -0.0954
  C  C1671  1  0.361960  0.105960  0.950390  1.0  0.6937
  C  C1672  1  0.386400  0.091300  0.957600  1.0  -0.1171
  C  C1673  1  0.409150  0.073190  0.988480  1.0  -0.0972
  C  C1674  1  0.457700  0.046900  0.978010  1.0  0.7107
  C  C1675  1  0.433280  0.063250  0.970730  1.0  -0.1142
  C  C1676  1  0.410570  0.081490  0.939840  1.0  -0.0807
  C  C1677  1  0.433530  0.067780  0.946260  1.0  -0.0827
  C  C1678  1  0.477880  0.965750  0.927360  1.0  -0.0821
  C  C1679  1  0.487240  0.974800  0.936370  1.0  -0.0895
  C  C1680  1  0.350500  0.927760  0.008060  1.0  -0.0807
  C  C1681  1  0.393000  0.908340  0.976960  1.0  0.7157
  C  C1682  1  0.376310  0.910280  0.003280  1.0  -0.1108
  C  C1683  1  0.335770  0.931110  0.032500  1.0  -0.0973
  C  C1684  1  0.328620  0.172040  0.917430  1.0  0.7174
  C  C1685  1  0.346610  0.917010  0.052530  1.0  -0.1093
  C  C1686  1  0.386690  0.895620  0.023620  1.0  -0.09
  C  C1687  1  0.372060  0.898890  0.047870  1.0  -0.1057
  C  C1688  1  0.702770  0.789080  0.827600  1.0  -0.124
  C  C1689  1  0.737530  0.850450  0.888980  1.0  -0.0708
  C  C1690  1  0.745970  0.835450  0.873970  1.0  -0.0913
  C  C1691  1  0.822540  0.844790  0.933210  1.0  -0.096
  C  C1692  1  0.775110  0.867800  0.937730  1.0  0.7198
  C  C1693  1  0.798330  0.843590  0.939110  1.0  -0.114
  C  C1694  1  0.796960  0.819320  0.945420  1.0  -0.0827
  C  C1695  1  0.601570  0.041630  0.064060  1.0  -0.0911
  C  C1696  1  0.624990  0.996950  0.090640  1.0  0.714
  C  C1697  1  0.625060  0.022050  0.067820  1.0  -0.1181
  C  C1698  1  0.648570  0.026100  0.048550  1.0  -0.0995
  C  C1699  1  0.544840  0.982010  0.087030  1.0  -0.0985
  C  C1700  1  0.581690  0.950390  0.105960  1.0  0.6928
  C  C1701  1  0.564700  0.957600  0.091300  1.0  -0.1183
  C  C1702  1  0.529170  0.988480  0.073190  1.0  -0.1023
  C  C1703  1  0.517390  0.978010  0.046900  1.0  0.7081
  C  C1704  1  0.532740  0.970730  0.063250  1.0  -0.1175
  C  C1705  1  0.568100  0.939840  0.081490  1.0  -0.0863
  C  C1706  1  0.552430  0.946260  0.067780  1.0  -0.0875
  C  C1707  1  0.629010  0.927360  0.965750  1.0  -0.0846
  C  C1708  1  0.601590  0.936370  0.974800  1.0  -0.0914
  C  C1709  1  0.713680  0.008060  0.927760  1.0  -0.0796
  C  C1710  1  0.721700  0.976960  0.908340  1.0  0.7156
  C  C1711  1  0.710130  0.003280  0.910280  1.0  -0.1101
  C  C1712  1  0.700620  0.032500  0.931110  1.0  -0.0936
  C  C1713  1  0.581920  0.917430  0.172040  1.0  0.7174
  C  C1714  1  0.683850  0.052530  0.917010  1.0  -0.1094
  C  C1715  1  0.694080  0.023620  0.895620  1.0  -0.0841
  C  C1716  1  0.681190  0.047870  0.898890  1.0  -0.1093
  C  C1717  1  0.827600  0.789080  0.702770  1.0  -0.1221
  C  C1718  1  0.888980  0.850450  0.737530  1.0  -0.0711
  C  C1719  1  0.873970  0.835450  0.745970  1.0  -0.0922
  C  C1720  1  0.933210  0.844790  0.822540  1.0  -0.0964
  C  C1721  1  0.937730  0.867800  0.775110  1.0  0.7195
  C  C1722  1  0.939110  0.843590  0.798330  1.0  -0.1144
  C  C1723  1  0.945420  0.819320  0.796960  1.0  -0.0816
  C  C1724  1  0.064060  0.041630  0.601570  1.0  -0.0897
  C  C1725  1  0.090640  0.996950  0.624990  1.0  0.7143
  C  C1726  1  0.067820  0.022050  0.625060  1.0  -0.117
  C  C1727  1  0.048550  0.026100  0.648570  1.0  -0.0984
  C  C1728  1  0.087030  0.982010  0.544840  1.0  -0.0973
  C  C1729  1  0.105960  0.950390  0.581690  1.0  0.693
  C  C1730  1  0.091300  0.957600  0.564700  1.0  -0.1172
  C  C1731  1  0.073190  0.988480  0.529170  1.0  -0.1023
  C  C1732  1  0.046900  0.978010  0.517390  1.0  0.7088
  C  C1733  1  0.063250  0.970730  0.532740  1.0  -0.117
  C  C1734  1  0.081490  0.939840  0.568100  1.0  -0.0842
  C  C1735  1  0.067780  0.946260  0.552430  1.0  -0.088
  C  C1736  1  0.965750  0.927360  0.629010  1.0  -0.0844
  C  C1737  1  0.974800  0.936370  0.601590  1.0  -0.0905
  C  C1738  1  0.927760  0.008060  0.713680  1.0  -0.08
  C  C1739  1  0.908340  0.976960  0.721700  1.0  0.7161
  C  C1740  1  0.910280  0.003280  0.710130  1.0  -0.11
  C  C1741  1  0.931110  0.032500  0.700620  1.0  -0.095
  C  C1742  1  0.172040  0.917430  0.581920  1.0  0.7155
  C  C1743  1  0.917010  0.052530  0.683850  1.0  -0.1097
  C  C1744  1  0.895620  0.023620  0.694080  1.0  -0.0849
  C  C1745  1  0.898890  0.047870  0.681190  1.0  -0.1097
  C  C1746  1  0.789080  0.827600  0.680560  1.0  -0.1182
  C  C1747  1  0.850450  0.888980  0.523040  1.0  -0.0764
  C  C1748  1  0.835450  0.873970  0.544610  1.0  -0.0887
  C  C1749  1  0.844790  0.933210  0.399460  1.0  -0.0894
  C  C1750  1  0.867800  0.937730  0.419370  1.0  0.7182
  C  C1751  1  0.843590  0.939110  0.418960  1.0  -0.115
  C  C1752  1  0.819320  0.945420  0.438300  1.0  -0.0792
  C  C1753  1  0.041630  0.064060  0.292740  1.0  -0.0923
  C  C1754  1  0.996950  0.090640  0.287420  1.0  0.7108
  C  C1755  1  0.022050  0.067820  0.285060  1.0  -0.1177
  C  C1756  1  0.026100  0.048550  0.276780  1.0  -0.097
  C  C1757  1  0.982010  0.087030  0.386110  1.0  -0.0952
  C  C1758  1  0.950390  0.105960  0.361960  1.0  0.6935
  C  C1759  1  0.957600  0.091300  0.386400  1.0  -0.1175
  C  C1760  1  0.988480  0.073190  0.409150  1.0  -0.0998
  C  C1761  1  0.978010  0.046900  0.457700  1.0  0.7111
  C  C1762  1  0.970730  0.063250  0.433280  1.0  -0.1146
  C  C1763  1  0.939840  0.081490  0.410570  1.0  -0.0813
  C  C1764  1  0.946260  0.067780  0.433530  1.0  -0.0838
  C  C1765  1  0.927360  0.965750  0.477880  1.0  -0.0828
  C  C1766  1  0.936370  0.974800  0.487240  1.0  -0.0919
  C  C1767  1  0.008060  0.927760  0.350500  1.0  -0.0816
  C  C1768  1  0.976960  0.908340  0.393000  1.0  0.7145
  C  C1769  1  0.003280  0.910280  0.376310  1.0  -0.1096
  C  C1770  1  0.032500  0.931110  0.335770  1.0  -0.0976
  C  C1771  1  0.917430  0.172040  0.328620  1.0  0.7179
  C  C1772  1  0.052530  0.917010  0.346610  1.0  -0.109
  C  C1773  1  0.023620  0.895620  0.386690  1.0  -0.0883
  C  C1774  1  0.047870  0.898890  0.372060  1.0  -0.1056
  C  C1775  1  0.702770  0.680560  0.827600  1.0  -0.1053
  C  C1776  1  0.737530  0.523040  0.888980  1.0  -0.0687
  C  C1777  1  0.745970  0.544610  0.873970  1.0  -0.087
  C  C1778  1  0.822540  0.399460  0.933210  1.0  -0.0941
  C  C1779  1  0.775110  0.419370  0.937730  1.0  0.7147
  C  C1780  1  0.798330  0.418960  0.939110  1.0  -0.1119
  C  C1781  1  0.796960  0.438300  0.945420  1.0  -0.0864
  C  C1782  1  0.601570  0.292740  0.064060  1.0  -0.0935
  C  C1783  1  0.624990  0.287420  0.090640  1.0  0.7111
  C  C1784  1  0.625060  0.285060  0.067820  1.0  -0.1197
  C  C1785  1  0.648570  0.276780  0.048550  1.0  -0.0984
  C  C1786  1  0.544840  0.386110  0.087030  1.0  -0.0903
  C  C1787  1  0.581690  0.361960  0.105960  1.0  0.693
  C  C1788  1  0.564700  0.386400  0.091300  1.0  -0.1185
  C  C1789  1  0.529170  0.409150  0.073190  1.0  -0.101
  C  C1790  1  0.517390  0.457700  0.046900  1.0  0.7099
  C  C1791  1  0.532740  0.433280  0.063250  1.0  -0.1158
  C  C1792  1  0.568100  0.410570  0.081490  1.0  -0.0797
  C  C1793  1  0.552430  0.433530  0.067780  1.0  -0.0855
  C  C1794  1  0.629010  0.477880  0.965750  1.0  -0.0802
  C  C1795  1  0.601590  0.487240  0.974800  1.0  -0.0874
  C  C1796  1  0.713680  0.350500  0.927760  1.0  -0.0818
  C  C1797  1  0.721700  0.393000  0.908340  1.0  0.72
  C  C1798  1  0.710130  0.376310  0.910280  1.0  -0.1101
  C  C1799  1  0.700620  0.335770  0.931110  1.0  -0.1
  C  C1800  1  0.581920  0.328620  0.172040  1.0  0.714
  C  C1801  1  0.683850  0.346610  0.917010  1.0  -0.1096
  C  C1802  1  0.694080  0.386690  0.895620  1.0  -0.0903
  C  C1803  1  0.681190  0.372060  0.898890  1.0  -0.1028
  C  C1804  1  0.680560  0.702770  0.789080  1.0  -0.1064
  C  C1805  1  0.523040  0.737530  0.850450  1.0  -0.0693
  C  C1806  1  0.544610  0.745970  0.835450  1.0  -0.0871
  C  C1807  1  0.399460  0.822540  0.844790  1.0  -0.0912
  C  C1808  1  0.419370  0.775110  0.867800  1.0  0.7217
  C  C1809  1  0.418960  0.798330  0.843590  1.0  -0.1136
  C  C1810  1  0.438300  0.796960  0.819320  1.0  -0.0845
  C  C1811  1  0.292740  0.601570  0.041630  1.0  -0.0948
  C  C1812  1  0.287420  0.624990  0.996950  1.0  0.7108
  C  C1813  1  0.285060  0.625060  0.022050  1.0  -0.1221
  C  C1814  1  0.276780  0.648570  0.026100  1.0  -0.0991
  C  C1815  1  0.386110  0.544840  0.982010  1.0  -0.0955
  C  C1816  1  0.361960  0.581690  0.950390  1.0  0.6923
  C  C1817  1  0.386400  0.564700  0.957600  1.0  -0.1144
  C  C1818  1  0.409150  0.529170  0.988480  1.0  -0.1027
  C  C1819  1  0.457700  0.517390  0.978010  1.0  0.7105
  C  C1820  1  0.433280  0.532740  0.970730  1.0  -0.1146
  C  C1821  1  0.410570  0.568100  0.939840  1.0  -0.0831
  C  C1822  1  0.433530  0.552430  0.946260  1.0  -0.0833
  C  C1823  1  0.477880  0.629010  0.927360  1.0  -0.0801
  C  C1824  1  0.487240  0.601590  0.936370  1.0  -0.0875
  C  C1825  1  0.350500  0.713680  0.008060  1.0  -0.0825
  C  C1826  1  0.393000  0.721700  0.976960  1.0  0.7194
  C  C1827  1  0.376310  0.710130  0.003280  1.0  -0.1086
  C  C1828  1  0.335770  0.700620  0.032500  1.0  -0.103
  C  C1829  1  0.328620  0.581920  0.917430  1.0  0.7183
  C  C1830  1  0.346610  0.683850  0.052530  1.0  -0.1096
  C  C1831  1  0.386690  0.694080  0.023620  1.0  -0.0877
  C  C1832  1  0.372060  0.681190  0.047870  1.0  -0.1036
  C  C1833  1  0.702770  0.827600  0.789080  1.0  -0.1281
  C  C1834  1  0.737530  0.888980  0.850450  1.0  -0.0719
  C  C1835  1  0.745970  0.873970  0.835450  1.0  -0.0904
  C  C1836  1  0.822540  0.933210  0.844790  1.0  -0.0907
  C  C1837  1  0.775110  0.937730  0.867800  1.0  0.7192
  C  C1838  1  0.798330  0.939110  0.843590  1.0  -0.1143
  C  C1839  1  0.796960  0.945420  0.819320  1.0  -0.083
  C  C1840  1  0.601570  0.064060  0.041630  1.0  -0.093
  C  C1841  1  0.624990  0.090640  0.996950  1.0  0.7146
  C  C1842  1  0.625060  0.067820  0.022050  1.0  -0.117
  C  C1843  1  0.648570  0.048550  0.026100  1.0  -0.0992
  C  C1844  1  0.544840  0.087030  0.982010  1.0  -0.0945
  C  C1845  1  0.581690  0.105960  0.950390  1.0  0.6924
  C  C1846  1  0.564700  0.091300  0.957600  1.0  -0.1181
  C  C1847  1  0.529170  0.073190  0.988480  1.0  -0.1007
  C  C1848  1  0.517390  0.046900  0.978010  1.0  0.7078
  C  C1849  1  0.532740  0.063250  0.970730  1.0  -0.1159
  C  C1850  1  0.568100  0.081490  0.939840  1.0  -0.082
  C  C1851  1  0.552430  0.067780  0.946260  1.0  -0.0833
  C  C1852  1  0.629010  0.965750  0.927360  1.0  -0.0836
  C  C1853  1  0.601590  0.974800  0.936370  1.0  -0.0899
  C  C1854  1  0.713680  0.927760  0.008060  1.0  -0.0798
  C  C1855  1  0.721700  0.908340  0.976960  1.0  0.7158
  C  C1856  1  0.710130  0.910280  0.003280  1.0  -0.1096
  C  C1857  1  0.700620  0.931110  0.032500  1.0  -0.096
  C  C1858  1  0.581920  0.172040  0.917430  1.0  0.7171
  C  C1859  1  0.683850  0.917010  0.052530  1.0  -0.1101
  C  C1860  1  0.694080  0.895620  0.023620  1.0  -0.0886
  C  C1861  1  0.681190  0.898890  0.047870  1.0  -0.1059
  C  C1862  1  0.680560  0.789080  0.827600  1.0  -0.1142
  C  C1863  1  0.523040  0.850450  0.888980  1.0  -0.0722
  C  C1864  1  0.544610  0.835450  0.873970  1.0  -0.0892
  C  C1865  1  0.399460  0.844790  0.933210  1.0  -0.0919
  C  C1866  1  0.419370  0.867800  0.937730  1.0  0.7194
  C  C1867  1  0.418960  0.843590  0.939110  1.0  -0.1149
  C  C1868  1  0.438300  0.819320  0.945420  1.0  -0.0786
  C  C1869  1  0.292740  0.041630  0.064060  1.0  -0.0908
  C  C1870  1  0.287420  0.996950  0.090640  1.0  0.7113
  C  C1871  1  0.285060  0.022050  0.067820  1.0  -0.1191
  C  C1872  1  0.276780  0.026100  0.048550  1.0  -0.098
  C  C1873  1  0.386110  0.982010  0.087030  1.0  -0.0974
  C  C1874  1  0.361960  0.950390  0.105960  1.0  0.6917
  C  C1875  1  0.386400  0.957600  0.091300  1.0  -0.1178
  C  C1876  1  0.409150  0.988480  0.073190  1.0  -0.1031
  C  C1877  1  0.457700  0.978010  0.046900  1.0  0.7107
  C  C1878  1  0.433280  0.970730  0.063250  1.0  -0.1141
  C  C1879  1  0.410570  0.939840  0.081490  1.0  -0.0857
  C  C1880  1  0.433530  0.946260  0.067780  1.0  -0.0877
  C  C1881  1  0.477880  0.927360  0.965750  1.0  -0.0844
  C  C1882  1  0.487240  0.936370  0.974800  1.0  -0.0902
  C  C1883  1  0.350500  0.008060  0.927760  1.0  -0.0812
  C  C1884  1  0.393000  0.976960  0.908340  1.0  0.7158
  C  C1885  1  0.376310  0.003280  0.910280  1.0  -0.1087
  C  C1886  1  0.335770  0.032500  0.931110  1.0  -0.095
  C  C1887  1  0.328620  0.917430  0.172040  1.0  0.7186
  C  C1888  1  0.346610  0.052530  0.917010  1.0  -0.1088
  C  C1889  1  0.386690  0.023620  0.895620  1.0  -0.0853
  C  C1890  1  0.372060  0.047870  0.898890  1.0  -0.107
  C  C1891  1  0.827600  0.702770  0.680560  1.0  -0.1062
  C  C1892  1  0.888980  0.737530  0.523040  1.0  -0.0687
  C  C1893  1  0.873970  0.745970  0.544610  1.0  -0.0863
  C  C1894  1  0.933210  0.822540  0.399460  1.0  -0.0895
  C  C1895  1  0.937730  0.775110  0.419370  1.0  0.718
  C  C1896  1  0.939110  0.798330  0.418960  1.0  -0.1119
  C  C1897  1  0.945420  0.796960  0.438300  1.0  -0.0838
  C  C1898  1  0.064060  0.601570  0.292740  1.0  -0.0979
  C  C1899  1  0.090640  0.624990  0.287420  1.0  0.7112
  C  C1900  1  0.067820  0.625060  0.285060  1.0  -0.1192
  C  C1901  1  0.048550  0.648570  0.276780  1.0  -0.1037
  C  C1902  1  0.087030  0.544840  0.386110  1.0  -0.0877
  C  C1903  1  0.105960  0.581690  0.361960  1.0  0.6922
  C  C1904  1  0.091300  0.564700  0.386400  1.0  -0.1166
  C  C1905  1  0.073190  0.529170  0.409150  1.0  -0.1036
  C  C1906  1  0.046900  0.517390  0.457700  1.0  0.7099
  C  C1907  1  0.063250  0.532740  0.433280  1.0  -0.1153
  C  C1908  1  0.081490  0.568100  0.410570  1.0  -0.0834
  C  C1909  1  0.067780  0.552430  0.433530  1.0  -0.0834
  C  C1910  1  0.965750  0.629010  0.477880  1.0  -0.0814
  C  C1911  1  0.974800  0.601590  0.487240  1.0  -0.0871
  C  C1912  1  0.927760  0.713680  0.350500  1.0  -0.0819
  C  C1913  1  0.908340  0.721700  0.393000  1.0  0.7185
  C  C1914  1  0.910280  0.710130  0.376310  1.0  -0.1101
  C  C1915  1  0.931110  0.700620  0.335770  1.0  -0.0939
  C  C1916  1  0.172040  0.581920  0.328620  1.0  0.7142
  C  C1917  1  0.917010  0.683850  0.346610  1.0  -0.1109
  C  C1918  1  0.895620  0.694080  0.386690  1.0  -0.087
  C  C1919  1  0.898890  0.681190  0.372060  1.0  -0.1027
  C  C1920  1  0.789080  0.680560  0.702770  1.0  -0.1054
  C  C1921  1  0.850450  0.523040  0.737530  1.0  -0.0689
  C  C1922  1  0.835450  0.544610  0.745970  1.0  -0.0865
  C  C1923  1  0.844790  0.399460  0.822540  1.0  -0.0969
  C  C1924  1  0.867800  0.419370  0.775110  1.0  0.722
  C  C1925  1  0.843590  0.418960  0.798330  1.0  -0.115
  C  C1926  1  0.819320  0.438300  0.796960  1.0  -0.0858
  C  C1927  1  0.041630  0.292740  0.601570  1.0  -0.0922
  C  C1928  1  0.996950  0.287420  0.624990  1.0  0.7095
  C  C1929  1  0.022050  0.285060  0.625060  1.0  -0.1193
  C  C1930  1  0.026100  0.276780  0.648570  1.0  -0.0947
  C  C1931  1  0.982010  0.386110  0.544840  1.0  -0.0959
  C  C1932  1  0.950390  0.361960  0.581690  1.0  0.6924
  C  C1933  1  0.957600  0.386400  0.564700  1.0  -0.1149
  C  C1934  1  0.988480  0.409150  0.529170  1.0  -0.103
  C  C1935  1  0.978010  0.457700  0.517390  1.0  0.7104
  C  C1936  1  0.970730  0.433280  0.532740  1.0  -0.1144
  C  C1937  1  0.939840  0.410570  0.568100  1.0  -0.0814
  C  C1938  1  0.946260  0.433530  0.552430  1.0  -0.088
  C  C1939  1  0.927360  0.477880  0.629010  1.0  -0.0806
  C  C1940  1  0.936370  0.487240  0.601590  1.0  -0.0875
  C  C1941  1  0.008060  0.350500  0.713680  1.0  -0.0816
  C  C1942  1  0.976960  0.393000  0.721700  1.0  0.7205
  C  C1943  1  0.003280  0.376310  0.710130  1.0  -0.109
  C  C1944  1  0.032500  0.335770  0.700620  1.0  -0.1078
  C  C1945  1  0.917430  0.328620  0.581920  1.0  0.7186
  C  C1946  1  0.052530  0.346610  0.683850  1.0  -0.1091
  C  C1947  1  0.023620  0.386690  0.694080  1.0  -0.0925
  C  C1948  1  0.047870  0.372060  0.681190  1.0  -0.1047
  C  C1949  1  0.789080  0.702770  0.827600  1.0  -0.124
  C  C1950  1  0.850450  0.737530  0.888980  1.0  -0.0699
  C  C1951  1  0.835450  0.745970  0.873970  1.0  -0.0878
  C  C1952  1  0.844790  0.822540  0.933210  1.0  -0.0932
  C  C1953  1  0.867800  0.775110  0.937730  1.0  0.7209
  C  C1954  1  0.843590  0.798330  0.939110  1.0  -0.1146
  C  C1955  1  0.819320  0.796960  0.945420  1.0  -0.086
  C  C1956  1  0.041630  0.601570  0.064060  1.0  -0.0935
  C  C1957  1  0.996950  0.624990  0.090640  1.0  0.7117
  C  C1958  1  0.022050  0.625060  0.067820  1.0  -0.1183
  C  C1959  1  0.026100  0.648570  0.048550  1.0  -0.1038
  C  C1960  1  0.982010  0.544840  0.087030  1.0  -0.0936
  C  C1961  1  0.950390  0.581690  0.105960  1.0  0.6928
  C  C1962  1  0.957600  0.564700  0.091300  1.0  -0.1156
  C  C1963  1  0.988480  0.529170  0.073190  1.0  -0.1005
  C  C1964  1  0.978010  0.517390  0.046900  1.0  0.7073
  C  C1965  1  0.970730  0.532740  0.063250  1.0  -0.1177
  C  C1966  1  0.939840  0.568100  0.081490  1.0  -0.0838
  C  C1967  1  0.946260  0.552430  0.067780  1.0  -0.0834
  C  C1968  1  0.927360  0.629010  0.965750  1.0  -0.082
  C  C1969  1  0.936370  0.601590  0.974800  1.0  -0.0889
  C  C1970  1  0.008060  0.713680  0.927760  1.0  -0.0822
  C  C1971  1  0.976960  0.721700  0.908340  1.0  0.7164
  C  C1972  1  0.003280  0.710130  0.910280  1.0  -0.1102
  C  C1973  1  0.032500  0.700620  0.931110  1.0  -0.0935
  C  C1974  1  0.917430  0.581920  0.172040  1.0  0.7173
  C  C1975  1  0.052530  0.683850  0.917010  1.0  -0.1094
  C  C1976  1  0.023620  0.694080  0.895620  1.0  -0.0844
  C  C1977  1  0.047870  0.681190  0.898890  1.0  -0.1084
  C  C1978  1  0.827600  0.680560  0.789080  1.0  -0.1106
  C  C1979  1  0.888980  0.523040  0.850450  1.0  -0.0724
  C  C1980  1  0.873970  0.544610  0.835450  1.0  -0.0877
  C  C1981  1  0.933210  0.399460  0.844790  1.0  -0.0928
  C  C1982  1  0.937730  0.419370  0.867800  1.0  0.7198
  C  C1983  1  0.939110  0.418960  0.843590  1.0  -0.1151
  C  C1984  1  0.945420  0.438300  0.819320  1.0  -0.0818
  C  C1985  1  0.064060  0.292740  0.041630  1.0  -0.0901
  C  C1986  1  0.090640  0.287420  0.996950  1.0  0.7097
  C  C1987  1  0.067820  0.285060  0.022050  1.0  -0.1182
  C  C1988  1  0.048550  0.276780  0.026100  1.0  -0.0975
  C  C1989  1  0.087030  0.386110  0.982010  1.0  -0.0944
  C  C1990  1  0.105960  0.361960  0.950390  1.0  0.6932
  C  C1991  1  0.091300  0.386400  0.957600  1.0  -0.1158
  C  C1992  1  0.073190  0.409150  0.988480  1.0  -0.0988
  C  C1993  1  0.046900  0.457700  0.978010  1.0  0.7113
  C  C1994  1  0.063250  0.433280  0.970730  1.0  -0.1135
  C  C1995  1  0.081490  0.410570  0.939840  1.0  -0.0811
  C  C1996  1  0.067780  0.433530  0.946260  1.0  -0.085
  C  C1997  1  0.965750  0.477880  0.927360  1.0  -0.0795
  C  C1998  1  0.974800  0.487240  0.936370  1.0  -0.0867
  C  C1999  1  0.927760  0.350500  0.008060  1.0  -0.0829
  C  C2000  1  0.908340  0.393000  0.976960  1.0  0.7152
  C  C2001  1  0.910280  0.376310  0.003280  1.0  -0.1105
  C  C2002  1  0.931110  0.335770  0.032500  1.0  -0.0997
  C  C2003  1  0.172040  0.328620  0.917430  1.0  0.7168
  C  C2004  1  0.917010  0.346610  0.052530  1.0  -0.1089
  C  C2005  1  0.895620  0.386690  0.023620  1.0  -0.0898
  C  C2006  1  0.898890  0.372060  0.047870  1.0  -0.1064
  C  C2007  1  0.680560  0.827600  0.702770  1.0  -0.1105
  C  C2008  1  0.523040  0.888980  0.737530  1.0  -0.073
  C  C2009  1  0.544610  0.873970  0.745970  1.0  -0.0881
  C  C2010  1  0.399460  0.933210  0.822540  1.0  -0.0895
  C  C2011  1  0.419370  0.937730  0.775110  1.0  0.7158
  C  C2012  1  0.418960  0.939110  0.798330  1.0  -0.1137
  C  C2013  1  0.438300  0.945420  0.796960  1.0  -0.0806
  C  C2014  1  0.292740  0.064060  0.601570  1.0  -0.0964
  C  C2015  1  0.287420  0.090640  0.624990  1.0  0.7109
  C  C2016  1  0.285060  0.067820  0.625060  1.0  -0.1191
  C  C2017  1  0.276780  0.048550  0.648570  1.0  -0.0982
  C  C2018  1  0.386110  0.087030  0.544840  1.0  -0.0909
  C  C2019  1  0.361960  0.105960  0.581690  1.0  0.6923
  C  C2020  1  0.386400  0.091300  0.564700  1.0  -0.1176
  C  C2021  1  0.409150  0.073190  0.529170  1.0  -0.0985
  C  C2022  1  0.457700  0.046900  0.517390  1.0  0.7105
  C  C2023  1  0.433280  0.063250  0.532740  1.0  -0.1155
  C  C2024  1  0.410570  0.081490  0.568100  1.0  -0.0794
  C  C2025  1  0.433530  0.067780  0.552430  1.0  -0.0832
  C  C2026  1  0.477880  0.965750  0.629010  1.0  -0.0818
  C  C2027  1  0.487240  0.974800  0.601590  1.0  -0.0897
  C  C2028  1  0.350500  0.927760  0.713680  1.0  -0.0817
  C  C2029  1  0.393000  0.908340  0.721700  1.0  0.7199
  C  C2030  1  0.376310  0.910280  0.710130  1.0  -0.1106
  C  C2031  1  0.335770  0.931110  0.700620  1.0  -0.0977
  C  C2032  1  0.328620  0.172040  0.581920  1.0  0.7138
  C  C2033  1  0.346610  0.917010  0.683850  1.0  -0.1099
  C  C2034  1  0.386690  0.895620  0.694080  1.0  -0.0916
  C  C2035  1  0.372060  0.898890  0.681190  1.0  -0.1035
  C  C2036  1  0.702770  0.789080  0.680560  1.0  -0.1085
  C  C2037  1  0.737530  0.850450  0.523040  1.0  -0.0704
  C  C2038  1  0.745970  0.835450  0.544610  1.0  -0.0906
  C  C2039  1  0.822540  0.844790  0.399460  1.0  -0.094
  C  C2040  1  0.775110  0.867800  0.419370  1.0  0.7208
  C  C2041  1  0.798330  0.843590  0.418960  1.0  -0.1136
  C  C2042  1  0.796960  0.819320  0.438300  1.0  -0.083
  C  C2043  1  0.601570  0.041630  0.292740  1.0  -0.0925
  C  C2044  1  0.624990  0.996950  0.287420  1.0  0.7122
  C  C2045  1  0.625060  0.022050  0.285060  1.0  -0.12
  C  C2046  1  0.648570  0.026100  0.276780  1.0  -0.0962
  C  C2047  1  0.544840  0.982010  0.386110  1.0  -0.0981
  C  C2048  1  0.581690  0.950390  0.361960  1.0  0.6927
  C  C2049  1  0.564700  0.957600  0.386400  1.0  -0.1177
  C  C2050  1  0.529170  0.988480  0.409150  1.0  -0.1047
  C  C2051  1  0.517390  0.978010  0.457700  1.0  0.7109
  C  C2052  1  0.532740  0.970730  0.433280  1.0  -0.115
  C  C2053  1  0.568100  0.939840  0.410570  1.0  -0.086
  C  C2054  1  0.552430  0.946260  0.433530  1.0  -0.0877
  C  C2055  1  0.629010  0.927360  0.477880  1.0  -0.0841
  C  C2056  1  0.601590  0.936370  0.487240  1.0  -0.0911
  C  C2057  1  0.713680  0.008060  0.350500  1.0  -0.0818
  C  C2058  1  0.721700  0.976960  0.393000  1.0  0.7204
  C  C2059  1  0.710130  0.003280  0.376310  1.0  -0.1086
  C  C2060  1  0.700620  0.032500  0.335770  1.0  -0.1008
  C  C2061  1  0.581920  0.917430  0.328620  1.0  0.7181
  C  C2062  1  0.683850  0.052530  0.346610  1.0  -0.1092
  C  C2063  1  0.694080  0.023620  0.386690  1.0  -0.0871
  C  C2064  1  0.681190  0.047870  0.372060  1.0  -0.1068
  C  C2065  1  0.422400  0.460920  0.569440  1.0  -0.117
  C  C2066  1  0.361020  0.399550  0.726960  1.0  -0.0735
  C  C2067  1  0.376030  0.414550  0.705390  1.0  -0.091
  C  C2068  1  0.316790  0.405210  0.850540  1.0  -0.0921
  C  C2069  1  0.312270  0.382200  0.830630  1.0  0.7187
  C  C2070  1  0.310890  0.406410  0.831040  1.0  -0.1156
  C  C2071  1  0.304580  0.430680  0.811700  1.0  -0.0778
  C  C2072  1  0.185940  0.208370  0.957260  1.0  -0.0911
  C  C2073  1  0.159360  0.253050  0.962580  1.0  0.7107
  C  C2074  1  0.182180  0.227950  0.964940  1.0  -0.1183
  C  C2075  1  0.201450  0.223900  0.973220  1.0  -0.0945
  C  C2076  1  0.162970  0.267990  0.863890  1.0  -0.0943
  C  C2077  1  0.144040  0.299610  0.888040  1.0  0.693
  C  C2078  1  0.158700  0.292400  0.863600  1.0  -0.1178
  C  C2079  1  0.176810  0.261520  0.840850  1.0  -0.1008
  C  C2080  1  0.203100  0.271990  0.792300  1.0  0.7117
  C  C2081  1  0.186750  0.279270  0.816720  1.0  -0.1166
  C  C2082  1  0.168510  0.310160  0.839430  1.0  -0.0863
  C  C2083  1  0.182220  0.303740  0.816470  1.0  -0.0872
  C  C2084  1  0.284250  0.322640  0.772120  1.0  -0.0865
  C  C2085  1  0.275200  0.313630  0.762760  1.0  -0.091
  C  C2086  1  0.322240  0.241940  0.899500  1.0  -0.0827
  C  C2087  1  0.341660  0.273040  0.857000  1.0  0.7154
  C  C2088  1  0.339720  0.246720  0.873690  1.0  -0.11
  C  C2089  1  0.318890  0.217500  0.914230  1.0  -0.0956
  C  C2090  1  0.077960  0.332570  0.921380  1.0  0.7161
  C  C2091  1  0.332990  0.197470  0.903390  1.0  -0.1093
  C  C2092  1  0.354380  0.226380  0.863310  1.0  -0.0851
  C  C2093  1  0.351110  0.202130  0.877940  1.0  -0.1067
  C  C2094  1  0.460920  0.422400  0.547230  1.0  -0.1263
  C  C2095  1  0.399550  0.361020  0.512470  1.0  -0.0726
  C  C2096  1  0.414550  0.376030  0.504030  1.0  -0.0916
  C  C2097  1  0.405210  0.316790  0.427460  1.0  -0.0926
  C  C2098  1  0.382200  0.312270  0.474890  1.0  0.7188
  C  C2099  1  0.406410  0.310890  0.451670  1.0  -0.1143
  C  C2100  1  0.430680  0.304580  0.453040  1.0  -0.0813
  C  C2101  1  0.208370  0.185940  0.648430  1.0  -0.0921
  C  C2102  1  0.253050  0.159360  0.625010  1.0  0.7124
  C  C2103  1  0.227950  0.182180  0.624940  1.0  -0.1191
  C  C2104  1  0.223900  0.201450  0.601430  1.0  -0.0976
  C  C2105  1  0.267990  0.162970  0.705160  1.0  -0.0957
  C  C2106  1  0.299610  0.144040  0.668310  1.0  0.6935
  C  C2107  1  0.292400  0.158700  0.685300  1.0  -0.1177
  C  C2108  1  0.261520  0.176810  0.720830  1.0  -0.1006
  C  C2109  1  0.271990  0.203100  0.732610  1.0  0.7087
  C  C2110  1  0.279270  0.186750  0.717260  1.0  -0.1167
  C  C2111  1  0.310160  0.168510  0.681900  1.0  -0.0816
  C  C2112  1  0.303740  0.182220  0.697570  1.0  -0.0843
  C  C2113  1  0.322640  0.284250  0.620990  1.0  -0.0814
  C  C2114  1  0.313630  0.275200  0.648410  1.0  -0.0898
  C  C2115  1  0.241940  0.322240  0.536320  1.0  -0.0811
  C  C2116  1  0.273040  0.341660  0.528300  1.0  0.7142
  C  C2117  1  0.246720  0.339720  0.539870  1.0  -0.1094
  C  C2118  1  0.217500  0.318890  0.549380  1.0  -0.0985
  C  C2119  1  0.332570  0.077960  0.668080  1.0  0.7171
  C  C2120  1  0.197470  0.332990  0.566150  1.0  -0.1096
  C  C2121  1  0.226380  0.354380  0.555920  1.0  -0.0919
  C  C2122  1  0.202130  0.351110  0.568810  1.0  -0.1081
  C  C2123  1  0.547230  0.569440  0.460920  1.0  -0.1073
  C  C2124  1  0.512470  0.726960  0.399550  1.0  -0.0683
  C  C2125  1  0.504030  0.705390  0.414550  1.0  -0.0877
  C  C2126  1  0.427460  0.850540  0.405210  1.0  -0.0962
  C  C2127  1  0.474890  0.830630  0.382200  1.0  0.7204
  C  C2128  1  0.451670  0.831040  0.406410  1.0  -0.1137
  C  C2129  1  0.453040  0.811700  0.430680  1.0  -0.0842
  C  C2130  1  0.648430  0.957260  0.208370  1.0  -0.0917
  C  C2131  1  0.625010  0.962580  0.253050  1.0  0.7117
  C  C2132  1  0.624940  0.964940  0.227950  1.0  -0.1195
  C  C2133  1  0.601430  0.973220  0.223900  1.0  -0.095
  C  C2134  1  0.705160  0.863890  0.267990  1.0  -0.0973
  C  C2135  1  0.668310  0.888040  0.299610  1.0  0.6928
  C  C2136  1  0.685300  0.863600  0.292400  1.0  -0.1141
  C  C2137  1  0.720830  0.840850  0.261520  1.0  -0.1027
  C  C2138  1  0.732610  0.792300  0.271990  1.0  0.7109
  C  C2139  1  0.717260  0.816720  0.279270  1.0  -0.1137
  C  C2140  1  0.681900  0.839430  0.310160  1.0  -0.0805
  C  C2141  1  0.697570  0.816470  0.303740  1.0  -0.0852
  C  C2142  1  0.620990  0.772120  0.322640  1.0  -0.0805
  C  C2143  1  0.648410  0.762760  0.313630  1.0  -0.0878
  C  C2144  1  0.536320  0.899500  0.241940  1.0  -0.0823
  C  C2145  1  0.528300  0.857000  0.273040  1.0  0.7201
  C  C2146  1  0.539870  0.873690  0.246720  1.0  -0.1092
  C  C2147  1  0.549380  0.914230  0.217500  1.0  -0.1091
  C  C2148  1  0.668080  0.921380  0.332570  1.0  0.7184
  C  C2149  1  0.566150  0.903390  0.197470  1.0  -0.1097
  C  C2150  1  0.555920  0.863310  0.226380  1.0  -0.0906
  C  C2151  1  0.568810  0.877940  0.202130  1.0  -0.104
  C  C2152  1  0.569440  0.547230  0.422400  1.0  -0.1054
  C  C2153  1  0.726960  0.512470  0.361020  1.0  -0.0695
  C  C2154  1  0.705390  0.504030  0.376030  1.0  -0.086
  C  C2155  1  0.850540  0.427460  0.316790  1.0  -0.0904
  C  C2156  1  0.830630  0.474890  0.312270  1.0  0.7173
  C  C2157  1  0.831040  0.451670  0.310890  1.0  -0.1121
  C  C2158  1  0.811700  0.453040  0.304580  1.0  -0.0838
  C  C2159  1  0.957260  0.648430  0.185940  1.0  -0.0963
  C  C2160  1  0.962580  0.625010  0.159360  1.0  0.7106
  C  C2161  1  0.964940  0.624940  0.182180  1.0  -0.1201
  C  C2162  1  0.973220  0.601430  0.201450  1.0  -0.0971
  C  C2163  1  0.863890  0.705160  0.162970  1.0  -0.0896
  C  C2164  1  0.888040  0.668310  0.144040  1.0  0.6919
  C  C2165  1  0.863600  0.685300  0.158700  1.0  -0.1172
  C  C2166  1  0.840850  0.720830  0.176810  1.0  -0.1028
  C  C2167  1  0.792300  0.732610  0.203100  1.0  0.7106
  C  C2168  1  0.816720  0.717260  0.186750  1.0  -0.1152
  C  C2169  1  0.839430  0.681900  0.168510  1.0  -0.0822
  C  C2170  1  0.816470  0.697570  0.182220  1.0  -0.0829
  C  C2171  1  0.772120  0.620990  0.284250  1.0  -0.0799
  C  C2172  1  0.762760  0.648410  0.275200  1.0  -0.0865
  C  C2173  1  0.899500  0.536320  0.322240  1.0  -0.0817
  C  C2174  1  0.857000  0.528300  0.341660  1.0  0.7197
  C  C2175  1  0.873690  0.539870  0.339720  1.0  -0.1097
  C  C2176  1  0.914230  0.549380  0.318890  1.0  -0.0953
  C  C2177  1  0.921380  0.668080  0.077960  1.0  0.7136
  C  C2178  1  0.903390  0.566150  0.332990  1.0  -0.1098
  C  C2179  1  0.863310  0.555920  0.354380  1.0  -0.0867
  C  C2180  1  0.877940  0.568810  0.351110  1.0  -0.1039
  C  C2181  1  0.547230  0.422400  0.569440  1.0  -0.1096
  C  C2182  1  0.512470  0.361020  0.726960  1.0  -0.0717
  C  C2183  1  0.504030  0.376030  0.705390  1.0  -0.0879
  C  C2184  1  0.427460  0.316790  0.850540  1.0  -0.091
  C  C2185  1  0.474890  0.312270  0.830630  1.0  0.7162
  C  C2186  1  0.451670  0.310890  0.831040  1.0  -0.1128
  C  C2187  1  0.453040  0.304580  0.811700  1.0  -0.0817
  C  C2188  1  0.648430  0.185940  0.957260  1.0  -0.0952
  C  C2189  1  0.625010  0.159360  0.962580  1.0  0.7127
  C  C2190  1  0.624940  0.182180  0.964940  1.0  -0.1181
  C  C2191  1  0.601430  0.201450  0.973220  1.0  -0.0948
  C  C2192  1  0.705160  0.162970  0.863890  1.0  -0.0889
  C  C2193  1  0.668310  0.144040  0.888040  1.0  0.6918
  C  C2194  1  0.685300  0.158700  0.863600  1.0  -0.1182
  C  C2195  1  0.720830  0.176810  0.840850  1.0  -0.1006
  C  C2196  1  0.732610  0.203100  0.792300  1.0  0.7101
  C  C2197  1  0.717260  0.186750  0.816720  1.0  -0.1158
  C  C2198  1  0.681900  0.168510  0.839430  1.0  -0.0808
  C  C2199  1  0.697570  0.182220  0.816470  1.0  -0.082
  C  C2200  1  0.620990  0.284250  0.772120  1.0  -0.0819
  C  C2201  1  0.648410  0.275200  0.762760  1.0  -0.0897
  C  C2202  1  0.536320  0.322240  0.899500  1.0  -0.0814
  C  C2203  1  0.528300  0.341660  0.857000  1.0  0.7211
  C  C2204  1  0.539870  0.339720  0.873690  1.0  -0.1096
  C  C2205  1  0.549380  0.318890  0.914230  1.0  -0.0972
  C  C2206  1  0.668080  0.077960  0.921380  1.0  0.7145
  C  C2207  1  0.566150  0.332990  0.903390  1.0  -0.1105
  C  C2208  1  0.555920  0.354380  0.863310  1.0  -0.091
  C  C2209  1  0.568810  0.351110  0.877940  1.0  -0.1038
  C  C2210  1  0.569440  0.460920  0.547230  1.0  -0.1106
  C  C2211  1  0.726960  0.399550  0.512470  1.0  -0.0692
  C  C2212  1  0.705390  0.414550  0.504030  1.0  -0.0916
  C  C2213  1  0.850540  0.405210  0.427460  1.0  -0.0948
  C  C2214  1  0.830630  0.382200  0.474890  1.0  0.7228
  C  C2215  1  0.831040  0.406410  0.451670  1.0  -0.1139
  C  C2216  1  0.811700  0.430680  0.453040  1.0  -0.0836
  C  C2217  1  0.957260  0.208370  0.648430  1.0  -0.0923
  C  C2218  1  0.962580  0.253050  0.625010  1.0  0.7118
  C  C2219  1  0.964940  0.227950  0.624940  1.0  -0.119
  C  C2220  1  0.973220  0.223900  0.601430  1.0  -0.095
  C  C2221  1  0.863890  0.267990  0.705160  1.0  -0.0948
  C  C2222  1  0.888040  0.299610  0.668310  1.0  0.6921
  C  C2223  1  0.863600  0.292400  0.685300  1.0  -0.117
  C  C2224  1  0.840850  0.261520  0.720830  1.0  -0.103
  C  C2225  1  0.792300  0.271990  0.732610  1.0  0.7094
  C  C2226  1  0.816720  0.279270  0.717260  1.0  -0.1139
  C  C2227  1  0.839430  0.310160  0.681900  1.0  -0.0858
  C  C2228  1  0.816470  0.303740  0.697570  1.0  -0.0897
  C  C2229  1  0.772120  0.322640  0.620990  1.0  -0.0865
  C  C2230  1  0.762760  0.313630  0.648410  1.0  -0.0898
  C  C2231  1  0.899500  0.241940  0.536320  1.0  -0.0819
  C  C2232  1  0.857000  0.273040  0.528300  1.0  0.7205
  C  C2233  1  0.873690  0.246720  0.539870  1.0  -0.1086
  C  C2234  1  0.914230  0.217500  0.549380  1.0  -0.1031
  C  C2235  1  0.921380  0.332570  0.668080  1.0  0.7179
  C  C2236  1  0.903390  0.197470  0.566150  1.0  -0.1087
  C  C2237  1  0.863310  0.226380  0.555920  1.0  -0.0874
  C  C2238  1  0.877940  0.202130  0.568810  1.0  -0.1047
  C  C2239  1  0.422400  0.547230  0.460920  1.0  -0.1225
  C  C2240  1  0.361020  0.512470  0.399550  1.0  -0.0697
  C  C2241  1  0.376030  0.504030  0.414550  1.0  -0.0877
  C  C2242  1  0.316790  0.427460  0.405210  1.0  -0.0909
  C  C2243  1  0.312270  0.474890  0.382200  1.0  0.7211
  C  C2244  1  0.310890  0.451670  0.406410  1.0  -0.1141
  C  C2245  1  0.304580  0.453040  0.430680  1.0  -0.0855
  C  C2246  1  0.185940  0.648430  0.208370  1.0  -0.096
  C  C2247  1  0.159360  0.625010  0.253050  1.0  0.7117
  C  C2248  1  0.182180  0.624940  0.227950  1.0  -0.118
  C  C2249  1  0.201450  0.601430  0.223900  1.0  -0.1024
  C  C2250  1  0.162970  0.705160  0.267990  1.0  -0.0941
  C  C2251  1  0.144040  0.668310  0.299610  1.0  0.6929
  C  C2252  1  0.158700  0.685300  0.292400  1.0  -0.1165
  C  C2253  1  0.176810  0.720830  0.261520  1.0  -0.1031
  C  C2254  1  0.203100  0.732610  0.271990  1.0  0.708
  C  C2255  1  0.186750  0.717260  0.279270  1.0  -0.1165
  C  C2256  1  0.168510  0.681900  0.310160  1.0  -0.0833
  C  C2257  1  0.182220  0.697570  0.303740  1.0  -0.0839
  C  C2258  1  0.284250  0.620990  0.322640  1.0  -0.0811
  C  C2259  1  0.275200  0.648410  0.313630  1.0  -0.088
  C  C2260  1  0.322240  0.536320  0.241940  1.0  -0.0821
  C  C2261  1  0.341660  0.528300  0.273040  1.0  0.7136
  C  C2262  1  0.339720  0.539870  0.246720  1.0  -0.11
  C  C2263  1  0.318890  0.549380  0.217500  1.0  -0.0954
  C  C2264  1  0.077960  0.668080  0.332570  1.0  0.7171
  C  C2265  1  0.332990  0.566150  0.197470  1.0  -0.1109
  C  C2266  1  0.354380  0.555920  0.226380  1.0  -0.0848
  C  C2267  1  0.351110  0.568810  0.202130  1.0  -0.1072
  C  C2268  1  0.460920  0.569440  0.422400  1.0  -0.1097
  C  C2269  1  0.399550  0.726960  0.361020  1.0  -0.0712
  C  C2270  1  0.414550  0.705390  0.376030  1.0  -0.0867
  C  C2271  1  0.405210  0.850540  0.316790  1.0  -0.0956
  C  C2272  1  0.382200  0.830630  0.312270  1.0  0.7184
  C  C2273  1  0.406410  0.831040  0.310890  1.0  -0.1141
  C  C2274  1  0.430680  0.811700  0.304580  1.0  -0.0806
  C  C2275  1  0.208370  0.957260  0.185940  1.0  -0.0906
  C  C2276  1  0.253050  0.962580  0.159360  1.0  0.7102
  C  C2277  1  0.227950  0.964940  0.182180  1.0  -0.1193
  C  C2278  1  0.223900  0.973220  0.201450  1.0  -0.0949
  C  C2279  1  0.267990  0.863890  0.162970  1.0  -0.0967
  C  C2280  1  0.299610  0.888040  0.144040  1.0  0.6921
  C  C2281  1  0.292400  0.863600  0.158700  1.0  -0.1158
  C  C2282  1  0.261520  0.840850  0.176810  1.0  -0.0985
  C  C2283  1  0.271990  0.792300  0.203100  1.0  0.7103
  C  C2284  1  0.279270  0.816720  0.186750  1.0  -0.1135
  C  C2285  1  0.310160  0.839430  0.168510  1.0  -0.0813
  C  C2286  1  0.303740  0.816470  0.182220  1.0  -0.0845
  C  C2287  1  0.322640  0.772120  0.284250  1.0  -0.0826
  C  C2288  1  0.313630  0.762760  0.275200  1.0  -0.087
  C  C2289  1  0.241940  0.899500  0.322240  1.0  -0.082
  C  C2290  1  0.273040  0.857000  0.341660  1.0  0.7151
  C  C2291  1  0.246720  0.873690  0.339720  1.0  -0.1096
  C  C2292  1  0.217500  0.914230  0.318890  1.0  -0.098
  C  C2293  1  0.332570  0.921380  0.077960  1.0  0.7189
  C  C2294  1  0.197470  0.903390  0.332990  1.0  -0.1089
  C  C2295  1  0.226380  0.863310  0.354380  1.0  -0.0896
  C  C2296  1  0.202130  0.877940  0.351110  1.0  -0.1059
  C  C2297  1  0.460920  0.547230  0.569440  1.0  -0.1066
  C  C2298  1  0.399550  0.512470  0.726960  1.0  -0.0682
  C  C2299  1  0.414550  0.504030  0.705390  1.0  -0.0877
  C  C2300  1  0.405210  0.427460  0.850540  1.0  -0.0923
  C  C2301  1  0.382200  0.474890  0.830630  1.0  0.7221
  C  C2302  1  0.406410  0.451670  0.831040  1.0  -0.1138
  C  C2303  1  0.430680  0.453040  0.811700  1.0  -0.085
  C  C2304  1  0.208370  0.648430  0.957260  1.0  -0.0972
  C  C2305  1  0.253050  0.625010  0.962580  1.0  0.7109
  C  C2306  1  0.227950  0.624940  0.964940  1.0  -0.1211
  C  C2307  1  0.223900  0.601430  0.973220  1.0  -0.0982
  C  C2308  1  0.267990  0.705160  0.863890  1.0  -0.0956
  C  C2309  1  0.299610  0.668310  0.888040  1.0  0.6924
  C  C2310  1  0.292400  0.685300  0.863600  1.0  -0.1143
  C  C2311  1  0.261520  0.720830  0.840850  1.0  -0.1031
  C  C2312  1  0.271990  0.732610  0.792300  1.0  0.711
  C  C2313  1  0.279270  0.717260  0.816720  1.0  -0.1143
  C  C2314  1  0.310160  0.681900  0.839430  1.0  -0.0835
  C  C2315  1  0.303740  0.697570  0.816470  1.0  -0.0831
  C  C2316  1  0.322640  0.620990  0.772120  1.0  -0.0821
  C  C2317  1  0.313630  0.648410  0.762760  1.0  -0.0881
  C  C2318  1  0.241940  0.536320  0.899500  1.0  -0.0837
  C  C2319  1  0.273040  0.528300  0.857000  1.0  0.7203
  C  C2320  1  0.246720  0.539870  0.873690  1.0  -0.1093
  C  C2321  1  0.217500  0.549380  0.914230  1.0  -0.1014
  C  C2322  1  0.332570  0.668080  0.921380  1.0  0.7179
  C  C2323  1  0.197470  0.566150  0.903390  1.0  -0.1092
  C  C2324  1  0.226380  0.555920  0.863310  1.0  -0.0872
  C  C2325  1  0.202130  0.568810  0.877940  1.0  -0.1068
  C  C2326  1  0.422400  0.569440  0.547230  1.0  -0.107
  C  C2327  1  0.361020  0.726960  0.512470  1.0  -0.071
  C  C2328  1  0.376030  0.705390  0.504030  1.0  -0.0865
  C  C2329  1  0.316790  0.850540  0.427460  1.0  -0.0972
  C  C2330  1  0.312270  0.830630  0.474890  1.0  0.7164
  C  C2331  1  0.310890  0.831040  0.451670  1.0  -0.1135
  C  C2332  1  0.304580  0.811700  0.453040  1.0  -0.0843
  C  C2333  1  0.185940  0.957260  0.648430  1.0  -0.0941
  C  C2334  1  0.159360  0.962580  0.625010  1.0  0.7086
  C  C2335  1  0.182180  0.964940  0.624940  1.0  -0.1188
  C  C2336  1  0.201450  0.973220  0.601430  1.0  -0.0945
  C  C2337  1  0.162970  0.863890  0.705160  1.0  -0.0916
  C  C2338  1  0.144040  0.888040  0.668310  1.0  0.6928
  C  C2339  1  0.158700  0.863600  0.685300  1.0  -0.1158
  C  C2340  1  0.176810  0.840850  0.720830  1.0  -0.0998
  C  C2341  1  0.203100  0.792300  0.732610  1.0  0.7121
  C  C2342  1  0.186750  0.816720  0.717260  1.0  -0.1159
  C  C2343  1  0.168510  0.839430  0.681900  1.0  -0.0799
  C  C2344  1  0.182220  0.816470  0.697570  1.0  -0.0843
  C  C2345  1  0.284250  0.772120  0.620990  1.0  -0.0794
  C  C2346  1  0.275200  0.762760  0.648410  1.0  -0.0877
  C  C2347  1  0.322240  0.899500  0.536320  1.0  -0.0829
  C  C2348  1  0.341660  0.857000  0.528300  1.0  0.7207
  C  C2349  1  0.339720  0.873690  0.539870  1.0  -0.1109
  C  C2350  1  0.318890  0.914230  0.549380  1.0  -0.1005
  C  C2351  1  0.077960  0.921380  0.668080  1.0  0.7134
  C  C2352  1  0.332990  0.903390  0.566150  1.0  -0.1097
  C  C2353  1  0.354380  0.863310  0.555920  1.0  -0.0904
  C  C2354  1  0.351110  0.877940  0.568810  1.0  -0.1
  C  C2355  1  0.569440  0.422400  0.460920  1.0  -0.1146
  C  C2356  1  0.726960  0.361020  0.399550  1.0  -0.075
  C  C2357  1  0.705390  0.376030  0.414550  1.0  -0.0867
  C  C2358  1  0.850540  0.316790  0.405210  1.0  -0.0896
  C  C2359  1  0.830630  0.312270  0.382200  1.0  0.7186
  C  C2360  1  0.831040  0.310890  0.406410  1.0  -0.1154
  C  C2361  1  0.811700  0.304580  0.430680  1.0  -0.0784
  C  C2362  1  0.957260  0.185940  0.208370  1.0  -0.0925
  C  C2363  1  0.962580  0.159360  0.253050  1.0  0.7106
  C  C2364  1  0.964940  0.182180  0.227950  1.0  -0.1176
  C  C2365  1  0.973220  0.201450  0.223900  1.0  -0.0932
  C  C2366  1  0.863890  0.162970  0.267990  1.0  -0.0953
  C  C2367  1  0.888040  0.144040  0.299610  1.0  0.6921
  C  C2368  1  0.863600  0.158700  0.292400  1.0  -0.1188
  C  C2369  1  0.840850  0.176810  0.261520  1.0  -0.0981
  C  C2370  1  0.792300  0.203100  0.271990  1.0  0.7106
  C  C2371  1  0.816720  0.186750  0.279270  1.0  -0.1147
  C  C2372  1  0.839430  0.168510  0.310160  1.0  -0.0805
  C  C2373  1  0.816470  0.182220  0.303740  1.0  -0.0835
  C  C2374  1  0.772120  0.284250  0.322640  1.0  -0.0811
  C  C2375  1  0.762760  0.275200  0.313630  1.0  -0.0894
  C  C2376  1  0.899500  0.322240  0.241940  1.0  -0.0795
  C  C2377  1  0.857000  0.341660  0.273040  1.0  0.7147
  C  C2378  1  0.873690  0.339720  0.246720  1.0  -0.1099
  C  C2379  1  0.914230  0.318890  0.217500  1.0  -0.0958
  C  C2380  1  0.921380  0.077960  0.332570  1.0  0.7178
  C  C2381  1  0.903390  0.332990  0.197470  1.0  -0.1091
  C  C2382  1  0.863310  0.354380  0.226380  1.0  -0.0905
  C  C2383  1  0.877940  0.351110  0.202130  1.0  -0.1086
  C  C2384  1  0.547230  0.460920  0.422400  1.0  -0.1258
  C  C2385  1  0.512470  0.399550  0.361020  1.0  -0.0703
  C  C2386  1  0.504030  0.414550  0.376030  1.0  -0.0925
  C  C2387  1  0.427460  0.405210  0.316790  1.0  -0.0941
  C  C2388  1  0.474890  0.382200  0.312270  1.0  0.72
  C  C2389  1  0.451670  0.406410  0.310890  1.0  -0.114
  C  C2390  1  0.453040  0.430680  0.304580  1.0  -0.0825
  C  C2391  1  0.648430  0.208370  0.185940  1.0  -0.0919
  C  C2392  1  0.625010  0.253050  0.159360  1.0  0.7126
  C  C2393  1  0.624940  0.227950  0.182180  1.0  -0.1186
  C  C2394  1  0.601430  0.223900  0.201450  1.0  -0.101
  C  C2395  1  0.705160  0.267990  0.162970  1.0  -0.0962
  C  C2396  1  0.668310  0.299610  0.144040  1.0  0.6936
  C  C2397  1  0.685300  0.292400  0.158700  1.0  -0.1181
  C  C2398  1  0.720830  0.261520  0.176810  1.0  -0.1023
  C  C2399  1  0.732610  0.271990  0.203100  1.0  0.7081
  C  C2400  1  0.717260  0.279270  0.186750  1.0  -0.1164
  C  C2401  1  0.681900  0.310160  0.168510  1.0  -0.0862
  C  C2402  1  0.697570  0.303740  0.182220  1.0  -0.089
  C  C2403  1  0.620990  0.322640  0.284250  1.0  -0.0859
  C  C2404  1  0.648410  0.313630  0.275200  1.0  -0.0894
  C  C2405  1  0.536320  0.241940  0.322240  1.0  -0.081
  C  C2406  1  0.528300  0.273040  0.341660  1.0  0.7146
  C  C2407  1  0.539870  0.246720  0.339720  1.0  -0.1104
  C  C2408  1  0.549380  0.217500  0.318890  1.0  -0.0927
  C  C2409  1  0.668080  0.332570  0.077960  1.0  0.7182
  C  C2410  1  0.566150  0.197470  0.332990  1.0  -0.1098
  C  C2411  1  0.555920  0.226380  0.354380  1.0  -0.0848
  C  C2412  1  0.568810  0.202130  0.351110  1.0  -0.1059
  C  C2413  1  0.357230  0.357230  0.522980  1.0  0.707
  C  C2414  1  0.372660  0.372660  0.516460  1.0  -0.0962
  C  C2415  1  0.419180  0.419180  0.489080  1.0  0.7137
  C  C2416  1  0.403030  0.403030  0.499380  1.0  -0.0995
  C  C2417  1  0.317620  0.317620  0.577500  1.0  0.7131
  C  C2418  1  0.308070  0.308070  0.606800  1.0  -0.1137
  C  C2419  1  0.280000  0.280000  0.690490  1.0  0.7192
  C  C2420  1  0.289650  0.289650  0.662720  1.0  -0.042
  C  C2421  1  0.357230  0.357230  0.762560  1.0  0.7068
  C  C2422  1  0.372660  0.372660  0.738220  1.0  -0.0961
  C  C2423  1  0.419180  0.419180  0.672570  1.0  0.7123
  C  C2424  1  0.403030  0.403030  0.694550  1.0  -0.0963
  C  C2425  1  0.317620  0.317620  0.787250  1.0  0.7099
  C  C2426  1  0.308070  0.308070  0.777050  1.0  -0.1126
  C  C2427  1  0.280000  0.280000  0.749510  1.0  0.719
  C  C2428  1  0.289650  0.289650  0.757980  1.0  -0.0421
  C  C2429  1  0.522980  0.762560  0.357230  1.0  0.7084
  C  C2430  1  0.516460  0.738220  0.372660  1.0  -0.0978
  C  C2431  1  0.489080  0.672570  0.419180  1.0  0.7138
  C  C2432  1  0.499380  0.694550  0.403030  1.0  -0.0938
  C  C2433  1  0.577500  0.787250  0.317620  1.0  0.713
  C  C2434  1  0.606800  0.777050  0.308070  1.0  -0.1132
  C  C2435  1  0.690490  0.749510  0.280000  1.0  0.7175
  C  C2436  1  0.662720  0.757980  0.289650  1.0  -0.0426
  C  C2437  1  0.762560  0.522980  0.357230  1.0  0.7083
  C  C2438  1  0.738220  0.516460  0.372660  1.0  -0.0973
  C  C2439  1  0.672570  0.489080  0.419180  1.0  0.7115
  C  C2440  1  0.694550  0.499380  0.403030  1.0  -0.0945
  C  C2441  1  0.787250  0.577500  0.317620  1.0  0.7152
  C  C2442  1  0.777050  0.606800  0.308070  1.0  -0.112
  C  C2443  1  0.749510  0.690490  0.280000  1.0  0.7163
  C  C2444  1  0.757980  0.662720  0.289650  1.0  -0.0419
  C  C2445  1  0.522980  0.357230  0.357230  1.0  0.7069
  C  C2446  1  0.516460  0.372660  0.372660  1.0  -0.0964
  C  C2447  1  0.489080  0.419180  0.419180  1.0  0.7133
  C  C2448  1  0.499380  0.403030  0.403030  1.0  -0.0981
  C  C2449  1  0.577500  0.317620  0.317620  1.0  0.7133
  C  C2450  1  0.606800  0.308070  0.308070  1.0  -0.1132
  C  C2451  1  0.690490  0.280000  0.280000  1.0  0.7159
  C  C2452  1  0.662720  0.289650  0.289650  1.0  -0.0428
  C  C2453  1  0.762560  0.357230  0.357230  1.0  0.7089
  C  C2454  1  0.738220  0.372660  0.372660  1.0  -0.0976
  C  C2455  1  0.672570  0.419180  0.419180  1.0  0.7112
  C  C2456  1  0.694550  0.403030  0.403030  1.0  -0.0954
  C  C2457  1  0.787250  0.317620  0.317620  1.0  0.7108
  C  C2458  1  0.777050  0.308070  0.308070  1.0  -0.1134
  C  C2459  1  0.749510  0.280000  0.280000  1.0  0.7177
  C  C2460  1  0.757980  0.289650  0.289650  1.0  -0.0424
  C  C2461  1  0.357230  0.522980  0.762560  1.0  0.7065
  C  C2462  1  0.372660  0.516460  0.738220  1.0  -0.0974
  C  C2463  1  0.419180  0.489080  0.672570  1.0  0.7123
  C  C2464  1  0.403030  0.499380  0.694550  1.0  -0.0951
  C  C2465  1  0.317620  0.577500  0.787250  1.0  0.715
  C  C2466  1  0.308070  0.606800  0.777050  1.0  -0.1119
  C  C2467  1  0.280000  0.690490  0.749510  1.0  0.7165
  C  C2468  1  0.289650  0.662720  0.757980  1.0  -0.0424
  C  C2469  1  0.357230  0.762560  0.522980  1.0  0.7087
  C  C2470  1  0.372660  0.738220  0.516460  1.0  -0.0974
  C  C2471  1  0.419180  0.672570  0.489080  1.0  0.7124
  C  C2472  1  0.403030  0.694550  0.499380  1.0  -0.0942
  C  C2473  1  0.317620  0.787250  0.577500  1.0  0.7149
  C  C2474  1  0.308070  0.777050  0.606800  1.0  -0.1138
  C  C2475  1  0.280000  0.749510  0.690490  1.0  0.7171
  C  C2476  1  0.289650  0.757980  0.662720  1.0  -0.0424
  C  C2477  1  0.357230  0.522980  0.357230  1.0  0.707
  C  C2478  1  0.372660  0.516460  0.372660  1.0  -0.0959
  C  C2479  1  0.419180  0.489080  0.419180  1.0  0.7129
  C  C2480  1  0.403030  0.499380  0.403030  1.0  -0.0984
  C  C2481  1  0.317620  0.577500  0.317620  1.0  0.7141
  C  C2482  1  0.308070  0.606800  0.308070  1.0  -0.1118
  C  C2483  1  0.280000  0.690490  0.280000  1.0  0.7167
  C  C2484  1  0.289650  0.662720  0.289650  1.0  -0.0425
  C  C2485  1  0.357230  0.762560  0.357230  1.0  0.7087
  C  C2486  1  0.372660  0.738220  0.372660  1.0  -0.0966
  C  C2487  1  0.419180  0.672570  0.419180  1.0  0.7118
  C  C2488  1  0.403030  0.694550  0.403030  1.0  -0.0954
  C  C2489  1  0.317620  0.787250  0.317620  1.0  0.7106
  C  C2490  1  0.308070  0.777050  0.308070  1.0  -0.1125
  C  C2491  1  0.280000  0.749510  0.280000  1.0  0.7183
  C  C2492  1  0.289650  0.757980  0.289650  1.0  -0.0423
  C  C2493  1  0.762560  0.357230  0.522980  1.0  0.7089
  C  C2494  1  0.738220  0.372660  0.516460  1.0  -0.0982
  C  C2495  1  0.672570  0.419180  0.489080  1.0  0.7119
  C  C2496  1  0.694550  0.403030  0.499380  1.0  -0.0947
  C  C2497  1  0.787250  0.317620  0.577500  1.0  0.715
  C  C2498  1  0.777050  0.308070  0.606800  1.0  -0.1148
  C  C2499  1  0.749510  0.280000  0.690490  1.0  0.7163
  C  C2500  1  0.757980  0.289650  0.662720  1.0  -0.0424
  C  C2501  1  0.522980  0.357230  0.762560  1.0  0.7067
  C  C2502  1  0.516460  0.372660  0.738220  1.0  -0.098
  C  C2503  1  0.489080  0.419180  0.672570  1.0  0.7126
  C  C2504  1  0.499380  0.403030  0.694550  1.0  -0.0949
  C  C2505  1  0.577500  0.317620  0.787250  1.0  0.7139
  C  C2506  1  0.606800  0.308070  0.777050  1.0  -0.1134
  C  C2507  1  0.690490  0.280000  0.749510  1.0  0.7157
  C  C2508  1  0.662720  0.289650  0.757980  1.0  -0.0427
  C  C2509  1  0.892770  0.892770  0.487440  1.0  0.7075
  C  C2510  1  0.877340  0.877340  0.511780  1.0  -0.0963
  C  C2511  1  0.830820  0.830820  0.577430  1.0  0.7118
  C  C2512  1  0.846970  0.846970  0.555450  1.0  -0.096
  C  C2513  1  0.932380  0.932380  0.462750  1.0  0.7108
  C  C2514  1  0.941930  0.941930  0.472950  1.0  -0.1137
  C  C2515  1  0.970000  0.970000  0.500490  1.0  0.718
  C  C2516  1  0.960350  0.960350  0.492020  1.0  -0.042
  C  C2517  1  0.892770  0.892770  0.727020  1.0  0.7075
  C  C2518  1  0.877340  0.877340  0.733540  1.0  -0.0951
  C  C2519  1  0.830820  0.830820  0.760920  1.0  0.714
  C  C2520  1  0.846970  0.846970  0.750620  1.0  -0.0988
  C  C2521  1  0.932380  0.932380  0.672500  1.0  0.7132
  C  C2522  1  0.941930  0.941930  0.643200  1.0  -0.1135
  C  C2523  1  0.970000  0.970000  0.559510  1.0  0.7182
  C  C2524  1  0.960350  0.960350  0.587280  1.0  -0.0422
  C  C2525  1  0.727020  0.487440  0.892770  1.0  0.7085
  C  C2526  1  0.733540  0.511780  0.877340  1.0  -0.0975
  C  C2527  1  0.760920  0.577430  0.830820  1.0  0.7144
  C  C2528  1  0.750620  0.555450  0.846970  1.0  -0.0949
  C  C2529  1  0.672500  0.462750  0.932380  1.0  0.7139
  C  C2530  1  0.643200  0.472950  0.941930  1.0  -0.1136
  C  C2531  1  0.559510  0.500490  0.970000  1.0  0.7174
  C  C2532  1  0.587280  0.492020  0.960350  1.0  -0.0425
  C  C2533  1  0.487440  0.727020  0.892770  1.0  0.7071
  C  C2534  1  0.511780  0.733540  0.877340  1.0  -0.0978
  C  C2535  1  0.577430  0.760920  0.830820  1.0  0.7117
  C  C2536  1  0.555450  0.750620  0.846970  1.0  -0.0947
  C  C2537  1  0.462750  0.672500  0.932380  1.0  0.7145
  C  C2538  1  0.472950  0.643200  0.941930  1.0  -0.1108
  C  C2539  1  0.500490  0.559510  0.970000  1.0  0.7176
  C  C2540  1  0.492020  0.587280  0.960350  1.0  -0.0422
  C  C2541  1  0.727020  0.892770  0.487440  1.0  0.7073
  C  C2542  1  0.733540  0.877340  0.511780  1.0  -0.0973
  C  C2543  1  0.760920  0.830820  0.577430  1.0  0.7128
  C  C2544  1  0.750620  0.846970  0.555450  1.0  -0.0951
  C  C2545  1  0.672500  0.932380  0.462750  1.0  0.7145
  C  C2546  1  0.643200  0.941930  0.472950  1.0  -0.1139
  C  C2547  1  0.559510  0.970000  0.500490  1.0  0.7159
  C  C2548  1  0.587280  0.960350  0.492020  1.0  -0.0426
  C  C2549  1  0.487440  0.892770  0.727020  1.0  0.7091
  C  C2550  1  0.511780  0.877340  0.733540  1.0  -0.0976
  C  C2551  1  0.577430  0.830820  0.760920  1.0  0.7116
  C  C2552  1  0.555450  0.846970  0.750620  1.0  -0.0949
  C  C2553  1  0.462750  0.932380  0.672500  1.0  0.7146
  C  C2554  1  0.472950  0.941930  0.643200  1.0  -0.114
  C  C2555  1  0.500490  0.970000  0.559510  1.0  0.717
  C  C2556  1  0.492020  0.960350  0.587280  1.0  -0.0428
  C  C2557  1  0.892770  0.727020  0.892770  1.0  0.7072
  C  C2558  1  0.877340  0.733540  0.877340  1.0  -0.0958
  C  C2559  1  0.830820  0.760920  0.830820  1.0  0.7125
  C  C2560  1  0.846970  0.750620  0.846970  1.0  -0.0985
  C  C2561  1  0.932380  0.672500  0.932380  1.0  0.7133
  C  C2562  1  0.941930  0.643200  0.941930  1.0  -0.111
  C  C2563  1  0.970000  0.559510  0.970000  1.0  0.7163
  C  C2564  1  0.960350  0.587280  0.960350  1.0  -0.0421
  C  C2565  1  0.892770  0.487440  0.892770  1.0  0.7086
  C  C2566  1  0.877340  0.511780  0.877340  1.0  -0.0962
  C  C2567  1  0.830820  0.577430  0.830820  1.0  0.7123
  C  C2568  1  0.846970  0.555450  0.846970  1.0  -0.0945
  C  C2569  1  0.932380  0.462750  0.932380  1.0  0.7113
  C  C2570  1  0.941930  0.472950  0.941930  1.0  -0.1136
  C  C2571  1  0.970000  0.500490  0.970000  1.0  0.716
  C  C2572  1  0.960350  0.492020  0.960350  1.0  -0.0424
  C  C2573  1  0.892770  0.727020  0.487440  1.0  0.7073
  C  C2574  1  0.877340  0.733540  0.511780  1.0  -0.0964
  C  C2575  1  0.830820  0.760920  0.577430  1.0  0.7123
  C  C2576  1  0.846970  0.750620  0.555450  1.0  -0.0947
  C  C2577  1  0.932380  0.672500  0.462750  1.0  0.714
  C  C2578  1  0.941930  0.643200  0.472950  1.0  -0.1113
  C  C2579  1  0.970000  0.559510  0.500490  1.0  0.7159
  C  C2580  1  0.960350  0.587280  0.492020  1.0  -0.0421
  C  C2581  1  0.892770  0.487440  0.727020  1.0  0.7089
  C  C2582  1  0.877340  0.511780  0.733540  1.0  -0.0965
  C  C2583  1  0.830820  0.577430  0.760920  1.0  0.7128
  C  C2584  1  0.846970  0.555450  0.750620  1.0  -0.0941
  C  C2585  1  0.932380  0.462750  0.672500  1.0  0.7143
  C  C2586  1  0.941930  0.472950  0.643200  1.0  -0.1134
  C  C2587  1  0.970000  0.500490  0.559510  1.0  0.7166
  C  C2588  1  0.960350  0.492020  0.587280  1.0  -0.0422
  C  C2589  1  0.487440  0.892770  0.892770  1.0  0.7089
  C  C2590  1  0.511780  0.877340  0.877340  1.0  -0.0971
  C  C2591  1  0.577430  0.830820  0.830820  1.0  0.7116
  C  C2592  1  0.555450  0.846970  0.846970  1.0  -0.0955
  C  C2593  1  0.462750  0.932380  0.932380  1.0  0.7114
  C  C2594  1  0.472950  0.941930  0.941930  1.0  -0.114
  C  C2595  1  0.500490  0.970000  0.970000  1.0  0.7163
  C  C2596  1  0.492020  0.960350  0.960350  1.0  -0.0431
  C  C2597  1  0.727020  0.892770  0.892770  1.0  0.7069
  C  C2598  1  0.733540  0.877340  0.877340  1.0  -0.0966
  C  C2599  1  0.760920  0.830820  0.830820  1.0  0.713
  C  C2600  1  0.750620  0.846970  0.846970  1.0  -0.0994
  C  C2601  1  0.672500  0.932380  0.932380  1.0  0.7138
  C  C2602  1  0.643200  0.941930  0.941930  1.0  -0.1138
  C  C2603  1  0.559510  0.970000  0.970000  1.0  0.7163
  C  C2604  1  0.587280  0.960350  0.960350  1.0  -0.0426
  C  C2605  1  0.442800  0.442800  0.512290  1.0  0.7334
  C  C2606  1  0.441880  0.441880  0.535550  1.0  -0.0512
  C  C2607  1  0.442800  0.442800  0.602110  1.0  0.7328
  C  C2608  1  0.441880  0.441880  0.580690  1.0  -0.0471
  C  C2609  1  0.512290  0.602110  0.442800  1.0  0.7352
  C  C2610  1  0.535550  0.580690  0.441880  1.0  -0.0487
  C  C2611  1  0.602110  0.512290  0.442800  1.0  0.7338
  C  C2612  1  0.580690  0.535550  0.441880  1.0  -0.0494
  C  C2613  1  0.512290  0.442800  0.442800  1.0  0.7352
  C  C2614  1  0.535550  0.441880  0.441880  1.0  -0.0505
  C  C2615  1  0.602110  0.442800  0.442800  1.0  0.7331
  C  C2616  1  0.580690  0.441880  0.441880  1.0  -0.0482
  C  C2617  1  0.442800  0.512290  0.602110  1.0  0.7333
  C  C2618  1  0.441880  0.535550  0.580690  1.0  -0.0492
  C  C2619  1  0.442800  0.602110  0.512290  1.0  0.7326
  C  C2620  1  0.441880  0.580690  0.535550  1.0  -0.0476
  C  C2621  1  0.442800  0.512290  0.442800  1.0  0.7333
  C  C2622  1  0.441880  0.535550  0.441880  1.0  -0.0517
  C  C2623  1  0.442800  0.602110  0.442800  1.0  0.7327
  C  C2624  1  0.441880  0.580690  0.441880  1.0  -0.0472
  C  C2625  1  0.602110  0.442800  0.512290  1.0  0.7326
  C  C2626  1  0.580690  0.441880  0.535550  1.0  -0.0484
  C  C2627  1  0.512290  0.442800  0.602110  1.0  0.7352
  C  C2628  1  0.535550  0.441880  0.580690  1.0  -0.0484
  C  C2629  1  0.807200  0.807200  0.647890  1.0  0.7336
  C  C2630  1  0.808120  0.808120  0.669310  1.0  -0.0476
  C  C2631  1  0.807200  0.807200  0.737710  1.0  0.7335
  C  C2632  1  0.808120  0.808120  0.714450  1.0  -0.0515
  C  C2633  1  0.737710  0.647890  0.807200  1.0  0.7348
  C  C2634  1  0.714450  0.669310  0.808120  1.0  -0.0485
  C  C2635  1  0.647890  0.737710  0.807200  1.0  0.7337
  C  C2636  1  0.669310  0.714450  0.808120  1.0  -0.0487
  C  C2637  1  0.737710  0.807200  0.647890  1.0  0.7345
  C  C2638  1  0.714450  0.808120  0.669310  1.0  -0.0484
  C  C2639  1  0.647890  0.807200  0.737710  1.0  0.7327
  C  C2640  1  0.669310  0.808120  0.714450  1.0  -0.0486
  C  C2641  1  0.807200  0.737710  0.807200  1.0  0.7341
  C  C2642  1  0.808120  0.714450  0.808120  1.0  -0.0516
  C  C2643  1  0.807200  0.647890  0.807200  1.0  0.733
  C  C2644  1  0.808120  0.669310  0.808120  1.0  -0.0464
  C  C2645  1  0.807200  0.737710  0.647890  1.0  0.7335
  C  C2646  1  0.808120  0.714450  0.669310  1.0  -0.0489
  C  C2647  1  0.807200  0.647890  0.737710  1.0  0.7331
  C  C2648  1  0.808120  0.669310  0.714450  1.0  -0.0487
  C  C2649  1  0.647890  0.807200  0.807200  1.0  0.7325
  C  C2650  1  0.669310  0.808120  0.808120  1.0  -0.0463
  C  C2651  1  0.737710  0.807200  0.807200  1.0  0.735
  C  C2652  1  0.714450  0.808120  0.808120  1.0  -0.0513
  O  O2653  1  0.425590  0.461030  0.502140  1.0  -0.6187
  O  O2654  1  0.333270  0.368830  0.525250  1.0  -0.6154
  O  O2655  1  0.408010  0.443520  0.484770  1.0  -0.6101
  O  O2656  1  0.306370  0.383700  0.496730  1.0  -0.6064
  O  O2657  1  0.360820  0.319690  0.471760  1.0  -0.5973
  O  O2658  1  0.143410  0.256260  0.646810  1.0  -0.605
  O  O2659  1  0.092850  0.280980  0.646700  1.0  -0.6093
  O  O2660  1  0.133960  0.283900  0.672770  1.0  -0.5895
  O  O2661  1  0.142050  0.321490  0.650000  1.0  -0.5899
  O  O2662  1  0.207970  0.249270  0.749400  1.0  -0.6113
  O  O2663  1  0.212180  0.288670  0.727710  1.0  -0.6176
  O  O2664  1  0.303790  0.339260  0.565560  1.0  -0.6057
  O  O2665  1  0.258010  0.293460  0.702490  1.0  -0.6208
  O  O2666  1  0.331120  0.290160  0.511110  1.0  -0.6123
  O  O2667  1  0.277460  0.353320  0.536570  1.0  -0.5903
  O  O2668  1  0.084100  0.308550  0.672270  1.0  -0.6161
  O  O2669  1  0.157370  0.339070  0.599430  1.0  -0.6186
  O  O2670  1  0.461030  0.425590  0.611240  1.0  -0.6176
  O  O2671  1  0.368830  0.333270  0.772650  1.0  -0.6158
  O  O2672  1  0.443520  0.408010  0.663700  1.0  -0.6038
  O  O2673  1  0.383700  0.306370  0.813200  1.0  -0.607
  O  O2674  1  0.319690  0.360820  0.847730  1.0  -0.5967
  O  O2675  1  0.256260  0.143410  0.953520  1.0  -0.6068
  O  O2676  1  0.280980  0.092850  0.979460  1.0  -0.611
  O  O2677  1  0.283900  0.133960  0.909370  1.0  -0.5915
  O  O2678  1  0.321490  0.142050  0.886470  1.0  -0.5914
  O  O2679  1  0.249270  0.207970  0.793360  1.0  -0.6053
  O  O2680  1  0.288670  0.212180  0.771430  1.0  -0.6185
  O  O2681  1  0.339260  0.303790  0.791400  1.0  -0.6067
  O  O2682  1  0.293460  0.258010  0.746040  1.0  -0.6204
  O  O2683  1  0.290160  0.331120  0.867620  1.0  -0.6112
  O  O2684  1  0.353320  0.277460  0.832640  1.0  -0.5878
  O  O2685  1  0.308550  0.084100  0.935080  1.0  -0.6158
  O  O2686  1  0.339070  0.157370  0.904140  1.0  -0.6181
  O  O2687  1  0.502140  0.611240  0.425590  1.0  -0.6159
  O  O2688  1  0.525250  0.772650  0.333270  1.0  -0.6144
  O  O2689  1  0.484770  0.663700  0.408010  1.0  -0.6065
  O  O2690  1  0.496730  0.813200  0.306370  1.0  -0.6072
  O  O2691  1  0.471760  0.847730  0.360820  1.0  -0.6004
  O  O2692  1  0.646810  0.953520  0.143410  1.0  -0.6071
  O  O2693  1  0.646700  0.979460  0.092850  1.0  -0.6122
  O  O2694  1  0.672770  0.909370  0.133960  1.0  -0.5905
  O  O2695  1  0.650000  0.886470  0.142050  1.0  -0.5913
  O  O2696  1  0.749400  0.793360  0.207970  1.0  -0.6121
  O  O2697  1  0.727710  0.771430  0.212180  1.0  -0.6161
  O  O2698  1  0.565560  0.791400  0.303790  1.0  -0.6056
  O  O2699  1  0.702490  0.746040  0.258010  1.0  -0.6176
  O  O2700  1  0.511110  0.867620  0.331120  1.0  -0.6112
  O  O2701  1  0.536570  0.832640  0.277460  1.0  -0.589
  O  O2702  1  0.672270  0.935080  0.084100  1.0  -0.6143
  O  O2703  1  0.599430  0.904140  0.157370  1.0  -0.6196
  O  O2704  1  0.611240  0.502140  0.461030  1.0  -0.6146
  O  O2705  1  0.772650  0.525250  0.368830  1.0  -0.6159
  O  O2706  1  0.663700  0.484770  0.443520  1.0  -0.6058
  O  O2707  1  0.813200  0.496730  0.383700  1.0  -0.6086
  O  O2708  1  0.847730  0.471760  0.319690  1.0  -0.5988
  O  O2709  1  0.953520  0.646810  0.256260  1.0  -0.6057
  O  O2710  1  0.979460  0.646700  0.280980  1.0  -0.6108
  O  O2711  1  0.909370  0.672770  0.283900  1.0  -0.5891
  O  O2712  1  0.886470  0.650000  0.321490  1.0  -0.5916
  O  O2713  1  0.793360  0.749400  0.249270  1.0  -0.6033
  O  O2714  1  0.771430  0.727710  0.288670  1.0  -0.6141
  O  O2715  1  0.791400  0.565560  0.339260  1.0  -0.6082
  O  O2716  1  0.746040  0.702490  0.293460  1.0  -0.6213
  O  O2717  1  0.867620  0.511110  0.290160  1.0  -0.6165
  O  O2718  1  0.832640  0.536570  0.353320  1.0  -0.5899
  O  O2719  1  0.935080  0.672270  0.308550  1.0  -0.6149
  O  O2720  1  0.904140  0.599430  0.339070  1.0  -0.6225
  O  O2721  1  0.502140  0.425590  0.461030  1.0  -0.616
  O  O2722  1  0.525250  0.333270  0.368830  1.0  -0.6156
  O  O2723  1  0.484770  0.408010  0.443520  1.0  -0.6071
  O  O2724  1  0.496730  0.306370  0.383700  1.0  -0.607
  O  O2725  1  0.471760  0.360820  0.319690  1.0  -0.5996
  O  O2726  1  0.646810  0.143410  0.256260  1.0  -0.6081
  O  O2727  1  0.646700  0.092850  0.280980  1.0  -0.6109
  O  O2728  1  0.672770  0.133960  0.283900  1.0  -0.5886
  O  O2729  1  0.650000  0.142050  0.321490  1.0  -0.5916
  O  O2730  1  0.749400  0.207970  0.249270  1.0  -0.6082
  O  O2731  1  0.727710  0.212180  0.288670  1.0  -0.6148
  O  O2732  1  0.565560  0.303790  0.339260  1.0  -0.6085
  O  O2733  1  0.702490  0.258010  0.293460  1.0  -0.6216
  O  O2734  1  0.511110  0.331120  0.290160  1.0  -0.6119
  O  O2735  1  0.536570  0.277460  0.353320  1.0  -0.5891
  O  O2736  1  0.672270  0.084100  0.308550  1.0  -0.6129
  O  O2737  1  0.599430  0.157370  0.339070  1.0  -0.6204
  O  O2738  1  0.611240  0.461030  0.425590  1.0  -0.6161
  O  O2739  1  0.772650  0.368830  0.333270  1.0  -0.6151
  O  O2740  1  0.663700  0.443520  0.408010  1.0  -0.6058
  O  O2741  1  0.813200  0.383700  0.306370  1.0  -0.6077
  O  O2742  1  0.847730  0.319690  0.360820  1.0  -0.5982
  O  O2743  1  0.953520  0.256260  0.143410  1.0  -0.6026
  O  O2744  1  0.979460  0.280980  0.092850  1.0  -0.6095
  O  O2745  1  0.909370  0.283900  0.133960  1.0  -0.5887
  O  O2746  1  0.886470  0.321490  0.142050  1.0  -0.5939
  O  O2747  1  0.793360  0.249270  0.207970  1.0  -0.6044
  O  O2748  1  0.771430  0.288670  0.212180  1.0  -0.6171
  O  O2749  1  0.791400  0.339260  0.303790  1.0  -0.608
  O  O2750  1  0.746040  0.293460  0.258010  1.0  -0.6195
  O  O2751  1  0.867620  0.290160  0.331120  1.0  -0.6127
  O  O2752  1  0.832640  0.353320  0.277460  1.0  -0.5878
  O  O2753  1  0.935080  0.308550  0.084100  1.0  -0.613
  O  O2754  1  0.904140  0.339070  0.157370  1.0  -0.619
  O  O2755  1  0.425590  0.502140  0.611240  1.0  -0.6191
  O  O2756  1  0.333270  0.525250  0.772650  1.0  -0.6166
  O  O2757  1  0.408010  0.484770  0.663700  1.0  -0.6069
  O  O2758  1  0.306370  0.496730  0.813200  1.0  -0.6094
  O  O2759  1  0.360820  0.471760  0.847730  1.0  -0.6007
  O  O2760  1  0.143410  0.646810  0.953520  1.0  -0.6049
  O  O2761  1  0.092850  0.646700  0.979460  1.0  -0.6088
  O  O2762  1  0.133960  0.672770  0.909370  1.0  -0.5879
  O  O2763  1  0.142050  0.650000  0.886470  1.0  -0.5917
  O  O2764  1  0.207970  0.749400  0.793360  1.0  -0.6091
  O  O2765  1  0.212180  0.727710  0.771430  1.0  -0.6152
  O  O2766  1  0.303790  0.565560  0.791400  1.0  -0.6073
  O  O2767  1  0.258010  0.702490  0.746040  1.0  -0.6204
  O  O2768  1  0.331120  0.511110  0.867620  1.0  -0.6109
  O  O2769  1  0.277460  0.536570  0.832640  1.0  -0.5906
  O  O2770  1  0.084100  0.672270  0.935080  1.0  -0.6155
  O  O2771  1  0.157370  0.599430  0.904140  1.0  -0.6186
  O  O2772  1  0.461030  0.611240  0.502140  1.0  -0.6159
  O  O2773  1  0.368830  0.772650  0.525250  1.0  -0.6165
  O  O2774  1  0.443520  0.663700  0.484770  1.0  -0.6068
  O  O2775  1  0.383700  0.813200  0.496730  1.0  -0.6092
  O  O2776  1  0.319690  0.847730  0.471760  1.0  -0.5965
  O  O2777  1  0.256260  0.953520  0.646810  1.0  -0.6073
  O  O2778  1  0.280980  0.979460  0.646700  1.0  -0.6123
  O  O2779  1  0.283900  0.909370  0.672770  1.0  -0.5903
  O  O2780  1  0.321490  0.886470  0.650000  1.0  -0.5901
  O  O2781  1  0.249270  0.793360  0.749400  1.0  -0.6052
  O  O2782  1  0.288670  0.771430  0.727710  1.0  -0.616
  O  O2783  1  0.339260  0.791400  0.565560  1.0  -0.6075
  O  O2784  1  0.293460  0.746040  0.702490  1.0  -0.6218
  O  O2785  1  0.290160  0.867620  0.511110  1.0  -0.6171
  O  O2786  1  0.353320  0.832640  0.536570  1.0  -0.5891
  O  O2787  1  0.308550  0.935080  0.672270  1.0  -0.6141
  O  O2788  1  0.339070  0.904140  0.599430  1.0  -0.619
  O  O2789  1  0.461030  0.502140  0.425590  1.0  -0.6166
  O  O2790  1  0.368830  0.525250  0.333270  1.0  -0.6169
  O  O2791  1  0.443520  0.484770  0.408010  1.0  -0.6089
  O  O2792  1  0.383700  0.496730  0.306370  1.0  -0.6095
  O  O2793  1  0.319690  0.471760  0.360820  1.0  -0.5967
  O  O2794  1  0.256260  0.646810  0.143410  1.0  -0.6079
  O  O2795  1  0.280980  0.646700  0.092850  1.0  -0.6102
  O  O2796  1  0.283900  0.672770  0.133960  1.0  -0.5897
  O  O2797  1  0.321490  0.650000  0.142050  1.0  -0.5903
  O  O2798  1  0.249270  0.749400  0.207970  1.0  -0.6097
  O  O2799  1  0.288670  0.727710  0.212180  1.0  -0.6168
  O  O2800  1  0.339260  0.565560  0.303790  1.0  -0.6078
  O  O2801  1  0.293460  0.702490  0.258010  1.0  -0.6223
  O  O2802  1  0.290160  0.511110  0.331120  1.0  -0.6101
  O  O2803  1  0.353320  0.536570  0.277460  1.0  -0.5919
  O  O2804  1  0.308550  0.672270  0.084100  1.0  -0.6147
  O  O2805  1  0.339070  0.599430  0.157370  1.0  -0.6198
  O  O2806  1  0.425590  0.611240  0.461030  1.0  -0.619
  O  O2807  1  0.333270  0.772650  0.368830  1.0  -0.6172
  O  O2808  1  0.408010  0.663700  0.443520  1.0  -0.6059
  O  O2809  1  0.306370  0.813200  0.383700  1.0  -0.6109
  O  O2810  1  0.360820  0.847730  0.319690  1.0  -0.5979
  O  O2811  1  0.143410  0.953520  0.256260  1.0  -0.6067
  O  O2812  1  0.092850  0.979460  0.280980  1.0  -0.6107
  O  O2813  1  0.133960  0.909370  0.283900  1.0  -0.5909
  O  O2814  1  0.142050  0.886470  0.321490  1.0  -0.5875
  O  O2815  1  0.207970  0.793360  0.249270  1.0  -0.6017
  O  O2816  1  0.212180  0.771430  0.288670  1.0  -0.616
  O  O2817  1  0.303790  0.791400  0.339260  1.0  -0.6065
  O  O2818  1  0.258010  0.746040  0.293460  1.0  -0.6205
  O  O2819  1  0.331120  0.867620  0.290160  1.0  -0.6117
  O  O2820  1  0.277460  0.832640  0.353320  1.0  -0.593
  O  O2821  1  0.084100  0.935080  0.308550  1.0  -0.6159
  O  O2822  1  0.157370  0.904140  0.339070  1.0  -0.6193
  O  O2823  1  0.611240  0.425590  0.502140  1.0  -0.6172
  O  O2824  1  0.772650  0.333270  0.525250  1.0  -0.6179
  O  O2825  1  0.663700  0.408010  0.484770  1.0  -0.6062
  O  O2826  1  0.813200  0.306370  0.496730  1.0  -0.6088
  O  O2827  1  0.847730  0.360820  0.471760  1.0  -0.6002
  O  O2828  1  0.953520  0.143410  0.646810  1.0  -0.6086
  O  O2829  1  0.979460  0.092850  0.646700  1.0  -0.6111
  O  O2830  1  0.909370  0.133960  0.672770  1.0  -0.5917
  O  O2831  1  0.886470  0.142050  0.650000  1.0  -0.5924
  O  O2832  1  0.793360  0.207970  0.749400  1.0  -0.6071
  O  O2833  1  0.771430  0.212180  0.727710  1.0  -0.6154
  O  O2834  1  0.791400  0.303790  0.565560  1.0  -0.6086
  O  O2835  1  0.746040  0.258010  0.702490  1.0  -0.6202
  O  O2836  1  0.867620  0.331120  0.511110  1.0  -0.6105
  O  O2837  1  0.832640  0.277460  0.536570  1.0  -0.5908
  O  O2838  1  0.935080  0.084100  0.672270  1.0  -0.614
  O  O2839  1  0.904140  0.157370  0.599430  1.0  -0.6213
  O  O2840  1  0.502140  0.461030  0.611240  1.0  -0.6163
  O  O2841  1  0.525250  0.368830  0.772650  1.0  -0.6147
  O  O2842  1  0.484770  0.443520  0.663700  1.0  -0.6078
  O  O2843  1  0.496730  0.383700  0.813200  1.0  -0.6082
  O  O2844  1  0.471760  0.319690  0.847730  1.0  -0.5978
  O  O2845  1  0.646810  0.256260  0.953520  1.0  -0.6071
  O  O2846  1  0.646700  0.280980  0.979460  1.0  -0.6124
  O  O2847  1  0.672770  0.283900  0.909370  1.0  -0.5905
  O  O2848  1  0.650000  0.321490  0.886470  1.0  -0.5899
  O  O2849  1  0.749400  0.249270  0.793360  1.0  -0.603
  O  O2850  1  0.727710  0.288670  0.771430  1.0  -0.6161
  O  O2851  1  0.565560  0.339260  0.791400  1.0  -0.6059
  O  O2852  1  0.702490  0.293460  0.746040  1.0  -0.6219
  O  O2853  1  0.511110  0.290160  0.867620  1.0  -0.6163
  O  O2854  1  0.536570  0.353320  0.832640  1.0  -0.5904
  O  O2855  1  0.672270  0.308550  0.935080  1.0  -0.6145
  O  O2856  1  0.599430  0.339070  0.904140  1.0  -0.6188
  O  O2857  1  0.824410  0.788970  0.638760  1.0  -0.619
  O  O2858  1  0.916730  0.881170  0.477350  1.0  -0.615
  O  O2859  1  0.841990  0.806480  0.586300  1.0  -0.6076
  O  O2860  1  0.943630  0.866300  0.436800  1.0  -0.6082
  O  O2861  1  0.889180  0.930310  0.402270  1.0  -0.5974
  O  O2862  1  0.106590  0.993740  0.296480  1.0  -0.6069
  O  O2863  1  0.157150  0.969020  0.270540  1.0  -0.6093
  O  O2864  1  0.116040  0.966100  0.340630  1.0  -0.5891
  O  O2865  1  0.107950  0.928510  0.363530  1.0  -0.5899
  O  O2866  1  0.042030  0.000730  0.456640  1.0  -0.6054
  O  O2867  1  0.037820  0.961330  0.478570  1.0  -0.6173
  O  O2868  1  0.946210  0.910740  0.458600  1.0  -0.6054
  O  O2869  1  0.991990  0.956540  0.503960  1.0  -0.6215
  O  O2870  1  0.918880  0.959840  0.382380  1.0  -0.613
  O  O2871  1  0.972540  0.896680  0.417360  1.0  -0.5867
  O  O2872  1  0.165900  0.941450  0.314920  1.0  -0.6167
  O  O2873  1  0.092630  0.910930  0.345860  1.0  -0.6193
  O  O2874  1  0.788970  0.824410  0.747860  1.0  -0.6165
  O  O2875  1  0.881170  0.916730  0.724750  1.0  -0.6189
  O  O2876  1  0.806480  0.841990  0.765230  1.0  -0.6055
  O  O2877  1  0.866300  0.943630  0.753270  1.0  -0.6073
  O  O2878  1  0.930310  0.889180  0.778240  1.0  -0.5977
  O  O2879  1  0.993740  0.106590  0.603190  1.0  -0.6039
  O  O2880  1  0.969020  0.157150  0.603300  1.0  -0.6093
  O  O2881  1  0.966100  0.116040  0.577230  1.0  -0.5915
  O  O2882  1  0.928510  0.107950  0.600000  1.0  -0.5917
  O  O2883  1  0.000730  0.042030  0.500600  1.0  -0.6109
  O  O2884  1  0.961330  0.037820  0.522290  1.0  -0.6161
  O  O2885  1  0.910740  0.946210  0.684440  1.0  -0.6069
  O  O2886  1  0.956540  0.991990  0.547510  1.0  -0.6224
  O  O2887  1  0.959840  0.918880  0.738890  1.0  -0.6099
  O  O2888  1  0.896680  0.972540  0.713430  1.0  -0.5885
  O  O2889  1  0.941450  0.165900  0.577730  1.0  -0.6162
  O  O2890  1  0.910930  0.092630  0.650570  1.0  -0.6203
  O  O2891  1  0.747860  0.638760  0.788970  1.0  -0.6159
  O  O2892  1  0.724750  0.477350  0.881170  1.0  -0.6154
  O  O2893  1  0.765230  0.586300  0.806480  1.0  -0.6057
  O  O2894  1  0.753270  0.436800  0.866300  1.0  -0.6079
  O  O2895  1  0.778240  0.402270  0.930310  1.0  -0.5969
  O  O2896  1  0.603190  0.296480  0.993740  1.0  -0.6074
  O  O2897  1  0.603300  0.270540  0.969020  1.0  -0.6118
  O  O2898  1  0.577230  0.340630  0.966100  1.0  -0.5905
  O  O2899  1  0.600000  0.363530  0.928510  1.0  -0.5917
  O  O2900  1  0.500600  0.456640  0.000730  1.0  -0.6046
  O  O2901  1  0.522290  0.478570  0.961330  1.0  -0.6159
  O  O2902  1  0.684440  0.458600  0.910740  1.0  -0.6061
  O  O2903  1  0.547510  0.503960  0.956540  1.0  -0.6177
  O  O2904  1  0.738890  0.382380  0.959840  1.0  -0.616
  O  O2905  1  0.713430  0.417360  0.896680  1.0  -0.5916
  O  O2906  1  0.577730  0.314920  0.941450  1.0  -0.6143
  O  O2907  1  0.650570  0.345860  0.910930  1.0  -0.6194
  O  O2908  1  0.638760  0.747860  0.824410  1.0  -0.6165
  O  O2909  1  0.477350  0.724750  0.916730  1.0  -0.6145
  O  O2910  1  0.586300  0.765230  0.841990  1.0  -0.6081
  O  O2911  1  0.436800  0.753270  0.943630  1.0  -0.6075
  O  O2912  1  0.402270  0.778240  0.889180  1.0  -0.6006
  O  O2913  1  0.296480  0.603190  0.106590  1.0  -0.6066
  O  O2914  1  0.270540  0.603300  0.157150  1.0  -0.6118
  O  O2915  1  0.340630  0.577230  0.116040  1.0  -0.5883
  O  O2916  1  0.363530  0.600000  0.107950  1.0  -0.5906
  O  O2917  1  0.456640  0.500600  0.042030  1.0  -0.6086
  O  O2918  1  0.478570  0.522290  0.037820  1.0  -0.615
  O  O2919  1  0.458600  0.684440  0.946210  1.0  -0.607
  O  O2920  1  0.503960  0.547510  0.991990  1.0  -0.6193
  O  O2921  1  0.382380  0.738890  0.918880  1.0  -0.6122
  O  O2922  1  0.417360  0.713430  0.972540  1.0  -0.5885
  O  O2923  1  0.314920  0.577730  0.165900  1.0  -0.6145
  O  O2924  1  0.345860  0.650570  0.092630  1.0  -0.6202
  O  O2925  1  0.747860  0.824410  0.638760  1.0  -0.6166
  O  O2926  1  0.724750  0.916730  0.477350  1.0  -0.6182
  O  O2927  1  0.765230  0.841990  0.586300  1.0  -0.6092
  O  O2928  1  0.753270  0.943630  0.436800  1.0  -0.6077
  O  O2929  1  0.778240  0.889180  0.402270  1.0  -0.6016
  O  O2930  1  0.603190  0.106590  0.296480  1.0  -0.6073
  O  O2931  1  0.603300  0.157150  0.270540  1.0  -0.6107
  O  O2932  1  0.577230  0.116040  0.340630  1.0  -0.5899
  O  O2933  1  0.600000  0.107950  0.363530  1.0  -0.5925
  O  O2934  1  0.500600  0.042030  0.456640  1.0  -0.609
  O  O2935  1  0.522290  0.037820  0.478570  1.0  -0.614
  O  O2936  1  0.684440  0.946210  0.458600  1.0  -0.6091
  O  O2937  1  0.547510  0.991990  0.503960  1.0  -0.6192
  O  O2938  1  0.738890  0.918880  0.382380  1.0  -0.6119
  O  O2939  1  0.713430  0.972540  0.417360  1.0  -0.5896
  O  O2940  1  0.577730  0.165900  0.314920  1.0  -0.614
  O  O2941  1  0.650570  0.092630  0.345860  1.0  -0.6189
  O  O2942  1  0.638760  0.788970  0.747860  1.0  -0.6171
  O  O2943  1  0.477350  0.881170  0.724750  1.0  -0.6146
  O  O2944  1  0.586300  0.806480  0.765230  1.0  -0.607
  O  O2945  1  0.436800  0.866300  0.753270  1.0  -0.6073
  O  O2946  1  0.402270  0.930310  0.778240  1.0  -0.6004
  O  O2947  1  0.296480  0.993740  0.603190  1.0  -0.6036
  O  O2948  1  0.270540  0.969020  0.603300  1.0  -0.6118
  O  O2949  1  0.340630  0.966100  0.577230  1.0  -0.5884
  O  O2950  1  0.363530  0.928510  0.600000  1.0  -0.5915
  O  O2951  1  0.456640  0.000730  0.500600  1.0  -0.6042
  O  O2952  1  0.478570  0.961330  0.522290  1.0  -0.6169
  O  O2953  1  0.458600  0.910740  0.684440  1.0  -0.6083
  O  O2954  1  0.503960  0.956540  0.547510  1.0  -0.6192
  O  O2955  1  0.382380  0.959840  0.738890  1.0  -0.6177
  O  O2956  1  0.417360  0.896680  0.713430  1.0  -0.5882
  O  O2957  1  0.314920  0.941450  0.577730  1.0  -0.6142
  O  O2958  1  0.345860  0.910930  0.650570  1.0  -0.6176
  O  O2959  1  0.824410  0.747860  0.788970  1.0  -0.6188
  O  O2960  1  0.916730  0.724750  0.881170  1.0  -0.6179
  O  O2961  1  0.841990  0.765230  0.806480  1.0  -0.6059
  O  O2962  1  0.943630  0.753270  0.866300  1.0  -0.6085
  O  O2963  1  0.889180  0.778240  0.930310  1.0  -0.5979
  O  O2964  1  0.106590  0.603190  0.993740  1.0  -0.6049
  O  O2965  1  0.157150  0.603300  0.969020  1.0  -0.6098
  O  O2966  1  0.116040  0.577230  0.966100  1.0  -0.5894
  O  O2967  1  0.107950  0.600000  0.928510  1.0  -0.5918
  O  O2968  1  0.042030  0.500600  0.000730  1.0  -0.6094
  O  O2969  1  0.037820  0.522290  0.961330  1.0  -0.6118
  O  O2970  1  0.946210  0.684440  0.910740  1.0  -0.6078
  O  O2971  1  0.991990  0.547510  0.956540  1.0  -0.6222
  O  O2972  1  0.918880  0.738890  0.959840  1.0  -0.6107
  O  O2973  1  0.972540  0.713430  0.896680  1.0  -0.5888
  O  O2974  1  0.165900  0.577730  0.941450  1.0  -0.6141
  O  O2975  1  0.092630  0.650570  0.910930  1.0  -0.619
  O  O2976  1  0.788970  0.638760  0.824410  1.0  -0.6176
  O  O2977  1  0.881170  0.477350  0.916730  1.0  -0.6169
  O  O2978  1  0.806480  0.586300  0.841990  1.0  -0.6056
  O  O2979  1  0.866300  0.436800  0.943630  1.0  -0.6096
  O  O2980  1  0.930310  0.402270  0.889180  1.0  -0.5968
  O  O2981  1  0.993740  0.296480  0.106590  1.0  -0.6067
  O  O2982  1  0.969020  0.270540  0.157150  1.0  -0.611
  O  O2983  1  0.966100  0.340630  0.116040  1.0  -0.5898
  O  O2984  1  0.928510  0.363530  0.107950  1.0  -0.5928
  O  O2985  1  0.000730  0.456640  0.042030  1.0  -0.6045
  O  O2986  1  0.961330  0.478570  0.037820  1.0  -0.6172
  O  O2987  1  0.910740  0.458600  0.946210  1.0  -0.6076
  O  O2988  1  0.956540  0.503960  0.991990  1.0  -0.6201
  O  O2989  1  0.959840  0.382380  0.918880  1.0  -0.6106
  O  O2990  1  0.896680  0.417360  0.972540  1.0  -0.5908
  O  O2991  1  0.941450  0.314920  0.165900  1.0  -0.6138
  O  O2992  1  0.910930  0.345860  0.092630  1.0  -0.6201
  O  O2993  1  0.788970  0.747860  0.638760  1.0  -0.6178
  O  O2994  1  0.881170  0.724750  0.477350  1.0  -0.6164
  O  O2995  1  0.806480  0.765230  0.586300  1.0  -0.6068
  O  O2996  1  0.866300  0.753270  0.436800  1.0  -0.6098
  O  O2997  1  0.930310  0.778240  0.402270  1.0  -0.5952
  O  O2998  1  0.993740  0.603190  0.296480  1.0  -0.6068
  O  O2999  1  0.969020  0.603300  0.270540  1.0  -0.611
  O  O3000  1  0.966100  0.577230  0.340630  1.0  -0.5885
  O  O3001  1  0.928510  0.600000  0.363530  1.0  -0.5902
  O  O3002  1  0.000730  0.500600  0.456640  1.0  -0.6052
  O  O3003  1  0.961330  0.522290  0.478570  1.0  -0.6161
  O  O3004  1  0.910740  0.684440  0.458600  1.0  -0.6079
  O  O3005  1  0.956540  0.547510  0.503960  1.0  -0.6211
  O  O3006  1  0.959840  0.738890  0.382380  1.0  -0.6163
  O  O3007  1  0.896680  0.713430  0.417360  1.0  -0.5908
  O  O3008  1  0.941450  0.577730  0.314920  1.0  -0.6142
  O  O3009  1  0.910930  0.650570  0.345860  1.0  -0.6198
  O  O3010  1  0.824410  0.638760  0.747860  1.0  -0.619
  O  O3011  1  0.916730  0.477350  0.724750  1.0  -0.6178
  O  O3012  1  0.841990  0.586300  0.765230  1.0  -0.6087
  O  O3013  1  0.943630  0.436800  0.753270  1.0  -0.6096
  O  O3014  1  0.889180  0.402270  0.778240  1.0  -0.6003
  O  O3015  1  0.106590  0.296480  0.603190  1.0  -0.6068
  O  O3016  1  0.157150  0.270540  0.603300  1.0  -0.6095
  O  O3017  1  0.116040  0.340630  0.577230  1.0  -0.5912
  O  O3018  1  0.107950  0.363530  0.600000  1.0  -0.5876
  O  O3019  1  0.042030  0.456640  0.500600  1.0  -0.6061
  O  O3020  1  0.037820  0.478570  0.522290  1.0  -0.6166
  O  O3021  1  0.946210  0.458600  0.684440  1.0  -0.6088
  O  O3022  1  0.991990  0.503960  0.547510  1.0  -0.6193
  O  O3023  1  0.918880  0.382380  0.738890  1.0  -0.6103
  O  O3024  1  0.972540  0.417360  0.713430  1.0  -0.5909
  O  O3025  1  0.165900  0.314920  0.577730  1.0  -0.6151
  O  O3026  1  0.092630  0.345860  0.650570  1.0  -0.6192
  O  O3027  1  0.638760  0.824410  0.788970  1.0  -0.6171
  O  O3028  1  0.477350  0.916730  0.881170  1.0  -0.6167
  O  O3029  1  0.586300  0.841990  0.806480  1.0  -0.6056
  O  O3030  1  0.436800  0.943630  0.866300  1.0  -0.6079
  O  O3031  1  0.402270  0.889180  0.930310  1.0  -0.5998
  O  O3032  1  0.296480  0.106590  0.993740  1.0  -0.6094
  O  O3033  1  0.270540  0.157150  0.969020  1.0  -0.6119
  O  O3034  1  0.340630  0.116040  0.966100  1.0  -0.5902
  O  O3035  1  0.363530  0.107950  0.928510  1.0  -0.5878
  O  O3036  1  0.456640  0.042030  0.000730  1.0  -0.6023
  O  O3037  1  0.478570  0.037820  0.961330  1.0  -0.6147
  O  O3038  1  0.458600  0.946210  0.910740  1.0  -0.605
  O  O3039  1  0.503960  0.991990  0.956540  1.0  -0.6207
  O  O3040  1  0.382380  0.918880  0.959840  1.0  -0.6114
  O  O3041  1  0.417360  0.972540  0.896680  1.0  -0.59
  O  O3042  1  0.314920  0.165900  0.941450  1.0  -0.6139
  O  O3043  1  0.345860  0.092630  0.910930  1.0  -0.6207
  O  O3044  1  0.747860  0.788970  0.824410  1.0  -0.6181
  O  O3045  1  0.724750  0.881170  0.916730  1.0  -0.6154
  O  O3046  1  0.765230  0.806480  0.841990  1.0  -0.6095
  O  O3047  1  0.753270  0.866300  0.943630  1.0  -0.6093
  O  O3048  1  0.778240  0.930310  0.889180  1.0  -0.5979
  O  O3049  1  0.603190  0.993740  0.106590  1.0  -0.6085
  O  O3050  1  0.603300  0.969020  0.157150  1.0  -0.6114
  O  O3051  1  0.577230  0.966100  0.116040  1.0  -0.59
  O  O3052  1  0.600000  0.928510  0.107950  1.0  -0.5903
  O  O3053  1  0.500600  0.000730  0.042030  1.0  -0.6079
  O  O3054  1  0.522290  0.961330  0.037820  1.0  -0.6149
  O  O3055  1  0.684440  0.910740  0.946210  1.0  -0.6078
  O  O3056  1  0.547510  0.956540  0.991990  1.0  -0.6225
  O  O3057  1  0.738890  0.959840  0.918880  1.0  -0.6118
  O  O3058  1  0.713430  0.896680  0.972540  1.0  -0.5918
  O  O3059  1  0.577730  0.941450  0.165900  1.0  -0.6158
  O  O3060  1  0.650570  0.910930  0.092630  1.0  -0.6189
  O  O3061  1  0.824410  0.788970  0.747860  1.0  -0.6193
  O  O3062  1  0.916730  0.881170  0.724750  1.0  -0.6156
  O  O3063  1  0.841990  0.806480  0.765230  1.0  -0.608
  O  O3064  1  0.943630  0.866300  0.753270  1.0  -0.6061
  O  O3065  1  0.889180  0.930310  0.778240  1.0  -0.5968
  O  O3066  1  0.106590  0.993740  0.603190  1.0  -0.6049
  O  O3067  1  0.157150  0.969020  0.603300  1.0  -0.609
  O  O3068  1  0.116040  0.966100  0.577230  1.0  -0.5892
  O  O3069  1  0.107950  0.928510  0.600000  1.0  -0.5903
  O  O3070  1  0.042030  0.000730  0.500600  1.0  -0.61
  O  O3071  1  0.037820  0.961330  0.522290  1.0  -0.617
  O  O3072  1  0.946210  0.910740  0.684440  1.0  -0.6066
  O  O3073  1  0.991990  0.956540  0.547510  1.0  -0.6214
  O  O3074  1  0.918880  0.959840  0.738890  1.0  -0.6099
  O  O3075  1  0.972540  0.896680  0.713430  1.0  -0.5858
  O  O3076  1  0.165900  0.941450  0.577730  1.0  -0.6159
  O  O3077  1  0.092630  0.910930  0.650570  1.0  -0.6181
  O  O3078  1  0.788970  0.824410  0.638760  1.0  -0.617
  O  O3079  1  0.881170  0.916730  0.477350  1.0  -0.6186
  O  O3080  1  0.806480  0.841990  0.586300  1.0  -0.6041
  O  O3081  1  0.866300  0.943630  0.436800  1.0  -0.608
  O  O3082  1  0.930310  0.889180  0.402270  1.0  -0.5979
  O  O3083  1  0.993740  0.106590  0.296480  1.0  -0.6065
  O  O3084  1  0.969020  0.157150  0.270540  1.0  -0.6103
  O  O3085  1  0.966100  0.116040  0.340630  1.0  -0.5916
  O  O3086  1  0.928510  0.107950  0.363530  1.0  -0.591
  O  O3087  1  0.000730  0.042030  0.456640  1.0  -0.6057
  O  O3088  1  0.961330  0.037820  0.478570  1.0  -0.6172
  O  O3089  1  0.910740  0.946210  0.458600  1.0  -0.6055
  O  O3090  1  0.956540  0.991990  0.503960  1.0  -0.6221
  O  O3091  1  0.959840  0.918880  0.382380  1.0  -0.6132
  O  O3092  1  0.896680  0.972540  0.417360  1.0  -0.5893
  O  O3093  1  0.941450  0.165900  0.314920  1.0  -0.6169
  O  O3094  1  0.910930  0.092630  0.345860  1.0  -0.621
  O  O3095  1  0.747860  0.638760  0.824410  1.0  -0.6166
  O  O3096  1  0.724750  0.477350  0.916730  1.0  -0.6154
  O  O3097  1  0.765230  0.586300  0.841990  1.0  -0.6078
  O  O3098  1  0.753270  0.436800  0.943630  1.0  -0.6076
  O  O3099  1  0.778240  0.402270  0.889180  1.0  -0.599
  O  O3100  1  0.603190  0.296480  0.106590  1.0  -0.607
  O  O3101  1  0.603300  0.270540  0.157150  1.0  -0.6112
  O  O3102  1  0.577230  0.340630  0.116040  1.0  -0.5905
  O  O3103  1  0.600000  0.363530  0.107950  1.0  -0.592
  O  O3104  1  0.500600  0.456640  0.042030  1.0  -0.6095
  O  O3105  1  0.522290  0.478570  0.037820  1.0  -0.616
  O  O3106  1  0.684440  0.458600  0.946210  1.0  -0.6079
  O  O3107  1  0.547510  0.503960  0.991990  1.0  -0.6187
  O  O3108  1  0.738890  0.382380  0.918880  1.0  -0.6107
  O  O3109  1  0.713430  0.417360  0.972540  1.0  -0.5923
  O  O3110  1  0.577730  0.314920  0.165900  1.0  -0.6148
  O  O3111  1  0.650570  0.345860  0.092630  1.0  -0.6204
  O  O3112  1  0.638760  0.747860  0.788970  1.0  -0.6159
  O  O3113  1  0.477350  0.724750  0.881170  1.0  -0.6153
  O  O3114  1  0.586300  0.765230  0.806480  1.0  -0.6055
  O  O3115  1  0.436800  0.753270  0.866300  1.0  -0.6073
  O  O3116  1  0.402270  0.778240  0.930310  1.0  -0.5973
  O  O3117  1  0.296480  0.603190  0.993740  1.0  -0.6064
  O  O3118  1  0.270540  0.603300  0.969020  1.0  -0.6125
  O  O3119  1  0.340630  0.577230  0.966100  1.0  -0.5883
  O  O3120  1  0.363530  0.600000  0.928510  1.0  -0.5898
  O  O3121  1  0.456640  0.500600  0.000730  1.0  -0.6037
  O  O3122  1  0.478570  0.522290  0.961330  1.0  -0.615
  O  O3123  1  0.458600  0.684440  0.910740  1.0  -0.6053
  O  O3124  1  0.503960  0.547510  0.956540  1.0  -0.6184
  O  O3125  1  0.382380  0.738890  0.959840  1.0  -0.617
  O  O3126  1  0.417360  0.713430  0.896680  1.0  -0.5885
  O  O3127  1  0.314920  0.577730  0.941450  1.0  -0.6146
  O  O3128  1  0.345860  0.650570  0.910930  1.0  -0.6201
  O  O3129  1  0.747860  0.824410  0.788970  1.0  -0.6171
  O  O3130  1  0.724750  0.916730  0.881170  1.0  -0.6185
  O  O3131  1  0.765230  0.841990  0.806480  1.0  -0.6075
  O  O3132  1  0.753270  0.943630  0.866300  1.0  -0.6073
  O  O3133  1  0.778240  0.889180  0.930310  1.0  -0.6011
  O  O3134  1  0.603190  0.106590  0.993740  1.0  -0.607
  O  O3135  1  0.603300  0.157150  0.969020  1.0  -0.6103
  O  O3136  1  0.577230  0.116040  0.966100  1.0  -0.59
  O  O3137  1  0.600000  0.107950  0.928510  1.0  -0.5909
  O  O3138  1  0.500600  0.042030  0.000730  1.0  -0.6085
  O  O3139  1  0.522290  0.037820  0.961330  1.0  -0.6111
  O  O3140  1  0.684440  0.946210  0.910740  1.0  -0.6076
  O  O3141  1  0.547510  0.991990  0.956540  1.0  -0.6209
  O  O3142  1  0.738890  0.918880  0.959840  1.0  -0.6105
  O  O3143  1  0.713430  0.972540  0.896680  1.0  -0.5882
  O  O3144  1  0.577730  0.165900  0.941450  1.0  -0.6144
  O  O3145  1  0.650570  0.092630  0.910930  1.0  -0.6171
  O  O3146  1  0.638760  0.788970  0.824410  1.0  -0.6162
  O  O3147  1  0.477350  0.881170  0.916730  1.0  -0.6152
  O  O3148  1  0.586300  0.806480  0.841990  1.0  -0.607
  O  O3149  1  0.436800  0.866300  0.943630  1.0  -0.6084
  O  O3150  1  0.402270  0.930310  0.889180  1.0  -0.5987
  O  O3151  1  0.296480  0.993740  0.106590  1.0  -0.606
  O  O3152  1  0.270540  0.969020  0.157150  1.0  -0.611
  O  O3153  1  0.340630  0.966100  0.116040  1.0  -0.5888
  O  O3154  1  0.363530  0.928510  0.107950  1.0  -0.5911
  O  O3155  1  0.456640  0.000730  0.042030  1.0  -0.6041
  O  O3156  1  0.478570  0.961330  0.037820  1.0  -0.6173
  O  O3157  1  0.458600  0.910740  0.946210  1.0  -0.6073
  O  O3158  1  0.503960  0.956540  0.991990  1.0  -0.6202
  O  O3159  1  0.382380  0.959840  0.918880  1.0  -0.6129
  O  O3160  1  0.417360  0.896680  0.972540  1.0  -0.5876
  O  O3161  1  0.314920  0.941450  0.165900  1.0  -0.6146
  O  O3162  1  0.345860  0.910930  0.092630  1.0  -0.6187
  O  O3163  1  0.824410  0.747860  0.638760  1.0  -0.6182
  O  O3164  1  0.916730  0.724750  0.477350  1.0  -0.6161
  O  O3165  1  0.841990  0.765230  0.586300  1.0  -0.6085
  O  O3166  1  0.943630  0.753270  0.436800  1.0  -0.6097
  O  O3167  1  0.889180  0.778240  0.402270  1.0  -0.5994
  O  O3168  1  0.106590  0.603190  0.296480  1.0  -0.6053
  O  O3169  1  0.157150  0.603300  0.270540  1.0  -0.6095
  O  O3170  1  0.116040  0.577230  0.340630  1.0  -0.5886
  O  O3171  1  0.107950  0.600000  0.363530  1.0  -0.5935
  O  O3172  1  0.042030  0.500600  0.456640  1.0  -0.6086
  O  O3173  1  0.037820  0.522290  0.478570  1.0  -0.6155
  O  O3174  1  0.946210  0.684440  0.458600  1.0  -0.6095
  O  O3175  1  0.991990  0.547510  0.503960  1.0  -0.6208
  O  O3176  1  0.918880  0.738890  0.382380  1.0  -0.6119
  O  O3177  1  0.972540  0.713430  0.417360  1.0  -0.5898
  O  O3178  1  0.165900  0.577730  0.314920  1.0  -0.613
  O  O3179  1  0.092630  0.650570  0.345860  1.0  -0.6215
  O  O3180  1  0.788970  0.638760  0.747860  1.0  -0.617
  O  O3181  1  0.881170  0.477350  0.724750  1.0  -0.616
  O  O3182  1  0.806480  0.586300  0.765230  1.0  -0.6062
  O  O3183  1  0.866300  0.436800  0.753270  1.0  -0.6093
  O  O3184  1  0.930310  0.402270  0.778240  1.0  -0.5975
  O  O3185  1  0.993740  0.296480  0.603190  1.0  -0.6031
  O  O3186  1  0.969020  0.270540  0.603300  1.0  -0.611
  O  O3187  1  0.966100  0.340630  0.577230  1.0  -0.5892
  O  O3188  1  0.928510  0.363530  0.600000  1.0  -0.5924
  O  O3189  1  0.000730  0.456640  0.500600  1.0  -0.6041
  O  O3190  1  0.961330  0.478570  0.522290  1.0  -0.6168
  O  O3191  1  0.910740  0.458600  0.684440  1.0  -0.6076
  O  O3192  1  0.956540  0.503960  0.547510  1.0  -0.6191
  O  O3193  1  0.959840  0.382380  0.738890  1.0  -0.615
  O  O3194  1  0.896680  0.417360  0.713430  1.0  -0.5916
  O  O3195  1  0.941450  0.314920  0.577730  1.0  -0.6137
  O  O3196  1  0.910930  0.345860  0.650570  1.0  -0.619
  O  O3197  1  0.788970  0.747860  0.824410  1.0  -0.6178
  O  O3198  1  0.881170  0.724750  0.916730  1.0  -0.6171
  O  O3199  1  0.806480  0.765230  0.841990  1.0  -0.6074
  O  O3200  1  0.866300  0.753270  0.943630  1.0  -0.6094
  O  O3201  1  0.930310  0.778240  0.889180  1.0  -0.5973
  O  O3202  1  0.993740  0.603190  0.106590  1.0  -0.6068
  O  O3203  1  0.969020  0.603300  0.157150  1.0  -0.6107
  O  O3204  1  0.966100  0.577230  0.116040  1.0  -0.5893
  O  O3205  1  0.928510  0.600000  0.107950  1.0  -0.5911
  O  O3206  1  0.000730  0.500600  0.042030  1.0  -0.608
  O  O3207  1  0.961330  0.522290  0.037820  1.0  -0.6159
  O  O3208  1  0.910740  0.684440  0.946210  1.0  -0.6079
  O  O3209  1  0.956540  0.547510  0.991990  1.0  -0.6208
  O  O3210  1  0.959840  0.738890  0.918880  1.0  -0.6099
  O  O3211  1  0.896680  0.713430  0.972540  1.0  -0.5925
  O  O3212  1  0.941450  0.577730  0.165900  1.0  -0.6143
  O  O3213  1  0.910930  0.650570  0.092630  1.0  -0.6198
  O  O3214  1  0.824410  0.638760  0.788970  1.0  -0.6185
  O  O3215  1  0.916730  0.477350  0.881170  1.0  -0.6182
  O  O3216  1  0.841990  0.586300  0.806480  1.0  -0.6072
  O  O3217  1  0.943630  0.436800  0.866300  1.0  -0.6105
  O  O3218  1  0.889180  0.402270  0.930310  1.0  -0.5975
  O  O3219  1  0.106590  0.296480  0.993740  1.0  -0.6067
  O  O3220  1  0.157150  0.270540  0.969020  1.0  -0.6105
  O  O3221  1  0.116040  0.340630  0.966100  1.0  -0.5904
  O  O3222  1  0.107950  0.363530  0.928510  1.0  -0.5873
  O  O3223  1  0.042030  0.456640  0.000730  1.0  -0.6013
  O  O3224  1  0.037820  0.478570  0.961330  1.0  -0.6158
  O  O3225  1  0.946210  0.458600  0.910740  1.0  -0.6057
  O  O3226  1  0.991990  0.503960  0.956540  1.0  -0.6206
  O  O3227  1  0.918880  0.382380  0.959840  1.0  -0.6106
  O  O3228  1  0.972540  0.417360  0.896680  1.0  -0.5901
  O  O3229  1  0.165900  0.314920  0.941450  1.0  -0.6152
  O  O3230  1  0.092630  0.345860  0.910930  1.0  -0.6196
  O  O3231  1  0.638760  0.824410  0.747860  1.0  -0.617
  O  O3232  1  0.477350  0.916730  0.724750  1.0  -0.6167
  O  O3233  1  0.586300  0.841990  0.765230  1.0  -0.6061
  O  O3234  1  0.436800  0.943630  0.753270  1.0  -0.6073
  O  O3235  1  0.402270  0.889180  0.778240  1.0  -0.6022
  O  O3236  1  0.296480  0.106590  0.603190  1.0  -0.609
  O  O3237  1  0.270540  0.157150  0.603300  1.0  -0.611
  O  O3238  1  0.340630  0.116040  0.577230  1.0  -0.591
  O  O3239  1  0.363530  0.107950  0.600000  1.0  -0.5882
  O  O3240  1  0.456640  0.042030  0.500600  1.0  -0.6066
  O  O3241  1  0.478570  0.037820  0.522290  1.0  -0.6148
  O  O3242  1  0.458600  0.946210  0.684440  1.0  -0.6081
  O  O3243  1  0.503960  0.991990  0.547510  1.0  -0.6192
  O  O3244  1  0.382380  0.918880  0.738890  1.0  -0.6113
  O  O3245  1  0.417360  0.972540  0.713430  1.0  -0.5906
  O  O3246  1  0.314920  0.165900  0.577730  1.0  -0.6133
  O  O3247  1  0.345860  0.092630  0.650570  1.0  -0.6205
  O  O3248  1  0.747860  0.788970  0.638760  1.0  -0.6194
  O  O3249  1  0.724750  0.881170  0.477350  1.0  -0.6144
  O  O3250  1  0.765230  0.806480  0.586300  1.0  -0.6084
  O  O3251  1  0.753270  0.866300  0.436800  1.0  -0.6103
  O  O3252  1  0.778240  0.930310  0.402270  1.0  -0.5946
  O  O3253  1  0.603190  0.993740  0.296480  1.0  -0.6088
  O  O3254  1  0.603300  0.969020  0.270540  1.0  -0.6118
  O  O3255  1  0.577230  0.966100  0.340630  1.0  -0.5903
  O  O3256  1  0.600000  0.928510  0.363530  1.0  -0.5906
  O  O3257  1  0.500600  0.000730  0.456640  1.0  -0.6044
  O  O3258  1  0.522290  0.961330  0.478570  1.0  -0.6161
  O  O3259  1  0.684440  0.910740  0.458600  1.0  -0.6079
  O  O3260  1  0.547510  0.956540  0.503960  1.0  -0.6224
  O  O3261  1  0.738890  0.959840  0.382380  1.0  -0.6178
  O  O3262  1  0.713430  0.896680  0.417360  1.0  -0.5913
  O  O3263  1  0.577730  0.941450  0.314920  1.0  -0.6155
  O  O3264  1  0.650570  0.910930  0.345860  1.0  -0.6188
  O  O3265  1  0.425590  0.461030  0.611240  1.0  -0.6192
  O  O3266  1  0.333270  0.368830  0.772650  1.0  -0.6159
  O  O3267  1  0.408010  0.443520  0.663700  1.0  -0.6084
  O  O3268  1  0.306370  0.383700  0.813200  1.0  -0.6078
  O  O3269  1  0.360820  0.319690  0.847730  1.0  -0.5961
  O  O3270  1  0.143410  0.256260  0.953520  1.0  -0.604
  O  O3271  1  0.092850  0.280980  0.979460  1.0  -0.6097
  O  O3272  1  0.133960  0.283900  0.909370  1.0  -0.5887
  O  O3273  1  0.142050  0.321490  0.886470  1.0  -0.5893
  O  O3274  1  0.207970  0.249270  0.793360  1.0  -0.6064
  O  O3275  1  0.212180  0.288670  0.771430  1.0  -0.6182
  O  O3276  1  0.303790  0.339260  0.791400  1.0  -0.6057
  O  O3277  1  0.258010  0.293460  0.746040  1.0  -0.6203
  O  O3278  1  0.331120  0.290160  0.867620  1.0  -0.6112
  O  O3279  1  0.277460  0.353320  0.832640  1.0  -0.5877
  O  O3280  1  0.084100  0.308550  0.935080  1.0  -0.6151
  O  O3281  1  0.157370  0.339070  0.904140  1.0  -0.6176
  O  O3282  1  0.461030  0.425590  0.502140  1.0  -0.617
  O  O3283  1  0.368830  0.333270  0.525250  1.0  -0.6155
  O  O3284  1  0.443520  0.408010  0.484770  1.0  -0.6053
  O  O3285  1  0.383700  0.306370  0.496730  1.0  -0.606
  O  O3286  1  0.319690  0.360820  0.471760  1.0  -0.5978
  O  O3287  1  0.256260  0.143410  0.646810  1.0  -0.6069
  O  O3288  1  0.280980  0.092850  0.646700  1.0  -0.6106
  O  O3289  1  0.283900  0.133960  0.672770  1.0  -0.5924
  O  O3290  1  0.321490  0.142050  0.650000  1.0  -0.5912
  O  O3291  1  0.249270  0.207970  0.749400  1.0  -0.6106
  O  O3292  1  0.288670  0.212180  0.727710  1.0  -0.6188
  O  O3293  1  0.339260  0.303790  0.565560  1.0  -0.6067
  O  O3294  1  0.293460  0.258010  0.702490  1.0  -0.6216
  O  O3295  1  0.290160  0.331120  0.511110  1.0  -0.6114
  O  O3296  1  0.353320  0.277460  0.536570  1.0  -0.5899
  O  O3297  1  0.308550  0.084100  0.672270  1.0  -0.6168
  O  O3298  1  0.339070  0.157370  0.599430  1.0  -0.6203
  O  O3299  1  0.502140  0.611240  0.461030  1.0  -0.615
  O  O3300  1  0.525250  0.772650  0.368830  1.0  -0.6138
  O  O3301  1  0.484770  0.663700  0.443520  1.0  -0.6058
  O  O3302  1  0.496730  0.813200  0.383700  1.0  -0.6072
  O  O3303  1  0.471760  0.847730  0.319690  1.0  -0.5986
  O  O3304  1  0.646810  0.953520  0.256260  1.0  -0.6073
  O  O3305  1  0.646700  0.979460  0.280980  1.0  -0.6119
  O  O3306  1  0.672770  0.909370  0.283900  1.0  -0.5899
  O  O3307  1  0.650000  0.886470  0.321490  1.0  -0.5905
  O  O3308  1  0.749400  0.793360  0.249270  1.0  -0.6054
  O  O3309  1  0.727710  0.771430  0.288670  1.0  -0.6161
  O  O3310  1  0.565560  0.791400  0.339260  1.0  -0.6063
  O  O3311  1  0.702490  0.746040  0.293460  1.0  -0.6214
  O  O3312  1  0.511110  0.867620  0.290160  1.0  -0.6163
  O  O3313  1  0.536570  0.832640  0.353320  1.0  -0.5894
  O  O3314  1  0.672270  0.935080  0.308550  1.0  -0.6138
  O  O3315  1  0.599430  0.904140  0.339070  1.0  -0.6197
  O  O3316  1  0.611240  0.502140  0.425590  1.0  -0.6151
  O  O3317  1  0.772650  0.525250  0.333270  1.0  -0.6154
  O  O3318  1  0.663700  0.484770  0.408010  1.0  -0.6069
  O  O3319  1  0.813200  0.496730  0.306370  1.0  -0.6081
  O  O3320  1  0.847730  0.471760  0.360820  1.0  -0.6007
  O  O3321  1  0.953520  0.646810  0.143410  1.0  -0.6057
  O  O3322  1  0.979460  0.646700  0.092850  1.0  -0.611
  O  O3323  1  0.909370  0.672770  0.133960  1.0  -0.5891
  O  O3324  1  0.886470  0.650000  0.142050  1.0  -0.593
  O  O3325  1  0.793360  0.749400  0.207970  1.0  -0.61
  O  O3326  1  0.771430  0.727710  0.212180  1.0  -0.6145
  O  O3327  1  0.791400  0.565560  0.303790  1.0  -0.6065
  O  O3328  1  0.746040  0.702490  0.258010  1.0  -0.6173
  O  O3329  1  0.867620  0.511110  0.331120  1.0  -0.6107
  O  O3330  1  0.832640  0.536570  0.277460  1.0  -0.5894
  O  O3331  1  0.935080  0.672270  0.084100  1.0  -0.6155
  O  O3332  1  0.904140  0.599430  0.157370  1.0  -0.6226
  O  O3333  1  0.502140  0.425590  0.611240  1.0  -0.6174
  O  O3334  1  0.525250  0.333270  0.772650  1.0  -0.6163
  O  O3335  1  0.484770  0.408010  0.663700  1.0  -0.6057
  O  O3336  1  0.496730  0.306370  0.813200  1.0  -0.6068
  O  O3337  1  0.471760  0.360820  0.847730  1.0  -0.6023
  O  O3338  1  0.646810  0.143410  0.953520  1.0  -0.6073
  O  O3339  1  0.646700  0.092850  0.979460  1.0  -0.6107
  O  O3340  1  0.672770  0.133960  0.909370  1.0  -0.5892
  O  O3341  1  0.650000  0.142050  0.886470  1.0  -0.5916
  O  O3342  1  0.749400  0.207970  0.793360  1.0  -0.6092
  O  O3343  1  0.727710  0.212180  0.771430  1.0  -0.612
  O  O3344  1  0.565560  0.303790  0.791400  1.0  -0.6084
  O  O3345  1  0.702490  0.258010  0.746040  1.0  -0.6201
  O  O3346  1  0.511110  0.331120  0.867620  1.0  -0.6109
  O  O3347  1  0.536570  0.277460  0.832640  1.0  -0.5864
  O  O3348  1  0.672270  0.084100  0.935080  1.0  -0.614
  O  O3349  1  0.599430  0.157370  0.904140  1.0  -0.6182
  O  O3350  1  0.611240  0.461030  0.502140  1.0  -0.6159
  O  O3351  1  0.772650  0.368830  0.525250  1.0  -0.6153
  O  O3352  1  0.663700  0.443520  0.484770  1.0  -0.6072
  O  O3353  1  0.813200  0.383700  0.496730  1.0  -0.608
  O  O3354  1  0.847730  0.319690  0.471760  1.0  -0.5981
  O  O3355  1  0.953520  0.256260  0.646810  1.0  -0.6059
  O  O3356  1  0.979460  0.280980  0.646700  1.0  -0.6113
  O  O3357  1  0.909370  0.283900  0.672770  1.0  -0.5891
  O  O3358  1  0.886470  0.321490  0.650000  1.0  -0.5939
  O  O3359  1  0.793360  0.249270  0.749400  1.0  -0.6031
  O  O3360  1  0.771430  0.288670  0.727710  1.0  -0.6174
  O  O3361  1  0.791400  0.339260  0.565560  1.0  -0.6089
  O  O3362  1  0.746040  0.293460  0.702490  1.0  -0.6203
  O  O3363  1  0.867620  0.290160  0.511110  1.0  -0.6178
  O  O3364  1  0.832640  0.353320  0.536570  1.0  -0.5873
  O  O3365  1  0.935080  0.308550  0.672270  1.0  -0.6138
  O  O3366  1  0.904140  0.339070  0.599430  1.0  -0.6194
  O  O3367  1  0.425590  0.502140  0.461030  1.0  -0.6176
  O  O3368  1  0.333270  0.525250  0.368830  1.0  -0.6163
  O  O3369  1  0.408010  0.484770  0.443520  1.0  -0.6073
  O  O3370  1  0.306370  0.496730  0.383700  1.0  -0.6093
  O  O3371  1  0.360820  0.471760  0.319690  1.0  -0.5983
  O  O3372  1  0.143410  0.646810  0.256260  1.0  -0.6052
  O  O3373  1  0.092850  0.646700  0.280980  1.0  -0.6087
  O  O3374  1  0.133960  0.672770  0.283900  1.0  -0.5879
  O  O3375  1  0.142050  0.650000  0.321490  1.0  -0.5913
  O  O3376  1  0.207970  0.749400  0.249270  1.0  -0.6092
  O  O3377  1  0.212180  0.727710  0.288670  1.0  -0.6156
  O  O3378  1  0.303790  0.565560  0.339260  1.0  -0.6074
  O  O3379  1  0.258010  0.702490  0.293460  1.0  -0.6217
  O  O3380  1  0.331120  0.511110  0.290160  1.0  -0.6116
  O  O3381  1  0.277460  0.536570  0.353320  1.0  -0.592
  O  O3382  1  0.084100  0.672270  0.308550  1.0  -0.6146
  O  O3383  1  0.157370  0.599430  0.339070  1.0  -0.6204
  O  O3384  1  0.461030  0.611240  0.425590  1.0  -0.6167
  O  O3385  1  0.368830  0.772650  0.333270  1.0  -0.6169
  O  O3386  1  0.443520  0.663700  0.408010  1.0  -0.6057
  O  O3387  1  0.383700  0.813200  0.306370  1.0  -0.6082
  O  O3388  1  0.319690  0.847730  0.360820  1.0  -0.5969
  O  O3389  1  0.256260  0.953520  0.143410  1.0  -0.6045
  O  O3390  1  0.280980  0.979460  0.092850  1.0  -0.611
  O  O3391  1  0.283900  0.909370  0.133960  1.0  -0.5902
  O  O3392  1  0.321490  0.886470  0.142050  1.0  -0.5904
  O  O3393  1  0.249270  0.793360  0.207970  1.0  -0.6057
  O  O3394  1  0.288670  0.771430  0.212180  1.0  -0.6164
  O  O3395  1  0.339260  0.791400  0.303790  1.0  -0.6079
  O  O3396  1  0.293460  0.746040  0.258010  1.0  -0.6201
  O  O3397  1  0.290160  0.867620  0.331120  1.0  -0.6111
  O  O3398  1  0.353320  0.832640  0.277460  1.0  -0.589
  O  O3399  1  0.308550  0.935080  0.084100  1.0  -0.6133
  O  O3400  1  0.339070  0.904140  0.157370  1.0  -0.6189
  O  O3401  1  0.461030  0.502140  0.611240  1.0  -0.617
  O  O3402  1  0.368830  0.525250  0.772650  1.0  -0.6178
  O  O3403  1  0.443520  0.484770  0.663700  1.0  -0.6082
  O  O3404  1  0.383700  0.496730  0.813200  1.0  -0.6095
  O  O3405  1  0.319690  0.471760  0.847730  1.0  -0.5976
  O  O3406  1  0.256260  0.646810  0.953520  1.0  -0.6083
  O  O3407  1  0.280980  0.646700  0.979460  1.0  -0.6112
  O  O3408  1  0.283900  0.672770  0.909370  1.0  -0.589
  O  O3409  1  0.321490  0.650000  0.886470  1.0  -0.5897
  O  O3410  1  0.249270  0.749400  0.793360  1.0  -0.6044
  O  O3411  1  0.288670  0.727710  0.771430  1.0  -0.616
  O  O3412  1  0.339260  0.565560  0.791400  1.0  -0.6074
  O  O3413  1  0.293460  0.702490  0.746040  1.0  -0.6221
  O  O3414  1  0.290160  0.511110  0.867620  1.0  -0.6148
  O  O3415  1  0.353320  0.536570  0.832640  1.0  -0.5921
  O  O3416  1  0.308550  0.672270  0.935080  1.0  -0.6151
  O  O3417  1  0.339070  0.599430  0.904140  1.0  -0.6189
  O  O3418  1  0.425590  0.611240  0.502140  1.0  -0.6195
  O  O3419  1  0.333270  0.772650  0.525250  1.0  -0.6186
  O  O3420  1  0.408010  0.663700  0.484770  1.0  -0.608
  O  O3421  1  0.306370  0.813200  0.496730  1.0  -0.6099
  O  O3422  1  0.360820  0.847730  0.471760  1.0  -0.5991
  O  O3423  1  0.143410  0.953520  0.646810  1.0  -0.6064
  O  O3424  1  0.092850  0.979460  0.646700  1.0  -0.6117
  O  O3425  1  0.133960  0.909370  0.672770  1.0  -0.5904
  O  O3426  1  0.142050  0.886470  0.650000  1.0  -0.5885
  O  O3427  1  0.207970  0.793360  0.749400  1.0  -0.6078
  O  O3428  1  0.212180  0.771430  0.727710  1.0  -0.6181
  O  O3429  1  0.303790  0.791400  0.565560  1.0  -0.6079
  O  O3430  1  0.258010  0.746040  0.702490  1.0  -0.6199
  O  O3431  1  0.331120  0.867620  0.511110  1.0  -0.6116
  O  O3432  1  0.277460  0.832640  0.536570  1.0  -0.5933
  O  O3433  1  0.084100  0.935080  0.672270  1.0  -0.617
  O  O3434  1  0.157370  0.904140  0.599430  1.0  -0.6192
  O  O3435  1  0.611240  0.425590  0.461030  1.0  -0.6177
  O  O3436  1  0.772650  0.333270  0.368830  1.0  -0.6164
  O  O3437  1  0.663700  0.408010  0.443520  1.0  -0.6052
  O  O3438  1  0.813200  0.306370  0.383700  1.0  -0.6098
  O  O3439  1  0.847730  0.360820  0.319690  1.0  -0.5994
  O  O3440  1  0.953520  0.143410  0.256260  1.0  -0.6093
  O  O3441  1  0.979460  0.092850  0.280980  1.0  -0.6098
  O  O3442  1  0.909370  0.133960  0.283900  1.0  -0.592
  O  O3443  1  0.886470  0.142050  0.321490  1.0  -0.5911
  O  O3444  1  0.793360  0.207970  0.249270  1.0  -0.6014
  O  O3445  1  0.771430  0.212180  0.288670  1.0  -0.6156
  O  O3446  1  0.791400  0.303790  0.339260  1.0  -0.6075
  O  O3447  1  0.746040  0.258010  0.293460  1.0  -0.6207
  O  O3448  1  0.867620  0.331120  0.290160  1.0  -0.6109
  O  O3449  1  0.832640  0.277460  0.353320  1.0  -0.5905
  O  O3450  1  0.935080  0.084100  0.308550  1.0  -0.6131
  O  O3451  1  0.904140  0.157370  0.339070  1.0  -0.6218
  O  O3452  1  0.502140  0.461030  0.425590  1.0  -0.6155
  O  O3453  1  0.525250  0.368830  0.333270  1.0  -0.6144
  O  O3454  1  0.484770  0.443520  0.408010  1.0  -0.6083
  O  O3455  1  0.496730  0.383700  0.306370  1.0  -0.6074
  O  O3456  1  0.471760  0.319690  0.360820  1.0  -0.5981
  O  O3457  1  0.646810  0.256260  0.143410  1.0  -0.6065
  O  O3458  1  0.646700  0.280980  0.092850  1.0  -0.6112
  O  O3459  1  0.672770  0.283900  0.133960  1.0  -0.5908
  O  O3460  1  0.650000  0.321490  0.142050  1.0  -0.59
  O  O3461  1  0.749400  0.249270  0.207970  1.0  -0.6077
  O  O3462  1  0.727710  0.288670  0.212180  1.0  -0.6157
  O  O3463  1  0.565560  0.339260  0.303790  1.0  -0.6062
  O  O3464  1  0.702490  0.293460  0.258010  1.0  -0.6224
  O  O3465  1  0.511110  0.290160  0.331120  1.0  -0.6115
  O  O3466  1  0.536570  0.353320  0.277460  1.0  -0.5906
  O  O3467  1  0.672270  0.308550  0.084100  1.0  -0.6144
  O  O3468  1  0.599430  0.339070  0.157370  1.0  -0.6194
  O  O3469  1  0.125000  0.310080  0.625000  1.0  -1.0811
  O  O3470  1  0.310080  0.125000  0.939920  1.0  -1.0816
  O  O3471  1  0.625000  0.939920  0.125000  1.0  -1.0817
  O  O3472  1  0.939920  0.625000  0.310080  1.0  -1.0816
  O  O3473  1  0.625000  0.125000  0.310080  1.0  -1.0811
  O  O3474  1  0.939920  0.310080  0.125000  1.0  -1.0825
  O  O3475  1  0.125000  0.625000  0.939920  1.0  -1.0811
  O  O3476  1  0.310080  0.939920  0.625000  1.0  -1.0828
  O  O3477  1  0.310080  0.625000  0.125000  1.0  -1.0814
  O  O3478  1  0.125000  0.939920  0.310080  1.0  -1.0814
  O  O3479  1  0.939920  0.125000  0.625000  1.0  -1.0815
  O  O3480  1  0.625000  0.310080  0.939920  1.0  -1.0816
  O  O3481  1  0.125000  0.939920  0.625000  1.0  -1.0817
  O  O3482  1  0.939920  0.125000  0.310080  1.0  -1.0813
  O  O3483  1  0.625000  0.310080  0.125000  1.0  -1.0811
  O  O3484  1  0.310080  0.625000  0.939920  1.0  -1.0818
  O  O3485  1  0.625000  0.125000  0.939920  1.0  -1.0812
  O  O3486  1  0.310080  0.939920  0.125000  1.0  -1.0825
  O  O3487  1  0.125000  0.625000  0.310080  1.0  -1.0811
  O  O3488  1  0.939920  0.310080  0.625000  1.0  -1.0827
  O  O3489  1  0.939920  0.625000  0.125000  1.0  -1.0815
  O  O3490  1  0.125000  0.310080  0.939920  1.0  -1.0813
  O  O3491  1  0.310080  0.125000  0.625000  1.0  -1.0814
  O  O3492  1  0.625000  0.939920  0.310080  1.0  -1.0817
  O  O3493  1  0.251570  0.251570  0.748430  1.0  -1.1258
  O  O3494  1  0.748430  0.748430  0.251570  1.0  -1.0439
  O  O3495  1  0.748430  0.251570  0.251570  1.0  -1.1259
  O  O3496  1  0.251570  0.748430  0.748430  1.0  -1.0437
  O  O3497  1  0.251570  0.748430  0.251570  1.0  -1.1261
  O  O3498  1  0.748430  0.251570  0.748430  1.0  -1.0437
  O  O3499  1  0.998430  0.998430  0.501570  1.0  -1.1265
  O  O3500  1  0.501570  0.501570  0.998430  1.0  -1.0444
  O  O3501  1  0.501570  0.998430  0.501570  1.0  -1.0442
  O  O3502  1  0.998430  0.501570  0.998430  1.0  -1.1259
  O  O3503  1  0.998430  0.501570  0.501570  1.0  -1.0442
  O  O3504  1  0.501570  0.998430  0.998430  1.0  -1.126
  O  O3505  1  0.330630  0.330630  0.517870  1.0  -1.0513
  O  O3506  1  0.330630  0.330630  0.820860  1.0  -1.049
  O  O3507  1  0.517870  0.820860  0.330630  1.0  -1.0439
  O  O3508  1  0.820860  0.517870  0.330630  1.0  -1.0438
  O  O3509  1  0.517870  0.330630  0.330630  1.0  -1.0515
  O  O3510  1  0.820860  0.330630  0.330630  1.0  -1.049
  O  O3511  1  0.330630  0.517870  0.820860  1.0  -1.0435
  O  O3512  1  0.330630  0.820860  0.517870  1.0  -1.0428
  O  O3513  1  0.330630  0.517870  0.330630  1.0  -1.0516
  O  O3514  1  0.330630  0.820860  0.330630  1.0  -1.049
  O  O3515  1  0.820860  0.330630  0.517870  1.0  -1.0428
  O  O3516  1  0.517870  0.330630  0.820860  1.0  -1.0433
  O  O3517  1  0.919370  0.919370  0.429140  1.0  -1.0492
  O  O3518  1  0.919370  0.919370  0.732130  1.0  -1.0517
  O  O3519  1  0.732130  0.429140  0.919370  1.0  -1.0426
  O  O3520  1  0.429140  0.732130  0.919370  1.0  -1.0427
  O  O3521  1  0.732130  0.919370  0.429140  1.0  -1.0428
  O  O3522  1  0.429140  0.919370  0.732130  1.0  -1.0432
  O  O3523  1  0.919370  0.732130  0.919370  1.0  -1.0514
  O  O3524  1  0.919370  0.429140  0.919370  1.0  -1.0493
  O  O3525  1  0.919370  0.732130  0.429140  1.0  -1.0428
  O  O3526  1  0.919370  0.429140  0.732130  1.0  -1.0434
  O  O3527  1  0.429140  0.919370  0.919370  1.0  -1.0493
  O  O3528  1  0.732130  0.919370  0.919370  1.0  -1.0516
  O  O3529  1  0.454140  0.454140  0.454140  1.0  -0.9848
  O  O3530  1  0.454140  0.454140  0.637590  1.0  -1.003
  O  O3531  1  0.454140  0.637590  0.454140  1.0  -1.0035
  O  O3532  1  0.637590  0.454140  0.454140  1.0  -1.0034
  O  O3533  1  0.795860  0.795860  0.612410  1.0  -1.0041
  O  O3534  1  0.795860  0.795860  0.795860  1.0  -0.9844
  O  O3535  1  0.795860  0.612410  0.795860  1.0  -1.0038
  O  O3536  1  0.612410  0.795860  0.795860  1.0  -1.004
