# generated using pymatgen
data_K2Dy2As2H8W21C12(NO31)2
_symmetry_space_group_name_H-M   'P 1'
_cell_length_a   33.46490000
_cell_length_b   33.47550000
_cell_length_c   26.62220000
_cell_angle_alpha   90.00000000
_cell_angle_beta   127.58100000
_cell_angle_gamma   90.00000000
_symmetry_Int_Tables_number   1
_chemical_formula_structural   K2Dy2As2H8W21C12(NO31)2
_chemical_formula_sum   'K16 Dy16 As16 H64 W168 C96 N16 O496'
_cell_volume   23634.98849081
_cell_formula_units_Z   8
loop_
 _symmetry_equiv_pos_site_id
 _symmetry_equiv_pos_as_xyz
  1  'x, y, z'
loop_
 _atom_site_type_symbol
 _atom_site_label
 _atom_site_symmetry_multiplicity
 _atom_site_fract_x
 _atom_site_fract_y
 _atom_site_fract_z
 _atom_site_occupancy
 _atom_site_charge
  K  K1  1  0.329100  0.576300  0.519600  1.0  0.9557
  K  K2  1  0.416400  0.666000  0.512800  1.0  0.9455
  K  K3  1  0.403800  0.664300  0.668200  1.0  0.9232
  K  K4  1  0.993400  0.925600  0.168000  1.0  0.9621
  K  K5  1  0.829100  0.076300  0.519600  1.0  0.9557
  K  K6  1  0.916400  0.166000  0.512800  1.0  0.9454
  K  K7  1  0.903800  0.164300  0.668200  1.0  0.9232
  K  K8  1  0.493400  0.425600  0.168000  1.0  0.9614
  K  K9  1  0.329100  0.423700  0.019600  1.0  0.9586
  K  K10  1  0.416400  0.334000  0.012800  1.0  0.9446
  K  K11  1  0.403800  0.335700  0.168200  1.0  0.9231
  K  K12  1  0.993400  0.074400  0.668000  1.0  0.9614
  K  K13  1  0.829100  0.923700  0.019600  1.0  0.9586
  K  K14  1  0.916400  0.834000  0.012800  1.0  0.9449
  K  K15  1  0.903800  0.835700  0.168200  1.0  0.9231
  K  K16  1  0.493400  0.574400  0.668000  1.0  0.9612
  Dy  Dy17  1  0.218260  0.875560  0.415160  1.0  2.0339
  Dy  Dy18  1  0.249420  0.774040  0.264280  1.0  2.0149
  Dy  Dy19  1  0.420430  0.632770  0.912120  1.0  2.1192
  Dy  Dy20  1  0.247190  0.522470  0.776910  1.0  2.0884
  Dy  Dy21  1  0.718260  0.375560  0.415160  1.0  2.0339
  Dy  Dy22  1  0.749420  0.274040  0.264280  1.0  2.0149
  Dy  Dy23  1  0.920430  0.132770  0.912120  1.0  2.1192
  Dy  Dy24  1  0.747190  0.022470  0.776910  1.0  2.0884
  Dy  Dy25  1  0.218260  0.124440  0.915160  1.0  2.0345
  Dy  Dy26  1  0.249420  0.225960  0.764280  1.0  2.0156
  Dy  Dy27  1  0.420430  0.367230  0.412120  1.0  2.1192
  Dy  Dy28  1  0.247190  0.477530  0.276910  1.0  2.0904
  Dy  Dy29  1  0.718260  0.624440  0.915160  1.0  2.0345
  Dy  Dy30  1  0.749420  0.725960  0.764280  1.0  2.0156
  Dy  Dy31  1  0.920430  0.867230  0.412120  1.0  2.1192
  Dy  Dy32  1  0.747190  0.977530  0.276910  1.0  2.0904
  As  As33  1  0.361910  0.872780  0.519680  1.0  1.0161
  As  As34  1  0.198080  0.868900  0.162850  1.0  1.0062
  As  As35  1  0.382660  0.632150  0.020960  1.0  0.9992
  As  As36  1  0.193960  0.611450  0.665830  1.0  0.9919
  As  As37  1  0.861910  0.372780  0.519680  1.0  1.0161
  As  As38  1  0.698080  0.368900  0.162850  1.0  1.0062
  As  As39  1  0.882660  0.132150  0.020960  1.0  0.9992
  As  As40  1  0.693960  0.111450  0.665830  1.0  0.9919
  As  As41  1  0.361910  0.127220  0.019680  1.0  1.0156
  As  As42  1  0.198080  0.131100  0.662850  1.0  1.0061
  As  As43  1  0.382660  0.367850  0.520960  1.0  1.0021
  As  As44  1  0.193960  0.388550  0.165830  1.0  0.9933
  As  As45  1  0.861910  0.627220  0.019680  1.0  1.0156
  As  As46  1  0.698080  0.631100  0.662850  1.0  1.0061
  As  As47  1  0.882660  0.867850  0.520960  1.0  1.0021
  As  As48  1  0.693960  0.888550  0.165830  1.0  0.9933
  H  H49  1  0.402400  0.439800  0.789800  1.0  0.1225
  H  H50  1  0.134800  0.718300  0.405000  1.0  0.1071
  H  H51  1  0.020400  0.706100  0.237700  1.0  0.133
  H  H52  1  0.182400  0.765300  0.394100  1.0  0.1165
  H  H53  1  0.978200  0.766800  0.176500  1.0  0.119
  H  H54  1  0.484700  0.406000  0.000300  1.0  0.1256
  H  H55  1  0.360400  0.498500  0.794100  1.0  0.1116
  H  H56  1  0.438500  0.444800  0.736600  1.0  0.137
  H  H57  1  0.520100  0.430000  0.954700  1.0  0.0862
  H  H58  1  0.496000  0.484000  0.900500  1.0  0.1253
  H  H59  1  0.441900  0.528900  0.904000  1.0  0.1031
  H  H60  1  0.428300  0.505100  0.685600  1.0  0.1172
  H  H61  1  0.164900  0.660700  0.448700  1.0  0.1108
  H  H62  1  0.248000  0.643000  0.493800  1.0  0.1268
  H  H63  1  0.146800  0.751000  0.277200  1.0  0.0965
  H  H64  1  0.102000  0.697800  0.274500  1.0  0.1157
  H  H65  1  0.902400  0.939800  0.789800  1.0  0.1225
  H  H66  1  0.634800  0.218300  0.405000  1.0  0.1071
  H  H67  1  0.520400  0.206100  0.237700  1.0  0.133
  H  H68  1  0.682400  0.265300  0.394100  1.0  0.1165
  H  H69  1  0.478200  0.266800  0.176500  1.0  0.119
  H  H70  1  0.984700  0.906000  0.000300  1.0  0.1256
  H  H71  1  0.860400  0.998500  0.794100  1.0  0.1116
  H  H72  1  0.938500  0.944800  0.736600  1.0  0.137
  H  H73  1  0.020100  0.930000  0.954700  1.0  0.0862
  H  H74  1  0.996000  0.984000  0.900500  1.0  0.1253
  H  H75  1  0.941900  0.028900  0.904000  1.0  0.1031
  H  H76  1  0.928300  0.005100  0.685600  1.0  0.1172
  H  H77  1  0.664900  0.160700  0.448700  1.0  0.1108
  H  H78  1  0.748000  0.143000  0.493800  1.0  0.1268
  H  H79  1  0.646800  0.251000  0.277200  1.0  0.0965
  H  H80  1  0.602000  0.197800  0.274500  1.0  0.1157
  H  H81  1  0.402400  0.560200  0.289800  1.0  0.1225
  H  H82  1  0.134800  0.281700  0.905000  1.0  0.1073
  H  H83  1  0.020400  0.293900  0.737700  1.0  0.1329
  H  H84  1  0.182400  0.234700  0.894100  1.0  0.1162
  H  H85  1  0.978200  0.233200  0.676500  1.0  0.1191
  H  H86  1  0.484700  0.594000  0.500300  1.0  0.1258
  H  H87  1  0.360400  0.501500  0.294100  1.0  0.1117
  H  H88  1  0.438500  0.555200  0.236600  1.0  0.1371
  H  H89  1  0.520100  0.570000  0.454700  1.0  0.0866
  H  H90  1  0.496000  0.516000  0.400500  1.0  0.1249
  H  H91  1  0.441900  0.471100  0.404000  1.0  0.1032
  H  H92  1  0.428300  0.494900  0.185600  1.0  0.1172
  H  H93  1  0.164900  0.339300  0.948700  1.0  0.1115
  H  H94  1  0.248000  0.357000  0.993800  1.0  0.1268
  H  H95  1  0.146800  0.249000  0.777200  1.0  0.0967
  H  H96  1  0.102000  0.302200  0.774500  1.0  0.116
  H  H97  1  0.902400  0.060200  0.289800  1.0  0.1225
  H  H98  1  0.634800  0.781700  0.905000  1.0  0.1073
  H  H99  1  0.520400  0.793900  0.737700  1.0  0.1329
  H  H100  1  0.682400  0.734700  0.894100  1.0  0.1162
  H  H101  1  0.478200  0.733200  0.676500  1.0  0.1191
  H  H102  1  0.984700  0.094000  0.500300  1.0  0.1258
  H  H103  1  0.860400  0.001500  0.294100  1.0  0.1117
  H  H104  1  0.938500  0.055200  0.236600  1.0  0.1371
  H  H105  1  0.020100  0.070000  0.454700  1.0  0.0866
  H  H106  1  0.996000  0.016000  0.400500  1.0  0.1249
  H  H107  1  0.941900  0.971100  0.404000  1.0  0.1032
  H  H108  1  0.928300  0.994900  0.185600  1.0  0.1172
  H  H109  1  0.664900  0.839300  0.948700  1.0  0.1115
  H  H110  1  0.748000  0.857000  0.993800  1.0  0.1268
  H  H111  1  0.646800  0.749000  0.777200  1.0  0.0967
  H  H112  1  0.602000  0.802200  0.774500  1.0  0.116
  W  W113  1  0.444140  0.870070  0.699920  1.0  1.4641
  W  W114  1  0.444310  0.962690  0.620510  1.0  1.4921
  W  W115  1  0.504780  0.870500  0.621310  1.0  1.4729
  W  W116  1  0.317080  0.872590  0.606510  1.0  1.514
  W  W117  1  0.375630  0.788670  0.615350  1.0  2.2841
  W  W118  1  0.434760  0.791900  0.534510  1.0  2.5116
  W  W119  1  0.432300  0.874690  0.462710  1.0  1.3464
  W  W120  1  0.373670  0.968180  0.458740  1.0  1.3827
  W  W121  1  0.316850  0.962080  0.529650  1.0  1.4779
  W  W122  1  0.296890  0.772010  0.440300  1.0  2.0273
  W  W123  1  0.293560  0.884230  0.341870  1.0  2.1781
  W  W124  1  0.133110  0.840660  0.237620  1.0  1.7961
  W  W125  1  0.227240  0.965690  0.222940  1.0  1.3349
  W  W126  1  0.323880  0.909300  0.228270  1.0  1.3814
  W  W127  1  0.283470  0.818990  0.154360  1.0  1.4112
  W  W128  1  0.155780  0.782360  0.073050  1.0  1.3982
  W  W129  1  0.066360  0.836390  0.062570  1.0  2.4991
  W  W130  1  0.108760  0.933790  0.146180  1.0  2.5544
  W  W131  1  0.148840  0.963470  0.063770  1.0  1.5284
  W  W132  1  0.111130  0.865590  0.983470  1.0  1.3671
  W  W133  1  0.242610  0.903470  0.066430  1.0  1.3168
  W  W134  1  0.343290  0.632010  0.127750  1.0  1.4838
  W  W135  1  0.395770  0.724990  0.114710  1.0  1.3385
  W  W136  1  0.478650  0.636190  0.199660  1.0  1.5401
  W  W137  1  0.332600  0.550540  0.047720  1.0  2.5445
  W  W138  1  0.258660  0.629890  0.969380  1.0  1.3618
  W  W139  1  0.306430  0.723830  0.953540  1.0  1.4188
  W  W140  1  0.431430  0.722560  0.020320  1.0  1.4441
  W  W141  1  0.512060  0.636450  0.103160  1.0  1.3668
  W  W142  1  0.469340  0.551860  0.123160  1.0  2.2754
  W  W143  1  0.273890  0.635790  0.842550  1.0  2.301
  W  W144  1  0.375140  0.529610  0.949610  1.0  2.1583
  W  W145  1  0.333140  0.586260  0.741160  1.0  2.1201
  W  W146  1  0.131410  0.654910  0.728800  1.0  1.4464
  W  W147  1  0.103590  0.561580  0.665150  1.0  1.4369
  W  W148  1  0.152540  0.520890  0.586140  1.0  1.4496
  W  W149  1  0.228080  0.574160  0.568020  1.0  2.2304
  W  W150  1  0.262700  0.675040  0.639940  1.0  2.5429
  W  W151  1  0.217590  0.711230  0.713640  1.0  1.3305
  W  W152  1  0.054480  0.641810  0.567770  1.0  1.3557
  W  W153  1  0.141210  0.700990  0.555670  1.0  1.4455
  W  W154  1  0.105130  0.599570  0.486400  1.0  1.3727
  W  W155  1  0.944140  0.370070  0.699920  1.0  1.4641
  W  W156  1  0.944310  0.462690  0.620510  1.0  1.4921
  W  W157  1  0.004780  0.370500  0.621310  1.0  1.4729
  W  W158  1  0.817080  0.372590  0.606510  1.0  1.514
  W  W159  1  0.875630  0.288670  0.615350  1.0  2.2841
  W  W160  1  0.934760  0.291900  0.534510  1.0  2.5116
  W  W161  1  0.932300  0.374690  0.462710  1.0  1.3464
  W  W162  1  0.873670  0.468180  0.458740  1.0  1.3827
  W  W163  1  0.816850  0.462080  0.529650  1.0  1.4779
  W  W164  1  0.796890  0.272010  0.440300  1.0  2.0273
  W  W165  1  0.793560  0.384230  0.341870  1.0  2.1781
  W  W166  1  0.633110  0.340660  0.237620  1.0  1.7961
  W  W167  1  0.727240  0.465690  0.222940  1.0  1.3349
  W  W168  1  0.823880  0.409300  0.228270  1.0  1.3814
  W  W169  1  0.783470  0.318990  0.154360  1.0  1.4112
  W  W170  1  0.655780  0.282360  0.073050  1.0  1.3982
  W  W171  1  0.566360  0.336390  0.062570  1.0  2.4991
  W  W172  1  0.608760  0.433790  0.146180  1.0  2.5544
  W  W173  1  0.648840  0.463470  0.063770  1.0  1.5284
  W  W174  1  0.611130  0.365590  0.983470  1.0  1.3671
  W  W175  1  0.742610  0.403470  0.066430  1.0  1.3168
  W  W176  1  0.843290  0.132010  0.127750  1.0  1.4838
  W  W177  1  0.895770  0.224990  0.114710  1.0  1.3385
  W  W178  1  0.978650  0.136190  0.199660  1.0  1.5401
  W  W179  1  0.832600  0.050540  0.047720  1.0  2.5445
  W  W180  1  0.758660  0.129890  0.969380  1.0  1.3618
  W  W181  1  0.806430  0.223830  0.953540  1.0  1.4188
  W  W182  1  0.931430  0.222560  0.020320  1.0  1.4441
  W  W183  1  0.012060  0.136450  0.103160  1.0  1.3668
  W  W184  1  0.969340  0.051860  0.123160  1.0  2.2754
  W  W185  1  0.773890  0.135790  0.842550  1.0  2.301
  W  W186  1  0.875140  0.029610  0.949610  1.0  2.1583
  W  W187  1  0.833140  0.086260  0.741160  1.0  2.1201
  W  W188  1  0.631410  0.154910  0.728800  1.0  1.4464
  W  W189  1  0.603590  0.061580  0.665150  1.0  1.4369
  W  W190  1  0.652540  0.020890  0.586140  1.0  1.4496
  W  W191  1  0.728080  0.074160  0.568020  1.0  2.2304
  W  W192  1  0.762700  0.175040  0.639940  1.0  2.5429
  W  W193  1  0.717590  0.211230  0.713640  1.0  1.3305
  W  W194  1  0.554480  0.141810  0.567770  1.0  1.3557
  W  W195  1  0.641210  0.200990  0.555670  1.0  1.4455
  W  W196  1  0.605130  0.099570  0.486400  1.0  1.3727
  W  W197  1  0.444140  0.129930  0.199920  1.0  1.4632
  W  W198  1  0.444310  0.037310  0.120510  1.0  1.4867
  W  W199  1  0.504780  0.129500  0.121310  1.0  1.4735
  W  W200  1  0.317080  0.127410  0.106510  1.0  1.514
  W  W201  1  0.375630  0.211330  0.115350  1.0  2.2842
  W  W202  1  0.434760  0.208100  0.034510  1.0  2.512
  W  W203  1  0.432300  0.125310  0.962710  1.0  1.3468
  W  W204  1  0.373670  0.031820  0.958740  1.0  1.3781
  W  W205  1  0.316850  0.037920  0.029650  1.0  1.4743
  W  W206  1  0.296890  0.227990  0.940300  1.0  2.0261
  W  W207  1  0.293560  0.115770  0.841870  1.0  2.1793
  W  W208  1  0.133110  0.159340  0.737620  1.0  1.7973
  W  W209  1  0.227240  0.034310  0.722940  1.0  1.3299
  W  W210  1  0.323880  0.090700  0.728270  1.0  1.3788
  W  W211  1  0.283470  0.181010  0.654360  1.0  1.4167
  W  W212  1  0.155780  0.217640  0.573050  1.0  1.4011
  W  W213  1  0.066360  0.163610  0.562570  1.0  2.5003
  W  W214  1  0.108760  0.066210  0.646180  1.0  2.5539
  W  W215  1  0.148840  0.036530  0.563770  1.0  1.5246
  W  W216  1  0.111130  0.134410  0.483470  1.0  1.3655
  W  W217  1  0.242610  0.096530  0.566430  1.0  1.3165
  W  W218  1  0.343290  0.367990  0.627750  1.0  1.4835
  W  W219  1  0.395770  0.275010  0.614710  1.0  1.3317
  W  W220  1  0.478650  0.363810  0.699660  1.0  1.5393
  W  W221  1  0.332600  0.449460  0.547720  1.0  2.5428
  W  W222  1  0.258660  0.370110  0.469380  1.0  1.3619
  W  W223  1  0.306430  0.276170  0.453540  1.0  1.4126
  W  W224  1  0.431430  0.277440  0.520320  1.0  1.4368
  W  W225  1  0.512060  0.363550  0.603160  1.0  1.3659
  W  W226  1  0.469340  0.448140  0.623160  1.0  2.2756
  W  W227  1  0.273890  0.364210  0.342550  1.0  2.302
  W  W228  1  0.375140  0.470390  0.449610  1.0  2.1578
  W  W229  1  0.333140  0.413740  0.241160  1.0  2.1198
  W  W230  1  0.131410  0.345090  0.228800  1.0  1.4451
  W  W231  1  0.103590  0.438420  0.165150  1.0  1.4417
  W  W232  1  0.152540  0.479110  0.086140  1.0  1.4549
  W  W233  1  0.228080  0.425840  0.068020  1.0  2.2323
  W  W234  1  0.262700  0.324960  0.139940  1.0  2.5432
  W  W235  1  0.217590  0.288770  0.213640  1.0  1.3256
  W  W236  1  0.054480  0.358190  0.067770  1.0  1.3561
  W  W237  1  0.141210  0.299010  0.055670  1.0  1.4427
  W  W238  1  0.105130  0.400430  0.986400  1.0  1.3724
  W  W239  1  0.944140  0.629930  0.199920  1.0  1.4632
  W  W240  1  0.944310  0.537310  0.120510  1.0  1.4867
  W  W241  1  0.004780  0.629500  0.121310  1.0  1.4735
  W  W242  1  0.817080  0.627410  0.106510  1.0  1.514
  W  W243  1  0.875630  0.711330  0.115350  1.0  2.2842
  W  W244  1  0.934760  0.708100  0.034510  1.0  2.512
  W  W245  1  0.932300  0.625310  0.962710  1.0  1.3468
  W  W246  1  0.873670  0.531820  0.958740  1.0  1.3781
  W  W247  1  0.816850  0.537920  0.029650  1.0  1.4743
  W  W248  1  0.796890  0.727990  0.940300  1.0  2.0261
  W  W249  1  0.793560  0.615770  0.841870  1.0  2.1793
  W  W250  1  0.633110  0.659340  0.737620  1.0  1.7973
  W  W251  1  0.727240  0.534310  0.722940  1.0  1.3299
  W  W252  1  0.823880  0.590700  0.728270  1.0  1.3788
  W  W253  1  0.783470  0.681010  0.654360  1.0  1.4167
  W  W254  1  0.655780  0.717640  0.573050  1.0  1.4011
  W  W255  1  0.566360  0.663610  0.562570  1.0  2.5003
  W  W256  1  0.608760  0.566210  0.646180  1.0  2.5539
  W  W257  1  0.648840  0.536530  0.563770  1.0  1.5246
  W  W258  1  0.611130  0.634410  0.483470  1.0  1.3655
  W  W259  1  0.742610  0.596530  0.566430  1.0  1.3165
  W  W260  1  0.843290  0.867990  0.627750  1.0  1.4835
  W  W261  1  0.895770  0.775010  0.614710  1.0  1.3317
  W  W262  1  0.978650  0.863810  0.699660  1.0  1.5393
  W  W263  1  0.832600  0.949460  0.547720  1.0  2.5428
  W  W264  1  0.758660  0.870110  0.469380  1.0  1.3619
  W  W265  1  0.806430  0.776170  0.453540  1.0  1.4126
  W  W266  1  0.931430  0.777440  0.520320  1.0  1.4368
  W  W267  1  0.012060  0.863550  0.603160  1.0  1.3659
  W  W268  1  0.969340  0.948140  0.623160  1.0  2.2756
  W  W269  1  0.773890  0.864210  0.342550  1.0  2.302
  W  W270  1  0.875140  0.970390  0.449610  1.0  2.1578
  W  W271  1  0.833140  0.913740  0.241160  1.0  2.1198
  W  W272  1  0.631410  0.845090  0.228800  1.0  1.4451
  W  W273  1  0.603590  0.938420  0.165150  1.0  1.4417
  W  W274  1  0.652540  0.979110  0.086140  1.0  1.4549
  W  W275  1  0.728080  0.925840  0.068020  1.0  2.2323
  W  W276  1  0.762700  0.824960  0.139940  1.0  2.5432
  W  W277  1  0.717590  0.788770  0.213640  1.0  1.3256
  W  W278  1  0.554480  0.858190  0.067770  1.0  1.3561
  W  W279  1  0.641210  0.799010  0.055670  1.0  1.4427
  W  W280  1  0.605130  0.900430  0.986400  1.0  1.3724
  C  C281  1  0.440600  0.456000  0.977000  1.0  0.0945
  C  C282  1  0.387500  0.574200  0.686000  1.0  0.7199
  C  C283  1  0.400600  0.463600  0.770400  1.0  -0.061
  C  C284  1  0.392300  0.534300  0.714500  1.0  0.119
  C  C285  1  0.043400  0.793700  0.207400  1.0  0.2276
  C  C286  1  0.412800  0.448000  0.004300  1.0  0.717
  C  C287  1  0.167700  0.712000  0.421000  1.0  -0.0867
  C  C288  1  0.262900  0.695100  0.469500  1.0  0.1249
  C  C289  1  0.037600  0.726200  0.234000  1.0  -0.1434
  C  C290  1  0.196700  0.741200  0.414800  1.0  0.0915
  C  C291  1  0.317500  0.689300  0.498900  1.0  0.6748
  C  C292  1  0.012900  0.763600  0.200800  1.0  -0.1022
  C  C293  1  0.475700  0.430800  0.980000  1.0  -0.15
  C  C294  1  0.374800  0.499900  0.773000  1.0  0.1432
  C  C295  1  0.421600  0.466300  0.738200  1.0  -0.1352
  C  C296  1  0.495500  0.445300  0.952000  1.0  -0.0522
  C  C297  1  0.483500  0.477100  0.922300  1.0  -0.1097
  C  C298  1  0.449000  0.503900  0.922800  1.0  0.121
  C  C299  1  0.416200  0.502300  0.708900  1.0  -0.056
  C  C300  1  0.185500  0.678600  0.447200  1.0  -0.1019
  C  C301  1  0.234800  0.667600  0.474000  1.0  -0.1338
  C  C302  1  0.113100  0.754400  0.259600  1.0  0.137
  C  C303  1  0.086100  0.722300  0.258200  1.0  -0.1086
  C  C304  1  0.024400  0.834800  0.182000  1.0  0.731
  C  C305  1  0.940600  0.956000  0.977000  1.0  0.0945
  C  C306  1  0.887500  0.074200  0.686000  1.0  0.7199
  C  C307  1  0.900600  0.963600  0.770400  1.0  -0.061
  C  C308  1  0.892300  0.034300  0.714500  1.0  0.119
  C  C309  1  0.543400  0.293700  0.207400  1.0  0.2276
  C  C310  1  0.912800  0.948000  0.004300  1.0  0.717
  C  C311  1  0.667700  0.212000  0.421000  1.0  -0.0867
  C  C312  1  0.762900  0.195100  0.469500  1.0  0.1249
  C  C313  1  0.537600  0.226200  0.234000  1.0  -0.1434
  C  C314  1  0.696700  0.241200  0.414800  1.0  0.0915
  C  C315  1  0.817500  0.189300  0.498900  1.0  0.6748
  C  C316  1  0.512900  0.263600  0.200800  1.0  -0.1022
  C  C317  1  0.975700  0.930800  0.980000  1.0  -0.15
  C  C318  1  0.874800  0.999900  0.773000  1.0  0.1432
  C  C319  1  0.921600  0.966300  0.738200  1.0  -0.1352
  C  C320  1  0.995500  0.945300  0.952000  1.0  -0.0522
  C  C321  1  0.983500  0.977100  0.922300  1.0  -0.1097
  C  C322  1  0.949000  0.003900  0.922800  1.0  0.121
  C  C323  1  0.916200  0.002300  0.708900  1.0  -0.056
  C  C324  1  0.685500  0.178600  0.447200  1.0  -0.1019
  C  C325  1  0.734800  0.167600  0.474000  1.0  -0.1338
  C  C326  1  0.613100  0.254400  0.259600  1.0  0.137
  C  C327  1  0.586100  0.222300  0.258200  1.0  -0.1086
  C  C328  1  0.524400  0.334800  0.182000  1.0  0.731
  C  C329  1  0.440600  0.544000  0.477000  1.0  0.0944
  C  C330  1  0.387500  0.425800  0.186000  1.0  0.7187
  C  C331  1  0.400600  0.536400  0.270400  1.0  -0.0604
  C  C332  1  0.392300  0.465700  0.214500  1.0  0.1183
  C  C333  1  0.043400  0.206300  0.707400  1.0  0.2277
  C  C334  1  0.412800  0.552000  0.504300  1.0  0.7148
  C  C335  1  0.167700  0.288000  0.921000  1.0  -0.0865
  C  C336  1  0.262900  0.304900  0.969500  1.0  0.124
  C  C337  1  0.037600  0.273800  0.734000  1.0  -0.1435
  C  C338  1  0.196700  0.258800  0.914800  1.0  0.0906
  C  C339  1  0.317500  0.310700  0.998900  1.0  0.6755
  C  C340  1  0.012900  0.236400  0.700800  1.0  -0.1014
  C  C341  1  0.475700  0.569200  0.480000  1.0  -0.1507
  C  C342  1  0.374800  0.500100  0.273000  1.0  0.1428
  C  C343  1  0.421600  0.533700  0.238200  1.0  -0.1348
  C  C344  1  0.495500  0.554700  0.452000  1.0  -0.0527
  C  C345  1  0.483500  0.522900  0.422300  1.0  -0.1095
  C  C346  1  0.449000  0.496100  0.422800  1.0  0.1204
  C  C347  1  0.416200  0.497700  0.208900  1.0  -0.0563
  C  C348  1  0.185500  0.321400  0.947200  1.0  -0.1018
  C  C349  1  0.234800  0.332400  0.974000  1.0  -0.1341
  C  C350  1  0.113100  0.245600  0.759600  1.0  0.1373
  C  C351  1  0.086100  0.277700  0.758200  1.0  -0.1068
  C  C352  1  0.024400  0.165200  0.682000  1.0  0.7307
  C  C353  1  0.940600  0.044000  0.477000  1.0  0.0944
  C  C354  1  0.887500  0.925800  0.186000  1.0  0.7187
  C  C355  1  0.900600  0.036400  0.270400  1.0  -0.0604
  C  C356  1  0.892300  0.965700  0.214500  1.0  0.1183
  C  C357  1  0.543400  0.706300  0.707400  1.0  0.2277
  C  C358  1  0.912800  0.052000  0.504300  1.0  0.7148
  C  C359  1  0.667700  0.788000  0.921000  1.0  -0.0865
  C  C360  1  0.762900  0.804900  0.969500  1.0  0.124
  C  C361  1  0.537600  0.773800  0.734000  1.0  -0.1435
  C  C362  1  0.696700  0.758800  0.914800  1.0  0.0906
  C  C363  1  0.817500  0.810700  0.998900  1.0  0.6755
  C  C364  1  0.512900  0.736400  0.700800  1.0  -0.1014
  C  C365  1  0.975700  0.069200  0.480000  1.0  -0.1507
  C  C366  1  0.874800  0.000100  0.273000  1.0  0.1428
  C  C367  1  0.921600  0.033700  0.238200  1.0  -0.1348
  C  C368  1  0.995500  0.054700  0.452000  1.0  -0.0527
  C  C369  1  0.983500  0.022900  0.422300  1.0  -0.1095
  C  C370  1  0.949000  0.996100  0.422800  1.0  0.1204
  C  C371  1  0.916200  0.997700  0.208900  1.0  -0.0563
  C  C372  1  0.685500  0.821400  0.947200  1.0  -0.1018
  C  C373  1  0.734800  0.832400  0.974000  1.0  -0.1341
  C  C374  1  0.613100  0.745600  0.759600  1.0  0.1373
  C  C375  1  0.586100  0.777700  0.758200  1.0  -0.1068
  C  C376  1  0.524400  0.665200  0.682000  1.0  0.7307
  N  N377  1  0.427500  0.493100  0.949400  1.0  -0.2798
  N  N378  1  0.373000  0.534600  0.745100  1.0  -0.3684
  N  N379  1  0.245600  0.732400  0.439900  1.0  -0.3077
  N  N380  1  0.091500  0.789800  0.236100  1.0  -0.29
  N  N381  1  0.927500  0.993100  0.949400  1.0  -0.2798
  N  N382  1  0.873000  0.034600  0.745100  1.0  -0.3684
  N  N383  1  0.745600  0.232400  0.439900  1.0  -0.3077
  N  N384  1  0.591500  0.289800  0.236100  1.0  -0.29
  N  N385  1  0.427500  0.506900  0.449400  1.0  -0.2796
  N  N386  1  0.373000  0.465400  0.245100  1.0  -0.3684
  N  N387  1  0.245600  0.267600  0.939900  1.0  -0.3076
  N  N388  1  0.091500  0.210200  0.736100  1.0  -0.2893
  N  N389  1  0.927500  0.006900  0.449400  1.0  -0.2796
  N  N390  1  0.873000  0.965400  0.245100  1.0  -0.3684
  N  N391  1  0.745600  0.767600  0.939900  1.0  -0.3076
  N  N392  1  0.591500  0.710200  0.736100  1.0  -0.2893
  O  O393  1  0.486800  0.923700  0.617000  1.0  -0.7262
  O  O394  1  0.442800  0.922700  0.669500  1.0  -0.713
  O  O395  1  0.486900  0.857900  0.672300  1.0  -0.7468
  O  O396  1  0.384600  0.984400  0.601300  1.0  -0.7017
  O  O397  1  0.388100  0.880200  0.694000  1.0  -0.6788
  O  O398  1  0.432800  0.812900  0.694500  1.0  -0.7247
  O  O399  1  0.430600  0.985000  0.550900  1.0  -0.7002
  O  O400  1  0.496800  0.877100  0.541200  1.0  -0.6995
  O  O401  1  0.421900  0.930300  0.471400  1.0  -0.6741
  O  O402  1  0.331800  0.992200  0.477800  1.0  -0.686
  O  O403  1  0.374700  0.925100  0.534800  1.0  -0.8383
  O  O404  1  0.327100  0.926700  0.593900  1.0  -0.7399
  O  O405  1  0.421700  0.859700  0.538800  1.0  -0.8211
  O  O406  1  0.376300  0.857500  0.594100  1.0  -0.818
  O  O407  1  0.332100  0.815500  0.630100  1.0  -0.7413
  O  O408  1  0.383900  0.741900  0.649600  1.0  -0.7499
  O  O409  1  0.322800  0.778800  0.534700  1.0  -0.8103
  O  O410  1  0.421100  0.786200  0.591600  1.0  -0.7464
  O  O411  1  0.269800  0.863500  0.521500  1.0  -0.7803
  O  O412  1  0.269800  0.932100  0.466000  1.0  -0.8127
  O  O413  1  0.497400  0.811800  0.595800  1.0  -0.6849
  O  O414  1  0.435600  0.817300  0.472100  1.0  -0.7216
  O  O415  1  0.448900  0.743800  0.529100  1.0  -0.7414
  O  O416  1  0.357500  0.792000  0.467800  1.0  -0.7152
  O  O417  1  0.325300  0.939700  0.391300  1.0  -0.7552
  O  O418  1  0.358200  0.869000  0.409300  1.0  -0.7135
  O  O419  1  0.061600  0.951800  0.150200  1.0  -0.7336
  O  O420  1  0.162700  0.695000  0.712900  1.0  -0.7034
  O  O421  1  0.203400  0.949300  0.069200  1.0  -0.7411
  O  O422  1  0.279400  0.953500  0.216300  1.0  -0.693
  O  O423  1  0.244800  0.875200  0.150500  1.0  -0.8791
  O  O424  1  0.197500  0.659800  0.641600  1.0  -0.8147
  O  O425  1  0.092800  0.686500  0.566100  1.0  -0.729
  O  O426  1  0.101400  0.968400  0.086900  1.0  -0.6827
  O  O427  1  0.387500  0.603600  0.813700  1.0  -0.7565
  O  O428  1  0.262600  0.883700  0.380000  1.0  -0.719
  O  O429  1  0.179100  0.878300  0.017400  1.0  -0.7272
  O  O430  1  0.354300  0.684900  0.118900  1.0  -0.7345
  O  O431  1  0.164000  0.964700  0.211800  1.0  -0.729
  O  O432  1  0.193500  0.641400  0.793800  1.0  -0.7555
  O  O433  1  0.337700  0.636000  0.876400  1.0  -0.7243
  O  O434  1  0.258900  0.586700  0.808700  1.0  -0.7091
  O  O435  1  0.069700  0.667000  0.640400  1.0  -0.6963
  O  O436  1  0.340600  0.549600  0.978400  1.0  -0.7122
  O  O437  1  0.368200  0.601000  0.697600  1.0  -0.6278
  O  O438  1  0.418900  0.688900  0.959500  1.0  -0.7484
  O  O439  1  0.476200  0.625000  0.019700  1.0  -0.7234
  O  O440  1  0.270600  0.710800  0.701800  1.0  -0.7263
  O  O441  1  0.174900  0.920700  0.144800  1.0  -0.8019
  O  O442  1  0.304100  0.555700  0.765800  1.0  -0.669
  O  O443  1  0.275500  0.623000  0.912300  1.0  -0.7295
  O  O444  1  0.401300  0.548100  0.099900  1.0  -0.7506
  O  O445  1  0.184400  0.808300  0.257200  1.0  -0.6952
  O  O446  1  0.255500  0.814200  0.420600  1.0  -0.6846
  O  O447  1  0.240300  0.630400  0.588100  1.0  -0.7713
  O  O448  1  0.107100  0.538000  0.602600  1.0  -0.7387
  O  O449  1  0.163800  0.546100  0.725700  1.0  -0.7854
  O  O450  1  0.274000  0.854200  0.083100  1.0  -0.6769
  O  O451  1  0.203800  0.517800  0.668700  1.0  -0.7624
  O  O452  1  0.325900  0.894700  0.290700  1.0  -0.7479
  O  O453  1  0.271400  0.635000  0.047400  1.0  -0.6684
  O  O454  1  0.140300  0.890000  0.212400  1.0  -0.7187
  O  O455  1  0.193400  0.993600  0.144400  1.0  -0.673
  O  O456  1  0.265400  0.572300  0.982700  1.0  -0.7179
  O  O457  1  0.438200  0.538600  0.039800  1.0  -0.8403
  O  O458  1  0.274500  0.684600  0.972200  1.0  -0.7206
  O  O459  1  0.486200  0.581500  0.199300  1.0  -0.7391
  O  O460  1  0.069400  0.614800  0.518700  1.0  -0.7349
  O  O461  1  0.282100  0.565700  0.652800  1.0  -0.8071
  O  O462  1  0.393000  0.569100  0.926200  1.0  -0.6666
  O  O463  1  0.162000  0.591500  0.489100  1.0  -0.7319
  O  O464  1  0.057100  0.857500  0.986100  1.0  -0.7409
  O  O465  1  0.977000  0.839700  0.146500  1.0  -0.7245
  O  O466  1  0.343500  0.618600  0.042600  1.0  -0.7944
  O  O467  1  0.485200  0.688800  0.084900  1.0  -0.7694
  O  O468  1  0.252100  0.564400  0.532300  1.0  -0.7661
  O  O469  1  0.421700  0.415900  0.035400  1.0  -0.7499
  O  O470  1  0.380300  0.473700  0.993600  1.0  -0.6248
  O  O471  1  0.336100  0.743100  0.041000  1.0  -0.7189
  O  O472  1  0.403600  0.579900  0.654800  1.0  -0.6863
  O  O473  1  0.095400  0.823600  0.145700  1.0  -0.8031
  O  O474  1  0.272700  0.837000  0.301800  1.0  -0.716
  O  O475  1  0.146700  0.848100  0.086600  1.0  -0.8193
  O  O476  1  0.152800  0.853600  0.314900  1.0  -0.7791
  O  O477  1  0.128100  0.655500  0.505500  1.0  -0.7283
  O  O478  1  0.433700  0.748300  0.090300  1.0  -0.6987
  O  O479  1  0.336600  0.717400  0.483000  1.0  -0.6334
  O  O480  1  0.330100  0.572500  0.109800  1.0  -0.6831
  O  O481  1  0.272900  0.755300  0.365100  1.0  -0.7664
  O  O482  1  0.171500  0.586500  0.592300  1.0  -0.8251
  O  O483  1  0.111800  0.923900  0.012500  1.0  -0.7649
  O  O484  1  0.074100  0.892300  0.086200  1.0  -0.7627
  O  O485  1  0.527900  0.646600  0.190800  1.0  -0.6971
  O  O486  1  0.379900  0.684500  0.027800  1.0  -0.8376
  O  O487  1  0.281000  0.800100  0.213600  1.0  -0.7745
  O  O488  1  0.136800  0.618400  0.656000  1.0  -0.8675
  O  O489  1  0.100100  0.545800  0.497400  1.0  -0.6995
  O  O490  1  0.342400  0.660200  0.533700  1.0  -0.6655
  O  O491  1  0.186600  0.774000  0.155400  1.0  -0.7177
  O  O492  1  0.298500  0.925400  0.139000  1.0  -0.7026
  O  O493  1  0.102300  0.602600  0.715300  1.0  -0.6942
  O  O494  1  0.442200  0.620500  0.095000  1.0  -0.8099
  O  O495  1  0.298700  0.634700  0.711300  1.0  -0.7262
  O  O496  1  0.315100  0.501500  0.045800  1.0  -0.7432
  O  O497  1  0.196000  0.524400  0.558500  1.0  -0.7479
  O  O498  1  0.043800  0.593700  0.590900  1.0  -0.6925
  O  O499  1  0.087200  0.787400  0.049600  1.0  -0.7286
  O  O500  1  0.004600  0.829000  0.026500  1.0  -0.7237
  O  O501  1  0.245200  0.918600  0.275500  1.0  -0.7499
  O  O502  1  0.210100  0.705200  0.575500  1.0  -0.6793
  O  O503  1  0.289400  0.691600  0.888700  1.0  -0.751
  O  O504  1  0.497600  0.507600  0.162100  1.0  -0.7948
  O  O505  1  0.056900  0.859300  0.196100  1.0  -0.6035
  O  O506  1  0.123000  0.811400  0.987600  1.0  -0.6945
  O  O507  1  0.174000  0.734100  0.631900  1.0  -0.6625
  O  O508  1  0.410200  0.623700  0.176200  1.0  -0.7446
  O  O509  1  0.338000  0.857300  0.208100  1.0  -0.7016
  O  O510  1  0.311400  0.691300  0.640500  1.0  -0.7608
  O  O511  1  0.323400  0.510800  0.875600  1.0  -0.7721
  O  O512  1  0.522400  0.580600  0.131500  1.0  -0.7199
  O  O513  1  0.217000  0.798900  0.089600  1.0  -0.7432
  O  O514  1  0.254000  0.668000  0.772400  1.0  -0.7067
  O  O515  1  0.364600  0.748500  0.969400  1.0  -0.6794
  O  O516  1  0.447600  0.686700  0.167100  1.0  -0.6882
  O  O517  1  0.986800  0.423700  0.617000  1.0  -0.7262
  O  O518  1  0.942800  0.422700  0.669500  1.0  -0.713
  O  O519  1  0.986900  0.357900  0.672300  1.0  -0.7468
  O  O520  1  0.884600  0.484400  0.601300  1.0  -0.7017
  O  O521  1  0.888100  0.380200  0.694000  1.0  -0.6788
  O  O522  1  0.932800  0.312900  0.694500  1.0  -0.7247
  O  O523  1  0.930600  0.485000  0.550900  1.0  -0.7002
  O  O524  1  0.996800  0.377100  0.541200  1.0  -0.6985
  O  O525  1  0.921900  0.430300  0.471400  1.0  -0.6741
  O  O526  1  0.831800  0.492200  0.477800  1.0  -0.686
  O  O527  1  0.874700  0.425100  0.534800  1.0  -0.8383
  O  O528  1  0.827100  0.426700  0.593900  1.0  -0.7399
  O  O529  1  0.921700  0.359700  0.538800  1.0  -0.8211
  O  O530  1  0.876300  0.357500  0.594100  1.0  -0.818
  O  O531  1  0.832100  0.315500  0.630100  1.0  -0.7413
  O  O532  1  0.883900  0.241900  0.649600  1.0  -0.7499
  O  O533  1  0.822800  0.278800  0.534700  1.0  -0.8103
  O  O534  1  0.921100  0.286200  0.591600  1.0  -0.7464
  O  O535  1  0.769800  0.363500  0.521500  1.0  -0.7803
  O  O536  1  0.769800  0.432100  0.466000  1.0  -0.8127
  O  O537  1  0.997400  0.311800  0.595800  1.0  -0.6849
  O  O538  1  0.935600  0.317300  0.472100  1.0  -0.7216
  O  O539  1  0.948900  0.243800  0.529100  1.0  -0.7414
  O  O540  1  0.857500  0.292000  0.467800  1.0  -0.7152
  O  O541  1  0.825300  0.439700  0.391300  1.0  -0.7552
  O  O542  1  0.858200  0.369000  0.409300  1.0  -0.7135
  O  O543  1  0.561600  0.451800  0.150200  1.0  -0.7336
  O  O544  1  0.662700  0.195000  0.712900  1.0  -0.7034
  O  O545  1  0.703400  0.449300  0.069200  1.0  -0.7411
  O  O546  1  0.779400  0.453500  0.216300  1.0  -0.693
  O  O547  1  0.744800  0.375200  0.150500  1.0  -0.8791
  O  O548  1  0.697500  0.159800  0.641600  1.0  -0.8147
  O  O549  1  0.592800  0.186500  0.566100  1.0  -0.729
  O  O550  1  0.601400  0.468400  0.086900  1.0  -0.6827
  O  O551  1  0.887500  0.103600  0.813700  1.0  -0.7565
  O  O552  1  0.762600  0.383700  0.380000  1.0  -0.719
  O  O553  1  0.679100  0.378300  0.017400  1.0  -0.7272
  O  O554  1  0.854300  0.184900  0.118900  1.0  -0.7345
  O  O555  1  0.664000  0.464700  0.211800  1.0  -0.729
  O  O556  1  0.693500  0.141400  0.793800  1.0  -0.7555
  O  O557  1  0.837700  0.136000  0.876400  1.0  -0.7243
  O  O558  1  0.758900  0.086700  0.808700  1.0  -0.7091
  O  O559  1  0.569700  0.167000  0.640400  1.0  -0.6963
  O  O560  1  0.840600  0.049600  0.978400  1.0  -0.7122
  O  O561  1  0.868200  0.101000  0.697600  1.0  -0.6278
  O  O562  1  0.918900  0.188900  0.959500  1.0  -0.7484
  O  O563  1  0.976200  0.125000  0.019700  1.0  -0.729
  O  O564  1  0.770600  0.210800  0.701800  1.0  -0.7263
  O  O565  1  0.674900  0.420700  0.144800  1.0  -0.8019
  O  O566  1  0.804100  0.055700  0.765800  1.0  -0.669
  O  O567  1  0.775500  0.123000  0.912300  1.0  -0.7295
  O  O568  1  0.901300  0.048100  0.099900  1.0  -0.7506
  O  O569  1  0.684400  0.308300  0.257200  1.0  -0.6952
  O  O570  1  0.755500  0.314200  0.420600  1.0  -0.6846
  O  O571  1  0.740300  0.130400  0.588100  1.0  -0.7713
  O  O572  1  0.607100  0.038000  0.602600  1.0  -0.7387
  O  O573  1  0.663800  0.046100  0.725700  1.0  -0.7854
  O  O574  1  0.774000  0.354200  0.083100  1.0  -0.6769
  O  O575  1  0.703800  0.017800  0.668700  1.0  -0.7624
  O  O576  1  0.825900  0.394700  0.290700  1.0  -0.7479
  O  O577  1  0.771400  0.135000  0.047400  1.0  -0.6684
  O  O578  1  0.640300  0.390000  0.212400  1.0  -0.7187
  O  O579  1  0.693400  0.493600  0.144400  1.0  -0.673
  O  O580  1  0.765400  0.072300  0.982700  1.0  -0.7179
  O  O581  1  0.938200  0.038600  0.039800  1.0  -0.8403
  O  O582  1  0.774500  0.184600  0.972200  1.0  -0.7206
  O  O583  1  0.986200  0.081500  0.199300  1.0  -0.7391
  O  O584  1  0.569400  0.114800  0.518700  1.0  -0.7349
  O  O585  1  0.782100  0.065700  0.652800  1.0  -0.8071
  O  O586  1  0.893000  0.069100  0.926200  1.0  -0.6666
  O  O587  1  0.662000  0.091500  0.489100  1.0  -0.7319
  O  O588  1  0.557100  0.357500  0.986100  1.0  -0.7409
  O  O589  1  0.477000  0.339700  0.146500  1.0  -0.7245
  O  O590  1  0.843500  0.118600  0.042600  1.0  -0.7944
  O  O591  1  0.985200  0.188800  0.084900  1.0  -0.7694
  O  O592  1  0.752100  0.064400  0.532300  1.0  -0.7661
  O  O593  1  0.921700  0.915900  0.035400  1.0  -0.7499
  O  O594  1  0.880300  0.973700  0.993600  1.0  -0.6248
  O  O595  1  0.836100  0.243100  0.041000  1.0  -0.7189
  O  O596  1  0.903600  0.079900  0.654800  1.0  -0.6863
  O  O597  1  0.595400  0.323600  0.145700  1.0  -0.8031
  O  O598  1  0.772700  0.337000  0.301800  1.0  -0.716
  O  O599  1  0.646700  0.348100  0.086600  1.0  -0.8193
  O  O600  1  0.652800  0.353600  0.314900  1.0  -0.7791
  O  O601  1  0.628100  0.155500  0.505500  1.0  -0.7283
  O  O602  1  0.933700  0.248300  0.090300  1.0  -0.6987
  O  O603  1  0.836600  0.217400  0.483000  1.0  -0.6334
  O  O604  1  0.830100  0.072500  0.109800  1.0  -0.6831
  O  O605  1  0.772900  0.255300  0.365100  1.0  -0.7664
  O  O606  1  0.671500  0.086500  0.592300  1.0  -0.8251
  O  O607  1  0.611800  0.423900  0.012500  1.0  -0.7649
  O  O608  1  0.574100  0.392300  0.086200  1.0  -0.7627
  O  O609  1  0.027900  0.146600  0.190800  1.0  -0.6971
  O  O610  1  0.879900  0.184500  0.027800  1.0  -0.8376
  O  O611  1  0.781000  0.300100  0.213600  1.0  -0.7745
  O  O612  1  0.636800  0.118400  0.656000  1.0  -0.8675
  O  O613  1  0.600100  0.045800  0.497400  1.0  -0.6995
  O  O614  1  0.842400  0.160200  0.533700  1.0  -0.6655
  O  O615  1  0.686600  0.274000  0.155400  1.0  -0.7177
  O  O616  1  0.798500  0.425400  0.139000  1.0  -0.7026
  O  O617  1  0.602300  0.102600  0.715300  1.0  -0.6942
  O  O618  1  0.942200  0.120500  0.095000  1.0  -0.8099
  O  O619  1  0.798700  0.134700  0.711300  1.0  -0.7262
  O  O620  1  0.815100  0.001500  0.045800  1.0  -0.7432
  O  O621  1  0.696000  0.024400  0.558500  1.0  -0.7479
  O  O622  1  0.543800  0.093700  0.590900  1.0  -0.6925
  O  O623  1  0.587200  0.287400  0.049600  1.0  -0.7286
  O  O624  1  0.504600  0.329000  0.026500  1.0  -0.7237
  O  O625  1  0.745200  0.418600  0.275500  1.0  -0.7499
  O  O626  1  0.710100  0.205200  0.575500  1.0  -0.6793
  O  O627  1  0.789400  0.191600  0.888700  1.0  -0.751
  O  O628  1  0.997600  0.007600  0.162100  1.0  -0.7948
  O  O629  1  0.556900  0.359300  0.196100  1.0  -0.6035
  O  O630  1  0.623000  0.311400  0.987600  1.0  -0.6945
  O  O631  1  0.674000  0.234100  0.631900  1.0  -0.6625
  O  O632  1  0.910200  0.123700  0.176200  1.0  -0.7446
  O  O633  1  0.838000  0.357300  0.208100  1.0  -0.7117
  O  O634  1  0.811400  0.191300  0.640500  1.0  -0.7608
  O  O635  1  0.823400  0.010800  0.875600  1.0  -0.7721
  O  O636  1  0.022400  0.080600  0.131500  1.0  -0.7199
  O  O637  1  0.717000  0.298900  0.089600  1.0  -0.7432
  O  O638  1  0.754000  0.168000  0.772400  1.0  -0.7067
  O  O639  1  0.864600  0.248500  0.969400  1.0  -0.6794
  O  O640  1  0.947600  0.186700  0.167100  1.0  -0.6882
  O  O641  1  0.486800  0.076300  0.117000  1.0  -0.7257
  O  O642  1  0.442800  0.077300  0.169500  1.0  -0.7175
  O  O643  1  0.486900  0.142100  0.172300  1.0  -0.7462
  O  O644  1  0.384600  0.015600  0.101300  1.0  -0.7102
  O  O645  1  0.388100  0.119800  0.194000  1.0  -0.6796
  O  O646  1  0.432800  0.187100  0.194500  1.0  -0.7246
  O  O647  1  0.430600  0.015000  0.050900  1.0  -0.6977
  O  O648  1  0.496800  0.122900  0.041200  1.0  -0.6991
  O  O649  1  0.421900  0.069700  0.971400  1.0  -0.671
  O  O650  1  0.331800  0.007800  0.977800  1.0  -0.6929
  O  O651  1  0.374700  0.074900  0.034800  1.0  -0.8394
  O  O652  1  0.327100  0.073300  0.093900  1.0  -0.743
  O  O653  1  0.421700  0.140300  0.038800  1.0  -0.8214
  O  O654  1  0.376300  0.142500  0.094100  1.0  -0.8178
  O  O655  1  0.332100  0.184500  0.130100  1.0  -0.7416
  O  O656  1  0.383900  0.258100  0.149600  1.0  -0.7494
  O  O657  1  0.322800  0.221200  0.034700  1.0  -0.8101
  O  O658  1  0.421100  0.213800  0.091600  1.0  -0.7463
  O  O659  1  0.269800  0.136500  0.021500  1.0  -0.7804
  O  O660  1  0.269800  0.067900  0.966000  1.0  -0.8115
  O  O661  1  0.497400  0.188200  0.095800  1.0  -0.6848
  O  O662  1  0.435600  0.182700  0.972100  1.0  -0.7235
  O  O663  1  0.448900  0.256200  0.029100  1.0  -0.7427
  O  O664  1  0.357500  0.208000  0.967800  1.0  -0.7157
  O  O665  1  0.325300  0.060300  0.891300  1.0  -0.7539
  O  O666  1  0.358200  0.131000  0.909300  1.0  -0.7144
  O  O667  1  0.061600  0.048200  0.650200  1.0  -0.7336
  O  O668  1  0.162700  0.305000  0.212900  1.0  -0.706
  O  O669  1  0.203400  0.050700  0.569200  1.0  -0.7366
  O  O670  1  0.279400  0.046500  0.716300  1.0  -0.6943
  O  O671  1  0.244800  0.124800  0.650500  1.0  -0.879
  O  O672  1  0.197500  0.340200  0.141600  1.0  -0.8143
  O  O673  1  0.092800  0.313500  0.066100  1.0  -0.7281
  O  O674  1  0.101400  0.031600  0.586900  1.0  -0.6857
  O  O675  1  0.387500  0.396400  0.313700  1.0  -0.7567
  O  O676  1  0.262600  0.116300  0.880000  1.0  -0.7188
  O  O677  1  0.179100  0.121700  0.517400  1.0  -0.7275
  O  O678  1  0.354300  0.315100  0.618900  1.0  -0.737
  O  O679  1  0.164000  0.035300  0.711800  1.0  -0.737
  O  O680  1  0.193500  0.358600  0.293800  1.0  -0.7552
  O  O681  1  0.337700  0.364000  0.376400  1.0  -0.7242
  O  O682  1  0.258900  0.413300  0.308700  1.0  -0.7072
  O  O683  1  0.069700  0.333000  0.140400  1.0  -0.6974
  O  O684  1  0.340600  0.450400  0.478400  1.0  -0.713
  O  O685  1  0.368200  0.399000  0.197600  1.0  -0.6295
  O  O686  1  0.418900  0.311100  0.459500  1.0  -0.7454
  O  O687  1  0.476200  0.375000  0.519700  1.0  -0.7223
  O  O688  1  0.270600  0.289200  0.201800  1.0  -0.7287
  O  O689  1  0.174900  0.079300  0.644800  1.0  -0.8018
  O  O690  1  0.304100  0.444300  0.265800  1.0  -0.6691
  O  O691  1  0.275500  0.377000  0.412300  1.0  -0.7296
  O  O692  1  0.401300  0.451900  0.599900  1.0  -0.7507
  O  O693  1  0.184400  0.191700  0.757200  1.0  -0.6946
  O  O694  1  0.255500  0.185800  0.920600  1.0  -0.6839
  O  O695  1  0.240300  0.369600  0.088100  1.0  -0.7712
  O  O696  1  0.107100  0.462000  0.102600  1.0  -0.7372
  O  O697  1  0.163800  0.453900  0.225700  1.0  -0.7821
  O  O698  1  0.274000  0.145800  0.583100  1.0  -0.6782
  O  O699  1  0.203800  0.482200  0.168700  1.0  -0.7619
  O  O700  1  0.325900  0.105300  0.790700  1.0  -0.7477
  O  O701  1  0.271400  0.365000  0.547400  1.0  -0.6686
  O  O702  1  0.140300  0.110000  0.712400  1.0  -0.7194
  O  O703  1  0.193400  0.006400  0.644400  1.0  -0.6823
  O  O704  1  0.265400  0.427700  0.482700  1.0  -0.7173
  O  O705  1  0.438200  0.461400  0.539800  1.0  -0.8402
  O  O706  1  0.274500  0.315400  0.472200  1.0  -0.7195
  O  O707  1  0.486200  0.418500  0.699300  1.0  -0.74
  O  O708  1  0.069400  0.385200  0.018700  1.0  -0.735
  O  O709  1  0.282100  0.434300  0.152800  1.0  -0.8079
  O  O710  1  0.393000  0.430900  0.426200  1.0  -0.6679
  O  O711  1  0.162000  0.408500  0.989100  1.0  -0.7325
  O  O712  1  0.057100  0.142500  0.486100  1.0  -0.7426
  O  O713  1  0.977000  0.160300  0.646500  1.0  -0.7252
  O  O714  1  0.343500  0.381400  0.542600  1.0  -0.7946
  O  O715  1  0.485200  0.311200  0.584900  1.0  -0.7672
  O  O716  1  0.252100  0.435600  0.032300  1.0  -0.7675
  O  O717  1  0.421700  0.584100  0.535400  1.0  -0.7507
  O  O718  1  0.380300  0.526300  0.493600  1.0  -0.6247
  O  O719  1  0.336100  0.256900  0.541000  1.0  -0.7208
  O  O720  1  0.403600  0.420100  0.154800  1.0  -0.6873
  O  O721  1  0.095400  0.176400  0.645700  1.0  -0.8049
  O  O722  1  0.272700  0.163000  0.801800  1.0  -0.7164
  O  O723  1  0.146700  0.151900  0.586600  1.0  -0.8195
  O  O724  1  0.152800  0.146400  0.814900  1.0  -0.7799
  O  O725  1  0.128100  0.344500  0.005500  1.0  -0.7285
  O  O726  1  0.433700  0.251700  0.590300  1.0  -0.704
  O  O727  1  0.336600  0.282600  0.983000  1.0  -0.6335
  O  O728  1  0.330100  0.427500  0.609800  1.0  -0.6826
  O  O729  1  0.272900  0.244700  0.865100  1.0  -0.7676
  O  O730  1  0.171500  0.413500  0.092300  1.0  -0.8255
  O  O731  1  0.111800  0.076100  0.512500  1.0  -0.7636
  O  O732  1  0.074100  0.107700  0.586200  1.0  -0.7626
  O  O733  1  0.527900  0.353400  0.690800  1.0  -0.6978
  O  O734  1  0.379900  0.315500  0.527800  1.0  -0.8375
  O  O735  1  0.281000  0.199900  0.713600  1.0  -0.7733
  O  O736  1  0.136800  0.381600  0.156000  1.0  -0.8672
  O  O737  1  0.100100  0.454200  0.997400  1.0  -0.6991
  O  O738  1  0.342400  0.339800  0.033700  1.0  -0.6627
  O  O739  1  0.186600  0.226000  0.655400  1.0  -0.7173
  O  O740  1  0.298500  0.074600  0.639000  1.0  -0.7012
  O  O741  1  0.102300  0.397400  0.215300  1.0  -0.6938
  O  O742  1  0.442200  0.379500  0.595000  1.0  -0.8096
  O  O743  1  0.298700  0.365300  0.211300  1.0  -0.725
  O  O744  1  0.315100  0.498500  0.545800  1.0  -0.7432
  O  O745  1  0.196000  0.475600  0.058500  1.0  -0.7437
  O  O746  1  0.043800  0.406300  0.090900  1.0  -0.6915
  O  O747  1  0.087200  0.212600  0.549600  1.0  -0.7245
  O  O748  1  0.004600  0.171000  0.526500  1.0  -0.7238
  O  O749  1  0.245200  0.081400  0.775500  1.0  -0.7496
  O  O750  1  0.210100  0.294800  0.075500  1.0  -0.6805
  O  O751  1  0.289400  0.308400  0.388700  1.0  -0.7509
  O  O752  1  0.497600  0.492400  0.662100  1.0  -0.7934
  O  O753  1  0.056900  0.140700  0.696100  1.0  -0.6029
  O  O754  1  0.123000  0.188600  0.487600  1.0  -0.6984
  O  O755  1  0.174000  0.265900  0.131900  1.0  -0.6752
  O  O756  1  0.410200  0.376300  0.676200  1.0  -0.7465
  O  O757  1  0.338000  0.142700  0.708100  1.0  -0.7015
  O  O758  1  0.311400  0.308700  0.140500  1.0  -0.762
  O  O759  1  0.323400  0.489200  0.375600  1.0  -0.7715
  O  O760  1  0.522400  0.419400  0.631500  1.0  -0.7204
  O  O761  1  0.217000  0.201100  0.589600  1.0  -0.7435
  O  O762  1  0.254000  0.332000  0.272400  1.0  -0.7073
  O  O763  1  0.364600  0.251500  0.469400  1.0  -0.6846
  O  O764  1  0.447600  0.313300  0.667100  1.0  -0.6931
  O  O765  1  0.986800  0.576300  0.117000  1.0  -0.7257
  O  O766  1  0.942800  0.577300  0.169500  1.0  -0.7175
  O  O767  1  0.986900  0.642100  0.172300  1.0  -0.7462
  O  O768  1  0.884600  0.515600  0.101300  1.0  -0.7102
  O  O769  1  0.888100  0.619800  0.194000  1.0  -0.6796
  O  O770  1  0.932800  0.687100  0.194500  1.0  -0.7246
  O  O771  1  0.930600  0.515000  0.050900  1.0  -0.6977
  O  O772  1  0.996800  0.622900  0.041200  1.0  -0.7
  O  O773  1  0.921900  0.569700  0.971400  1.0  -0.671
  O  O774  1  0.831800  0.507800  0.977800  1.0  -0.6929
  O  O775  1  0.874700  0.574900  0.034800  1.0  -0.8394
  O  O776  1  0.827100  0.573300  0.093900  1.0  -0.743
  O  O777  1  0.921700  0.640300  0.038800  1.0  -0.8214
  O  O778  1  0.876300  0.642500  0.094100  1.0  -0.8178
  O  O779  1  0.832100  0.684500  0.130100  1.0  -0.7416
  O  O780  1  0.883900  0.758100  0.149600  1.0  -0.7494
  O  O781  1  0.822800  0.721200  0.034700  1.0  -0.8101
  O  O782  1  0.921100  0.713800  0.091600  1.0  -0.7463
  O  O783  1  0.769800  0.636500  0.021500  1.0  -0.7804
  O  O784  1  0.769800  0.567900  0.966000  1.0  -0.8115
  O  O785  1  0.997400  0.688200  0.095800  1.0  -0.6848
  O  O786  1  0.935600  0.682700  0.972100  1.0  -0.7235
  O  O787  1  0.948900  0.756200  0.029100  1.0  -0.7427
  O  O788  1  0.857500  0.708000  0.967800  1.0  -0.7157
  O  O789  1  0.825300  0.560300  0.891300  1.0  -0.7539
  O  O790  1  0.858200  0.631000  0.909300  1.0  -0.7144
  O  O791  1  0.561600  0.548200  0.650200  1.0  -0.7336
  O  O792  1  0.662700  0.805000  0.212900  1.0  -0.706
  O  O793  1  0.703400  0.550700  0.569200  1.0  -0.7366
  O  O794  1  0.779400  0.546500  0.716300  1.0  -0.6943
  O  O795  1  0.744800  0.624800  0.650500  1.0  -0.879
  O  O796  1  0.697500  0.840200  0.141600  1.0  -0.8143
  O  O797  1  0.592800  0.813500  0.066100  1.0  -0.7281
  O  O798  1  0.601400  0.531600  0.586900  1.0  -0.6857
  O  O799  1  0.887500  0.896400  0.313700  1.0  -0.7567
  O  O800  1  0.762600  0.616300  0.880000  1.0  -0.7188
  O  O801  1  0.679100  0.621700  0.517400  1.0  -0.7275
  O  O802  1  0.854300  0.815100  0.618900  1.0  -0.737
  O  O803  1  0.664000  0.535300  0.711800  1.0  -0.737
  O  O804  1  0.693500  0.858600  0.293800  1.0  -0.7552
  O  O805  1  0.837700  0.864000  0.376400  1.0  -0.7242
  O  O806  1  0.758900  0.913300  0.308700  1.0  -0.7072
  O  O807  1  0.569700  0.833000  0.140400  1.0  -0.6974
  O  O808  1  0.840600  0.950400  0.478400  1.0  -0.713
  O  O809  1  0.868200  0.899000  0.197600  1.0  -0.6295
  O  O810  1  0.918900  0.811100  0.459500  1.0  -0.7454
  O  O811  1  0.976200  0.875000  0.519700  1.0  -0.7223
  O  O812  1  0.770600  0.789200  0.201800  1.0  -0.7287
  O  O813  1  0.674900  0.579300  0.644800  1.0  -0.8018
  O  O814  1  0.804100  0.944300  0.265800  1.0  -0.6691
  O  O815  1  0.775500  0.877000  0.412300  1.0  -0.7296
  O  O816  1  0.901300  0.951900  0.599900  1.0  -0.7507
  O  O817  1  0.684400  0.691700  0.757200  1.0  -0.6946
  O  O818  1  0.755500  0.685800  0.920600  1.0  -0.6839
  O  O819  1  0.740300  0.869600  0.088100  1.0  -0.7712
  O  O820  1  0.607100  0.962000  0.102600  1.0  -0.7372
  O  O821  1  0.663800  0.953900  0.225700  1.0  -0.7821
  O  O822  1  0.774000  0.645800  0.583100  1.0  -0.6782
  O  O823  1  0.703800  0.982200  0.168700  1.0  -0.7619
  O  O824  1  0.825900  0.605300  0.790700  1.0  -0.7477
  O  O825  1  0.771400  0.865000  0.547400  1.0  -0.6686
  O  O826  1  0.640300  0.610000  0.712400  1.0  -0.7194
  O  O827  1  0.693400  0.506400  0.644400  1.0  -0.6823
  O  O828  1  0.765400  0.927700  0.482700  1.0  -0.7173
  O  O829  1  0.938200  0.961400  0.539800  1.0  -0.8402
  O  O830  1  0.774500  0.815400  0.472200  1.0  -0.7195
  O  O831  1  0.986200  0.918500  0.699300  1.0  -0.74
  O  O832  1  0.569400  0.885200  0.018700  1.0  -0.735
  O  O833  1  0.782100  0.934300  0.152800  1.0  -0.8079
  O  O834  1  0.893000  0.930900  0.426200  1.0  -0.6679
  O  O835  1  0.662000  0.908500  0.989100  1.0  -0.7325
  O  O836  1  0.557100  0.642500  0.486100  1.0  -0.7426
  O  O837  1  0.477000  0.660300  0.646500  1.0  -0.7252
  O  O838  1  0.843500  0.881400  0.542600  1.0  -0.7946
  O  O839  1  0.985200  0.811200  0.584900  1.0  -0.7672
  O  O840  1  0.752100  0.935600  0.032300  1.0  -0.7675
  O  O841  1  0.921700  0.084100  0.535400  1.0  -0.7507
  O  O842  1  0.880300  0.026300  0.493600  1.0  -0.6247
  O  O843  1  0.836100  0.756900  0.541000  1.0  -0.7208
  O  O844  1  0.903600  0.920100  0.154800  1.0  -0.6873
  O  O845  1  0.595400  0.676400  0.645700  1.0  -0.8049
  O  O846  1  0.772700  0.663000  0.801800  1.0  -0.7164
  O  O847  1  0.646700  0.651900  0.586600  1.0  -0.8195
  O  O848  1  0.652800  0.646400  0.814900  1.0  -0.7799
  O  O849  1  0.628100  0.844500  0.005500  1.0  -0.7285
  O  O850  1  0.933700  0.751700  0.590300  1.0  -0.704
  O  O851  1  0.836600  0.782600  0.983000  1.0  -0.6335
  O  O852  1  0.830100  0.927500  0.609800  1.0  -0.6826
  O  O853  1  0.772900  0.744700  0.865100  1.0  -0.7676
  O  O854  1  0.671500  0.913500  0.092300  1.0  -0.8255
  O  O855  1  0.611800  0.576100  0.512500  1.0  -0.7636
  O  O856  1  0.574100  0.607700  0.586200  1.0  -0.7626
  O  O857  1  0.027900  0.853400  0.690800  1.0  -0.6978
  O  O858  1  0.879900  0.815500  0.527800  1.0  -0.8375
  O  O859  1  0.781000  0.699900  0.713600  1.0  -0.7733
  O  O860  1  0.636800  0.881600  0.156000  1.0  -0.8672
  O  O861  1  0.600100  0.954200  0.997400  1.0  -0.6991
  O  O862  1  0.842400  0.839800  0.033700  1.0  -0.6627
  O  O863  1  0.686600  0.726000  0.655400  1.0  -0.7173
  O  O864  1  0.798500  0.574600  0.639000  1.0  -0.7012
  O  O865  1  0.602300  0.897400  0.215300  1.0  -0.6938
  O  O866  1  0.942200  0.879500  0.595000  1.0  -0.8096
  O  O867  1  0.798700  0.865300  0.211300  1.0  -0.725
  O  O868  1  0.815100  0.998500  0.545800  1.0  -0.7432
  O  O869  1  0.696000  0.975600  0.058500  1.0  -0.7437
  O  O870  1  0.543800  0.906300  0.090900  1.0  -0.6915
  O  O871  1  0.587200  0.712600  0.549600  1.0  -0.7245
  O  O872  1  0.504600  0.671000  0.526500  1.0  -0.7238
  O  O873  1  0.745200  0.581400  0.775500  1.0  -0.7496
  O  O874  1  0.710100  0.794800  0.075500  1.0  -0.6805
  O  O875  1  0.789400  0.808400  0.388700  1.0  -0.7509
  O  O876  1  0.997600  0.992400  0.662100  1.0  -0.7934
  O  O877  1  0.556900  0.640700  0.696100  1.0  -0.6029
  O  O878  1  0.623000  0.688600  0.487600  1.0  -0.6984
  O  O879  1  0.674000  0.765900  0.131900  1.0  -0.6752
  O  O880  1  0.910200  0.876300  0.676200  1.0  -0.7465
  O  O881  1  0.838000  0.642700  0.708100  1.0  -0.7115
  O  O882  1  0.811400  0.808700  0.140500  1.0  -0.762
  O  O883  1  0.823400  0.989200  0.375600  1.0  -0.7715
  O  O884  1  0.022400  0.919400  0.631500  1.0  -0.7204
  O  O885  1  0.717000  0.701100  0.589600  1.0  -0.7435
  O  O886  1  0.754000  0.832000  0.272400  1.0  -0.7073
  O  O887  1  0.864600  0.751500  0.469400  1.0  -0.6846
  O  O888  1  0.947600  0.813300  0.667100  1.0  -0.6931
