# generated using pymatgen
data_AgH18C24S2N4O
_symmetry_space_group_name_H-M   'P 1'
_cell_length_a   26.04700000
_cell_length_b   26.04700000
_cell_length_c   41.75100000
_cell_angle_alpha   90.00000000
_cell_angle_beta   90.00000000
_cell_angle_gamma   120.00000000
_symmetry_Int_Tables_number   1
_chemical_formula_structural   AgH18C24S2N4O
_chemical_formula_sum   'Ag36 H648 C864 S72 N144 O36'
_cell_volume   24530.86902663
_cell_formula_units_Z   36
loop_
 _symmetry_equiv_pos_site_id
 _symmetry_equiv_pos_as_xyz
  1  'x, y, z'
loop_
 _atom_site_type_symbol
 _atom_site_label
 _atom_site_symmetry_multiplicity
 _atom_site_fract_x
 _atom_site_fract_y
 _atom_site_fract_z
 _atom_site_occupancy
 _atom_site_charge
  Ag  Ag1  1  0.839450  0.656490  0.379640  1.0  0.3802
  Ag  Ag2  1  0.506110  0.989820  0.712980  1.0  0.3801
  Ag  Ag3  1  0.172780  0.323150  0.046310  1.0  0.3801
  Ag  Ag4  1  0.343510  0.182960  0.379640  1.0  0.3804
  Ag  Ag5  1  0.010180  0.516290  0.712980  1.0  0.3804
  Ag  Ag6  1  0.676850  0.849630  0.046310  1.0  0.3805
  Ag  Ag7  1  0.817040  0.160550  0.379640  1.0  0.3806
  Ag  Ag8  1  0.483710  0.493890  0.712980  1.0  0.3804
  Ag  Ag9  1  0.150370  0.827220  0.046310  1.0  0.3805
  Ag  Ag10  1  0.656490  0.839450  0.120360  1.0  0.3798
  Ag  Ag11  1  0.323150  0.172780  0.453690  1.0  0.3798
  Ag  Ag12  1  0.989820  0.506110  0.787020  1.0  0.3798
  Ag  Ag13  1  0.182960  0.343510  0.120360  1.0  0.3793
  Ag  Ag14  1  0.849630  0.676850  0.453690  1.0  0.3793
  Ag  Ag15  1  0.516290  0.010180  0.787020  1.0  0.3792
  Ag  Ag16  1  0.160550  0.817040  0.120360  1.0  0.3797
  Ag  Ag17  1  0.827220  0.150370  0.453690  1.0  0.3797
  Ag  Ag18  1  0.493890  0.483710  0.787020  1.0  0.3795
  Ag  Ag19  1  0.160550  0.343510  0.620360  1.0  0.3781
  Ag  Ag20  1  0.827220  0.676850  0.953690  1.0  0.3781
  Ag  Ag21  1  0.493890  0.010180  0.287020  1.0  0.3781
  Ag  Ag22  1  0.656490  0.817040  0.620360  1.0  0.3795
  Ag  Ag23  1  0.323150  0.150370  0.953690  1.0  0.3795
  Ag  Ag24  1  0.989820  0.483710  0.287020  1.0  0.3794
  Ag  Ag25  1  0.182960  0.839450  0.620360  1.0  0.3794
  Ag  Ag26  1  0.849630  0.172780  0.953690  1.0  0.3793
  Ag  Ag27  1  0.516290  0.506110  0.287020  1.0  0.3792
  Ag  Ag28  1  0.343510  0.160550  0.879640  1.0  0.3802
  Ag  Ag29  1  0.010180  0.493890  0.212980  1.0  0.3801
  Ag  Ag30  1  0.676850  0.827220  0.546310  1.0  0.3801
  Ag  Ag31  1  0.817040  0.656490  0.879640  1.0  0.379
  Ag  Ag32  1  0.483710  0.989820  0.212980  1.0  0.379
  Ag  Ag33  1  0.150370  0.323150  0.546310  1.0  0.379
  Ag  Ag34  1  0.839450  0.182960  0.879640  1.0  0.3801
  Ag  Ag35  1  0.506110  0.516290  0.212980  1.0  0.3799
  Ag  Ag36  1  0.172780  0.849630  0.546310  1.0  0.3801
  H  H37  1  0.371170  0.417500  0.267860  1.0  0.0623
  H  H38  1  0.279800  0.410500  0.277210  1.0  0.0988
  H  H39  1  0.276300  0.491600  0.297820  1.0  0.0971
  H  H40  1  0.365700  0.577900  0.310340  1.0  0.1158
  H  H41  1  0.582300  0.720100  0.339570  1.0  0.1222
  H  H42  1  0.774370  0.652650  0.325020  1.0  0.0877
  H  H43  1  0.674850  0.724720  0.301880  1.0  0.0982
  H  H44  1  0.822200  0.754400  0.306500  1.0  0.1216
  H  H45  1  0.788100  0.737700  0.272900  1.0  0.1157
  H  H46  1  0.782700  0.783100  0.296500  1.0  0.1239
  H  H47  1  0.597400  0.597300  0.392100  1.0  0.091
  H  H48  1  0.534500  0.576000  0.375650  1.0  0.0822
  H  H49  1  0.546200  0.529300  0.394400  1.0  0.107
  H  H50  1  0.613840  0.480450  0.349880  1.0  0.1489
  H  H51  1  0.768060  0.432070  0.393020  1.0  0.1157
  H  H52  1  0.856500  0.438830  0.412080  1.0  0.0948
  H  H53  1  0.939980  0.532750  0.419280  1.0  0.1054
  H  H54  1  0.932290  0.616270  0.409550  1.0  0.0704
  H  H55  1  0.037840  0.750830  0.601190  1.0  0.0608
  H  H56  1  0.946470  0.743830  0.610540  1.0  0.0989
  H  H57  1  0.942970  0.824930  0.631150  1.0  0.097
  H  H58  1  0.032370  0.911230  0.643670  1.0  0.1168
  H  H59  1  0.248970  0.053430  0.672900  1.0  0.1226
  H  H60  1  0.441040  0.985980  0.658350  1.0  0.0877
  H  H61  1  0.341520  0.058050  0.635210  1.0  0.0982
  H  H62  1  0.488870  0.087730  0.639830  1.0  0.1216
  H  H63  1  0.454770  0.071030  0.606230  1.0  0.1157
  H  H64  1  0.449370  0.116430  0.629830  1.0  0.1236
  H  H65  1  0.264070  0.930630  0.725430  1.0  0.091
  H  H66  1  0.201170  0.909330  0.708980  1.0  0.0822
  H  H67  1  0.212870  0.862630  0.727730  1.0  0.107
  H  H68  1  0.280510  0.813780  0.683210  1.0  0.1489
  H  H69  1  0.434730  0.765400  0.726350  1.0  0.1157
  H  H70  1  0.523170  0.772160  0.745410  1.0  0.0948
  H  H71  1  0.606650  0.866080  0.752610  1.0  0.1054
  H  H72  1  0.598960  0.949600  0.742880  1.0  0.0704
  H  H73  1  0.704500  0.084170  0.934530  1.0  0.0623
  H  H74  1  0.613130  0.077170  0.943880  1.0  0.0988
  H  H75  1  0.609630  0.158270  0.964490  1.0  0.0971
  H  H76  1  0.699030  0.244570  0.977010  1.0  0.1158
  H  H77  1  0.915630  0.386770  0.006240  1.0  0.1222
  H  H78  1  0.107700  0.319320  0.991690  1.0  0.0877
  H  H79  1  0.008180  0.391390  0.968550  1.0  0.0982
  H  H80  1  0.155530  0.421070  0.973170  1.0  0.1216
  H  H81  1  0.121430  0.404370  0.939570  1.0  0.1157
  H  H82  1  0.116030  0.449770  0.963170  1.0  0.124
  H  H83  1  0.930730  0.263970  0.058770  1.0  0.091
  H  H84  1  0.867830  0.242670  0.042320  1.0  0.0822
  H  H85  1  0.879530  0.195970  0.061070  1.0  0.107
  H  H86  1  0.947170  0.147120  0.016550  1.0  0.1489
  H  H87  1  0.101390  0.098740  0.059690  1.0  0.1165
  H  H88  1  0.189830  0.105500  0.078750  1.0  0.0947
  H  H89  1  0.273310  0.199420  0.085950  1.0  0.1054
  H  H90  1  0.265620  0.282940  0.076220  1.0  0.0704
  H  H91  1  0.582500  0.953670  0.267860  1.0  0.0626
  H  H92  1  0.589500  0.869300  0.277210  1.0  0.0996
  H  H93  1  0.508400  0.784700  0.297820  1.0  0.1019
  H  H94  1  0.422100  0.787800  0.310340  1.0  0.1167
  H  H95  1  0.279900  0.862200  0.339570  1.0  0.1166
  H  H96  1  0.347350  0.121720  0.325020  1.0  0.0883
  H  H97  1  0.275280  0.950130  0.301880  1.0  0.0977
  H  H98  1  0.245600  0.067800  0.306500  1.0  0.1219
  H  H99  1  0.262300  0.050400  0.272900  1.0  0.1158
  H  H100  1  0.216900  0.999600  0.296500  1.0  0.1206
  H  H101  1  0.402700  0.000100  0.392100  1.0  0.0874
  H  H102  1  0.424000  0.958500  0.375650  1.0  0.0819
  H  H103  1  0.470700  0.016900  0.394400  1.0  0.1067
  H  H104  1  0.519550  0.133390  0.349880  1.0  0.1498
  H  H105  1  0.567930  0.335990  0.393020  1.0  0.1156
  H  H106  1  0.561170  0.417670  0.412080  1.0  0.0949
  H  H107  1  0.467250  0.407230  0.419280  1.0  0.1053
  H  H108  1  0.383730  0.316020  0.409550  1.0  0.0701
  H  H109  1  0.249170  0.287000  0.601190  1.0  0.0625
  H  H110  1  0.256170  0.202630  0.610540  1.0  0.0996
  H  H111  1  0.175070  0.118030  0.631150  1.0  0.102
  H  H112  1  0.088770  0.121130  0.643670  1.0  0.1162
  H  H113  1  0.946570  0.195530  0.672900  1.0  0.117
  H  H114  1  0.014020  0.455050  0.658350  1.0  0.0883
  H  H115  1  0.941950  0.283460  0.635210  1.0  0.0977
  H  H116  1  0.912270  0.401130  0.639830  1.0  0.1219
  H  H117  1  0.928970  0.383730  0.606230  1.0  0.1158
  H  H118  1  0.883570  0.332930  0.629830  1.0  0.1208
  H  H119  1  0.069370  0.333430  0.725430  1.0  0.0874
  H  H120  1  0.090670  0.291830  0.708980  1.0  0.0819
  H  H121  1  0.137370  0.350230  0.727730  1.0  0.1067
  H  H122  1  0.186220  0.466720  0.683210  1.0  0.1498
  H  H123  1  0.234600  0.669320  0.726350  1.0  0.1156
  H  H124  1  0.227840  0.751000  0.745410  1.0  0.0949
  H  H125  1  0.133920  0.740560  0.752610  1.0  0.1053
  H  H126  1  0.050400  0.649350  0.742880  1.0  0.0701
  H  H127  1  0.915830  0.620340  0.934530  1.0  0.0625
  H  H128  1  0.922830  0.535970  0.943880  1.0  0.0996
  H  H129  1  0.841730  0.451370  0.964490  1.0  0.1019
  H  H130  1  0.755430  0.454470  0.977010  1.0  0.1167
  H  H131  1  0.613230  0.528870  0.006240  1.0  0.1169
  H  H132  1  0.680680  0.788390  0.991690  1.0  0.0884
  H  H133  1  0.608610  0.616800  0.968550  1.0  0.0977
  H  H134  1  0.578930  0.734470  0.973170  1.0  0.122
  H  H135  1  0.595630  0.717070  0.939570  1.0  0.1158
  H  H136  1  0.550230  0.666270  0.963170  1.0  0.1206
  H  H137  1  0.736030  0.666770  0.058770  1.0  0.0874
  H  H138  1  0.757330  0.625170  0.042320  1.0  0.0819
  H  H139  1  0.804030  0.683570  0.061070  1.0  0.1065
  H  H140  1  0.852880  0.800060  0.016550  1.0  0.1498
  H  H141  1  0.901260  0.002660  0.059690  1.0  0.1157
  H  H142  1  0.894500  0.084340  0.078750  1.0  0.0949
  H  H143  1  0.800580  0.073900  0.085950  1.0  0.1053
  H  H144  1  0.717060  0.982690  0.076220  1.0  0.0701
  H  H145  1  0.046330  0.628830  0.267860  1.0  0.0629
  H  H146  1  0.130700  0.720200  0.277210  1.0  0.0988
  H  H147  1  0.215300  0.723700  0.297820  1.0  0.1017
  H  H148  1  0.212200  0.634300  0.310340  1.0  0.116
  H  H149  1  0.137800  0.417700  0.339570  1.0  0.1172
  H  H150  1  0.878280  0.225630  0.325020  1.0  0.0875
  H  H151  1  0.049870  0.325150  0.301880  1.0  0.0995
  H  H152  1  0.932200  0.177800  0.306500  1.0  0.1228
  H  H153  1  0.949600  0.211900  0.272900  1.0  0.116
  H  H154  1  0.000400  0.217300  0.296500  1.0  0.1204
  H  H155  1  0.999900  0.402600  0.392100  1.0  0.0899
  H  H156  1  0.041500  0.465500  0.375650  1.0  0.0828
  H  H157  1  0.983100  0.453800  0.394400  1.0  0.1073
  H  H158  1  0.866610  0.386160  0.349880  1.0  0.1511
  H  H159  1  0.664010  0.231940  0.393020  1.0  0.1157
  H  H160  1  0.582330  0.143500  0.412080  1.0  0.0949
  H  H161  1  0.592770  0.060020  0.419280  1.0  0.1059
  H  H162  1  0.683980  0.067710  0.409550  1.0  0.0691
  H  H163  1  0.713000  0.962160  0.601190  1.0  0.0629
  H  H164  1  0.797370  0.053530  0.610540  1.0  0.0988
  H  H165  1  0.881970  0.057030  0.631150  1.0  0.1017
  H  H166  1  0.878870  0.967630  0.643670  1.0  0.1151
  H  H167  1  0.804470  0.751030  0.672900  1.0  0.1175
  H  H168  1  0.544950  0.558960  0.658350  1.0  0.0875
  H  H169  1  0.716540  0.658480  0.635210  1.0  0.0995
  H  H170  1  0.598870  0.511130  0.639830  1.0  0.1228
  H  H171  1  0.616270  0.545230  0.606230  1.0  0.116
  H  H172  1  0.667070  0.550630  0.629830  1.0  0.1202
  H  H173  1  0.666570  0.735930  0.725430  1.0  0.0899
  H  H174  1  0.708170  0.798830  0.708980  1.0  0.0828
  H  H175  1  0.649770  0.787130  0.727730  1.0  0.1073
  H  H176  1  0.533280  0.719490  0.683210  1.0  0.1511
  H  H177  1  0.330680  0.565270  0.726350  1.0  0.1157
  H  H178  1  0.249000  0.476830  0.745410  1.0  0.0949
  H  H179  1  0.259440  0.393350  0.752610  1.0  0.1059
  H  H180  1  0.350650  0.401040  0.742880  1.0  0.0702
  H  H181  1  0.379660  0.295500  0.934530  1.0  0.0628
  H  H182  1  0.464030  0.386870  0.943880  1.0  0.0988
  H  H183  1  0.548630  0.390370  0.964490  1.0  0.1017
  H  H184  1  0.545530  0.300970  0.977010  1.0  0.116
  H  H185  1  0.471130  0.084370  0.006240  1.0  0.1172
  H  H186  1  0.211610  0.892300  0.991690  1.0  0.0875
  H  H187  1  0.383200  0.991820  0.968550  1.0  0.0995
  H  H188  1  0.265530  0.844470  0.973170  1.0  0.1228
  H  H189  1  0.282930  0.878570  0.939570  1.0  0.116
  H  H190  1  0.333730  0.883970  0.963170  1.0  0.1203
  H  H191  1  0.333230  0.069270  0.058770  1.0  0.09
  H  H192  1  0.374830  0.132170  0.042320  1.0  0.0828
  H  H193  1  0.316430  0.120470  0.061070  1.0  0.1072
  H  H194  1  0.199940  0.052830  0.016550  1.0  0.1511
  H  H195  1  0.997340  0.898610  0.059690  1.0  0.1158
  H  H196  1  0.915660  0.810170  0.078750  1.0  0.095
  H  H197  1  0.926100  0.726690  0.085950  1.0  0.1059
  H  H198  1  0.017310  0.734380  0.076220  1.0  0.0702
  H  H199  1  0.417500  0.371170  0.232140  1.0  0.061
  H  H200  1  0.410500  0.279800  0.222790  1.0  0.0992
  H  H201  1  0.491600  0.276300  0.202180  1.0  0.0998
  H  H202  1  0.577900  0.365700  0.189660  1.0  0.1158
  H  H203  1  0.720100  0.582300  0.160430  1.0  0.1159
  H  H204  1  0.652650  0.774370  0.174980  1.0  0.0879
  H  H205  1  0.724720  0.674850  0.198120  1.0  0.0993
  H  H206  1  0.754400  0.822200  0.193500  1.0  0.1227
  H  H207  1  0.737700  0.788100  0.227100  1.0  0.1157
  H  H208  1  0.783100  0.782700  0.203500  1.0  0.12
  H  H209  1  0.597300  0.597400  0.107900  1.0  0.0896
  H  H210  1  0.576000  0.534500  0.124350  1.0  0.0818
  H  H211  1  0.529300  0.546200  0.105600  1.0  0.1088
  H  H212  1  0.480450  0.613840  0.150120  1.0  0.1508
  H  H213  1  0.432070  0.768060  0.106980  1.0  0.1147
  H  H214  1  0.438830  0.856500  0.087920  1.0  0.0949
  H  H215  1  0.532750  0.939980  0.080720  1.0  0.1061
  H  H216  1  0.616270  0.932290  0.090450  1.0  0.0703
  H  H217  1  0.084170  0.704500  0.565470  1.0  0.061
  H  H218  1  0.077170  0.613130  0.556120  1.0  0.0992
  H  H219  1  0.158270  0.609630  0.535510  1.0  0.0998
  H  H220  1  0.244570  0.699030  0.522990  1.0  0.1158
  H  H221  1  0.386770  0.915630  0.493760  1.0  0.115
  H  H222  1  0.319320  0.107700  0.508310  1.0  0.0879
  H  H223  1  0.391390  0.008180  0.531450  1.0  0.0993
  H  H224  1  0.421070  0.155530  0.526830  1.0  0.1226
  H  H225  1  0.404370  0.121430  0.560430  1.0  0.1157
  H  H226  1  0.449770  0.116030  0.536830  1.0  0.12
  H  H227  1  0.263970  0.930730  0.441230  1.0  0.0896
  H  H228  1  0.242670  0.867830  0.457680  1.0  0.0818
  H  H229  1  0.195970  0.879530  0.438930  1.0  0.1088
  H  H230  1  0.147120  0.947170  0.483450  1.0  0.1508
  H  H231  1  0.098740  0.101390  0.440310  1.0  0.1156
  H  H232  1  0.105500  0.189830  0.421250  1.0  0.0948
  H  H233  1  0.199420  0.273310  0.414050  1.0  0.106
  H  H234  1  0.282940  0.265620  0.423780  1.0  0.0702
  H  H235  1  0.750830  0.037840  0.898810  1.0  0.0603
  H  H236  1  0.743830  0.946470  0.889460  1.0  0.0992
  H  H237  1  0.824930  0.942970  0.868850  1.0  0.0997
  H  H238  1  0.911230  0.032370  0.856330  1.0  0.1161
  H  H239  1  0.053430  0.248970  0.827100  1.0  0.1155
  H  H240  1  0.985980  0.441040  0.841650  1.0  0.0879
  H  H241  1  0.058050  0.341520  0.864790  1.0  0.0993
  H  H242  1  0.087730  0.488870  0.860170  1.0  0.1227
  H  H243  1  0.071030  0.454770  0.893770  1.0  0.1157
  H  H244  1  0.116430  0.449370  0.870170  1.0  0.1203
  H  H245  1  0.930630  0.264070  0.774570  1.0  0.0896
  H  H246  1  0.909330  0.201170  0.791020  1.0  0.0818
  H  H247  1  0.862630  0.212870  0.772270  1.0  0.1088
  H  H248  1  0.813780  0.280510  0.816790  1.0  0.1508
  H  H249  1  0.765400  0.434730  0.773650  1.0  0.1147
  H  H250  1  0.772160  0.523170  0.754590  1.0  0.0949
  H  H251  1  0.866080  0.606650  0.747390  1.0  0.1061
  H  H252  1  0.949600  0.598960  0.757120  1.0  0.0703
  H  H253  1  0.953670  0.582500  0.232140  1.0  0.0605
  H  H254  1  0.869300  0.589500  0.222790  1.0  0.0985
  H  H255  1  0.784700  0.508400  0.202180  1.0  0.0989
  H  H256  1  0.787800  0.422100  0.189660  1.0  0.1156
  H  H257  1  0.862200  0.279900  0.160430  1.0  0.1198
  H  H258  1  0.121720  0.347350  0.174980  1.0  0.088
  H  H259  1  0.950130  0.275280  0.198120  1.0  0.0976
  H  H260  1  0.067800  0.245600  0.193500  1.0  0.1217
  H  H261  1  0.050400  0.262300  0.227100  1.0  0.1162
  H  H262  1  0.999600  0.216900  0.203500  1.0  0.1212
  H  H263  1  0.000100  0.402700  0.107900  1.0  0.0898
  H  H264  1  0.958500  0.424000  0.124350  1.0  0.0791
  H  H265  1  0.016900  0.470700  0.105600  1.0  0.1082
  H  H266  1  0.133390  0.519550  0.150120  1.0  0.1489
  H  H267  1  0.335990  0.567930  0.106980  1.0  0.1168
  H  H268  1  0.417670  0.561170  0.087920  1.0  0.0946
  H  H269  1  0.407230  0.467250  0.080720  1.0  0.1059
  H  H270  1  0.316020  0.383730  0.090450  1.0  0.07
  H  H271  1  0.620340  0.915830  0.565470  1.0  0.0605
  H  H272  1  0.535970  0.922830  0.556120  1.0  0.0985
  H  H273  1  0.451370  0.841730  0.535510  1.0  0.0989
  H  H274  1  0.454470  0.755430  0.522990  1.0  0.1156
  H  H275  1  0.528870  0.613230  0.493760  1.0  0.1201
  H  H276  1  0.788390  0.680680  0.508310  1.0  0.088
  H  H277  1  0.616800  0.608610  0.531450  1.0  0.0976
  H  H278  1  0.734470  0.578930  0.526830  1.0  0.1217
  H  H279  1  0.717070  0.595630  0.560430  1.0  0.1162
  H  H280  1  0.666270  0.550230  0.536830  1.0  0.1211
  H  H281  1  0.666770  0.736030  0.441230  1.0  0.0899
  H  H282  1  0.625170  0.757330  0.457680  1.0  0.0791
  H  H283  1  0.683570  0.804030  0.438930  1.0  0.1081
  H  H284  1  0.800060  0.852880  0.483450  1.0  0.1488
  H  H285  1  0.002660  0.901260  0.440310  1.0  0.1162
  H  H286  1  0.084340  0.894500  0.421250  1.0  0.0946
  H  H287  1  0.073900  0.800580  0.414050  1.0  0.1059
  H  H288  1  0.982690  0.717060  0.423780  1.0  0.0701
  H  H289  1  0.287000  0.249170  0.898810  1.0  0.0605
  H  H290  1  0.202630  0.256170  0.889460  1.0  0.0985
  H  H291  1  0.118030  0.175070  0.868850  1.0  0.099
  H  H292  1  0.121130  0.088770  0.856330  1.0  0.1151
  H  H293  1  0.195530  0.946570  0.827100  1.0  0.1201
  H  H294  1  0.455050  0.014020  0.841650  1.0  0.088
  H  H295  1  0.283460  0.941950  0.864790  1.0  0.0976
  H  H296  1  0.401130  0.912270  0.860170  1.0  0.1217
  H  H297  1  0.383730  0.928970  0.893770  1.0  0.1162
  H  H298  1  0.332930  0.883570  0.870170  1.0  0.121
  H  H299  1  0.333430  0.069370  0.774570  1.0  0.0898
  H  H300  1  0.291830  0.090670  0.791020  1.0  0.0791
  H  H301  1  0.350230  0.137370  0.772270  1.0  0.1082
  H  H302  1  0.466720  0.186220  0.816790  1.0  0.1489
  H  H303  1  0.669320  0.234600  0.773650  1.0  0.1168
  H  H304  1  0.751000  0.227840  0.754590  1.0  0.0946
  H  H305  1  0.740560  0.133920  0.747390  1.0  0.1059
  H  H306  1  0.649350  0.050400  0.757120  1.0  0.0701
  H  H307  1  0.628830  0.046330  0.232140  1.0  0.0626
  H  H308  1  0.720200  0.130700  0.222790  1.0  0.0992
  H  H309  1  0.723700  0.215300  0.202180  1.0  0.1019
  H  H310  1  0.634300  0.212200  0.189660  1.0  0.1172
  H  H311  1  0.417700  0.137800  0.160430  1.0  0.1148
  H  H312  1  0.225630  0.878280  0.174980  1.0  0.088
  H  H313  1  0.325150  0.049870  0.198120  1.0  0.098
  H  H314  1  0.177800  0.932200  0.193500  1.0  0.1233
  H  H315  1  0.211900  0.949600  0.227100  1.0  0.1172
  H  H316  1  0.217300  0.000400  0.203500  1.0  0.1218
  H  H317  1  0.402600  0.999900  0.107900  1.0  0.0866
  H  H318  1  0.465500  0.041500  0.124350  1.0  0.0828
  H  H319  1  0.453800  0.983100  0.105600  1.0  0.1072
  H  H320  1  0.386160  0.866610  0.150120  1.0  0.1492
  H  H321  1  0.231940  0.664010  0.106980  1.0  0.1156
  H  H322  1  0.143500  0.582330  0.087920  1.0  0.0949
  H  H323  1  0.060020  0.592770  0.080720  1.0  0.1051
  H  H324  1  0.067710  0.683980  0.090450  1.0  0.0692
  H  H325  1  0.295500  0.379660  0.565470  1.0  0.0625
  H  H326  1  0.386870  0.464030  0.556120  1.0  0.0992
  H  H327  1  0.390370  0.548630  0.535510  1.0  0.1019
  H  H328  1  0.300970  0.545530  0.522990  1.0  0.1172
  H  H329  1  0.084370  0.471130  0.493760  1.0  0.1148
  H  H330  1  0.892300  0.211610  0.508310  1.0  0.088
  H  H331  1  0.991820  0.383200  0.531450  1.0  0.0981
  H  H332  1  0.844470  0.265530  0.526830  1.0  0.1233
  H  H333  1  0.878570  0.282930  0.560430  1.0  0.1172
  H  H334  1  0.883970  0.333730  0.536830  1.0  0.1218
  H  H335  1  0.069270  0.333230  0.441230  1.0  0.0866
  H  H336  1  0.132170  0.374830  0.457680  1.0  0.0829
  H  H337  1  0.120470  0.316430  0.438930  1.0  0.1071
  H  H338  1  0.052830  0.199940  0.483450  1.0  0.1492
  H  H339  1  0.898610  0.997340  0.440310  1.0  0.1156
  H  H340  1  0.810170  0.915660  0.421250  1.0  0.0951
  H  H341  1  0.726690  0.926100  0.414050  1.0  0.1051
  H  H342  1  0.734380  0.017310  0.423780  1.0  0.0692
  H  H343  1  0.962160  0.713000  0.898810  1.0  0.0626
  H  H344  1  0.053530  0.797370  0.889460  1.0  0.0992
  H  H345  1  0.057030  0.881970  0.868850  1.0  0.1019
  H  H346  1  0.967630  0.878870  0.856330  1.0  0.1165
  H  H347  1  0.751030  0.804470  0.827100  1.0  0.1151
  H  H348  1  0.558960  0.544950  0.841650  1.0  0.088
  H  H349  1  0.658480  0.716540  0.864790  1.0  0.098
  H  H350  1  0.511130  0.598870  0.860170  1.0  0.1233
  H  H351  1  0.545230  0.616270  0.893770  1.0  0.1172
  H  H352  1  0.550630  0.667070  0.870170  1.0  0.1217
  H  H353  1  0.735930  0.666570  0.774570  1.0  0.0866
  H  H354  1  0.798830  0.708170  0.791020  1.0  0.0829
  H  H355  1  0.787130  0.649770  0.772270  1.0  0.1072
  H  H356  1  0.719490  0.533280  0.816790  1.0  0.1492
  H  H357  1  0.565270  0.330680  0.773650  1.0  0.1156
  H  H358  1  0.476830  0.249000  0.754590  1.0  0.0949
  H  H359  1  0.393350  0.259440  0.747390  1.0  0.1051
  H  H360  1  0.401040  0.350650  0.757120  1.0  0.0692
  H  H361  1  0.628830  0.582500  0.732140  1.0  0.0624
  H  H362  1  0.720200  0.589500  0.722790  1.0  0.0985
  H  H363  1  0.723700  0.508400  0.702180  1.0  0.1017
  H  H364  1  0.634300  0.422100  0.689660  1.0  0.1163
  H  H365  1  0.417700  0.279900  0.660430  1.0  0.1184
  H  H366  1  0.225630  0.347350  0.674980  1.0  0.0885
  H  H367  1  0.325150  0.275280  0.698120  1.0  0.0977
  H  H368  1  0.177800  0.245600  0.693500  1.0  0.121
  H  H369  1  0.211900  0.262300  0.727100  1.0  0.116
  H  H370  1  0.217300  0.216900  0.703500  1.0  0.1192
  H  H371  1  0.402600  0.402700  0.607900  1.0  0.0905
  H  H372  1  0.465500  0.424000  0.624350  1.0  0.0834
  H  H373  1  0.453800  0.470700  0.605600  1.0  0.1084
  H  H374  1  0.386160  0.519550  0.650120  1.0  0.1479
  H  H375  1  0.231940  0.567930  0.606980  1.0  0.1158
  H  H376  1  0.143500  0.561170  0.587920  1.0  0.0948
  H  H377  1  0.060020  0.467250  0.580720  1.0  0.1071
  H  H378  1  0.067710  0.383730  0.590450  1.0  0.0693
  H  H379  1  0.295500  0.915830  0.065470  1.0  0.0624
  H  H380  1  0.386870  0.922830  0.056120  1.0  0.0985
  H  H381  1  0.390370  0.841730  0.035510  1.0  0.1017
  H  H382  1  0.300970  0.755430  0.022990  1.0  0.1163
  H  H383  1  0.084370  0.613230  0.993760  1.0  0.1184
  H  H384  1  0.892300  0.680680  0.008310  1.0  0.0879
  H  H385  1  0.991820  0.608610  0.031450  1.0  0.0977
  H  H386  1  0.844470  0.578930  0.026830  1.0  0.121
  H  H387  1  0.878570  0.595630  0.060430  1.0  0.116
  H  H388  1  0.883970  0.550230  0.036830  1.0  0.1192
  H  H389  1  0.069270  0.736030  0.941230  1.0  0.0905
  H  H390  1  0.132170  0.757330  0.957680  1.0  0.0834
  H  H391  1  0.120470  0.804030  0.938930  1.0  0.1083
  H  H392  1  0.052830  0.852880  0.983450  1.0  0.1479
  H  H393  1  0.898610  0.901260  0.940310  1.0  0.1167
  H  H394  1  0.810170  0.894500  0.921250  1.0  0.0947
  H  H395  1  0.726690  0.800580  0.914050  1.0  0.107
  H  H396  1  0.734380  0.717060  0.923780  1.0  0.0694
  H  H397  1  0.962160  0.249170  0.398810  1.0  0.0623
  H  H398  1  0.053530  0.256170  0.389460  1.0  0.0985
  H  H399  1  0.057030  0.175070  0.368850  1.0  0.1016
  H  H400  1  0.967630  0.088770  0.356330  1.0  0.1164
  H  H401  1  0.751030  0.946570  0.327100  1.0  0.12
  H  H402  1  0.558960  0.014020  0.341650  1.0  0.0884
  H  H403  1  0.658480  0.941950  0.364790  1.0  0.0977
  H  H404  1  0.511130  0.912270  0.360170  1.0  0.121
  H  H405  1  0.545230  0.928970  0.393770  1.0  0.116
  H  H406  1  0.550630  0.883570  0.370170  1.0  0.1193
  H  H407  1  0.735930  0.069370  0.274570  1.0  0.0905
  H  H408  1  0.798830  0.090670  0.291020  1.0  0.0834
  H  H409  1  0.787130  0.137370  0.272270  1.0  0.1084
  H  H410  1  0.719490  0.186220  0.316790  1.0  0.1479
  H  H411  1  0.565270  0.234600  0.273650  1.0  0.1158
  H  H412  1  0.476830  0.227840  0.254590  1.0  0.0948
  H  H413  1  0.393350  0.133920  0.247390  1.0  0.1071
  H  H414  1  0.401040  0.050400  0.257120  1.0  0.0694
  H  H415  1  0.417500  0.046330  0.732140  1.0  0.063
  H  H416  1  0.410500  0.130700  0.722790  1.0  0.1
  H  H417  1  0.491600  0.215300  0.702180  1.0  0.1005
  H  H418  1  0.577900  0.212200  0.689660  1.0  0.1168
  H  H419  1  0.720100  0.137800  0.660430  1.0  0.116
  H  H420  1  0.652650  0.878280  0.674980  1.0  0.0878
  H  H421  1  0.724720  0.049870  0.698120  1.0  0.0979
  H  H422  1  0.754400  0.932200  0.693500  1.0  0.123
  H  H423  1  0.737700  0.949600  0.727100  1.0  0.1162
  H  H424  1  0.783100  0.000400  0.703500  1.0  0.1207
  H  H425  1  0.597300  0.999900  0.607900  1.0  0.0881
  H  H426  1  0.576000  0.041500  0.624350  1.0  0.082
  H  H427  1  0.529300  0.983100  0.605600  1.0  0.1064
  H  H428  1  0.480450  0.866610  0.650120  1.0  0.1494
  H  H429  1  0.432070  0.664010  0.606980  1.0  0.1143
  H  H430  1  0.438830  0.582330  0.587920  1.0  0.0949
  H  H431  1  0.532750  0.592770  0.580720  1.0  0.1052
  H  H432  1  0.616270  0.683980  0.590450  1.0  0.0705
  H  H433  1  0.084170  0.379660  0.065470  1.0  0.063
  H  H434  1  0.077170  0.464030  0.056120  1.0  0.1
  H  H435  1  0.158270  0.548630  0.035510  1.0  0.1005
  H  H436  1  0.244570  0.545530  0.022990  1.0  0.1168
  H  H437  1  0.386770  0.471130  0.993760  1.0  0.1163
  H  H438  1  0.319320  0.211610  0.008310  1.0  0.0878
  H  H439  1  0.391390  0.383200  0.031450  1.0  0.0979
  H  H440  1  0.421070  0.265530  0.026830  1.0  0.123
  H  H441  1  0.404370  0.282930  0.060430  1.0  0.1162
  H  H442  1  0.449770  0.333730  0.036830  1.0  0.1207
  H  H443  1  0.263970  0.333230  0.941230  1.0  0.0882
  H  H444  1  0.242670  0.374830  0.957680  1.0  0.082
  H  H445  1  0.195970  0.316430  0.938930  1.0  0.1064
  H  H446  1  0.147120  0.199940  0.983450  1.0  0.1494
  H  H447  1  0.098740  0.997340  0.940310  1.0  0.1145
  H  H448  1  0.105500  0.915660  0.921250  1.0  0.0949
  H  H449  1  0.199420  0.926100  0.914050  1.0  0.1052
  H  H450  1  0.282940  0.017310  0.923780  1.0  0.0705
  H  H451  1  0.750830  0.713000  0.398810  1.0  0.063
  H  H452  1  0.743830  0.797370  0.389460  1.0  0.1
  H  H453  1  0.824930  0.881970  0.368850  1.0  0.1007
  H  H454  1  0.911230  0.878870  0.356330  1.0  0.1159
  H  H455  1  0.053430  0.804470  0.327100  1.0  0.1162
  H  H456  1  0.985980  0.544950  0.341650  1.0  0.0878
  H  H457  1  0.058050  0.716540  0.364790  1.0  0.0979
  H  H458  1  0.087730  0.598870  0.360170  1.0  0.123
  H  H459  1  0.071030  0.616270  0.393770  1.0  0.1162
  H  H460  1  0.116430  0.667070  0.370170  1.0  0.1206
  H  H461  1  0.930630  0.666570  0.274570  1.0  0.0881
  H  H462  1  0.909330  0.708170  0.291020  1.0  0.082
  H  H463  1  0.862630  0.649770  0.272270  1.0  0.1064
  H  H464  1  0.813780  0.533280  0.316790  1.0  0.1494
  H  H465  1  0.765400  0.330680  0.273650  1.0  0.1143
  H  H466  1  0.772160  0.249000  0.254590  1.0  0.0949
  H  H467  1  0.866080  0.259440  0.247390  1.0  0.1052
  H  H468  1  0.949600  0.350650  0.257120  1.0  0.0705
  H  H469  1  0.953670  0.371170  0.732140  1.0  0.0611
  H  H470  1  0.869300  0.279800  0.722790  1.0  0.0994
  H  H471  1  0.784700  0.276300  0.702180  1.0  0.0999
  H  H472  1  0.787800  0.365700  0.689660  1.0  0.1153
  H  H473  1  0.862200  0.582300  0.660430  1.0  0.1166
  H  H474  1  0.121720  0.774370  0.674980  1.0  0.0875
  H  H475  1  0.950130  0.674850  0.698120  1.0  0.099
  H  H476  1  0.067800  0.822200  0.693500  1.0  0.1226
  H  H477  1  0.050400  0.788100  0.727100  1.0  0.1163
  H  H478  1  0.999600  0.782700  0.703500  1.0  0.1208
  H  H479  1  0.000100  0.597400  0.607900  1.0  0.0895
  H  H480  1  0.958500  0.534500  0.624350  1.0  0.0805
  H  H481  1  0.016900  0.546200  0.605600  1.0  0.1075
  H  H482  1  0.133390  0.613840  0.650120  1.0  0.1506
  H  H483  1  0.335990  0.768060  0.606980  1.0  0.1158
  H  H484  1  0.417670  0.856500  0.587920  1.0  0.095
  H  H485  1  0.407230  0.939980  0.580720  1.0  0.1057
  H  H486  1  0.316020  0.932290  0.590450  1.0  0.0699
  H  H487  1  0.620340  0.704500  0.065470  1.0  0.061
  H  H488  1  0.535970  0.613130  0.056120  1.0  0.0994
  H  H489  1  0.451370  0.609630  0.035510  1.0  0.0999
  H  H490  1  0.454470  0.699030  0.022990  1.0  0.1153
  H  H491  1  0.528870  0.915630  0.993760  1.0  0.1156
  H  H492  1  0.788390  0.107700  0.008310  1.0  0.0875
  H  H493  1  0.616800  0.008180  0.031450  1.0  0.099
  H  H494  1  0.734470  0.155530  0.026830  1.0  0.1226
  H  H495  1  0.717070  0.121430  0.060430  1.0  0.1163
  H  H496  1  0.666270  0.116030  0.036830  1.0  0.1221
  H  H497  1  0.666770  0.930730  0.941230  1.0  0.0896
  H  H498  1  0.625170  0.867830  0.957680  1.0  0.0805
  H  H499  1  0.683570  0.879530  0.938930  1.0  0.1074
  H  H500  1  0.800060  0.947170  0.983450  1.0  0.1506
  H  H501  1  0.002660  0.101390  0.940310  1.0  0.1157
  H  H502  1  0.084340  0.189830  0.921250  1.0  0.0951
  H  H503  1  0.073900  0.273310  0.914050  1.0  0.1057
  H  H504  1  0.982690  0.265620  0.923780  1.0  0.0699
  H  H505  1  0.287000  0.037840  0.398810  1.0  0.061
  H  H506  1  0.202630  0.946470  0.389460  1.0  0.0994
  H  H507  1  0.118030  0.942970  0.368850  1.0  0.0999
  H  H508  1  0.121130  0.032370  0.356330  1.0  0.115
  H  H509  1  0.195530  0.248970  0.327100  1.0  0.1169
  H  H510  1  0.455050  0.441040  0.341650  1.0  0.0875
  H  H511  1  0.283460  0.341520  0.364790  1.0  0.099
  H  H512  1  0.401130  0.488870  0.360170  1.0  0.1226
  H  H513  1  0.383730  0.454770  0.393770  1.0  0.1163
  H  H514  1  0.332930  0.449370  0.370170  1.0  0.122
  H  H515  1  0.333430  0.264070  0.274570  1.0  0.0895
  H  H516  1  0.291830  0.201170  0.291020  1.0  0.0805
  H  H517  1  0.350230  0.212870  0.272270  1.0  0.1075
  H  H518  1  0.466720  0.280510  0.316790  1.0  0.1506
  H  H519  1  0.669320  0.434730  0.273650  1.0  0.1158
  H  H520  1  0.751000  0.523170  0.254590  1.0  0.095
  H  H521  1  0.740560  0.606650  0.247390  1.0  0.1057
  H  H522  1  0.649350  0.598960  0.257120  1.0  0.0699
  H  H523  1  0.582500  0.628830  0.767860  1.0  0.0629
  H  H524  1  0.589500  0.720200  0.777210  1.0  0.099
  H  H525  1  0.508400  0.723700  0.797820  1.0  0.102
  H  H526  1  0.422100  0.634300  0.810340  1.0  0.1145
  H  H527  1  0.279900  0.417700  0.839570  1.0  0.118
  H  H528  1  0.347350  0.225630  0.825020  1.0  0.0874
  H  H529  1  0.275280  0.325150  0.801880  1.0  0.0989
  H  H530  1  0.245600  0.177800  0.806500  1.0  0.1229
  H  H531  1  0.262300  0.211900  0.772900  1.0  0.1158
  H  H532  1  0.216900  0.217300  0.796500  1.0  0.1217
  H  H533  1  0.402700  0.402600  0.892100  1.0  0.09
  H  H534  1  0.424000  0.465500  0.875650  1.0  0.083
  H  H535  1  0.470700  0.453800  0.894400  1.0  0.107
  H  H536  1  0.519550  0.386160  0.849880  1.0  0.1507
  H  H537  1  0.567930  0.231940  0.893020  1.0  0.115
  H  H538  1  0.561170  0.143500  0.912080  1.0  0.0951
  H  H539  1  0.467250  0.060020  0.919280  1.0  0.1048
  H  H540  1  0.383730  0.067710  0.909550  1.0  0.0687
  H  H541  1  0.249170  0.962160  0.101190  1.0  0.063
  H  H542  1  0.256170  0.053530  0.110540  1.0  0.099
  H  H543  1  0.175070  0.057030  0.131150  1.0  0.1019
  H  H544  1  0.088770  0.967630  0.143670  1.0  0.1154
  H  H545  1  0.946570  0.751030  0.172900  1.0  0.1184
  H  H546  1  0.014020  0.558960  0.158350  1.0  0.0874
  H  H547  1  0.941950  0.658480  0.135210  1.0  0.0989
  H  H548  1  0.912270  0.511130  0.139830  1.0  0.1229
  H  H549  1  0.928970  0.545230  0.106230  1.0  0.1158
  H  H550  1  0.883570  0.550630  0.129830  1.0  0.121
  H  H551  1  0.069370  0.735930  0.225430  1.0  0.0899
  H  H552  1  0.090670  0.798830  0.208980  1.0  0.083
  H  H553  1  0.137370  0.787130  0.227730  1.0  0.107
  H  H554  1  0.186220  0.719490  0.183210  1.0  0.1507
  H  H555  1  0.234600  0.565270  0.226350  1.0  0.115
  H  H556  1  0.227840  0.476830  0.245410  1.0  0.0951
  H  H557  1  0.133920  0.393350  0.252610  1.0  0.1048
  H  H558  1  0.050400  0.401040  0.242880  1.0  0.0687
  H  H559  1  0.915830  0.295500  0.434530  1.0  0.0629
  H  H560  1  0.922830  0.386870  0.443880  1.0  0.099
  H  H561  1  0.841730  0.390370  0.464490  1.0  0.102
  H  H562  1  0.755430  0.300970  0.477010  1.0  0.1145
  H  H563  1  0.613230  0.084370  0.506240  1.0  0.118
  H  H564  1  0.680680  0.892300  0.491690  1.0  0.0874
  H  H565  1  0.608610  0.991820  0.468550  1.0  0.099
  H  H566  1  0.578930  0.844470  0.473170  1.0  0.1229
  H  H567  1  0.595630  0.878570  0.439570  1.0  0.1158
  H  H568  1  0.550230  0.883970  0.463170  1.0  0.1216
  H  H569  1  0.736030  0.069270  0.558770  1.0  0.0899
  H  H570  1  0.757330  0.132170  0.542320  1.0  0.083
  H  H571  1  0.804030  0.120470  0.561070  1.0  0.107
  H  H572  1  0.852880  0.052830  0.516550  1.0  0.1507
  H  H573  1  0.901260  0.898610  0.559690  1.0  0.1158
  H  H574  1  0.894500  0.810170  0.578750  1.0  0.095
  H  H575  1  0.800580  0.726690  0.585950  1.0  0.1048
  H  H576  1  0.717060  0.734380  0.576220  1.0  0.0687
  H  H577  1  0.046330  0.417500  0.767860  1.0  0.0626
  H  H578  1  0.130700  0.410500  0.777210  1.0  0.0986
  H  H579  1  0.215300  0.491600  0.797820  1.0  0.0998
  H  H580  1  0.212200  0.577900  0.810340  1.0  0.1162
  H  H581  1  0.137800  0.720100  0.839570  1.0  0.1224
  H  H582  1  0.878280  0.652650  0.825020  1.0  0.0875
  H  H583  1  0.049870  0.724720  0.801880  1.0  0.0982
  H  H584  1  0.932200  0.754400  0.806500  1.0  0.1201
  H  H585  1  0.949600  0.737700  0.772900  1.0  0.1152
  H  H586  1  0.000400  0.783100  0.796500  1.0  0.121
  H  H587  1  0.999900  0.597300  0.892100  1.0  0.0906
  H  H588  1  0.041500  0.576000  0.875650  1.0  0.0818
  H  H589  1  0.983100  0.529300  0.894400  1.0  0.1072
  H  H590  1  0.866610  0.480450  0.849880  1.0  0.1484
  H  H591  1  0.664010  0.432070  0.893020  1.0  0.1165
  H  H592  1  0.582330  0.438830  0.912080  1.0  0.0947
  H  H593  1  0.592770  0.532750  0.919280  1.0  0.1068
  H  H594  1  0.683980  0.616270  0.909550  1.0  0.0706
  H  H595  1  0.713000  0.750830  0.101190  1.0  0.0625
  H  H596  1  0.797370  0.743830  0.110540  1.0  0.0986
  H  H597  1  0.881970  0.824930  0.131150  1.0  0.0999
  H  H598  1  0.878870  0.911230  0.143670  1.0  0.1155
  H  H599  1  0.804470  0.053430  0.172900  1.0  0.1219
  H  H600  1  0.544950  0.985980  0.158350  1.0  0.0875
  H  H601  1  0.716540  0.058050  0.135210  1.0  0.0982
  H  H602  1  0.598870  0.087730  0.139830  1.0  0.1201
  H  H603  1  0.616270  0.071030  0.106230  1.0  0.1152
  H  H604  1  0.667070  0.116430  0.129830  1.0  0.1209
  H  H605  1  0.666570  0.930630  0.225430  1.0  0.0906
  H  H606  1  0.708170  0.909330  0.208980  1.0  0.0818
  H  H607  1  0.649770  0.862630  0.227730  1.0  0.1072
  H  H608  1  0.533280  0.813780  0.183210  1.0  0.1484
  H  H609  1  0.330680  0.765400  0.226350  1.0  0.1165
  H  H610  1  0.249000  0.772160  0.245410  1.0  0.0947
  H  H611  1  0.259440  0.866080  0.252610  1.0  0.1068
  H  H612  1  0.350650  0.949600  0.242880  1.0  0.0695
  H  H613  1  0.379660  0.084170  0.434530  1.0  0.0625
  H  H614  1  0.464030  0.077170  0.443880  1.0  0.0986
  H  H615  1  0.548630  0.158270  0.464490  1.0  0.0998
  H  H616  1  0.545530  0.244570  0.477010  1.0  0.1162
  H  H617  1  0.471130  0.386770  0.506240  1.0  0.1227
  H  H618  1  0.211610  0.319320  0.491690  1.0  0.0875
  H  H619  1  0.383200  0.391390  0.468550  1.0  0.0982
  H  H620  1  0.265530  0.421070  0.473170  1.0  0.1201
  H  H621  1  0.282930  0.404370  0.439570  1.0  0.1152
  H  H622  1  0.333730  0.449770  0.463170  1.0  0.121
  H  H623  1  0.333230  0.263970  0.558770  1.0  0.0906
  H  H624  1  0.374830  0.242670  0.542320  1.0  0.0818
  H  H625  1  0.316430  0.195970  0.561070  1.0  0.107
  H  H626  1  0.199940  0.147120  0.516550  1.0  0.1484
  H  H627  1  0.997340  0.098740  0.559690  1.0  0.1162
  H  H628  1  0.915660  0.105500  0.578750  1.0  0.0947
  H  H629  1  0.926100  0.199420  0.585950  1.0  0.1068
  H  H630  1  0.017310  0.282940  0.576220  1.0  0.0706
  H  H631  1  0.371170  0.953670  0.767860  1.0  0.0633
  H  H632  1  0.279800  0.869300  0.777210  1.0  0.1001
  H  H633  1  0.276300  0.784700  0.797820  1.0  0.0985
  H  H634  1  0.365700  0.787800  0.810340  1.0  0.1167
  H  H635  1  0.582300  0.862200  0.839570  1.0  0.117
  H  H636  1  0.774370  0.121720  0.825020  1.0  0.088
  H  H637  1  0.674850  0.950130  0.801880  1.0  0.0981
  H  H638  1  0.822200  0.067800  0.806500  1.0  0.1224
  H  H639  1  0.788100  0.050400  0.772900  1.0  0.1162
  H  H640  1  0.782700  0.999600  0.796500  1.0  0.1233
  H  H641  1  0.597400  0.000100  0.892100  1.0  0.0874
  H  H642  1  0.534500  0.958500  0.875650  1.0  0.0821
  H  H643  1  0.546200  0.016900  0.894400  1.0  0.1053
  H  H644  1  0.613840  0.133390  0.849880  1.0  0.1498
  H  H645  1  0.768060  0.335990  0.893020  1.0  0.1151
  H  H646  1  0.856500  0.417670  0.912080  1.0  0.0949
  H  H647  1  0.939980  0.407230  0.919280  1.0  0.105
  H  H648  1  0.932290  0.316020  0.909550  1.0  0.0706
  H  H649  1  0.037840  0.287000  0.101190  1.0  0.0632
  H  H650  1  0.946470  0.202630  0.110540  1.0  0.1001
  H  H651  1  0.942970  0.118030  0.131150  1.0  0.0985
  H  H652  1  0.032370  0.121130  0.143670  1.0  0.1162
  H  H653  1  0.248970  0.195530  0.172900  1.0  0.1173
  H  H654  1  0.441040  0.455050  0.158350  1.0  0.088
  H  H655  1  0.341520  0.283460  0.135210  1.0  0.0981
  H  H656  1  0.488870  0.401130  0.139830  1.0  0.1224
  H  H657  1  0.454770  0.383730  0.106230  1.0  0.1162
  H  H658  1  0.449370  0.332930  0.129830  1.0  0.1232
  H  H659  1  0.264070  0.333430  0.225430  1.0  0.0874
  H  H660  1  0.201170  0.291830  0.208980  1.0  0.0821
  H  H661  1  0.212870  0.350230  0.227730  1.0  0.1053
  H  H662  1  0.280510  0.466720  0.183210  1.0  0.1498
  H  H663  1  0.434730  0.669320  0.226350  1.0  0.1151
  H  H664  1  0.523170  0.751000  0.245410  1.0  0.0949
  H  H665  1  0.606650  0.740560  0.252610  1.0  0.105
  H  H666  1  0.598960  0.649350  0.242880  1.0  0.0706
  H  H667  1  0.704500  0.620340  0.434530  1.0  0.0633
  H  H668  1  0.613130  0.535970  0.443880  1.0  0.1001
  H  H669  1  0.609630  0.451370  0.464490  1.0  0.0985
  H  H670  1  0.699030  0.454470  0.477010  1.0  0.1167
  H  H671  1  0.915630  0.528870  0.506240  1.0  0.117
  H  H672  1  0.107700  0.788390  0.491690  1.0  0.088
  H  H673  1  0.008180  0.616800  0.468550  1.0  0.0981
  H  H674  1  0.155530  0.734470  0.473170  1.0  0.1224
  H  H675  1  0.121430  0.717070  0.439570  1.0  0.1162
  H  H676  1  0.116030  0.666270  0.463170  1.0  0.1233
  H  H677  1  0.930730  0.666770  0.558770  1.0  0.0875
  H  H678  1  0.867830  0.625170  0.542320  1.0  0.0821
  H  H679  1  0.879530  0.683570  0.561070  1.0  0.1052
  H  H680  1  0.947170  0.800060  0.516550  1.0  0.1498
  H  H681  1  0.101390  0.002660  0.559690  1.0  0.1149
  H  H682  1  0.189830  0.084340  0.578750  1.0  0.095
  H  H683  1  0.273310  0.073900  0.585950  1.0  0.1049
  H  H684  1  0.265620  0.982690  0.576220  1.0  0.0706
  C  C685  1  0.370210  0.450300  0.277160  1.0  0.157
  C  C686  1  0.315400  0.446100  0.282260  1.0  -0.1304
  C  C687  1  0.313200  0.493300  0.294540  1.0  -0.1431
  C  C688  1  0.365900  0.543900  0.302150  1.0  -0.1239
  C  C689  1  0.418550  0.544500  0.297710  1.0  0.1477
  C  C690  1  0.474970  0.593990  0.308640  1.0  0.0807
  C  C691  1  0.555400  0.682700  0.330410  1.0  -0.0957
  C  C692  1  0.570350  0.641250  0.321570  1.0  0.1371
  C  C693  1  0.628640  0.645730  0.324310  1.0  -0.0461
  C  C694  1  0.633860  0.600790  0.339030  1.0  0.1581
  C  C695  1  0.688280  0.602780  0.339480  1.0  -0.0641
  C  C696  1  0.737230  0.651270  0.325050  1.0  -0.1543
  C  C697  1  0.733130  0.696690  0.310990  1.0  0.067
  C  C698  1  0.678370  0.693300  0.311140  1.0  -0.1506
  C  C699  1  0.786100  0.747400  0.295350  1.0  -0.4144
  C  C700  1  0.564200  0.564700  0.380790  1.0  -0.051
  C  C701  1  0.695280  0.554890  0.354390  1.0  0.1185
  C  C702  1  0.653750  0.496770  0.356770  1.0  -0.1041
  C  C703  1  0.749310  0.520500  0.376720  1.0  0.1631
  C  C704  1  0.802340  0.521810  0.389850  1.0  0.1371
  C  C705  1  0.802590  0.469560  0.396270  1.0  -0.1136
  C  C706  1  0.854600  0.473640  0.407550  1.0  -0.1199
  C  C707  1  0.903570  0.528790  0.412070  1.0  -0.1525
  C  C708  1  0.898680  0.578270  0.405920  1.0  0.1727
  C  C709  1  0.036880  0.783630  0.610490  1.0  0.157
  C  C710  1  0.982070  0.779430  0.615590  1.0  -0.1304
  C  C711  1  0.979870  0.826630  0.627870  1.0  -0.1427
  C  C712  1  0.032570  0.877230  0.635480  1.0  -0.1238
  C  C713  1  0.085220  0.877830  0.631040  1.0  0.1475
  C  C714  1  0.141640  0.927320  0.641970  1.0  0.0807
  C  C715  1  0.222070  0.016030  0.663740  1.0  -0.0957
  C  C716  1  0.237020  0.974580  0.654900  1.0  0.1371
  C  C717  1  0.295310  0.979060  0.657640  1.0  -0.0461
  C  C718  1  0.300530  0.934120  0.672360  1.0  0.1581
  C  C719  1  0.354950  0.936110  0.672810  1.0  -0.0641
  C  C720  1  0.403900  0.984600  0.658380  1.0  -0.1543
  C  C721  1  0.399800  0.030020  0.644320  1.0  0.067
  C  C722  1  0.345040  0.026630  0.644470  1.0  -0.1506
  C  C723  1  0.452770  0.080730  0.628680  1.0  -0.4136
  C  C724  1  0.230870  0.898030  0.714120  1.0  -0.051
  C  C725  1  0.361950  0.888220  0.687720  1.0  0.1185
  C  C726  1  0.320420  0.830100  0.690100  1.0  -0.1041
  C  C727  1  0.415980  0.853830  0.710050  1.0  0.1631
  C  C728  1  0.469010  0.855140  0.723180  1.0  0.1371
  C  C729  1  0.469260  0.802890  0.729600  1.0  -0.1136
  C  C730  1  0.521270  0.806970  0.740880  1.0  -0.1199
  C  C731  1  0.570240  0.862120  0.745400  1.0  -0.1525
  C  C732  1  0.565350  0.911600  0.739250  1.0  0.1727
  C  C733  1  0.703540  0.116970  0.943830  1.0  0.157
  C  C734  1  0.648730  0.112770  0.948930  1.0  -0.1304
  C  C735  1  0.646530  0.159970  0.961210  1.0  -0.1427
  C  C736  1  0.699230  0.210570  0.968820  1.0  -0.1239
  C  C737  1  0.751880  0.211170  0.964380  1.0  0.1477
  C  C738  1  0.808300  0.260660  0.975310  1.0  0.0807
  C  C739  1  0.888730  0.349370  0.997080  1.0  -0.0957
  C  C740  1  0.903680  0.307920  0.988240  1.0  0.1371
  C  C741  1  0.961970  0.312400  0.990980  1.0  -0.0461
  C  C742  1  0.967190  0.267460  0.005700  1.0  0.1581
  C  C743  1  0.021610  0.269450  0.006150  1.0  -0.0639
  C  C744  1  0.070560  0.317940  0.991720  1.0  -0.1543
  C  C745  1  0.066460  0.363360  0.977660  1.0  0.067
  C  C746  1  0.011700  0.359970  0.977810  1.0  -0.1508
  C  C747  1  0.119430  0.414070  0.962020  1.0  -0.4144
  C  C748  1  0.897530  0.231370  0.047460  1.0  -0.0502
  C  C749  1  0.028610  0.221560  0.021060  1.0  0.1156
  C  C750  1  0.987080  0.163440  0.023440  1.0  -0.1041
  C  C751  1  0.082640  0.187170  0.043390  1.0  0.1631
  C  C752  1  0.135670  0.188480  0.056520  1.0  0.1373
  C  C753  1  0.135920  0.136230  0.062940  1.0  -0.1136
  C  C754  1  0.187930  0.140310  0.074220  1.0  -0.1199
  C  C755  1  0.236900  0.195460  0.078740  1.0  -0.1525
  C  C756  1  0.232010  0.244940  0.072590  1.0  0.1727
  C  C757  1  0.549700  0.919910  0.277160  1.0  0.1566
  C  C758  1  0.553900  0.869300  0.282260  1.0  -0.1302
  C  C759  1  0.506700  0.819900  0.294540  1.0  -0.1391
  C  C760  1  0.456100  0.822000  0.302150  1.0  -0.1257
  C  C761  1  0.455500  0.874050  0.297710  1.0  0.1456
  C  C762  1  0.406010  0.880980  0.308640  1.0  0.081
  C  C763  1  0.317300  0.872700  0.330410  1.0  -0.0939
  C  C764  1  0.358750  0.929100  0.321570  1.0  0.1367
  C  C765  1  0.354270  0.982910  0.324310  1.0  -0.0462
  C  C766  1  0.399210  0.033070  0.339030  1.0  0.1589
  C  C767  1  0.397220  0.085500  0.339480  1.0  -0.0642
  C  C768  1  0.348730  0.085960  0.325050  1.0  -0.1536
  C  C769  1  0.303310  0.036440  0.310990  1.0  0.0658
  C  C770  1  0.306700  0.985070  0.311140  1.0  -0.1496
  C  C771  1  0.252600  0.038700  0.295350  1.0  -0.4147
  C  C772  1  0.435300  0.999500  0.380790  1.0  -0.0502
  C  C773  1  0.445110  0.140390  0.354390  1.0  0.1141
  C  C774  1  0.503230  0.156980  0.356770  1.0  -0.1049
  C  C775  1  0.479500  0.228810  0.376720  1.0  0.1603
  C  C776  1  0.478190  0.280530  0.389850  1.0  0.138
  C  C777  1  0.530440  0.333030  0.396270  1.0  -0.1073
  C  C778  1  0.526360  0.380960  0.407550  1.0  -0.1183
  C  C779  1  0.471210  0.374780  0.412070  1.0  -0.1492
  C  C780  1  0.421730  0.320410  0.405920  1.0  0.1705
  C  C781  1  0.216370  0.253240  0.610490  1.0  0.1566
  C  C782  1  0.220570  0.202630  0.615590  1.0  -0.1302
  C  C783  1  0.173370  0.153230  0.627870  1.0  -0.1387
  C  C784  1  0.122770  0.155330  0.635480  1.0  -0.1257
  C  C785  1  0.122170  0.207380  0.631040  1.0  0.146
  C  C786  1  0.072680  0.214310  0.641970  1.0  0.081
  C  C787  1  0.983970  0.206030  0.663740  1.0  -0.0939
  C  C788  1  0.025420  0.262430  0.654900  1.0  0.1367
  C  C789  1  0.020940  0.316240  0.657640  1.0  -0.0462
  C  C790  1  0.065880  0.366400  0.672360  1.0  0.1589
  C  C791  1  0.063890  0.418830  0.672810  1.0  -0.0642
  C  C792  1  0.015400  0.419290  0.658380  1.0  -0.1536
  C  C793  1  0.969980  0.369770  0.644320  1.0  0.0658
  C  C794  1  0.973370  0.318400  0.644470  1.0  -0.1496
  C  C795  1  0.919270  0.372030  0.628680  1.0  -0.4154
  C  C796  1  0.101970  0.332830  0.714120  1.0  -0.0502
  C  C797  1  0.111780  0.473720  0.687720  1.0  0.1141
  C  C798  1  0.169900  0.490310  0.690100  1.0  -0.1049
  C  C799  1  0.146170  0.562140  0.710050  1.0  0.1603
  C  C800  1  0.144860  0.613860  0.723180  1.0  0.138
  C  C801  1  0.197110  0.666360  0.729600  1.0  -0.1073
  C  C802  1  0.193030  0.714290  0.740880  1.0  -0.1183
  C  C803  1  0.137880  0.708110  0.745400  1.0  -0.1492
  C  C804  1  0.088400  0.653740  0.739250  1.0  0.1705
  C  C805  1  0.883030  0.586580  0.943830  1.0  0.1566
  C  C806  1  0.887230  0.535970  0.948930  1.0  -0.1302
  C  C807  1  0.840030  0.486570  0.961210  1.0  -0.1387
  C  C808  1  0.789430  0.488670  0.968820  1.0  -0.1258
  C  C809  1  0.788830  0.540720  0.964380  1.0  0.1456
  C  C810  1  0.739340  0.547650  0.975310  1.0  0.0811
  C  C811  1  0.650630  0.539370  0.997080  1.0  -0.0939
  C  C812  1  0.692080  0.595770  0.988240  1.0  0.1367
  C  C813  1  0.687600  0.649580  0.990980  1.0  -0.0462
  C  C814  1  0.732540  0.699740  0.005700  1.0  0.1589
  C  C815  1  0.730550  0.752170  0.006150  1.0  -0.0643
  C  C816  1  0.682060  0.752630  0.991720  1.0  -0.1536
  C  C817  1  0.636640  0.703110  0.977660  1.0  0.0659
  C  C818  1  0.640030  0.651740  0.977810  1.0  -0.1498
  C  C819  1  0.585930  0.705370  0.962020  1.0  -0.4154
  C  C820  1  0.768630  0.666170  0.047460  1.0  -0.0502
  C  C821  1  0.778440  0.807060  0.021060  1.0  0.1141
  C  C822  1  0.836560  0.823650  0.023440  1.0  -0.1049
  C  C823  1  0.812830  0.895480  0.043390  1.0  0.1603
  C  C824  1  0.811520  0.947200  0.056520  1.0  0.1382
  C  C825  1  0.863770  0.999700  0.062940  1.0  -0.1073
  C  C826  1  0.859690  0.047630  0.074220  1.0  -0.1178
  C  C827  1  0.804540  0.041450  0.078740  1.0  -0.1492
  C  C828  1  0.755060  0.987080  0.072590  1.0  0.1703
  C  C829  1  0.080090  0.629790  0.277160  1.0  0.1567
  C  C830  1  0.130700  0.684600  0.282260  1.0  -0.1291
  C  C831  1  0.180100  0.686800  0.294540  1.0  -0.1382
  C  C832  1  0.178000  0.634100  0.302150  1.0  -0.1204
  C  C833  1  0.125950  0.581450  0.297710  1.0  0.1474
  C  C834  1  0.119020  0.525030  0.308640  1.0  0.0805
  C  C835  1  0.127300  0.444600  0.330410  1.0  -0.0943
  C  C836  1  0.070900  0.429650  0.321570  1.0  0.1372
  C  C837  1  0.017090  0.371360  0.324310  1.0  -0.0457
  C  C838  1  0.966930  0.366140  0.339030  1.0  0.1591
  C  C839  1  0.914500  0.311720  0.339480  1.0  -0.0643
  C  C840  1  0.914040  0.262770  0.325050  1.0  -0.1545
  C  C841  1  0.963560  0.266870  0.310990  1.0  0.0673
  C  C842  1  0.014930  0.321630  0.311140  1.0  -0.1469
  C  C843  1  0.961300  0.213900  0.295350  1.0  -0.4151
  C  C844  1  0.000500  0.435800  0.380790  1.0  -0.0488
  C  C845  1  0.859610  0.304720  0.354390  1.0  0.1143
  C  C846  1  0.843020  0.346250  0.356770  1.0  -0.1029
  C  C847  1  0.771190  0.250690  0.376720  1.0  0.1611
  C  C848  1  0.719470  0.197660  0.389850  1.0  0.1386
  C  C849  1  0.666970  0.197410  0.396270  1.0  -0.1118
  C  C850  1  0.619040  0.145400  0.407550  1.0  -0.1248
  C  C851  1  0.625220  0.096430  0.412070  1.0  -0.1527
  C  C852  1  0.679590  0.101320  0.405920  1.0  0.1723
  C  C853  1  0.746760  0.963120  0.610490  1.0  0.1567
  C  C854  1  0.797370  0.017930  0.615590  1.0  -0.1291
  C  C855  1  0.846770  0.020130  0.627870  1.0  -0.1364
  C  C856  1  0.844670  0.967430  0.635480  1.0  -0.1204
  C  C857  1  0.792620  0.914780  0.631040  1.0  0.1474
  C  C858  1  0.785690  0.858360  0.641970  1.0  0.0805
  C  C859  1  0.793970  0.777930  0.663740  1.0  -0.0943
  C  C860  1  0.737570  0.762980  0.654900  1.0  0.1372
  C  C861  1  0.683760  0.704690  0.657640  1.0  -0.0457
  C  C862  1  0.633600  0.699470  0.672360  1.0  0.1591
  C  C863  1  0.581170  0.645050  0.672810  1.0  -0.0643
  C  C864  1  0.580710  0.596100  0.658380  1.0  -0.1545
  C  C865  1  0.630230  0.600200  0.644320  1.0  0.0673
  C  C866  1  0.681600  0.654960  0.644470  1.0  -0.1427
  C  C867  1  0.627970  0.547230  0.628680  1.0  -0.4151
  C  C868  1  0.667170  0.769130  0.714120  1.0  -0.0487
  C  C869  1  0.526280  0.638050  0.687720  1.0  0.1143
  C  C870  1  0.509690  0.679580  0.690100  1.0  -0.1029
  C  C871  1  0.437860  0.584020  0.710050  1.0  0.1611
  C  C872  1  0.386140  0.530990  0.723180  1.0  0.1388
  C  C873  1  0.333640  0.530740  0.729600  1.0  -0.1118
  C  C874  1  0.285710  0.478730  0.740880  1.0  -0.1248
  C  C875  1  0.291890  0.429760  0.745400  1.0  -0.1527
  C  C876  1  0.346260  0.434650  0.739250  1.0  0.1723
  C  C877  1  0.413420  0.296460  0.943830  1.0  0.1567
  C  C878  1  0.464030  0.351270  0.948930  1.0  -0.1291
  C  C879  1  0.513430  0.353470  0.961210  1.0  -0.1378
  C  C880  1  0.511330  0.300770  0.968820  1.0  -0.1204
  C  C881  1  0.459280  0.248120  0.964380  1.0  0.1474
  C  C882  1  0.452350  0.191700  0.975310  1.0  0.0806
  C  C883  1  0.460630  0.111270  0.997080  1.0  -0.0943
  C  C884  1  0.404230  0.096320  0.988240  1.0  0.1372
  C  C885  1  0.350420  0.038030  0.990980  1.0  -0.0457
  C  C886  1  0.300260  0.032810  0.005700  1.0  0.1591
  C  C887  1  0.247830  0.978390  0.006150  1.0  -0.0643
  C  C888  1  0.247370  0.929440  0.991720  1.0  -0.1545
  C  C889  1  0.296890  0.933540  0.977660  1.0  0.0673
  C  C890  1  0.348260  0.988300  0.977810  1.0  -0.1428
  C  C891  1  0.294630  0.880570  0.962020  1.0  -0.4151
  C  C892  1  0.333830  0.102470  0.047460  1.0  -0.0487
  C  C893  1  0.192940  0.971390  0.021060  1.0  0.1157
  C  C894  1  0.176350  0.012920  0.023440  1.0  -0.1027
  C  C895  1  0.104520  0.917360  0.043390  1.0  0.1611
  C  C896  1  0.052800  0.864330  0.056520  1.0  0.1387
  C  C897  1  0.000300  0.864080  0.062940  1.0  -0.1118
  C  C898  1  0.952370  0.812070  0.074220  1.0  -0.1251
  C  C899  1  0.958550  0.763100  0.078740  1.0  -0.1522
  C  C900  1  0.012920  0.767990  0.072590  1.0  0.1725
  C  C901  1  0.450300  0.370210  0.222840  1.0  0.1572
  C  C902  1  0.446100  0.315400  0.217740  1.0  -0.1315
  C  C903  1  0.493300  0.313200  0.205460  1.0  -0.1405
  C  C904  1  0.543900  0.365900  0.197850  1.0  -0.1158
  C  C905  1  0.544500  0.418550  0.202290  1.0  0.147
  C  C906  1  0.593990  0.474970  0.191360  1.0  0.0805
  C  C907  1  0.682700  0.555400  0.169590  1.0  -0.0956
  C  C908  1  0.641250  0.570350  0.178430  1.0  0.1376
  C  C909  1  0.645730  0.628640  0.175690  1.0  -0.0455
  C  C910  1  0.600790  0.633860  0.160970  1.0  0.1578
  C  C911  1  0.602780  0.688280  0.160520  1.0  -0.0636
  C  C912  1  0.651270  0.737230  0.174950  1.0  -0.1523
  C  C913  1  0.696690  0.733130  0.189010  1.0  0.0675
  C  C914  1  0.693300  0.678370  0.188860  1.0  -0.1427
  C  C915  1  0.747400  0.786100  0.204650  1.0  -0.4127
  C  C916  1  0.564700  0.564200  0.119210  1.0  -0.0483
  C  C917  1  0.554890  0.695280  0.145610  1.0  0.1131
  C  C918  1  0.496770  0.653750  0.143230  1.0  -0.1042
  C  C919  1  0.520500  0.749310  0.123280  1.0  0.1617
  C  C920  1  0.521810  0.802340  0.110150  1.0  0.1376
  C  C921  1  0.469560  0.802590  0.103730  1.0  -0.1094
  C  C922  1  0.473640  0.854600  0.092450  1.0  -0.1255
  C  C923  1  0.528790  0.903570  0.087930  1.0  -0.1516
  C  C924  1  0.578270  0.898680  0.094080  1.0  0.1721
  C  C925  1  0.116970  0.703540  0.556170  1.0  0.1572
  C  C926  1  0.112770  0.648730  0.551070  1.0  -0.1315
  C  C927  1  0.159970  0.646530  0.538790  1.0  -0.1402
  C  C928  1  0.210570  0.699230  0.531180  1.0  -0.1158
  C  C929  1  0.211170  0.751880  0.535620  1.0  0.147
  C  C930  1  0.260660  0.808300  0.524690  1.0  0.0805
  C  C931  1  0.349370  0.888730  0.502920  1.0  -0.0956
  C  C932  1  0.307920  0.903680  0.511760  1.0  0.1375
  C  C933  1  0.312400  0.961970  0.509020  1.0  -0.0455
  C  C934  1  0.267460  0.967190  0.494300  1.0  0.1578
  C  C935  1  0.269450  0.021610  0.493850  1.0  -0.0635
  C  C936  1  0.317940  0.070560  0.508280  1.0  -0.1523
  C  C937  1  0.363360  0.066460  0.522340  1.0  0.0675
  C  C938  1  0.359970  0.011700  0.522190  1.0  -0.1429
  C  C939  1  0.414070  0.119430  0.537980  1.0  -0.4127
  C  C940  1  0.231370  0.897530  0.452540  1.0  -0.0484
  C  C941  1  0.221560  0.028610  0.478940  1.0  0.1132
  C  C942  1  0.163440  0.987080  0.476560  1.0  -0.1041
  C  C943  1  0.187170  0.082640  0.456610  1.0  0.1617
  C  C944  1  0.188480  0.135670  0.443480  1.0  0.1378
  C  C945  1  0.136230  0.135920  0.437060  1.0  -0.1094
  C  C946  1  0.140310  0.187930  0.425780  1.0  -0.1255
  C  C947  1  0.195460  0.236900  0.421260  1.0  -0.1516
  C  C948  1  0.244940  0.232010  0.427410  1.0  0.1721
  C  C949  1  0.783630  0.036880  0.889510  1.0  0.1572
  C  C950  1  0.779430  0.982070  0.884410  1.0  -0.1315
  C  C951  1  0.826630  0.979870  0.872130  1.0  -0.1401
  C  C952  1  0.877230  0.032570  0.864520  1.0  -0.1158
  C  C953  1  0.877830  0.085220  0.868960  1.0  0.1481
  C  C954  1  0.927320  0.141640  0.858030  1.0  0.0807
  C  C955  1  0.016030  0.222070  0.836260  1.0  -0.0956
  C  C956  1  0.974580  0.237020  0.845100  1.0  0.1376
  C  C957  1  0.979060  0.295310  0.842360  1.0  -0.0455
  C  C958  1  0.934120  0.300530  0.827640  1.0  0.1578
  C  C959  1  0.936110  0.354950  0.827190  1.0  -0.0636
  C  C960  1  0.984600  0.403900  0.841620  1.0  -0.1523
  C  C961  1  0.030020  0.399800  0.855680  1.0  0.0675
  C  C962  1  0.026630  0.345040  0.855530  1.0  -0.1427
  C  C963  1  0.080730  0.452770  0.871320  1.0  -0.4127
  C  C964  1  0.898030  0.230870  0.785880  1.0  -0.0483
  C  C965  1  0.888220  0.361950  0.812280  1.0  0.1131
  C  C966  1  0.830100  0.320420  0.809900  1.0  -0.1042
  C  C967  1  0.853830  0.415980  0.789950  1.0  0.1617
  C  C968  1  0.855140  0.469010  0.776820  1.0  0.1376
  C  C969  1  0.802890  0.469260  0.770400  1.0  -0.1094
  C  C970  1  0.806970  0.521270  0.759120  1.0  -0.1255
  C  C971  1  0.862120  0.570240  0.754600  1.0  -0.1516
  C  C972  1  0.911600  0.565350  0.760750  1.0  0.1722
  C  C973  1  0.919910  0.549700  0.222840  1.0  0.1574
  C  C974  1  0.869300  0.553900  0.217740  1.0  -0.1318
  C  C975  1  0.819900  0.506700  0.205460  1.0  -0.144
  C  C976  1  0.822000  0.456100  0.197850  1.0  -0.1239
  C  C977  1  0.874050  0.455500  0.202290  1.0  0.1484
  C  C978  1  0.880980  0.406010  0.191360  1.0  0.0797
  C  C979  1  0.872700  0.317300  0.169590  1.0  -0.0958
  C  C980  1  0.929100  0.358750  0.178430  1.0  0.136
  C  C981  1  0.982910  0.354270  0.175690  1.0  -0.0468
  C  C982  1  0.033070  0.399210  0.160970  1.0  0.1574
  C  C983  1  0.085500  0.397220  0.160520  1.0  -0.0636
  C  C984  1  0.085960  0.348730  0.174950  1.0  -0.157
  C  C985  1  0.036440  0.303310  0.189010  1.0  0.0665
  C  C986  1  0.985070  0.306700  0.188860  1.0  -0.1505
  C  C987  1  0.038700  0.252600  0.204650  1.0  -0.4163
  C  C988  1  0.999500  0.435300  0.119210  1.0  -0.0512
  C  C989  1  0.140390  0.445110  0.145610  1.0  0.1154
  C  C990  1  0.156980  0.503230  0.143230  1.0  -0.1046
  C  C991  1  0.228810  0.479500  0.123280  1.0  0.1623
  C  C992  1  0.280530  0.478190  0.110150  1.0  0.1372
  C  C993  1  0.333030  0.530440  0.103730  1.0  -0.1126
  C  C994  1  0.380960  0.526360  0.092450  1.0  -0.1174
  C  C995  1  0.374780  0.471210  0.087930  1.0  -0.1558
  C  C996  1  0.320410  0.421730  0.094080  1.0  0.1725
  C  C997  1  0.586580  0.883030  0.556170  1.0  0.1574
  C  C998  1  0.535970  0.887230  0.551070  1.0  -0.1318
  C  C999  1  0.486570  0.840030  0.538790  1.0  -0.1436
  C  C1000  1  0.488670  0.789430  0.531180  1.0  -0.1239
  C  C1001  1  0.540720  0.788830  0.535620  1.0  0.1484
  C  C1002  1  0.547650  0.739340  0.524690  1.0  0.0797
  C  C1003  1  0.539370  0.650630  0.502920  1.0  -0.0958
  C  C1004  1  0.595770  0.692080  0.511760  1.0  0.136
  C  C1005  1  0.649580  0.687600  0.509020  1.0  -0.0468
  C  C1006  1  0.699740  0.732540  0.494300  1.0  0.1574
  C  C1007  1  0.752170  0.730550  0.493850  1.0  -0.0636
  C  C1008  1  0.752630  0.682060  0.508280  1.0  -0.1542
  C  C1009  1  0.703110  0.636640  0.522340  1.0  0.0666
  C  C1010  1  0.651740  0.640030  0.522190  1.0  -0.1507
  C  C1011  1  0.705370  0.585930  0.537980  1.0  -0.4177
  C  C1012  1  0.666170  0.768630  0.452540  1.0  -0.0512
  C  C1013  1  0.807060  0.778440  0.478940  1.0  0.1154
  C  C1014  1  0.823650  0.836560  0.476560  1.0  -0.1046
  C  C1015  1  0.895480  0.812830  0.456610  1.0  0.1614
  C  C1016  1  0.947200  0.811520  0.443480  1.0  0.1374
  C  C1017  1  0.999700  0.863770  0.437060  1.0  -0.1126
  C  C1018  1  0.047630  0.859690  0.425780  1.0  -0.1153
  C  C1019  1  0.041450  0.804540  0.421260  1.0  -0.1558
  C  C1020  1  0.987080  0.755060  0.427410  1.0  0.1723
  C  C1021  1  0.253240  0.216370  0.889510  1.0  0.1574
  C  C1022  1  0.202630  0.220570  0.884410  1.0  -0.1318
  C  C1023  1  0.153230  0.173370  0.872130  1.0  -0.1436
  C  C1024  1  0.155330  0.122770  0.864520  1.0  -0.1238
  C  C1025  1  0.207380  0.122170  0.868960  1.0  0.1489
  C  C1026  1  0.214310  0.072680  0.858030  1.0  0.0797
  C  C1027  1  0.206030  0.983970  0.836260  1.0  -0.0958
  C  C1028  1  0.262430  0.025420  0.845100  1.0  0.136
  C  C1029  1  0.316240  0.020940  0.842360  1.0  -0.0468
  C  C1030  1  0.366400  0.065880  0.827640  1.0  0.1574
  C  C1031  1  0.418830  0.063890  0.827190  1.0  -0.0636
  C  C1032  1  0.419290  0.015400  0.841620  1.0  -0.1542
  C  C1033  1  0.369770  0.969980  0.855680  1.0  0.0665
  C  C1034  1  0.318400  0.973370  0.855530  1.0  -0.1505
  C  C1035  1  0.372030  0.919270  0.871320  1.0  -0.4177
  C  C1036  1  0.332830  0.101970  0.785880  1.0  -0.0513
  C  C1037  1  0.473720  0.111780  0.812280  1.0  0.1154
  C  C1038  1  0.490310  0.169900  0.809900  1.0  -0.1046
  C  C1039  1  0.562140  0.146170  0.789950  1.0  0.1623
  C  C1040  1  0.613860  0.144860  0.776820  1.0  0.1372
  C  C1041  1  0.666360  0.197110  0.770400  1.0  -0.1126
  C  C1042  1  0.714290  0.193030  0.759120  1.0  -0.1174
  C  C1043  1  0.708110  0.137880  0.754600  1.0  -0.1558
  C  C1044  1  0.653740  0.088400  0.760750  1.0  0.1725
  C  C1045  1  0.629790  0.080090  0.222840  1.0  0.157
  C  C1046  1  0.684600  0.130700  0.217740  1.0  -0.1307
  C  C1047  1  0.686800  0.180100  0.205460  1.0  -0.1366
  C  C1048  1  0.634100  0.178000  0.197850  1.0  -0.126
  C  C1049  1  0.581450  0.125950  0.202290  1.0  0.1476
  C  C1050  1  0.525030  0.119020  0.191360  1.0  0.079
  C  C1051  1  0.444600  0.127300  0.169590  1.0  -0.0918
  C  C1052  1  0.429650  0.070900  0.178430  1.0  0.1363
  C  C1053  1  0.371360  0.017090  0.175690  1.0  -0.0459
  C  C1054  1  0.366140  0.966930  0.160970  1.0  0.1582
  C  C1055  1  0.311720  0.914500  0.160520  1.0  -0.0636
  C  C1056  1  0.262770  0.914040  0.174950  1.0  -0.1539
  C  C1057  1  0.266870  0.963560  0.189010  1.0  0.0662
  C  C1058  1  0.321630  0.014930  0.188860  1.0  -0.1485
  C  C1059  1  0.213900  0.961300  0.204650  1.0  -0.4156
  C  C1060  1  0.435800  0.000500  0.119210  1.0  -0.0499
  C  C1061  1  0.304720  0.859610  0.145610  1.0  0.1145
  C  C1062  1  0.346250  0.843020  0.143230  1.0  -0.1058
  C  C1063  1  0.250690  0.771190  0.123280  1.0  0.1618
  C  C1064  1  0.197660  0.719470  0.110150  1.0  0.1381
  C  C1065  1  0.197410  0.666970  0.103730  1.0  -0.103
  C  C1066  1  0.145400  0.619040  0.092450  1.0  -0.118
  C  C1067  1  0.096430  0.625220  0.087930  1.0  -0.1502
  C  C1068  1  0.101320  0.679590  0.094080  1.0  0.1706
  C  C1069  1  0.296460  0.413420  0.556170  1.0  0.157
  C  C1070  1  0.351270  0.464030  0.551070  1.0  -0.1307
  C  C1071  1  0.353470  0.513430  0.538790  1.0  -0.1362
  C  C1072  1  0.300770  0.511330  0.531180  1.0  -0.1259
  C  C1073  1  0.248120  0.459280  0.535620  1.0  0.1476
  C  C1074  1  0.191700  0.452350  0.524690  1.0  0.079
  C  C1075  1  0.111270  0.460630  0.502920  1.0  -0.0918
  C  C1076  1  0.096320  0.404230  0.511760  1.0  0.1363
  C  C1077  1  0.038030  0.350420  0.509020  1.0  -0.0459
  C  C1078  1  0.032810  0.300260  0.494300  1.0  0.1582
  C  C1079  1  0.978390  0.247830  0.493850  1.0  -0.0637
  C  C1080  1  0.929440  0.247370  0.508280  1.0  -0.1535
  C  C1081  1  0.933540  0.296890  0.522340  1.0  0.0662
  C  C1082  1  0.988300  0.348260  0.522190  1.0  -0.1486
  C  C1083  1  0.880570  0.294630  0.537980  1.0  -0.4156
  C  C1084  1  0.102470  0.333830  0.452540  1.0  -0.0498
  C  C1085  1  0.971390  0.192940  0.478940  1.0  0.114
  C  C1086  1  0.012920  0.176350  0.476560  1.0  -0.1061
  C  C1087  1  0.917360  0.104520  0.456610  1.0  0.162
  C  C1088  1  0.864330  0.052800  0.443480  1.0  0.1381
  C  C1089  1  0.864080  0.000300  0.437060  1.0  -0.1031
  C  C1090  1  0.812070  0.952370  0.425780  1.0  -0.1183
  C  C1091  1  0.763100  0.958550  0.421260  1.0  -0.1502
  C  C1092  1  0.767990  0.012920  0.427410  1.0  0.1708
  C  C1093  1  0.963120  0.746760  0.889510  1.0  0.157
  C  C1094  1  0.017930  0.797370  0.884410  1.0  -0.1307
  C  C1095  1  0.020130  0.846770  0.872130  1.0  -0.1362
  C  C1096  1  0.967430  0.844670  0.864520  1.0  -0.1259
  C  C1097  1  0.914780  0.792620  0.868960  1.0  0.1476
  C  C1098  1  0.858360  0.785690  0.858030  1.0  0.079
  C  C1099  1  0.777930  0.793970  0.836260  1.0  -0.0919
  C  C1100  1  0.762980  0.737570  0.845100  1.0  0.1363
  C  C1101  1  0.704690  0.683760  0.842360  1.0  -0.0459
  C  C1102  1  0.699470  0.633600  0.827640  1.0  0.1582
  C  C1103  1  0.645050  0.581170  0.827190  1.0  -0.0636
  C  C1104  1  0.596100  0.580710  0.841620  1.0  -0.1539
  C  C1105  1  0.600200  0.630230  0.855680  1.0  0.0662
  C  C1106  1  0.654960  0.681600  0.855530  1.0  -0.1485
  C  C1107  1  0.547230  0.627970  0.871320  1.0  -0.4156
  C  C1108  1  0.769130  0.667170  0.785880  1.0  -0.0498
  C  C1109  1  0.638050  0.526280  0.812280  1.0  0.1145
  C  C1110  1  0.679580  0.509690  0.809900  1.0  -0.1058
  C  C1111  1  0.584020  0.437860  0.789950  1.0  0.1618
  C  C1112  1  0.530990  0.386140  0.776820  1.0  0.1382
  C  C1113  1  0.530740  0.333640  0.770400  1.0  -0.103
  C  C1114  1  0.478730  0.285710  0.759120  1.0  -0.118
  C  C1115  1  0.429760  0.291890  0.754600  1.0  -0.1502
  C  C1116  1  0.434650  0.346260  0.760750  1.0  0.1706
  C  C1117  1  0.629790  0.549700  0.722840  1.0  0.1558
  C  C1118  1  0.684600  0.553900  0.717740  1.0  -0.1286
  C  C1119  1  0.686800  0.506700  0.705460  1.0  -0.1413
  C  C1120  1  0.634100  0.456100  0.697850  1.0  -0.1264
  C  C1121  1  0.581450  0.455500  0.702290  1.0  0.1474
  C  C1122  1  0.525030  0.406010  0.691360  1.0  0.081
  C  C1123  1  0.444600  0.317300  0.669590  1.0  -0.0951
  C  C1124  1  0.429650  0.358750  0.678430  1.0  0.1363
  C  C1125  1  0.371360  0.354270  0.675690  1.0  -0.045
  C  C1126  1  0.366140  0.399210  0.660970  1.0  0.158
  C  C1127  1  0.311720  0.397220  0.660520  1.0  -0.0631
  C  C1128  1  0.262770  0.348730  0.674950  1.0  -0.1559
  C  C1129  1  0.266870  0.303310  0.689010  1.0  0.0664
  C  C1130  1  0.321630  0.306700  0.688860  1.0  -0.1499
  C  C1131  1  0.213900  0.252600  0.704650  1.0  -0.4153
  C  C1132  1  0.435800  0.435300  0.619210  1.0  -0.0511
  C  C1133  1  0.304720  0.445110  0.645610  1.0  0.1147
  C  C1134  1  0.346250  0.503230  0.643230  1.0  -0.107
  C  C1135  1  0.250690  0.479500  0.623280  1.0  0.1621
  C  C1136  1  0.197660  0.478190  0.610150  1.0  0.1387
  C  C1137  1  0.197410  0.530440  0.603730  1.0  -0.1099
  C  C1138  1  0.145400  0.526360  0.592450  1.0  -0.1161
  C  C1139  1  0.096430  0.471210  0.587930  1.0  -0.1549
  C  C1140  1  0.101320  0.421730  0.594080  1.0  0.1723
  C  C1141  1  0.296460  0.883030  0.056170  1.0  0.1558
  C  C1142  1  0.351270  0.887230  0.051070  1.0  -0.1286
  C  C1143  1  0.353470  0.840030  0.038790  1.0  -0.1409
  C  C1144  1  0.300770  0.789430  0.031180  1.0  -0.1264
  C  C1145  1  0.248120  0.788830  0.035620  1.0  0.1474
  C  C1146  1  0.191700  0.739340  0.024690  1.0  0.0811
  C  C1147  1  0.111270  0.650630  0.002920  1.0  -0.0951
  C  C1148  1  0.096320  0.692080  0.011760  1.0  0.1363
  C  C1149  1  0.038030  0.687600  0.009020  1.0  -0.045
  C  C1150  1  0.032810  0.732540  0.994300  1.0  0.158
  C  C1151  1  0.978390  0.730550  0.993850  1.0  -0.063
  C  C1152  1  0.929440  0.682060  0.008280  1.0  -0.1556
  C  C1153  1  0.933540  0.636640  0.022340  1.0  0.0664
  C  C1154  1  0.988300  0.640030  0.022190  1.0  -0.1501
  C  C1155  1  0.880570  0.585930  0.037980  1.0  -0.4153
  C  C1156  1  0.102470  0.768630  0.952540  1.0  -0.051
  C  C1157  1  0.971390  0.778440  0.978940  1.0  0.1147
  C  C1158  1  0.012920  0.836560  0.976560  1.0  -0.1041
  C  C1159  1  0.917360  0.812830  0.956610  1.0  0.1623
  C  C1160  1  0.864330  0.811520  0.943480  1.0  0.1389
  C  C1161  1  0.864080  0.863770  0.937060  1.0  -0.1099
  C  C1162  1  0.812070  0.859690  0.925780  1.0  -0.1161
  C  C1163  1  0.763100  0.804540  0.921260  1.0  -0.1549
  C  C1164  1  0.767990  0.755060  0.927410  1.0  0.1722
  C  C1165  1  0.963120  0.216370  0.389510  1.0  0.1562
  C  C1166  1  0.017930  0.220570  0.384410  1.0  -0.1286
  C  C1167  1  0.020130  0.173370  0.372130  1.0  -0.1409
  C  C1168  1  0.967430  0.122770  0.364520  1.0  -0.1265
  C  C1169  1  0.914780  0.122170  0.368960  1.0  0.1475
  C  C1170  1  0.858360  0.072680  0.358030  1.0  0.081
  C  C1171  1  0.777930  0.983970  0.336260  1.0  -0.0951
  C  C1172  1  0.762980  0.025420  0.345100  1.0  0.1363
  C  C1173  1  0.704690  0.020940  0.342360  1.0  -0.045
  C  C1174  1  0.699470  0.065880  0.327640  1.0  0.158
  C  C1175  1  0.645050  0.063890  0.327190  1.0  -0.0631
  C  C1176  1  0.596100  0.015400  0.341620  1.0  -0.1559
  C  C1177  1  0.600200  0.969980  0.355680  1.0  0.0664
  C  C1178  1  0.654960  0.973370  0.355530  1.0  -0.1499
  C  C1179  1  0.547230  0.919270  0.371320  1.0  -0.416
  C  C1180  1  0.769130  0.101970  0.285880  1.0  -0.0511
  C  C1181  1  0.638050  0.111780  0.312280  1.0  0.1147
  C  C1182  1  0.679580  0.169900  0.309900  1.0  -0.107
  C  C1183  1  0.584020  0.146170  0.289950  1.0  0.1621
  C  C1184  1  0.530990  0.144860  0.276820  1.0  0.1387
  C  C1185  1  0.530740  0.197110  0.270400  1.0  -0.1099
  C  C1186  1  0.478730  0.193030  0.259120  1.0  -0.1161
  C  C1187  1  0.429760  0.137880  0.254600  1.0  -0.1549
  C  C1188  1  0.434650  0.088400  0.260750  1.0  0.1723
  C  C1189  1  0.450300  0.080090  0.722840  1.0  0.1575
  C  C1190  1  0.446100  0.130700  0.717740  1.0  -0.1322
  C  C1191  1  0.493300  0.180100  0.705460  1.0  -0.1348
  C  C1192  1  0.543900  0.178000  0.697850  1.0  -0.1236
  C  C1193  1  0.544500  0.125950  0.702290  1.0  0.1484
  C  C1194  1  0.593990  0.119020  0.691360  1.0  0.0789
  C  C1195  1  0.682700  0.127300  0.669590  1.0  -0.0925
  C  C1196  1  0.641250  0.070900  0.678430  1.0  0.1372
  C  C1197  1  0.645730  0.017090  0.675690  1.0  -0.0459
  C  C1198  1  0.600790  0.966930  0.660970  1.0  0.1585
  C  C1199  1  0.602780  0.914500  0.660520  1.0  -0.0637
  C  C1200  1  0.651270  0.914040  0.674950  1.0  -0.1507
  C  C1201  1  0.696690  0.963560  0.689010  1.0  0.0671
  C  C1202  1  0.693300  0.014930  0.688860  1.0  -0.1465
  C  C1203  1  0.747400  0.961300  0.704650  1.0  -0.416
  C  C1204  1  0.564700  0.000500  0.619210  1.0  -0.0499
  C  C1205  1  0.554890  0.859610  0.645610  1.0  0.1132
  C  C1206  1  0.496770  0.843020  0.643230  1.0  -0.1045
  C  C1207  1  0.520500  0.771190  0.623280  1.0  0.1611
  C  C1208  1  0.521810  0.719470  0.610150  1.0  0.1364
  C  C1209  1  0.469560  0.666970  0.603730  1.0  -0.1084
  C  C1210  1  0.473640  0.619040  0.592450  1.0  -0.1178
  C  C1211  1  0.528790  0.625220  0.587930  1.0  -0.1506
  C  C1212  1  0.578270  0.679590  0.594080  1.0  0.1701
  C  C1213  1  0.116970  0.413420  0.056170  1.0  0.1575
  C  C1214  1  0.112770  0.464030  0.051070  1.0  -0.1322
  C  C1215  1  0.159970  0.513430  0.038790  1.0  -0.1344
  C  C1216  1  0.210570  0.511330  0.031180  1.0  -0.1235
  C  C1217  1  0.211170  0.459280  0.035620  1.0  0.1485
  C  C1218  1  0.260660  0.452350  0.024690  1.0  0.0789
  C  C1219  1  0.349370  0.460630  0.002920  1.0  -0.0925
  C  C1220  1  0.307920  0.404230  0.011760  1.0  0.1372
  C  C1221  1  0.312400  0.350420  0.009020  1.0  -0.0458
  C  C1222  1  0.267460  0.300260  0.994300  1.0  0.1585
  C  C1223  1  0.269450  0.247830  0.993850  1.0  -0.0637
  C  C1224  1  0.317940  0.247370  0.008280  1.0  -0.1507
  C  C1225  1  0.363360  0.296890  0.022340  1.0  0.0672
  C  C1226  1  0.359970  0.348260  0.022190  1.0  -0.1467
  C  C1227  1  0.414070  0.294630  0.037980  1.0  -0.4161
  C  C1228  1  0.231370  0.333830  0.952540  1.0  -0.0499
  C  C1229  1  0.221560  0.192940  0.978940  1.0  0.1132
  C  C1230  1  0.163440  0.176350  0.976560  1.0  -0.1045
  C  C1231  1  0.187170  0.104520  0.956610  1.0  0.1611
  C  C1232  1  0.188480  0.052800  0.943480  1.0  0.1365
  C  C1233  1  0.136230  0.000300  0.937060  1.0  -0.1084
  C  C1234  1  0.140310  0.952370  0.925780  1.0  -0.1179
  C  C1235  1  0.195460  0.958550  0.921260  1.0  -0.1506
  C  C1236  1  0.244940  0.012920  0.927410  1.0  0.1699
  C  C1237  1  0.783630  0.746760  0.389510  1.0  0.1575
  C  C1238  1  0.779430  0.797370  0.384410  1.0  -0.1322
  C  C1239  1  0.826630  0.846770  0.372130  1.0  -0.1344
  C  C1240  1  0.877230  0.844670  0.364520  1.0  -0.1234
  C  C1241  1  0.877830  0.792620  0.368960  1.0  0.1488
  C  C1242  1  0.927320  0.785690  0.358030  1.0  0.0795
  C  C1243  1  0.016030  0.793970  0.336260  1.0  -0.0925
  C  C1244  1  0.974580  0.737570  0.345100  1.0  0.1372
  C  C1245  1  0.979060  0.683760  0.342360  1.0  -0.0459
  C  C1246  1  0.934120  0.633600  0.327640  1.0  0.1585
  C  C1247  1  0.936110  0.581170  0.327190  1.0  -0.0637
  C  C1248  1  0.984600  0.580710  0.341620  1.0  -0.1507
  C  C1249  1  0.030020  0.630230  0.355680  1.0  0.0671
  C  C1250  1  0.026630  0.681600  0.355530  1.0  -0.1465
  C  C1251  1  0.080730  0.627970  0.371320  1.0  -0.4161
  C  C1252  1  0.898030  0.667170  0.285880  1.0  -0.0499
  C  C1253  1  0.888220  0.526280  0.312280  1.0  0.1132
  C  C1254  1  0.830100  0.509690  0.309900  1.0  -0.1045
  C  C1255  1  0.853830  0.437860  0.289950  1.0  0.1611
  C  C1256  1  0.855140  0.386140  0.276820  1.0  0.1364
  C  C1257  1  0.802890  0.333640  0.270400  1.0  -0.1084
  C  C1258  1  0.806970  0.285710  0.259120  1.0  -0.1178
  C  C1259  1  0.862120  0.291890  0.254600  1.0  -0.1506
  C  C1260  1  0.911600  0.346260  0.260750  1.0  0.1701
  C  C1261  1  0.919910  0.370210  0.722840  1.0  0.1578
  C  C1262  1  0.869300  0.315400  0.717740  1.0  -0.131
  C  C1263  1  0.819900  0.313200  0.705460  1.0  -0.1413
  C  C1264  1  0.822000  0.365900  0.697850  1.0  -0.1176
  C  C1265  1  0.874050  0.418550  0.702290  1.0  0.1468
  C  C1266  1  0.880980  0.474970  0.691360  1.0  0.0799
  C  C1267  1  0.872700  0.555400  0.669590  1.0  -0.0956
  C  C1268  1  0.929100  0.570350  0.678430  1.0  0.1386
  C  C1269  1  0.982910  0.628640  0.675690  1.0  -0.0473
  C  C1270  1  0.033070  0.633860  0.660970  1.0  0.1573
  C  C1271  1  0.085500  0.688280  0.660520  1.0  -0.064
  C  C1272  1  0.085960  0.737230  0.674950  1.0  -0.1523
  C  C1273  1  0.036440  0.733130  0.689010  1.0  0.0673
  C  C1274  1  0.985070  0.678370  0.688860  1.0  -0.1465
  C  C1275  1  0.038700  0.786100  0.704650  1.0  -0.4126
  C  C1276  1  0.999500  0.564200  0.619210  1.0  -0.0502
  C  C1277  1  0.140390  0.695280  0.645610  1.0  0.1139
  C  C1278  1  0.156980  0.653750  0.643230  1.0  -0.1032
  C  C1279  1  0.228810  0.749310  0.623280  1.0  0.163
  C  C1280  1  0.280530  0.802340  0.610150  1.0  0.1383
  C  C1281  1  0.333030  0.802590  0.603730  1.0  -0.1119
  C  C1282  1  0.380960  0.854600  0.592450  1.0  -0.1211
  C  C1283  1  0.374780  0.903570  0.587930  1.0  -0.1572
  C  C1284  1  0.320410  0.898680  0.594080  1.0  0.1711
  C  C1285  1  0.586580  0.703540  0.056170  1.0  0.1578
  C  C1286  1  0.535970  0.648730  0.051070  1.0  -0.131
  C  C1287  1  0.486570  0.646530  0.038790  1.0  -0.1409
  C  C1288  1  0.488670  0.699230  0.031180  1.0  -0.1177
  C  C1289  1  0.540720  0.751880  0.035620  1.0  0.1468
  C  C1290  1  0.547650  0.808300  0.024690  1.0  0.08
  C  C1291  1  0.539370  0.888730  0.002920  1.0  -0.0956
  C  C1292  1  0.595770  0.903680  0.011760  1.0  0.1386
  C  C1293  1  0.649580  0.961970  0.009020  1.0  -0.0473
  C  C1294  1  0.699740  0.967190  0.994300  1.0  0.1573
  C  C1295  1  0.752170  0.021610  0.993850  1.0  -0.0641
  C  C1296  1  0.752630  0.070560  0.008280  1.0  -0.1529
  C  C1297  1  0.703110  0.066460  0.022340  1.0  0.0673
  C  C1298  1  0.651740  0.011700  0.022190  1.0  -0.1468
  C  C1299  1  0.705370  0.119430  0.037980  1.0  -0.4148
  C  C1300  1  0.666170  0.897530  0.952540  1.0  -0.0501
  C  C1301  1  0.807060  0.028610  0.978940  1.0  0.1133
  C  C1302  1  0.823650  0.987080  0.976560  1.0  -0.103
  C  C1303  1  0.895480  0.082640  0.956610  1.0  0.1621
  C  C1304  1  0.947200  0.135670  0.943480  1.0  0.1383
  C  C1305  1  0.999700  0.135920  0.937060  1.0  -0.1116
  C  C1306  1  0.047630  0.187930  0.925780  1.0  -0.1209
  C  C1307  1  0.041450  0.236900  0.921260  1.0  -0.1572
  C  C1308  1  0.987080  0.232010  0.927410  1.0  0.1712
  C  C1309  1  0.253240  0.036880  0.389510  1.0  0.1578
  C  C1310  1  0.202630  0.982070  0.384410  1.0  -0.131
  C  C1311  1  0.153230  0.979870  0.372130  1.0  -0.1409
  C  C1312  1  0.155330  0.032570  0.364520  1.0  -0.1177
  C  C1313  1  0.207380  0.085220  0.368960  1.0  0.1473
  C  C1314  1  0.214310  0.141640  0.358030  1.0  0.08
  C  C1315  1  0.206030  0.222070  0.336260  1.0  -0.0957
  C  C1316  1  0.262430  0.237020  0.345100  1.0  0.1386
  C  C1317  1  0.316240  0.295310  0.342360  1.0  -0.0473
  C  C1318  1  0.366400  0.300530  0.327640  1.0  0.1573
  C  C1319  1  0.418830  0.354950  0.327190  1.0  -0.064
  C  C1320  1  0.419290  0.403900  0.341620  1.0  -0.1529
  C  C1321  1  0.369770  0.399800  0.355680  1.0  0.0673
  C  C1322  1  0.318400  0.345040  0.355530  1.0  -0.1465
  C  C1323  1  0.372030  0.452770  0.371320  1.0  -0.4148
  C  C1324  1  0.332830  0.230870  0.285880  1.0  -0.0502
  C  C1325  1  0.473720  0.361950  0.312280  1.0  0.1139
  C  C1326  1  0.490310  0.320420  0.309900  1.0  -0.1032
  C  C1327  1  0.562140  0.415980  0.289950  1.0  0.163
  C  C1328  1  0.613860  0.469010  0.276820  1.0  0.1384
  C  C1329  1  0.666360  0.469260  0.270400  1.0  -0.1119
  C  C1330  1  0.714290  0.521270  0.259120  1.0  -0.1211
  C  C1331  1  0.708110  0.570240  0.254600  1.0  -0.1572
  C  C1332  1  0.653740  0.565350  0.260750  1.0  0.1711
  C  C1333  1  0.549700  0.629790  0.777160  1.0  0.157
  C  C1334  1  0.553900  0.684600  0.782260  1.0  -0.1284
  C  C1335  1  0.506700  0.686800  0.794540  1.0  -0.1382
  C  C1336  1  0.456100  0.634100  0.802150  1.0  -0.1202
  C  C1337  1  0.455500  0.581450  0.797710  1.0  0.1458
  C  C1338  1  0.406010  0.525030  0.808640  1.0  0.0812
  C  C1339  1  0.317300  0.444600  0.830410  1.0  -0.0964
  C  C1340  1  0.358750  0.429650  0.821570  1.0  0.1391
  C  C1341  1  0.354270  0.371360  0.824310  1.0  -0.0465
  C  C1342  1  0.399210  0.366140  0.839030  1.0  0.1584
  C  C1343  1  0.397220  0.311720  0.839480  1.0  -0.0651
  C  C1344  1  0.348730  0.262770  0.825050  1.0  -0.1539
  C  C1345  1  0.303310  0.266870  0.810990  1.0  0.0672
  C  C1346  1  0.306700  0.321630  0.811140  1.0  -0.1468
  C  C1347  1  0.252600  0.213900  0.795350  1.0  -0.4147
  C  C1348  1  0.435300  0.435800  0.880790  1.0  -0.051
  C  C1349  1  0.445110  0.304720  0.854390  1.0  0.1133
  C  C1350  1  0.503230  0.346250  0.856770  1.0  -0.1029
  C  C1351  1  0.479500  0.250690  0.876720  1.0  0.1624
  C  C1352  1  0.478190  0.197660  0.889850  1.0  0.1393
  C  C1353  1  0.530440  0.197410  0.896270  1.0  -0.1077
  C  C1354  1  0.526360  0.145400  0.907550  1.0  -0.1195
  C  C1355  1  0.471210  0.096430  0.912070  1.0  -0.1507
  C  C1356  1  0.421730  0.101320  0.905920  1.0  0.1714
  C  C1357  1  0.216370  0.963120  0.110490  1.0  0.1569
  C  C1358  1  0.220570  0.017930  0.115590  1.0  -0.1284
  C  C1359  1  0.173370  0.020130  0.127870  1.0  -0.146
  C  C1360  1  0.122770  0.967430  0.135480  1.0  -0.1202
  C  C1361  1  0.122170  0.914780  0.131040  1.0  0.1459
  C  C1362  1  0.072680  0.858360  0.141970  1.0  0.0812
  C  C1363  1  0.983970  0.777930  0.163740  1.0  -0.0964
  C  C1364  1  0.025420  0.762980  0.154900  1.0  0.1391
  C  C1365  1  0.020940  0.704690  0.157640  1.0  -0.0465
  C  C1366  1  0.065880  0.699470  0.172360  1.0  0.1584
  C  C1367  1  0.063890  0.645050  0.172810  1.0  -0.0651
  C  C1368  1  0.015400  0.596100  0.158380  1.0  -0.1539
  C  C1369  1  0.969980  0.600200  0.144320  1.0  0.0672
  C  C1370  1  0.973370  0.654960  0.144470  1.0  -0.1468
  C  C1371  1  0.919270  0.547230  0.128680  1.0  -0.4144
  C  C1372  1  0.101970  0.769130  0.214120  1.0  -0.051
  C  C1373  1  0.111780  0.638050  0.187720  1.0  0.1133
  C  C1374  1  0.169900  0.679580  0.190100  1.0  -0.1029
  C  C1375  1  0.146170  0.584020  0.210050  1.0  0.1624
  C  C1376  1  0.144860  0.530990  0.223180  1.0  0.1393
  C  C1377  1  0.197110  0.530740  0.229600  1.0  -0.1077
  C  C1378  1  0.193030  0.478730  0.240880  1.0  -0.1195
  C  C1379  1  0.137880  0.429760  0.245400  1.0  -0.1507
  C  C1380  1  0.088400  0.434650  0.239250  1.0  0.1715
  C  C1381  1  0.883030  0.296460  0.443830  1.0  0.157
  C  C1382  1  0.887230  0.351270  0.448930  1.0  -0.1284
  C  C1383  1  0.840030  0.353470  0.461210  1.0  -0.1378
  C  C1384  1  0.789430  0.300770  0.468820  1.0  -0.1202
  C  C1385  1  0.788830  0.248120  0.464380  1.0  0.1458
  C  C1386  1  0.739340  0.191700  0.475310  1.0  0.0812
  C  C1387  1  0.650630  0.111270  0.497080  1.0  -0.0964
  C  C1388  1  0.692080  0.096320  0.488240  1.0  0.1391
  C  C1389  1  0.687600  0.038030  0.490980  1.0  -0.0465
  C  C1390  1  0.732540  0.032810  0.505700  1.0  0.1584
  C  C1391  1  0.730550  0.978390  0.506150  1.0  -0.0649
  C  C1392  1  0.682060  0.929440  0.491720  1.0  -0.1539
  C  C1393  1  0.636640  0.933540  0.477660  1.0  0.0672
  C  C1394  1  0.640030  0.988300  0.477810  1.0  -0.1469
  C  C1395  1  0.585930  0.880570  0.462020  1.0  -0.4147
  C  C1396  1  0.768630  0.102470  0.547460  1.0  -0.0511
  C  C1397  1  0.778440  0.971390  0.521060  1.0  0.1168
  C  C1398  1  0.836560  0.012920  0.523440  1.0  -0.1029
  C  C1399  1  0.812830  0.917360  0.543390  1.0  0.1624
  C  C1400  1  0.811520  0.864330  0.556520  1.0  0.1395
  C  C1401  1  0.863770  0.864080  0.562940  1.0  -0.1077
  C  C1402  1  0.859690  0.812070  0.574220  1.0  -0.1195
  C  C1403  1  0.804540  0.763100  0.578740  1.0  -0.1507
  C  C1404  1  0.755060  0.767990  0.572590  1.0  0.1714
  C  C1405  1  0.080090  0.450300  0.777160  1.0  0.156
  C  C1406  1  0.130700  0.446100  0.782260  1.0  -0.1285
  C  C1407  1  0.180100  0.493300  0.794540  1.0  -0.1415
  C  C1408  1  0.178000  0.543900  0.802150  1.0  -0.1243
  C  C1409  1  0.125950  0.544500  0.797710  1.0  0.1482
  C  C1410  1  0.119020  0.593990  0.808640  1.0  0.0808
  C  C1411  1  0.127300  0.682700  0.830410  1.0  -0.0956
  C  C1412  1  0.070900  0.641250  0.821570  1.0  0.1368
  C  C1413  1  0.017090  0.645730  0.824310  1.0  -0.0447
  C  C1414  1  0.966930  0.600790  0.839030  1.0  0.1588
  C  C1415  1  0.914500  0.602780  0.839480  1.0  -0.0635
  C  C1416  1  0.914040  0.651270  0.825050  1.0  -0.1555
  C  C1417  1  0.963560  0.696690  0.810990  1.0  0.067
  C  C1418  1  0.014930  0.693300  0.811140  1.0  -0.1463
  C  C1419  1  0.961300  0.747400  0.795350  1.0  -0.4155
  C  C1420  1  0.000500  0.564700  0.880790  1.0  -0.0505
  C  C1421  1  0.859610  0.554890  0.854390  1.0  0.1151
  C  C1422  1  0.843020  0.496770  0.856770  1.0  -0.105
  C  C1423  1  0.771190  0.520500  0.876720  1.0  0.1631
  C  C1424  1  0.719470  0.521810  0.889850  1.0  0.1392
  C  C1425  1  0.666970  0.469560  0.896270  1.0  -0.1119
  C  C1426  1  0.619040  0.473640  0.907550  1.0  -0.1183
  C  C1427  1  0.625220  0.528790  0.912070  1.0  -0.1562
  C  C1428  1  0.679590  0.578270  0.905920  1.0  0.1728
  C  C1429  1  0.746760  0.783630  0.110490  1.0  0.156
  C  C1430  1  0.797370  0.779430  0.115590  1.0  -0.1285
  C  C1431  1  0.846770  0.826630  0.127870  1.0  -0.1411
  C  C1432  1  0.844670  0.877230  0.135480  1.0  -0.1241
  C  C1433  1  0.792620  0.877830  0.131040  1.0  0.1486
  C  C1434  1  0.785690  0.927320  0.141970  1.0  0.081
  C  C1435  1  0.793970  0.016030  0.163740  1.0  -0.0956
  C  C1436  1  0.737570  0.974580  0.154900  1.0  0.1368
  C  C1437  1  0.683760  0.979060  0.157640  1.0  -0.0447
  C  C1438  1  0.633600  0.934120  0.172360  1.0  0.1588
  C  C1439  1  0.581170  0.936110  0.172810  1.0  -0.0635
  C  C1440  1  0.580710  0.984600  0.158380  1.0  -0.1555
  C  C1441  1  0.630230  0.030020  0.144320  1.0  0.067
  C  C1442  1  0.681600  0.026630  0.144470  1.0  -0.1463
  C  C1443  1  0.627970  0.080730  0.128680  1.0  -0.4155
  C  C1444  1  0.667170  0.898030  0.214120  1.0  -0.0507
  C  C1445  1  0.526280  0.888220  0.187720  1.0  0.1151
  C  C1446  1  0.509690  0.830100  0.190100  1.0  -0.105
  C  C1447  1  0.437860  0.853830  0.210050  1.0  0.1631
  C  C1448  1  0.386140  0.855140  0.223180  1.0  0.1392
  C  C1449  1  0.333640  0.802890  0.229600  1.0  -0.1119
  C  C1450  1  0.285710  0.806970  0.240880  1.0  -0.1183
  C  C1451  1  0.291890  0.862120  0.245400  1.0  -0.1562
  C  C1452  1  0.346260  0.911600  0.239250  1.0  0.1728
  C  C1453  1  0.413420  0.116970  0.443830  1.0  0.1559
  C  C1454  1  0.464030  0.112770  0.448930  1.0  -0.1285
  C  C1455  1  0.513430  0.159970  0.461210  1.0  -0.1411
  C  C1456  1  0.511330  0.210570  0.468820  1.0  -0.1242
  C  C1457  1  0.459280  0.211170  0.464380  1.0  0.1482
  C  C1458  1  0.452350  0.260660  0.475310  1.0  0.0809
  C  C1459  1  0.460630  0.349370  0.497080  1.0  -0.0956
  C  C1460  1  0.404230  0.307920  0.488240  1.0  0.1368
  C  C1461  1  0.350420  0.312400  0.490980  1.0  -0.0447
  C  C1462  1  0.300260  0.267460  0.505700  1.0  0.1588
  C  C1463  1  0.247830  0.269450  0.506150  1.0  -0.0635
  C  C1464  1  0.247370  0.317940  0.491720  1.0  -0.1555
  C  C1465  1  0.296890  0.363360  0.477660  1.0  0.0671
  C  C1466  1  0.348260  0.359970  0.477810  1.0  -0.1464
  C  C1467  1  0.294630  0.414070  0.462020  1.0  -0.4153
  C  C1468  1  0.333830  0.231370  0.547460  1.0  -0.0507
  C  C1469  1  0.192940  0.221560  0.521060  1.0  0.1151
  C  C1470  1  0.176350  0.163440  0.523440  1.0  -0.1049
  C  C1471  1  0.104520  0.187170  0.543390  1.0  0.1631
  C  C1472  1  0.052800  0.188480  0.556520  1.0  0.1393
  C  C1473  1  0.000300  0.136230  0.562940  1.0  -0.1118
  C  C1474  1  0.952370  0.140310  0.574220  1.0  -0.1184
  C  C1475  1  0.958550  0.195460  0.578740  1.0  -0.1577
  C  C1476  1  0.012920  0.244940  0.572590  1.0  0.1726
  C  C1477  1  0.370210  0.919910  0.777160  1.0  0.1575
  C  C1478  1  0.315400  0.869300  0.782260  1.0  -0.1322
  C  C1479  1  0.313200  0.819900  0.794540  1.0  -0.1386
  C  C1480  1  0.365900  0.822000  0.802150  1.0  -0.1264
  C  C1481  1  0.418550  0.874050  0.797710  1.0  0.1468
  C  C1482  1  0.474970  0.880980  0.808640  1.0  0.0806
  C  C1483  1  0.555400  0.872700  0.830410  1.0  -0.0944
  C  C1484  1  0.570350  0.929100  0.821570  1.0  0.1374
  C  C1485  1  0.628640  0.982910  0.824310  1.0  -0.0466
  C  C1486  1  0.633860  0.033070  0.839030  1.0  0.1592
  C  C1487  1  0.688280  0.085500  0.839480  1.0  -0.0641
  C  C1488  1  0.737230  0.085960  0.825050  1.0  -0.15
  C  C1489  1  0.733130  0.036440  0.810990  1.0  0.0667
  C  C1490  1  0.678370  0.985070  0.811140  1.0  -0.1495
  C  C1491  1  0.786100  0.038700  0.795350  1.0  -0.4167
  C  C1492  1  0.564200  0.999500  0.880790  1.0  -0.0498
  C  C1493  1  0.695280  0.140390  0.854390  1.0  0.1146
  C  C1494  1  0.653750  0.156980  0.856770  1.0  -0.1047
  C  C1495  1  0.749310  0.228810  0.876720  1.0  0.1602
  C  C1496  1  0.802340  0.280530  0.889850  1.0  0.136
  C  C1497  1  0.802590  0.333030  0.896270  1.0  -0.1061
  C  C1498  1  0.854600  0.380960  0.907550  1.0  -0.1198
  C  C1499  1  0.903570  0.374780  0.912070  1.0  -0.149
  C  C1500  1  0.898680  0.320410  0.905920  1.0  0.169
  C  C1501  1  0.036880  0.253240  0.110490  1.0  0.1575
  C  C1502  1  0.982070  0.202630  0.115590  1.0  -0.1322
  C  C1503  1  0.979870  0.153230  0.127870  1.0  -0.1382
  C  C1504  1  0.032570  0.155330  0.135480  1.0  -0.1257
  C  C1505  1  0.085220  0.207380  0.131040  1.0  0.1469
  C  C1506  1  0.141640  0.214310  0.141970  1.0  0.0806
  C  C1507  1  0.222070  0.206030  0.163740  1.0  -0.0944
  C  C1508  1  0.237020  0.262430  0.154900  1.0  0.1374
  C  C1509  1  0.295310  0.316240  0.157640  1.0  -0.0466
  C  C1510  1  0.300530  0.366400  0.172360  1.0  0.1592
  C  C1511  1  0.354950  0.418830  0.172810  1.0  -0.0641
  C  C1512  1  0.403900  0.419290  0.158380  1.0  -0.15
  C  C1513  1  0.399800  0.369770  0.144320  1.0  0.0667
  C  C1514  1  0.345040  0.318400  0.144470  1.0  -0.1495
  C  C1515  1  0.452770  0.372030  0.128680  1.0  -0.4166
  C  C1516  1  0.230870  0.332830  0.214120  1.0  -0.0497
  C  C1517  1  0.361950  0.473720  0.187720  1.0  0.1146
  C  C1518  1  0.320420  0.490310  0.190100  1.0  -0.1047
  C  C1519  1  0.415980  0.562140  0.210050  1.0  0.1602
  C  C1520  1  0.469010  0.613860  0.223180  1.0  0.1362
  C  C1521  1  0.469260  0.666360  0.229600  1.0  -0.1061
  C  C1522  1  0.521270  0.714290  0.240880  1.0  -0.1198
  C  C1523  1  0.570240  0.708110  0.245400  1.0  -0.149
  C  C1524  1  0.565350  0.653740  0.239250  1.0  0.1691
  C  C1525  1  0.703540  0.586580  0.443830  1.0  0.1575
  C  C1526  1  0.648730  0.535970  0.448930  1.0  -0.1322
  C  C1527  1  0.646530  0.486570  0.461210  1.0  -0.1382
  C  C1528  1  0.699230  0.488670  0.468820  1.0  -0.1264
  C  C1529  1  0.751880  0.540720  0.464380  1.0  0.1468
  C  C1530  1  0.808300  0.547650  0.475310  1.0  0.0806
  C  C1531  1  0.888730  0.539370  0.497080  1.0  -0.0944
  C  C1532  1  0.903680  0.595770  0.488240  1.0  0.1374
  C  C1533  1  0.961970  0.649580  0.490980  1.0  -0.0466
  C  C1534  1  0.967190  0.699740  0.505700  1.0  0.1592
  C  C1535  1  0.021610  0.752170  0.506150  1.0  -0.0641
  C  C1536  1  0.070560  0.752630  0.491720  1.0  -0.15
  C  C1537  1  0.066460  0.703110  0.477660  1.0  0.0667
  C  C1538  1  0.011700  0.651740  0.477810  1.0  -0.1497
  C  C1539  1  0.119430  0.705370  0.462020  1.0  -0.4166
  C  C1540  1  0.897530  0.666170  0.547460  1.0  -0.0497
  C  C1541  1  0.028610  0.807060  0.521060  1.0  0.1139
  C  C1542  1  0.987080  0.823650  0.523440  1.0  -0.1045
  C  C1543  1  0.082640  0.895480  0.543390  1.0  0.1601
  C  C1544  1  0.135670  0.947200  0.556520  1.0  0.1361
  C  C1545  1  0.135920  0.999700  0.562940  1.0  -0.1062
  C  C1546  1  0.187930  0.047630  0.574220  1.0  -0.117
  C  C1547  1  0.236900  0.041450  0.578740  1.0  -0.149
  C  C1548  1  0.232010  0.987080  0.572590  1.0  0.1692
  S  S1549  1  0.483660  0.659460  0.323060  1.0  0.0708
  S  S1550  1  0.681630  0.456950  0.373490  1.0  0.0756
  S  S1551  1  0.150330  0.992790  0.656390  1.0  0.0688
  S  S1552  1  0.348300  0.790280  0.706820  1.0  0.0756
  S  S1553  1  0.816990  0.326130  0.989730  1.0  0.0701
  S  S1554  1  0.014960  0.123620  0.040160  1.0  0.0811
  S  S1555  1  0.340540  0.824200  0.323060  1.0  0.0714
  S  S1556  1  0.543050  0.224680  0.373490  1.0  0.0773
  S  S1557  1  0.007210  0.157530  0.656390  1.0  0.0696
  S  S1558  1  0.209720  0.558010  0.706820  1.0  0.0773
  S  S1559  1  0.673870  0.490870  0.989730  1.0  0.0709
  S  S1560  1  0.876380  0.891350  0.040160  1.0  0.0773
  S  S1561  1  0.175800  0.516340  0.323060  1.0  0.0674
  S  S1562  1  0.775320  0.318370  0.373490  1.0  0.0846
  S  S1563  1  0.842470  0.849670  0.656390  1.0  0.0656
  S  S1564  1  0.441990  0.651700  0.706820  1.0  0.0846
  S  S1565  1  0.509130  0.183010  0.989730  1.0  0.0667
  S  S1566  1  0.108650  0.985040  0.040160  1.0  0.0782
  S  S1567  1  0.659460  0.483660  0.176940  1.0  0.0666
  S  S1568  1  0.456950  0.681630  0.126510  1.0  0.0783
  S  S1569  1  0.326130  0.816990  0.510270  1.0  0.066
  S  S1570  1  0.123620  0.014960  0.459840  1.0  0.084
  S  S1571  1  0.992790  0.150330  0.843610  1.0  0.0652
  S  S1572  1  0.790280  0.348300  0.793180  1.0  0.0783
  S  S1573  1  0.824200  0.340540  0.176940  1.0  0.0702
  S  S1574  1  0.224680  0.543050  0.126510  1.0  0.0778
  S  S1575  1  0.490870  0.673870  0.510270  1.0  0.0697
  S  S1576  1  0.891350  0.876380  0.459840  1.0  0.0778
  S  S1577  1  0.157530  0.007210  0.843610  1.0  0.0688
  S  S1578  1  0.558010  0.209720  0.793180  1.0  0.0778
  S  S1579  1  0.516340  0.175800  0.176940  1.0  0.0707
  S  S1580  1  0.318370  0.775320  0.126510  1.0  0.0761
  S  S1581  1  0.183010  0.509130  0.510270  1.0  0.0701
  S  S1582  1  0.985040  0.108650  0.459840  1.0  0.0712
  S  S1583  1  0.849670  0.842470  0.843610  1.0  0.0686
  S  S1584  1  0.651700  0.441990  0.793180  1.0  0.0761
  S  S1585  1  0.516340  0.340540  0.676940  1.0  0.068
  S  S1586  1  0.318370  0.543050  0.626510  1.0  0.0726
  S  S1587  1  0.183010  0.673870  0.010270  1.0  0.0674
  S  S1588  1  0.985040  0.876380  0.959840  1.0  0.0777
  S  S1589  1  0.849670  0.007210  0.343610  1.0  0.0667
  S  S1590  1  0.651700  0.209720  0.293180  1.0  0.0726
  S  S1591  1  0.659460  0.175800  0.676940  1.0  0.0707
  S  S1592  1  0.456950  0.775320  0.626510  1.0  0.0793
  S  S1593  1  0.326130  0.509130  0.010270  1.0  0.0702
  S  S1594  1  0.123620  0.108650  0.959840  1.0  0.0793
  S  S1595  1  0.992790  0.842470  0.343610  1.0  0.0686
  S  S1596  1  0.790280  0.441990  0.293180  1.0  0.0793
  S  S1597  1  0.824200  0.483660  0.676940  1.0  0.0685
  S  S1598  1  0.224680  0.681630  0.626510  1.0  0.0818
  S  S1599  1  0.490870  0.816990  0.010270  1.0  0.0679
  S  S1600  1  0.891350  0.014960  0.959840  1.0  0.076
  S  S1601  1  0.157530  0.150330  0.343610  1.0  0.0676
  S  S1602  1  0.558010  0.348300  0.293180  1.0  0.0818
  S  S1603  1  0.340540  0.516340  0.823060  1.0  0.0683
  S  S1604  1  0.543050  0.318370  0.873490  1.0  0.0763
  S  S1605  1  0.007210  0.849670  0.156390  1.0  0.0663
  S  S1606  1  0.209720  0.651700  0.206820  1.0  0.0763
  S  S1607  1  0.673870  0.183010  0.489730  1.0  0.0675
  S  S1608  1  0.876380  0.985040  0.540160  1.0  0.0816
  S  S1609  1  0.175800  0.659460  0.823060  1.0  0.0693
  S  S1610  1  0.775320  0.456950  0.873490  1.0  0.0818
  S  S1611  1  0.842470  0.992790  0.156390  1.0  0.0675
  S  S1612  1  0.441990  0.790280  0.206820  1.0  0.0818
  S  S1613  1  0.509130  0.326130  0.489730  1.0  0.0687
  S  S1614  1  0.108650  0.123620  0.540160  1.0  0.0818
  S  S1615  1  0.483660  0.824200  0.823060  1.0  0.0711
  S  S1616  1  0.681630  0.224680  0.873490  1.0  0.0792
  S  S1617  1  0.150330  0.157530  0.156390  1.0  0.0693
  S  S1618  1  0.348300  0.558010  0.206820  1.0  0.0792
  S  S1619  1  0.816990  0.490870  0.489730  1.0  0.0704
  S  S1620  1  0.014960  0.891350  0.540160  1.0  0.0737
  N  N1621  1  0.421190  0.498200  0.284760  1.0  -0.3851
  N  N1622  1  0.523550  0.590590  0.309310  1.0  -0.4341
  N  N1623  1  0.749740  0.567510  0.365700  1.0  -0.3883
  N  N1624  1  0.848940  0.575310  0.395110  1.0  -0.3734
  N  N1625  1  0.087860  0.831530  0.618090  1.0  -0.385
  N  N1626  1  0.190220  0.923920  0.642640  1.0  -0.4387
  N  N1627  1  0.416410  0.900840  0.699030  1.0  -0.3883
  N  N1628  1  0.515610  0.908640  0.728440  1.0  -0.3734
  N  N1629  1  0.754520  0.164870  0.951430  1.0  -0.3851
  N  N1630  1  0.856880  0.257260  0.975980  1.0  -0.434
  N  N1631  1  0.083070  0.234180  0.032370  1.0  -0.3908
  N  N1632  1  0.182270  0.241980  0.061780  1.0  -0.3739
  N  N1633  1  0.501800  0.922990  0.284760  1.0  -0.3843
  N  N1634  1  0.409410  0.932960  0.309310  1.0  -0.4364
  N  N1635  1  0.432490  0.182230  0.365700  1.0  -0.39
  N  N1636  1  0.424690  0.273630  0.395110  1.0  -0.3719
  N  N1637  1  0.168470  0.256320  0.618090  1.0  -0.3842
  N  N1638  1  0.076080  0.266290  0.642640  1.0  -0.4364
  N  N1639  1  0.099160  0.515560  0.699030  1.0  -0.39
  N  N1640  1  0.091360  0.606960  0.728440  1.0  -0.3719
  N  N1641  1  0.835130  0.589660  0.951430  1.0  -0.3842
  N  N1642  1  0.742740  0.599630  0.975980  1.0  -0.4364
  N  N1643  1  0.765820  0.848900  0.032370  1.0  -0.3899
  N  N1644  1  0.758020  0.940300  0.061780  1.0  -0.3727
  N  N1645  1  0.077010  0.578810  0.284760  1.0  -0.3849
  N  N1646  1  0.067040  0.476450  0.309310  1.0  -0.4378
  N  N1647  1  0.817770  0.250260  0.365700  1.0  -0.3951
  N  N1648  1  0.726370  0.151060  0.395110  1.0  -0.3743
  N  N1649  1  0.743680  0.912140  0.618090  1.0  -0.3849
  N  N1650  1  0.733710  0.809780  0.642640  1.0  -0.4379
  N  N1651  1  0.484440  0.583590  0.699030  1.0  -0.3951
  N  N1652  1  0.393040  0.484390  0.728440  1.0  -0.3743
  N  N1653  1  0.410340  0.245480  0.951430  1.0  -0.3853
  N  N1654  1  0.400370  0.143120  0.975980  1.0  -0.4378
  N  N1655  1  0.151100  0.916930  0.032370  1.0  -0.3952
  N  N1656  1  0.059700  0.817730  0.061780  1.0  -0.3736
  N  N1657  1  0.498200  0.421190  0.215240  1.0  -0.3859
  N  N1658  1  0.590590  0.523550  0.190690  1.0  -0.4312
  N  N1659  1  0.567510  0.749740  0.134300  1.0  -0.3948
  N  N1660  1  0.575310  0.848940  0.104890  1.0  -0.3732
  N  N1661  1  0.164870  0.754520  0.548570  1.0  -0.3859
  N  N1662  1  0.257260  0.856880  0.524020  1.0  -0.4312
  N  N1663  1  0.234180  0.083070  0.467630  1.0  -0.3943
  N  N1664  1  0.241980  0.182270  0.438220  1.0  -0.3738
  N  N1665  1  0.831530  0.087860  0.881910  1.0  -0.3859
  N  N1666  1  0.923920  0.190220  0.857360  1.0  -0.4288
  N  N1667  1  0.900840  0.416410  0.800970  1.0  -0.3948
  N  N1668  1  0.908640  0.515610  0.771560  1.0  -0.3732
  N  N1669  1  0.922990  0.501800  0.215240  1.0  -0.385
  N  N1670  1  0.932960  0.409410  0.190690  1.0  -0.4331
  N  N1671  1  0.182230  0.432490  0.134300  1.0  -0.3928
  N  N1672  1  0.273630  0.424690  0.104890  1.0  -0.3736
  N  N1673  1  0.589660  0.835130  0.548570  1.0  -0.3849
  N  N1674  1  0.599630  0.742740  0.524020  1.0  -0.4331
  N  N1675  1  0.848900  0.765820  0.467630  1.0  -0.3927
  N  N1676  1  0.940300  0.758020  0.438220  1.0  -0.3744
  N  N1677  1  0.256320  0.168470  0.881910  1.0  -0.3849
  N  N1678  1  0.266290  0.076080  0.857360  1.0  -0.4332
  N  N1679  1  0.515560  0.099160  0.800970  1.0  -0.3928
  N  N1680  1  0.606960  0.091360  0.771560  1.0  -0.3736
  N  N1681  1  0.578810  0.077010  0.215240  1.0  -0.384
  N  N1682  1  0.476450  0.067040  0.190690  1.0  -0.4356
  N  N1683  1  0.250260  0.817770  0.134300  1.0  -0.3922
  N  N1684  1  0.151060  0.726370  0.104890  1.0  -0.3723
  N  N1685  1  0.245480  0.410340  0.548570  1.0  -0.3844
  N  N1686  1  0.143120  0.400370  0.524020  1.0  -0.4356
  N  N1687  1  0.916930  0.151100  0.467630  1.0  -0.3921
  N  N1688  1  0.817730  0.059700  0.438220  1.0  -0.3719
  N  N1689  1  0.912140  0.743680  0.881910  1.0  -0.3839
  N  N1690  1  0.809780  0.733710  0.857360  1.0  -0.4357
  N  N1691  1  0.583590  0.484440  0.800970  1.0  -0.3921
  N  N1692  1  0.484390  0.393040  0.771560  1.0  -0.3723
  N  N1693  1  0.578810  0.501800  0.715240  1.0  -0.3828
  N  N1694  1  0.476450  0.409410  0.690690  1.0  -0.4374
  N  N1695  1  0.250260  0.432490  0.634300  1.0  -0.3935
  N  N1696  1  0.151060  0.424690  0.604890  1.0  -0.3722
  N  N1697  1  0.245480  0.835130  0.048570  1.0  -0.3828
  N  N1698  1  0.143120  0.742740  0.024020  1.0  -0.4374
  N  N1699  1  0.916930  0.765820  0.967630  1.0  -0.3929
  N  N1700  1  0.817730  0.758020  0.938220  1.0  -0.3728
  N  N1701  1  0.912140  0.168470  0.381910  1.0  -0.3828
  N  N1702  1  0.809780  0.076080  0.357360  1.0  -0.4375
  N  N1703  1  0.583590  0.099160  0.300970  1.0  -0.3935
  N  N1704  1  0.484390  0.091360  0.271560  1.0  -0.3722
  N  N1705  1  0.498200  0.077010  0.715240  1.0  -0.3857
  N  N1706  1  0.590590  0.067040  0.690690  1.0  -0.434
  N  N1707  1  0.567510  0.817770  0.634300  1.0  -0.3922
  N  N1708  1  0.575310  0.726370  0.604890  1.0  -0.3721
  N  N1709  1  0.164870  0.410340  0.048570  1.0  -0.3856
  N  N1710  1  0.257260  0.400370  0.024020  1.0  -0.434
  N  N1711  1  0.234180  0.151100  0.967630  1.0  -0.3921
  N  N1712  1  0.241980  0.059700  0.938220  1.0  -0.3726
  N  N1713  1  0.831530  0.743680  0.381910  1.0  -0.3856
  N  N1714  1  0.923920  0.733710  0.357360  1.0  -0.4339
  N  N1715  1  0.900840  0.484440  0.300970  1.0  -0.3922
  N  N1716  1  0.908640  0.393040  0.271560  1.0  -0.3721
  N  N1717  1  0.922990  0.421190  0.715240  1.0  -0.3861
  N  N1718  1  0.932960  0.523550  0.690690  1.0  -0.4301
  N  N1719  1  0.182230  0.749740  0.634300  1.0  -0.3917
  N  N1720  1  0.273630  0.848940  0.604890  1.0  -0.3737
  N  N1721  1  0.589660  0.754520  0.048570  1.0  -0.3865
  N  N1722  1  0.599630  0.856880  0.024020  1.0  -0.4301
  N  N1723  1  0.848900  0.083070  0.967630  1.0  -0.3917
  N  N1724  1  0.940300  0.182270  0.938220  1.0  -0.373
  N  N1725  1  0.256320  0.087860  0.381910  1.0  -0.3861
  N  N1726  1  0.266290  0.190220  0.357360  1.0  -0.4302
  N  N1727  1  0.515560  0.416410  0.300970  1.0  -0.3916
  N  N1728  1  0.606960  0.515610  0.271560  1.0  -0.3737
  N  N1729  1  0.501800  0.578810  0.784760  1.0  -0.3846
  N  N1730  1  0.409410  0.476450  0.809310  1.0  -0.4396
  N  N1731  1  0.432490  0.250260  0.865700  1.0  -0.3953
  N  N1732  1  0.424690  0.151060  0.895110  1.0  -0.3732
  N  N1733  1  0.168470  0.912140  0.118090  1.0  -0.3845
  N  N1734  1  0.076080  0.809780  0.142640  1.0  -0.4396
  N  N1735  1  0.099160  0.583590  0.199030  1.0  -0.3953
  N  N1736  1  0.091360  0.484390  0.228440  1.0  -0.3732
  N  N1737  1  0.835130  0.245480  0.451430  1.0  -0.3846
  N  N1738  1  0.742740  0.143120  0.475980  1.0  -0.4396
  N  N1739  1  0.765820  0.916930  0.532370  1.0  -0.395
  N  N1740  1  0.758020  0.817730  0.561780  1.0  -0.3738
  N  N1741  1  0.077010  0.498200  0.784760  1.0  -0.3824
  N  N1742  1  0.067040  0.590590  0.809310  1.0  -0.4391
  N  N1743  1  0.817770  0.567510  0.865700  1.0  -0.3921
  N  N1744  1  0.726370  0.575310  0.895110  1.0  -0.3726
  N  N1745  1  0.743680  0.831530  0.118090  1.0  -0.3824
  N  N1746  1  0.733710  0.923920  0.142640  1.0  -0.4397
  N  N1747  1  0.484440  0.900840  0.199030  1.0  -0.3921
  N  N1748  1  0.393040  0.908640  0.228440  1.0  -0.3726
  N  N1749  1  0.410340  0.164870  0.451430  1.0  -0.3823
  N  N1750  1  0.400370  0.257260  0.475980  1.0  -0.4391
  N  N1751  1  0.151100  0.234180  0.532370  1.0  -0.392
  N  N1752  1  0.059700  0.241980  0.561780  1.0  -0.3732
  N  N1753  1  0.421190  0.922990  0.784760  1.0  -0.3865
  N  N1754  1  0.523550  0.932960  0.809310  1.0  -0.4349
  N  N1755  1  0.749740  0.182230  0.865700  1.0  -0.3926
  N  N1756  1  0.848940  0.273630  0.895110  1.0  -0.3726
  N  N1757  1  0.087860  0.256320  0.118090  1.0  -0.3864
  N  N1758  1  0.190220  0.266290  0.142640  1.0  -0.4349
  N  N1759  1  0.416410  0.515560  0.199030  1.0  -0.3926
  N  N1760  1  0.515610  0.606960  0.228440  1.0  -0.3726
  N  N1761  1  0.754520  0.589660  0.451430  1.0  -0.3869
  N  N1762  1  0.856880  0.599630  0.475980  1.0  -0.435
  N  N1763  1  0.083070  0.848900  0.532370  1.0  -0.3927
  N  N1764  1  0.182270  0.940300  0.561780  1.0  -0.3719
  O  O1765  1  0.585100  0.552160  0.351910  1.0  -0.2794
  O  O1766  1  0.251770  0.885490  0.685240  1.0  -0.2794
  O  O1767  1  0.918430  0.218830  0.018580  1.0  -0.2796
  O  O1768  1  0.447840  0.032940  0.351910  1.0  -0.2779
  O  O1769  1  0.114510  0.366270  0.685240  1.0  -0.2779
  O  O1770  1  0.781170  0.699610  0.018580  1.0  -0.2781
  O  O1771  1  0.967060  0.414900  0.351910  1.0  -0.2785
  O  O1772  1  0.633730  0.748230  0.685240  1.0  -0.2783
  O  O1773  1  0.300390  0.081570  0.018580  1.0  -0.2785
  O  O1774  1  0.552160  0.585100  0.148090  1.0  -0.2795
  O  O1775  1  0.218830  0.918430  0.481420  1.0  -0.2795
  O  O1776  1  0.885490  0.251770  0.814760  1.0  -0.2795
  O  O1777  1  0.032940  0.447840  0.148090  1.0  -0.2807
  O  O1778  1  0.699610  0.781170  0.481420  1.0  -0.2807
  O  O1779  1  0.366270  0.114510  0.814760  1.0  -0.2807
  O  O1780  1  0.414900  0.967060  0.148090  1.0  -0.279
  O  O1781  1  0.081570  0.300390  0.481420  1.0  -0.279
  O  O1782  1  0.748230  0.633730  0.814760  1.0  -0.279
  O  O1783  1  0.414900  0.447840  0.648090  1.0  -0.2804
  O  O1784  1  0.081570  0.781170  0.981420  1.0  -0.2804
  O  O1785  1  0.748230  0.114510  0.314760  1.0  -0.2804
  O  O1786  1  0.552160  0.967060  0.648090  1.0  -0.2802
  O  O1787  1  0.218830  0.300390  0.981420  1.0  -0.2802
  O  O1788  1  0.885490  0.633730  0.314760  1.0  -0.2802
  O  O1789  1  0.032940  0.585100  0.648090  1.0  -0.2781
  O  O1790  1  0.699610  0.918430  0.981420  1.0  -0.2781
  O  O1791  1  0.366270  0.251770  0.314760  1.0  -0.2781
  O  O1792  1  0.447840  0.414900  0.851910  1.0  -0.2775
  O  O1793  1  0.114510  0.748230  0.185240  1.0  -0.2775
  O  O1794  1  0.781170  0.081570  0.518580  1.0  -0.2777
  O  O1795  1  0.967060  0.552160  0.851910  1.0  -0.2787
  O  O1796  1  0.633730  0.885490  0.185240  1.0  -0.2787
  O  O1797  1  0.300390  0.218830  0.518580  1.0  -0.2789
  O  O1798  1  0.585100  0.032940  0.851910  1.0  -0.2786
  O  O1799  1  0.251770  0.366270  0.185240  1.0  -0.2784
  O  O1800  1  0.918430  0.699610  0.518580  1.0  -0.2786
