# generated using pymatgen
data_Zn9Si4H66(C56O17)2
_symmetry_space_group_name_H-M   'P 1'
_cell_length_a   25.37700000
_cell_length_b   29.78800000
_cell_length_c   38.22000000
_cell_angle_alpha   90.00000000
_cell_angle_beta   99.00500000
_cell_angle_gamma   90.00000000
_symmetry_Int_Tables_number   1
_chemical_formula_structural   Zn9Si4H66(C56O17)2
_chemical_formula_sum   'Zn36 Si16 H264 C448 O136'
_cell_volume   28535.54885852
_cell_formula_units_Z   4
loop_
 _symmetry_equiv_pos_site_id
 _symmetry_equiv_pos_as_xyz
  1  'x, y, z'
loop_
 _atom_site_type_symbol
 _atom_site_label
 _atom_site_symmetry_multiplicity
 _atom_site_fract_x
 _atom_site_fract_y
 _atom_site_fract_z
 _atom_site_occupancy
 _atom_site_charge
  Zn  Zn1  1  0.243320  0.554870  0.549950  1.0  1.1104
  Zn  Zn2  1  0.259490  0.607240  0.478810  1.0  1.0727
  Zn  Zn3  1  0.089350  0.397610  0.158750  1.0  1.0747
  Zn  Zn4  1  0.980480  0.459410  0.159920  1.0  1.095
  Zn  Zn5  1  0.350950  0.606470  0.553050  1.0  1.0525
  Zn  Zn6  1  0.240410  0.655200  0.548790  1.0  1.0126
  Zn  Zn7  1  0.530400  0.850650  0.859580  1.0  1.0978
  Zn  Zn8  1  0.474430  0.366700  0.832500  1.0  1.0798
  Zn  Zn9  1  0.528500  0.592810  0.083240  1.0  1.0621
  Zn  Zn10  1  0.256680  0.054870  0.450050  1.0  1.1101
  Zn  Zn11  1  0.240510  0.107240  0.521190  1.0  1.0766
  Zn  Zn12  1  0.410650  0.897610  0.841250  1.0  1.0732
  Zn  Zn13  1  0.519520  0.959410  0.840080  1.0  1.096
  Zn  Zn14  1  0.149050  0.106470  0.446950  1.0  1.0484
  Zn  Zn15  1  0.259590  0.155200  0.451210  1.0  1.0126
  Zn  Zn16  1  0.969600  0.350650  0.140420  1.0  1.0984
  Zn  Zn17  1  0.025570  0.866700  0.167500  1.0  1.0805
  Zn  Zn18  1  0.971500  0.092810  0.916760  1.0  1.0587
  Zn  Zn19  1  0.756680  0.445130  0.450050  1.0  1.1114
  Zn  Zn20  1  0.740510  0.392760  0.521190  1.0  1.0769
  Zn  Zn21  1  0.910650  0.602390  0.841250  1.0  1.0717
  Zn  Zn22  1  0.019520  0.540590  0.840080  1.0  1.0964
  Zn  Zn23  1  0.649050  0.393530  0.446950  1.0  1.0484
  Zn  Zn24  1  0.759590  0.344800  0.451210  1.0  1.0132
  Zn  Zn25  1  0.469600  0.149350  0.140420  1.0  1.0986
  Zn  Zn26  1  0.525570  0.633300  0.167500  1.0  1.0805
  Zn  Zn27  1  0.471500  0.407190  0.916760  1.0  1.0612
  Zn  Zn28  1  0.743320  0.945130  0.549950  1.0  1.1118
  Zn  Zn29  1  0.759490  0.892760  0.478810  1.0  1.0731
  Zn  Zn30  1  0.589350  0.102390  0.158750  1.0  1.0758
  Zn  Zn31  1  0.480480  0.040590  0.159920  1.0  1.0957
  Zn  Zn32  1  0.850950  0.893530  0.553050  1.0  1.0525
  Zn  Zn33  1  0.740410  0.844800  0.548790  1.0  1.013
  Zn  Zn34  1  0.030400  0.649350  0.859580  1.0  1.0979
  Zn  Zn35  1  0.974430  0.133300  0.832500  1.0  1.0797
  Zn  Zn36  1  0.028500  0.907190  0.083240  1.0  1.0632
  Si  Si37  1  0.065270  0.385810  0.382580  1.0  0.8868
  Si  Si38  1  0.328190  0.622920  0.780540  1.0  0.9151
  Si  Si39  1  0.191080  0.654790  0.078100  1.0  1.0135
  Si  Si40  1  0.452540  0.326240  0.606980  1.0  0.9554
  Si  Si41  1  0.434730  0.885810  0.617420  1.0  0.8869
  Si  Si42  1  0.171810  0.122920  0.219460  1.0  0.9151
  Si  Si43  1  0.308920  0.154790  0.921900  1.0  1.0136
  Si  Si44  1  0.047460  0.826240  0.393020  1.0  0.9553
  Si  Si45  1  0.934730  0.614190  0.617420  1.0  0.8868
  Si  Si46  1  0.671810  0.377080  0.219460  1.0  0.915
  Si  Si47  1  0.808920  0.345210  0.921900  1.0  1.0136
  Si  Si48  1  0.547460  0.673760  0.393020  1.0  0.9555
  Si  Si49  1  0.565270  0.114190  0.382580  1.0  0.8868
  Si  Si50  1  0.828190  0.877080  0.780540  1.0  0.915
  Si  Si51  1  0.691080  0.845210  0.078100  1.0  1.0136
  Si  Si52  1  0.952540  0.173760  0.606980  1.0  0.9556
  H  H53  1  0.994200  0.640500  0.907000  1.0  0.3202
  H  H54  1  0.745600  0.365400  0.587300  1.0  0.3488
  H  H55  1  0.181800  0.517500  0.402000  1.0  0.1044
  H  H56  1  0.127800  0.465100  0.367700  1.0  0.1081
  H  H57  1  0.104100  0.399600  0.456900  1.0  0.111
  H  H58  1  0.158200  0.452100  0.491200  1.0  0.1072
  H  H59  1  0.924200  0.452300  0.439100  1.0  0.1078
  H  H60  1  0.009000  0.448600  0.422600  1.0  0.1023
  H  H61  1  0.967600  0.333333  0.369000  1.0  0.1064
  H  H62  1  0.882700  0.337100  0.385500  1.0  0.1076
  H  H63  1  0.070300  0.233900  0.432600  1.0  0.107
  H  H64  1  0.030200  0.302400  0.414100  1.0  0.1078
  H  H65  1  0.166300  0.342300  0.380100  1.0  0.1054
  H  H66  1  0.206400  0.273800  0.398600  1.0  0.1078
  H  H67  1  0.114900  0.374200  0.263900  1.0  0.1056
  H  H68  1  0.122100  0.356200  0.324100  1.0  0.1044
  H  H69  1  0.001200  0.442000  0.333600  1.0  0.1075
  H  H70  1  0.994000  0.460000  0.273400  1.0  0.1118
  H  H71  1  0.183100  0.547800  0.829300  1.0  0.1083
  H  H72  1  0.267000  0.553300  0.811500  1.0  0.1004
  H  H73  1  0.234800  0.681800  0.780600  1.0  0.0997
  H  H74  1  0.150900  0.676300  0.798400  1.0  0.1062
  H  H75  1  0.386400  0.636800  0.665200  1.0  0.1062
  H  H76  1  0.391800  0.647600  0.726300  1.0  0.1093
  H  H77  1  0.248900  0.585700  0.723600  1.0  0.1086
  H  H78  1  0.243600  0.574800  0.662500  1.0  0.1069
  H  H79  1  0.350800  0.785200  0.792500  1.0  0.107
  H  H80  1  0.305700  0.718700  0.774200  1.0  0.1149
  H  H81  1  0.433400  0.646500  0.820100  1.0  0.0995
  H  H82  1  0.478400  0.713000  0.838500  1.0  0.1082
  H  H83  1  0.423600  0.482700  0.784400  1.0  0.1031
  H  H84  1  0.379800  0.545800  0.757500  1.0  0.1006
  H  H85  1  0.364400  0.595500  0.854100  1.0  0.1054
  H  H86  1  0.408300  0.532400  0.881000  1.0  0.105
  H  H87  1  0.180600  0.502700  0.120700  1.0  0.1109
  H  H88  1  0.222100  0.565100  0.099600  1.0  0.1034
  H  H89  1  0.095100  0.642300  0.112600  1.0  0.104
  H  H90  1  0.053600  0.579900  0.133700  1.0  0.108
  H  H91  1  0.364100  0.602900  0.056700  1.0  0.1072
  H  H92  1  0.271600  0.612600  0.044500  1.0  0.1047
  H  H93  1  0.276900  0.687400  0.133500  1.0  0.1015
  H  H94  1  0.369400  0.677700  0.145700  1.0  0.1072
  H  H95  1  0.135100  0.763200  0.160900  1.0  0.1065
  H  H96  1  0.175600  0.696900  0.145800  1.0  0.1065
  H  H97  1  0.148900  0.733400  0.042400  1.0  0.0991
  H  H98  1  0.108400  0.799700  0.057500  1.0  0.1094
  H  H99  1  0.043800  0.623200  0.989800  1.0  0.1099
  H  H100  1  0.095600  0.621800  0.046100  1.0  0.0944
  H  H101  1  0.219700  0.676000  0.005600  1.0  0.104
  H  H102  1  0.167800  0.677300  0.949300  1.0  0.1147
  H  H103  1  0.439000  0.484200  0.571400  1.0  0.1064
  H  H104  1  0.483800  0.416900  0.587600  1.0  0.0983
  H  H105  1  0.342500  0.356000  0.592900  1.0  0.1089
  H  H106  1  0.297700  0.423300  0.576800  1.0  0.111
  H  H107  1  0.440500  0.384800  0.723800  1.0  0.1095
  H  H108  1  0.429600  0.385800  0.661900  1.0  0.1021
  H  H109  1  0.489900  0.259800  0.662200  1.0  0.1027
  H  H110  1  0.500800  0.258800  0.724200  1.0  0.1079
  H  H111  1  0.358100  0.182500  0.589800  1.0  0.1095
  H  H112  1  0.409900  0.237000  0.623200  1.0  0.0964
  H  H113  1  0.403600  0.314900  0.535600  1.0  0.101
  H  H114  1  0.351800  0.260300  0.502200  1.0  0.1077
  H  H115  1  0.581800  0.352400  0.524800  1.0  0.104
  H  H116  1  0.497800  0.333100  0.538200  1.0  0.1037
  H  H117  1  0.558500  0.331400  0.642800  1.0  0.0964
  H  H118  1  0.642500  0.350700  0.629400  1.0  0.107
  H  H119  1  0.505800  0.140500  0.093000  1.0  0.321
  H  H120  1  0.754400  0.865400  0.412700  1.0  0.3494
  H  H121  1  0.318200  0.017500  0.598000  1.0  0.104
  H  H122  1  0.372200  0.965100  0.632300  1.0  0.1079
  H  H123  1  0.395900  0.899600  0.543100  1.0  0.111
  H  H124  1  0.341800  0.952100  0.508800  1.0  0.1072
  H  H125  1  0.575800  0.952300  0.560900  1.0  0.1078
  H  H126  1  0.491000  0.948600  0.577400  1.0  0.1023
  H  H127  1  0.532400  0.833300  0.631000  1.0  0.1072
  H  H128  1  0.617300  0.837100  0.614500  1.0  0.1082
  H  H129  1  0.429700  0.733900  0.567400  1.0  0.107
  H  H130  1  0.469800  0.802400  0.585900  1.0  0.1075
  H  H131  1  0.333700  0.842300  0.619900  1.0  0.1062
  H  H132  1  0.293600  0.773800  0.601400  1.0  0.1071
  H  H133  1  0.385100  0.874200  0.736100  1.0  0.1046
  H  H134  1  0.377900  0.856200  0.675900  1.0  0.1046
  H  H135  1  0.498800  0.942000  0.666400  1.0  0.1078
  H  H136  1  0.506000  0.960000  0.726600  1.0  0.1115
  H  H137  1  0.316900  0.047800  0.170700  1.0  0.1085
  H  H138  1  0.233000  0.053300  0.188500  1.0  0.1
  H  H139  1  0.265200  0.181800  0.219400  1.0  0.1005
  H  H140  1  0.349100  0.176300  0.201600  1.0  0.106
  H  H141  1  0.113600  0.136800  0.334800  1.0  0.107
  H  H142  1  0.108200  0.147600  0.273700  1.0  0.1099
  H  H143  1  0.251100  0.085700  0.276400  1.0  0.1099
  H  H144  1  0.256400  0.074800  0.337500  1.0  0.1068
  H  H145  1  0.149200  0.285200  0.207500  1.0  0.1066
  H  H146  1  0.194300  0.218700  0.225800  1.0  0.1151
  H  H147  1  0.066600  0.146500  0.179900  1.0  0.1002
  H  H148  1  0.021600  0.213000  0.161500  1.0  0.1099
  H  H149  1  0.076400  0.982700  0.215600  1.0  0.1037
  H  H150  1  0.120200  0.045800  0.242500  1.0  0.0993
  H  H151  1  0.135600  0.095500  0.145900  1.0  0.1055
  H  H152  1  0.091700  0.032400  0.119000  1.0  0.1058
  H  H153  1  0.319400  0.002700  0.879300  1.0  0.1106
  H  H154  1  0.277900  0.065100  0.900400  1.0  0.1023
  H  H155  1  0.404900  0.142300  0.887400  1.0  0.1038
  H  H156  1  0.446400  0.079900  0.866300  1.0  0.1079
  H  H157  1  0.135900  0.102900  0.943300  1.0  0.1074
  H  H158  1  0.228400  0.112600  0.955500  1.0  0.1037
  H  H159  1  0.223100  0.187400  0.866500  1.0  0.1014
  H  H160  1  0.130600  0.177700  0.854300  1.0  0.1069
  H  H161  1  0.364900  0.263200  0.839100  1.0  0.1065
  H  H162  1  0.324400  0.196900  0.854200  1.0  0.1059
  H  H163  1  0.351100  0.233400  0.957600  1.0  0.1003
  H  H164  1  0.391600  0.299700  0.942500  1.0  0.1101
  H  H165  1  0.456200  0.123200  0.010200  1.0  0.1113
  H  H166  1  0.404400  0.121800  0.953900  1.0  0.0943
  H  H167  1  0.280300  0.176000  0.994400  1.0  0.1053
  H  H168  1  0.332200  0.177300  0.050700  1.0  0.1144
  H  H169  1  0.061000  0.984200  0.428600  1.0  0.1066
  H  H170  1  0.016200  0.916900  0.412400  1.0  0.0982
  H  H171  1  0.157500  0.856000  0.407100  1.0  0.108
  H  H172  1  0.202300  0.923300  0.423200  1.0  0.1117
  H  H173  1  0.059500  0.884800  0.276200  1.0  0.1088
  H  H174  1  0.070400  0.885800  0.338100  1.0  0.1016
  H  H175  1  0.010100  0.759800  0.337800  1.0  0.1025
  H  H176  1  0.999200  0.758800  0.275800  1.0  0.1075
  H  H177  1  0.141900  0.682500  0.410200  1.0  0.109
  H  H178  1  0.090100  0.737000  0.376800  1.0  0.0961
  H  H179  1  0.096400  0.814900  0.464400  1.0  0.1008
  H  H180  1  0.148200  0.760300  0.497800  1.0  0.1084
  H  H181  1  0.918200  0.852400  0.475200  1.0  0.1041
  H  H182  1  0.002200  0.833100  0.461800  1.0  0.1034
  H  H183  1  0.941500  0.831400  0.357200  1.0  0.0972
  H  H184  1  0.857500  0.850700  0.370600  1.0  0.1086
  H  H185  1  0.005800  0.359500  0.093000  1.0  0.3204
  H  H186  1  0.254400  0.634600  0.412700  1.0  0.3494
  H  H187  1  0.818200  0.482500  0.598000  1.0  0.1041
  H  H188  1  0.872200  0.534900  0.632300  1.0  0.1077
  H  H189  1  0.895900  0.600400  0.543100  1.0  0.111
  H  H190  1  0.841800  0.547900  0.508800  1.0  0.1073
  H  H191  1  0.075800  0.547700  0.560900  1.0  0.1072
  H  H192  1  0.991000  0.551400  0.577400  1.0  0.1016
  H  H193  1  0.032400  0.666667  0.631000  1.0  0.1074
  H  H194  1  0.117300  0.662900  0.614500  1.0  0.1082
  H  H195  1  0.929700  0.766100  0.567400  1.0  0.1075
  H  H196  1  0.969800  0.697600  0.585900  1.0  0.1075
  H  H197  1  0.833700  0.657700  0.619900  1.0  0.1065
  H  H198  1  0.793600  0.726200  0.601400  1.0  0.1072
  H  H199  1  0.885100  0.625800  0.736100  1.0  0.1051
  H  H200  1  0.877900  0.643800  0.675900  1.0  0.1047
  H  H201  1  0.998800  0.558000  0.666400  1.0  0.1082
  H  H202  1  0.006000  0.540000  0.726600  1.0  0.1115
  H  H203  1  0.816900  0.452200  0.170700  1.0  0.108
  H  H204  1  0.733000  0.446700  0.188500  1.0  0.1002
  H  H205  1  0.765200  0.318200  0.219400  1.0  0.1
  H  H206  1  0.849100  0.323700  0.201600  1.0  0.1062
  H  H207  1  0.613600  0.363200  0.334800  1.0  0.106
  H  H208  1  0.608200  0.352400  0.273700  1.0  0.1093
  H  H209  1  0.751100  0.414300  0.276400  1.0  0.1097
  H  H210  1  0.756400  0.425200  0.337500  1.0  0.107
  H  H211  1  0.649200  0.214800  0.207500  1.0  0.1064
  H  H212  1  0.694300  0.281300  0.225800  1.0  0.1152
  H  H213  1  0.566600  0.353500  0.179900  1.0  0.0988
  H  H214  1  0.521600  0.287000  0.161500  1.0  0.1077
  H  H215  1  0.576400  0.517300  0.215600  1.0  0.1032
  H  H216  1  0.620200  0.454200  0.242500  1.0  0.0997
  H  H217  1  0.635600  0.404500  0.145900  1.0  0.1057
  H  H218  1  0.591700  0.467600  0.119000  1.0  0.1049
  H  H219  1  0.819400  0.497300  0.879300  1.0  0.1105
  H  H220  1  0.777900  0.434900  0.900400  1.0  0.1027
  H  H221  1  0.904900  0.357700  0.887400  1.0  0.1035
  H  H222  1  0.946400  0.420100  0.866300  1.0  0.1079
  H  H223  1  0.635900  0.397100  0.943300  1.0  0.1071
  H  H224  1  0.728400  0.387400  0.955500  1.0  0.1036
  H  H225  1  0.723100  0.312600  0.866500  1.0  0.1015
  H  H226  1  0.630600  0.322300  0.854300  1.0  0.107
  H  H227  1  0.864900  0.236800  0.839100  1.0  0.1064
  H  H228  1  0.824400  0.303100  0.854200  1.0  0.1061
  H  H229  1  0.851100  0.266600  0.957600  1.0  0.1007
  H  H230  1  0.891600  0.200300  0.942500  1.0  0.1097
  H  H231  1  0.956200  0.376800  0.010200  1.0  0.1109
  H  H232  1  0.904400  0.378200  0.953900  1.0  0.0945
  H  H233  1  0.780300  0.324000  0.994400  1.0  0.1061
  H  H234  1  0.832200  0.322700  0.050700  1.0  0.1147
  H  H235  1  0.561000  0.515800  0.428600  1.0  0.1061
  H  H236  1  0.516200  0.583100  0.412400  1.0  0.0985
  H  H237  1  0.657500  0.644000  0.407100  1.0  0.1079
  H  H238  1  0.702300  0.576700  0.423200  1.0  0.1118
  H  H239  1  0.559500  0.615200  0.276200  1.0  0.1086
  H  H240  1  0.570400  0.614200  0.338100  1.0  0.1023
  H  H241  1  0.510100  0.740200  0.337800  1.0  0.1032
  H  H242  1  0.499200  0.741200  0.275800  1.0  0.108
  H  H243  1  0.641900  0.817500  0.410200  1.0  0.1092
  H  H244  1  0.590100  0.763000  0.376800  1.0  0.0967
  H  H245  1  0.596400  0.685100  0.464400  1.0  0.1011
  H  H246  1  0.648200  0.739700  0.497800  1.0  0.1085
  H  H247  1  0.418200  0.647600  0.475200  1.0  0.1042
  H  H248  1  0.502200  0.666900  0.461800  1.0  0.103
  H  H249  1  0.441500  0.668600  0.357200  1.0  0.0972
  H  H250  1  0.357500  0.649300  0.370600  1.0  0.1076
  H  H251  1  0.494200  0.859500  0.907000  1.0  0.3203
  H  H252  1  0.245600  0.134600  0.587300  1.0  0.3486
  H  H253  1  0.681800  0.982500  0.402000  1.0  0.1043
  H  H254  1  0.627800  0.034900  0.367700  1.0  0.1082
  H  H255  1  0.604100  0.100400  0.456900  1.0  0.1106
  H  H256  1  0.658200  0.047900  0.491200  1.0  0.1067
  H  H257  1  0.424200  0.047700  0.439100  1.0  0.1076
  H  H258  1  0.509000  0.051400  0.422600  1.0  0.1027
  H  H259  1  0.467600  0.166700  0.369000  1.0  0.1063
  H  H260  1  0.382700  0.162900  0.385500  1.0  0.1092
  H  H261  1  0.570300  0.266100  0.432600  1.0  0.1067
  H  H262  1  0.530200  0.197600  0.414100  1.0  0.1076
  H  H263  1  0.666300  0.157700  0.380100  1.0  0.1053
  H  H264  1  0.706400  0.226200  0.398600  1.0  0.1079
  H  H265  1  0.614900  0.125800  0.263900  1.0  0.1048
  H  H266  1  0.622100  0.143800  0.324100  1.0  0.1049
  H  H267  1  0.501200  0.058000  0.333600  1.0  0.1078
  H  H268  1  0.494000  0.040000  0.273400  1.0  0.1115
  H  H269  1  0.683100  0.952200  0.829300  1.0  0.109
  H  H270  1  0.767000  0.946700  0.811500  1.0  0.1004
  H  H271  1  0.734800  0.818200  0.780600  1.0  0.0997
  H  H272  1  0.650900  0.823700  0.798400  1.0  0.1056
  H  H273  1  0.886400  0.863200  0.665200  1.0  0.107
  H  H274  1  0.891800  0.852400  0.726300  1.0  0.1099
  H  H275  1  0.748900  0.914300  0.723600  1.0  0.1083
  H  H276  1  0.743600  0.925200  0.662500  1.0  0.1074
  H  H277  1  0.850800  0.714800  0.792500  1.0  0.1063
  H  H278  1  0.805700  0.781300  0.774200  1.0  0.1149
  H  H279  1  0.933400  0.853500  0.820100  1.0  0.1009
  H  H280  1  0.978400  0.787000  0.838500  1.0  0.11
  H  H281  1  0.923600  0.017300  0.784400  1.0  0.1031
  H  H282  1  0.879800  0.954200  0.757500  1.0  0.1003
  H  H283  1  0.864400  0.904500  0.854100  1.0  0.1059
  H  H284  1  0.908300  0.967600  0.881000  1.0  0.1061
  H  H285  1  0.680600  0.997300  0.120700  1.0  0.1108
  H  H286  1  0.722100  0.934900  0.099600  1.0  0.1014
  H  H287  1  0.595100  0.857700  0.112600  1.0  0.1036
  H  H288  1  0.553600  0.920100  0.133700  1.0  0.1081
  H  H289  1  0.864100  0.897100  0.056700  1.0  0.1075
  H  H290  1  0.771600  0.887400  0.044500  1.0  0.1041
  H  H291  1  0.776900  0.812600  0.133500  1.0  0.1018
  H  H292  1  0.869400  0.822300  0.145700  1.0  0.1069
  H  H293  1  0.635100  0.736800  0.160900  1.0  0.1065
  H  H294  1  0.675600  0.803100  0.145800  1.0  0.106
  H  H295  1  0.648900  0.766600  0.042400  1.0  0.1001
  H  H296  1  0.608400  0.700300  0.057500  1.0  0.1092
  H  H297  1  0.543800  0.876800  0.989800  1.0  0.1106
  H  H298  1  0.595600  0.878200  0.046100  1.0  0.0945
  H  H299  1  0.719700  0.824000  0.005600  1.0  0.105
  H  H300  1  0.667800  0.822700  0.949300  1.0  0.1146
  H  H301  1  0.939000  0.015800  0.571400  1.0  0.1065
  H  H302  1  0.983800  0.083100  0.587600  1.0  0.0986
  H  H303  1  0.842500  0.144000  0.592900  1.0  0.1093
  H  H304  1  0.797700  0.076700  0.576800  1.0  0.111
  H  H305  1  0.940500  0.115200  0.723800  1.0  0.1093
  H  H306  1  0.929600  0.114200  0.661900  1.0  0.102
  H  H307  1  0.989900  0.240200  0.662200  1.0  0.1034
  H  H308  1  0.000800  0.241200  0.724200  1.0  0.1082
  H  H309  1  0.858100  0.317500  0.589800  1.0  0.1097
  H  H310  1  0.909900  0.263000  0.623200  1.0  0.097
  H  H311  1  0.903600  0.185100  0.535600  1.0  0.1009
  H  H312  1  0.851800  0.239700  0.502200  1.0  0.1077
  H  H313  1  0.081800  0.147600  0.524800  1.0  0.1039
  H  H314  1  0.997800  0.166900  0.538200  1.0  0.1035
  H  H315  1  0.058500  0.168600  0.642800  1.0  0.0962
  H  H316  1  0.142500  0.149300  0.629400  1.0  0.1077
  C  C317  1  0.204300  0.524730  0.472720  1.0  0.7407
  C  C318  1  0.175060  0.489700  0.449840  1.0  -0.1579
  C  C319  1  0.166030  0.493560  0.413150  1.0  -0.0381
  C  C320  1  0.133940  0.462420  0.392760  1.0  -0.0301
  C  C321  1  0.110880  0.427420  0.409070  1.0  -0.3618
  C  C322  1  0.119910  0.423560  0.445760  1.0  -0.0544
  C  C323  1  0.152000  0.454700  0.466150  1.0  -0.0548
  C  C324  1  0.843700  0.396240  0.428220  1.0  0.6517
  C  C325  1  0.895450  0.395060  0.413870  1.0  -0.1372
  C  C326  1  0.932980  0.428180  0.424890  1.0  -0.0512
  C  C327  1  0.983390  0.425930  0.415080  1.0  -0.0186
  C  C328  1  0.996280  0.390570  0.394250  1.0  -0.3782
  C  C329  1  0.958750  0.357450  0.383220  1.0  -0.0599
  C  C330  1  0.908330  0.359700  0.393040  1.0  -0.0613
  C  C331  1  0.167700  0.203490  0.430870  1.0  0.696
  C  C332  1  0.142150  0.247400  0.417330  1.0  -0.1444
  C  C333  1  0.089810  0.255890  0.421920  1.0  -0.0508
  C  C334  1  0.065950  0.296570  0.410920  1.0  -0.0543
  C  C335  1  0.094440  0.328760  0.395320  1.0  -0.3291
  C  C336  1  0.146780  0.320270  0.390730  1.0  -0.0576
  C  C337  1  0.170640  0.279590  0.401740  1.0  -0.0641
  C  C338  1  0.046730  0.432090  0.224530  1.0  0.7002
  C  C339  1  0.053770  0.418800  0.263030  1.0  -0.1254
  C  C340  1  0.091830  0.387970  0.278060  1.0  -0.0552
  C  C341  1  0.096110  0.377280  0.313800  1.0  -0.0394
  C  C342  1  0.062330  0.397400  0.334490  1.0  -0.3099
  C  C343  1  0.024280  0.428220  0.319460  1.0  -0.0338
  C  C344  1  0.020000  0.438920  0.283730  1.0  -0.062
  C  C345  1  0.108900  0.607900  0.826740  1.0  0.7041
  C  C346  1  0.159110  0.611530  0.815520  1.0  -0.0597
  C  C347  1  0.193590  0.574990  0.819430  1.0  -0.1024
  C  C348  1  0.243440  0.578260  0.808870  1.0  -0.0228
  C  C349  1  0.258790  0.618080  0.794390  1.0  -0.2967
  C  C350  1  0.224310  0.654620  0.790470  1.0  -0.0317
  C  C351  1  0.174460  0.651350  0.801040  1.0  -0.1069
  C  C352  1  0.310400  0.598100  0.621040  1.0  0.6874
  C  C353  1  0.314550  0.604780  0.658130  1.0  -0.0746
  C  C354  1  0.358540  0.626390  0.677080  1.0  -0.0516
  C  C355  1  0.361690  0.632850  0.713370  1.0  -0.0275
  C  C356  1  0.320850  0.617690  0.730710  1.0  -0.3301
  C  C357  1  0.276860  0.596070  0.711760  1.0  -0.0332
  C  C358  1  0.273710  0.589620  0.675470  1.0  -0.0771
  C  C359  1  0.448600  0.797840  0.829210  1.0  0.6743
  C  C360  1  0.418820  0.755390  0.817200  1.0  -0.135
  C  C361  1  0.367520  0.757070  0.798100  1.0  -0.0542
  C  C362  1  0.340770  0.717540  0.787220  1.0  -0.0438
  C  C363  1  0.365310  0.676330  0.795440  1.0  -0.2917
  C  C364  1  0.416600  0.674650  0.814530  1.0  -0.0289
  C  C365  1  0.443360  0.714180  0.825410  1.0  -0.0415
  C  C366  1  0.440000  0.462200  0.852700  1.0  0.6293
  C  C367  1  0.420090  0.501610  0.835300  1.0  -0.0392
  C  C368  1  0.411620  0.505600  0.798590  1.0  -0.0469
  C  C369  1  0.385600  0.543100  0.782600  1.0  -0.0204
  C  C370  1  0.367980  0.576610  0.803300  1.0  -0.3228
  C  C371  1  0.376400  0.572600  0.839990  1.0  -0.0634
  C  C372  1  0.402500  0.535100  0.855970  1.0  -0.0954
  C  C373  1  0.085900  0.494800  0.143310  1.0  0.7178
  C  C374  1  0.113250  0.535460  0.129190  1.0  -0.1402
  C  C375  1  0.163270  0.531060  0.119070  1.0  -0.0473
  C  C376  1  0.187870  0.568120  0.106530  1.0  -0.045
  C  C377  1  0.162460  0.609590  0.104110  1.0  -0.3402
  C  C378  1  0.112430  0.614000  0.114240  1.0  -0.0788
  C  C379  1  0.087830  0.576940  0.126780  1.0  -0.0407
  C  C380  1  0.430600  0.631200  0.110600  1.0  0.7257
  C  C381  1  0.375490  0.639420  0.102350  1.0  -0.0986
  C  C382  1  0.346400  0.620080  0.072280  1.0  -0.0745
  C  C383  1  0.291400  0.625810  0.065030  1.0  -0.0409
  C  C384  1  0.265510  0.650880  0.087870  1.0  -0.2703
  C  C385  1  0.294600  0.670230  0.117940  1.0  -0.0484
  C  C386  1  0.349600  0.664500  0.125190  1.0  -0.0999
  C  C387  1  0.084900  0.827800  0.117800  1.0  0.7169
  C  C388  1  0.117930  0.787700  0.110580  1.0  -0.1458
  C  C389  1  0.137900  0.757100  0.136820  1.0  -0.0383
  C  C390  1  0.161950  0.717740  0.127880  1.0  -0.0452
  C  C391  1  0.166060  0.708910  0.092700  1.0  -0.329
  C  C392  1  0.146100  0.739500  0.066460  1.0  -0.0487
  C  C393  1  0.122040  0.778860  0.075400  1.0  -0.0561
  C  C394  1  0.057180  0.648600  0.932600  1.0  0.3617
  C  C395  1  0.101000  0.650400  0.964240  1.0  -0.0932
  C  C396  1  0.079510  0.633920  0.992990  1.0  -0.1567
  C  C397  1  0.110300  0.633110  0.026440  1.0  -0.0863
  C  C398  1  0.162500  0.648770  0.031130  1.0  -0.1846
  C  C399  1  0.183960  0.665250  0.002380  1.0  -0.0502
  C  C400  1  0.153200  0.666060  0.968930  1.0  -0.078
  C  C401  1  0.337800  0.503630  0.561130  1.0  0.7088
  C  C402  1  0.364160  0.460120  0.572580  1.0  -0.1672
  C  C403  1  0.419440  0.458210  0.575810  1.0  -0.0376
  C  C404  1  0.446030  0.418210  0.585430  1.0  -0.0424
  C  C405  1  0.417340  0.380130  0.591810  1.0  -0.3357
  C  C406  1  0.362060  0.382040  0.588580  1.0  -0.0533
  C  C407  1  0.335470  0.422040  0.578970  1.0  -0.052
  C  C408  1  0.479500  0.324900  0.770000  1.0  0.6857
  C  C409  1  0.471660  0.321700  0.729800  1.0  -0.1583
  C  C410  1  0.450530  0.359440  0.711300  1.0  -0.0792
  C  C411  1  0.444050  0.360030  0.674520  1.0  -0.0468
  C  C412  1  0.458710  0.322900  0.656220  1.0  -0.3342
  C  C413  1  0.479850  0.285170  0.674720  1.0  -0.0438
  C  C414  1  0.486330  0.284570  0.711510  1.0  -0.072
  C  C415  1  0.312700  0.182900  0.523800  1.0  0.7282
  C  C416  1  0.350090  0.216270  0.542840  1.0  -0.1479
  C  C417  1  0.367350  0.209360  0.578770  1.0  -0.0664
  C  C418  1  0.398120  0.241770  0.598630  1.0  -0.0622
  C  C419  1  0.411630  0.281080  0.582550  1.0  -0.2785
  C  C420  1  0.394360  0.287990  0.546620  1.0  -0.07
  C  C421  1  0.363590  0.255580  0.526760  1.0  -0.0733
  C  C422  1  0.677060  0.361700  0.570900  1.0  0.6162
  C  C423  1  0.620040  0.353360  0.575880  1.0  -0.1271
  C  C424  1  0.577100  0.348120  0.548780  1.0  -0.0643
  C  C425  1  0.527190  0.336660  0.556720  1.0  -0.0469
  C  C426  1  0.520250  0.330450  0.591760  1.0  -0.1959
  C  C427  1  0.563200  0.335690  0.618850  1.0  -0.0291
  C  C428  1  0.613110  0.347140  0.610920  1.0  -0.0522
  C  C429  1  0.295700  0.024730  0.527280  1.0  0.7404
  C  C430  1  0.324940  0.989700  0.550160  1.0  -0.1581
  C  C431  1  0.333970  0.993560  0.586850  1.0  -0.0377
  C  C432  1  0.366060  0.962420  0.607240  1.0  -0.029
  C  C433  1  0.389120  0.927420  0.590930  1.0  -0.3607
  C  C434  1  0.380090  0.923560  0.554240  1.0  -0.0549
  C  C435  1  0.348000  0.954700  0.533850  1.0  -0.0522
  C  C436  1  0.656300  0.896240  0.571780  1.0  0.6511
  C  C437  1  0.604550  0.895060  0.586130  1.0  -0.138
  C  C438  1  0.567020  0.928180  0.575110  1.0  -0.0521
  C  C439  1  0.516610  0.925930  0.584920  1.0  -0.0176
  C  C440  1  0.503720  0.890570  0.605750  1.0  -0.3769
  C  C441  1  0.541250  0.857450  0.616780  1.0  -0.0654
  C  C442  1  0.591670  0.859700  0.606960  1.0  -0.0627
  C  C443  1  0.332300  0.703490  0.569130  1.0  0.6961
  C  C444  1  0.357850  0.747400  0.582670  1.0  -0.1451
  C  C445  1  0.410190  0.755890  0.578080  1.0  -0.0512
  C  C446  1  0.434050  0.796570  0.589080  1.0  -0.0532
  C  C447  1  0.405560  0.828760  0.604680  1.0  -0.3297
  C  C448  1  0.353220  0.820270  0.609270  1.0  -0.0578
  C  C449  1  0.329360  0.779590  0.598260  1.0  -0.0657
  C  C450  1  0.453270  0.932090  0.775470  1.0  0.7004
  C  C451  1  0.446230  0.918800  0.736970  1.0  -0.1247
  C  C452  1  0.408170  0.887970  0.721940  1.0  -0.0557
  C  C453  1  0.403890  0.877280  0.686200  1.0  -0.0415
  C  C454  1  0.437670  0.897400  0.665510  1.0  -0.3084
  C  C455  1  0.475720  0.928220  0.680540  1.0  -0.0352
  C  C456  1  0.480000  0.938920  0.716270  1.0  -0.0612
  C  C457  1  0.391100  0.107900  0.173260  1.0  0.7059
  C  C458  1  0.340890  0.111530  0.184480  1.0  -0.0602
  C  C459  1  0.306410  0.074990  0.180570  1.0  -0.1031
  C  C460  1  0.256560  0.078260  0.191130  1.0  -0.0222
  C  C461  1  0.241210  0.118080  0.205610  1.0  -0.2985
  C  C462  1  0.275690  0.154620  0.209530  1.0  -0.0333
  C  C463  1  0.325540  0.151350  0.198960  1.0  -0.105
  C  C464  1  0.189600  0.098100  0.378960  1.0  0.6869
  C  C465  1  0.185450  0.104780  0.341870  1.0  -0.0741
  C  C466  1  0.141460  0.126390  0.322920  1.0  -0.0532
  C  C467  1  0.138310  0.132850  0.286630  1.0  -0.028
  C  C468  1  0.179150  0.117690  0.269290  1.0  -0.3276
  C  C469  1  0.223140  0.096070  0.288240  1.0  -0.033
  C  C470  1  0.226290  0.089620  0.324530  1.0  -0.0759
  C  C471  1  0.051400  0.297840  0.170790  1.0  0.6738
  C  C472  1  0.081180  0.255390  0.182800  1.0  -0.1346
  C  C473  1  0.132480  0.257070  0.201900  1.0  -0.0536
  C  C474  1  0.159230  0.217540  0.212780  1.0  -0.0428
  C  C475  1  0.134690  0.176330  0.204560  1.0  -0.2913
  C  C476  1  0.083400  0.174650  0.185470  1.0  -0.0297
  C  C477  1  0.056640  0.214180  0.174590  1.0  -0.0446
  C  C478  1  0.060000  0.962200  0.147300  1.0  0.6292
  C  C479  1  0.079910  0.001610  0.164700  1.0  -0.0399
  C  C480  1  0.088380  0.005600  0.201410  1.0  -0.0448
  C  C481  1  0.114400  0.043100  0.217400  1.0  -0.0217
  C  C482  1  0.132020  0.076610  0.196700  1.0  -0.3226
  C  C483  1  0.123600  0.072600  0.160010  1.0  -0.0632
  C  C484  1  0.097500  0.035100  0.144030  1.0  -0.0926
  C  C485  1  0.414100  0.994800  0.856690  1.0  0.7162
  C  C486  1  0.386750  0.035460  0.870810  1.0  -0.1404
  C  C487  1  0.336730  0.031060  0.880930  1.0  -0.0472
  C  C488  1  0.312130  0.068120  0.893470  1.0  -0.0465
  C  C489  1  0.337540  0.109590  0.895890  1.0  -0.3402
  C  C490  1  0.387570  0.114000  0.885760  1.0  -0.0785
  C  C491  1  0.412170  0.076940  0.873220  1.0  -0.0401
  C  C492  1  0.069400  0.131200  0.889400  1.0  0.7248
  C  C493  1  0.124510  0.139420  0.897650  1.0  -0.0987
  C  C494  1  0.153600  0.120080  0.927720  1.0  -0.0759
  C  C495  1  0.208600  0.125810  0.934970  1.0  -0.0415
  C  C496  1  0.234490  0.150880  0.912130  1.0  -0.2678
  C  C497  1  0.205400  0.170230  0.882060  1.0  -0.0483
  C  C498  1  0.150400  0.164500  0.874810  1.0  -0.101
  C  C499  1  0.415100  0.327800  0.882200  1.0  0.7167
  C  C500  1  0.382070  0.287700  0.889420  1.0  -0.1452
  C  C501  1  0.362100  0.257100  0.863180  1.0  -0.0379
  C  C502  1  0.338050  0.217740  0.872120  1.0  -0.0465
  C  C503  1  0.333940  0.208910  0.907300  1.0  -0.3284
  C  C504  1  0.353900  0.239500  0.933540  1.0  -0.048
  C  C505  1  0.377960  0.278860  0.924600  1.0  -0.0537
  C  C506  1  0.442820  0.148600  0.067400  1.0  0.3622
  C  C507  1  0.399000  0.150400  0.035760  1.0  -0.093
  C  C508  1  0.420490  0.133920  0.007010  1.0  -0.1542
  C  C509  1  0.389700  0.133110  0.973560  1.0  -0.0889
  C  C510  1  0.337500  0.148770  0.968870  1.0  -0.187
  C  C511  1  0.316040  0.165250  0.997620  1.0  -0.0487
  C  C512  1  0.346800  0.166060  0.031070  1.0  -0.08
  C  C513  1  0.162200  0.003630  0.438870  1.0  0.7091
  C  C514  1  0.135840  0.960120  0.427420  1.0  -0.1669
  C  C515  1  0.080560  0.958210  0.424190  1.0  -0.0388
  C  C516  1  0.053970  0.918210  0.414570  1.0  -0.0435
  C  C517  1  0.082660  0.880130  0.408190  1.0  -0.3354
  C  C518  1  0.137940  0.882040  0.411420  1.0  -0.0542
  C  C519  1  0.164530  0.922040  0.421030  1.0  -0.0505
  C  C520  1  0.020500  0.824900  0.230000  1.0  0.6846
  C  C521  1  0.028340  0.821700  0.270200  1.0  -0.1576
  C  C522  1  0.049470  0.859440  0.288700  1.0  -0.079
  C  C523  1  0.055950  0.860030  0.325480  1.0  -0.0462
  C  C524  1  0.041290  0.822900  0.343780  1.0  -0.3362
  C  C525  1  0.020150  0.785170  0.325280  1.0  -0.0443
  C  C526  1  0.013670  0.784570  0.288490  1.0  -0.0723
  C  C527  1  0.187300  0.682900  0.476200  1.0  0.727
  C  C528  1  0.149910  0.716270  0.457160  1.0  -0.1471
  C  C529  1  0.132650  0.709360  0.421230  1.0  -0.0662
  C  C530  1  0.101880  0.741770  0.401370  1.0  -0.0621
  C  C531  1  0.088370  0.781080  0.417450  1.0  -0.2788
  C  C532  1  0.105640  0.787990  0.453380  1.0  -0.0706
  C  C533  1  0.136410  0.755580  0.473240  1.0  -0.074
  C  C534  1  0.822940  0.861700  0.429100  1.0  0.616
  C  C535  1  0.879960  0.853360  0.424120  1.0  -0.1276
  C  C536  1  0.922900  0.848120  0.451220  1.0  -0.0661
  C  C537  1  0.972810  0.836660  0.443280  1.0  -0.0464
  C  C538  1  0.979750  0.830450  0.408240  1.0  -0.1923
  C  C539  1  0.936800  0.835690  0.381150  1.0  -0.0277
  C  C540  1  0.886890  0.847140  0.389080  1.0  -0.0541
  C  C541  1  0.795700  0.475270  0.527280  1.0  0.7399
  C  C542  1  0.824940  0.510300  0.550160  1.0  -0.1587
  C  C543  1  0.833970  0.506440  0.586850  1.0  -0.0379
  C  C544  1  0.866060  0.537580  0.607240  1.0  -0.0292
  C  C545  1  0.889120  0.572580  0.590930  1.0  -0.3597
  C  C546  1  0.880090  0.576440  0.554240  1.0  -0.0542
  C  C547  1  0.848000  0.545300  0.533850  1.0  -0.053
  C  C548  1  0.156300  0.603760  0.571780  1.0  0.6512
  C  C549  1  0.104550  0.604940  0.586130  1.0  -0.1382
  C  C550  1  0.067020  0.571820  0.575110  1.0  -0.0518
  C  C551  1  0.016610  0.574070  0.584920  1.0  -0.018
  C  C552  1  0.003720  0.609430  0.605750  1.0  -0.3767
  C  C553  1  0.041250  0.642550  0.616780  1.0  -0.0597
  C  C554  1  0.091670  0.640300  0.606960  1.0  -0.0607
  C  C555  1  0.832300  0.796510  0.569130  1.0  0.6965
  C  C556  1  0.857850  0.752600  0.582670  1.0  -0.1449
  C  C557  1  0.910190  0.744110  0.578080  1.0  -0.0506
  C  C558  1  0.934050  0.703430  0.589080  1.0  -0.0529
  C  C559  1  0.905560  0.671240  0.604680  1.0  -0.3295
  C  C560  1  0.853220  0.679730  0.609270  1.0  -0.0568
  C  C561  1  0.829360  0.720410  0.598260  1.0  -0.0659
  C  C562  1  0.953270  0.567910  0.775470  1.0  0.7011
  C  C563  1  0.946230  0.581200  0.736970  1.0  -0.125
  C  C564  1  0.908170  0.612030  0.721940  1.0  -0.0559
  C  C565  1  0.903890  0.622720  0.686200  1.0  -0.0425
  C  C566  1  0.937670  0.602600  0.665510  1.0  -0.308
  C  C567  1  0.975720  0.571780  0.680540  1.0  -0.0357
  C  C568  1  0.980000  0.561080  0.716270  1.0  -0.0618
  C  C569  1  0.891100  0.392100  0.173260  1.0  0.706
  C  C570  1  0.840890  0.388470  0.184480  1.0  -0.0602
  C  C571  1  0.806410  0.425010  0.180570  1.0  -0.1004
  C  C572  1  0.756560  0.421740  0.191130  1.0  -0.0232
  C  C573  1  0.741210  0.381920  0.205610  1.0  -0.2985
  C  C574  1  0.775690  0.345380  0.209530  1.0  -0.0319
  C  C575  1  0.825540  0.348650  0.198960  1.0  -0.1075
  C  C576  1  0.689600  0.401900  0.378960  1.0  0.6875
  C  C577  1  0.685450  0.395220  0.341870  1.0  -0.0741
  C  C578  1  0.641460  0.373610  0.322920  1.0  -0.0531
  C  C579  1  0.638310  0.367150  0.286630  1.0  -0.027
  C  C580  1  0.679150  0.382310  0.269290  1.0  -0.3277
  C  C581  1  0.723140  0.403930  0.288240  1.0  -0.0326
  C  C582  1  0.726290  0.410380  0.324530  1.0  -0.0763
  C  C583  1  0.551400  0.202160  0.170790  1.0  0.6739
  C  C584  1  0.581180  0.244610  0.182800  1.0  -0.1357
  C  C585  1  0.632480  0.242930  0.201900  1.0  -0.0548
  C  C586  1  0.659230  0.282460  0.212780  1.0  -0.042
  C  C587  1  0.634690  0.323670  0.204560  1.0  -0.2904
  C  C588  1  0.583400  0.325350  0.185470  1.0  -0.031
  C  C589  1  0.556640  0.285820  0.174590  1.0  -0.0444
  C  C590  1  0.560000  0.537800  0.147300  1.0  0.6289
  C  C591  1  0.579910  0.498390  0.164700  1.0  -0.0399
  C  C592  1  0.588380  0.494400  0.201410  1.0  -0.0445
  C  C593  1  0.614400  0.456900  0.217400  1.0  -0.0205
  C  C594  1  0.632020  0.423390  0.196700  1.0  -0.3227
  C  C595  1  0.623600  0.427400  0.160010  1.0  -0.0631
  C  C596  1  0.597500  0.464900  0.144030  1.0  -0.0927
  C  C597  1  0.914100  0.505200  0.856690  1.0  0.7162
  C  C598  1  0.886750  0.464540  0.870810  1.0  -0.1386
  C  C599  1  0.836730  0.468940  0.880930  1.0  -0.0469
  C  C600  1  0.812130  0.431880  0.893470  1.0  -0.047
  C  C601  1  0.837540  0.390410  0.895890  1.0  -0.3404
  C  C602  1  0.887570  0.386000  0.885760  1.0  -0.0781
  C  C603  1  0.912170  0.423060  0.873220  1.0  -0.0401
  C  C604  1  0.569400  0.368800  0.889400  1.0  0.7247
  C  C605  1  0.624510  0.360580  0.897650  1.0  -0.0986
  C  C606  1  0.653600  0.379920  0.927720  1.0  -0.0759
  C  C607  1  0.708600  0.374190  0.934970  1.0  -0.0413
  C  C608  1  0.734490  0.349120  0.912130  1.0  -0.2676
  C  C609  1  0.705400  0.329770  0.882060  1.0  -0.048
  C  C610  1  0.650400  0.335500  0.874810  1.0  -0.1011
  C  C611  1  0.915100  0.172200  0.882200  1.0  0.7167
  C  C612  1  0.882070  0.212300  0.889420  1.0  -0.1449
  C  C613  1  0.862100  0.242900  0.863180  1.0  -0.0368
  C  C614  1  0.838050  0.282260  0.872120  1.0  -0.0462
  C  C615  1  0.833940  0.291090  0.907300  1.0  -0.3297
  C  C616  1  0.853900  0.260500  0.933540  1.0  -0.0483
  C  C617  1  0.877960  0.221140  0.924600  1.0  -0.054
  C  C618  1  0.942820  0.351400  0.067400  1.0  0.3623
  C  C619  1  0.899000  0.349600  0.035760  1.0  -0.093
  C  C620  1  0.920490  0.366080  0.007010  1.0  -0.1542
  C  C621  1  0.889700  0.366890  0.973560  1.0  -0.0888
  C  C622  1  0.837500  0.351230  0.968870  1.0  -0.1861
  C  C623  1  0.816040  0.334750  0.997620  1.0  -0.048
  C  C624  1  0.846800  0.333940  0.031070  1.0  -0.0791
  C  C625  1  0.662200  0.496370  0.438870  1.0  0.7085
  C  C626  1  0.635840  0.539880  0.427420  1.0  -0.1672
  C  C627  1  0.580560  0.541790  0.424190  1.0  -0.0396
  C  C628  1  0.553970  0.581790  0.414570  1.0  -0.0434
  C  C629  1  0.582660  0.619870  0.408190  1.0  -0.334
  C  C630  1  0.637940  0.617960  0.411420  1.0  -0.0544
  C  C631  1  0.664530  0.577960  0.421030  1.0  -0.0506
  C  C632  1  0.520500  0.675100  0.230000  1.0  0.6848
  C  C633  1  0.528340  0.678300  0.270200  1.0  -0.1577
  C  C634  1  0.549470  0.640560  0.288700  1.0  -0.08
  C  C635  1  0.555950  0.639970  0.325480  1.0  -0.0452
  C  C636  1  0.541290  0.677100  0.343780  1.0  -0.3363
  C  C637  1  0.520150  0.714830  0.325280  1.0  -0.0453
  C  C638  1  0.513670  0.715430  0.288490  1.0  -0.0712
  C  C639  1  0.687300  0.817100  0.476200  1.0  0.7273
  C  C640  1  0.649910  0.783730  0.457160  1.0  -0.1473
  C  C641  1  0.632650  0.790640  0.421230  1.0  -0.0662
  C  C642  1  0.601880  0.758230  0.401370  1.0  -0.064
  C  C643  1  0.588370  0.718920  0.417450  1.0  -0.2786
  C  C644  1  0.605640  0.712010  0.453380  1.0  -0.0698
  C  C645  1  0.636410  0.744420  0.473240  1.0  -0.0742
  C  C646  1  0.322940  0.638300  0.429100  1.0  0.6163
  C  C647  1  0.379960  0.646640  0.424120  1.0  -0.1281
  C  C648  1  0.422900  0.651880  0.451220  1.0  -0.066
  C  C649  1  0.472810  0.663340  0.443280  1.0  -0.0466
  C  C650  1  0.479750  0.669550  0.408240  1.0  -0.192
  C  C651  1  0.436800  0.664310  0.381150  1.0  -0.0277
  C  C652  1  0.386890  0.652860  0.389080  1.0  -0.0541
  C  C653  1  0.704300  0.975270  0.472720  1.0  0.7403
  C  C654  1  0.675060  0.010300  0.449840  1.0  -0.1579
  C  C655  1  0.666030  0.006440  0.413150  1.0  -0.0388
  C  C656  1  0.633940  0.037580  0.392760  1.0  -0.0301
  C  C657  1  0.610880  0.072580  0.409070  1.0  -0.3611
  C  C658  1  0.619910  0.076440  0.445760  1.0  -0.0552
  C  C659  1  0.652000  0.045300  0.466150  1.0  -0.0545
  C  C660  1  0.343700  0.103760  0.428220  1.0  0.6517
  C  C661  1  0.395450  0.104940  0.413870  1.0  -0.1374
  C  C662  1  0.432980  0.071820  0.424890  1.0  -0.0505
  C  C663  1  0.483390  0.074070  0.415080  1.0  -0.0177
  C  C664  1  0.496280  0.109430  0.394250  1.0  -0.3779
  C  C665  1  0.458750  0.142550  0.383220  1.0  -0.0665
  C  C666  1  0.408330  0.140300  0.393040  1.0  -0.0623
  C  C667  1  0.667700  0.296510  0.430870  1.0  0.6966
  C  C668  1  0.642150  0.252600  0.417330  1.0  -0.1448
  C  C669  1  0.589810  0.244110  0.421920  1.0  -0.0512
  C  C670  1  0.565950  0.203430  0.410920  1.0  -0.0549
  C  C671  1  0.594440  0.171240  0.395320  1.0  -0.329
  C  C672  1  0.646780  0.179730  0.390730  1.0  -0.0572
  C  C673  1  0.670640  0.220410  0.401740  1.0  -0.0639
  C  C674  1  0.546730  0.067910  0.224530  1.0  0.7005
  C  C675  1  0.553770  0.081200  0.263030  1.0  -0.1253
  C  C676  1  0.591830  0.112030  0.278060  1.0  -0.0549
  C  C677  1  0.596110  0.122720  0.313800  1.0  -0.041
  C  C678  1  0.562330  0.102600  0.334490  1.0  -0.3091
  C  C679  1  0.524280  0.071780  0.319460  1.0  -0.0342
  C  C680  1  0.520000  0.061080  0.283730  1.0  -0.0621
  C  C681  1  0.608900  0.892100  0.826740  1.0  0.7041
  C  C682  1  0.659110  0.888470  0.815520  1.0  -0.0597
  C  C683  1  0.693590  0.925010  0.819430  1.0  -0.1013
  C  C684  1  0.743440  0.921740  0.808870  1.0  -0.0242
  C  C685  1  0.758790  0.881920  0.794390  1.0  -0.2964
  C  C686  1  0.724310  0.845380  0.790470  1.0  -0.0312
  C  C687  1  0.674460  0.848650  0.801040  1.0  -0.1071
  C  C688  1  0.810400  0.901900  0.621040  1.0  0.6881
  C  C689  1  0.814550  0.895220  0.658130  1.0  -0.0744
  C  C690  1  0.858540  0.873610  0.677080  1.0  -0.0517
  C  C691  1  0.861690  0.867150  0.713370  1.0  -0.0264
  C  C692  1  0.820850  0.882310  0.730710  1.0  -0.3303
  C  C693  1  0.776860  0.903930  0.711760  1.0  -0.0335
  C  C694  1  0.773710  0.910380  0.675470  1.0  -0.0776
  C  C695  1  0.948600  0.702160  0.829210  1.0  0.6741
  C  C696  1  0.918820  0.744610  0.817200  1.0  -0.135
  C  C697  1  0.867520  0.742930  0.798100  1.0  -0.0548
  C  C698  1  0.840770  0.782460  0.787220  1.0  -0.0426
  C  C699  1  0.865310  0.823670  0.795440  1.0  -0.2913
  C  C700  1  0.916600  0.825350  0.814530  1.0  -0.0302
  C  C701  1  0.943360  0.785820  0.825410  1.0  -0.0411
  C  C702  1  0.940000  0.037800  0.852700  1.0  0.6291
  C  C703  1  0.920090  0.998390  0.835300  1.0  -0.0403
  C  C704  1  0.911620  0.994400  0.798590  1.0  -0.0459
  C  C705  1  0.885600  0.956900  0.782600  1.0  -0.0203
  C  C706  1  0.867980  0.923390  0.803300  1.0  -0.3228
  C  C707  1  0.876400  0.927400  0.839990  1.0  -0.0631
  C  C708  1  0.902500  0.964900  0.855970  1.0  -0.0957
  C  C709  1  0.585900  0.005200  0.143310  1.0  0.7179
  C  C710  1  0.613250  0.964540  0.129190  1.0  -0.1393
  C  C711  1  0.663270  0.968940  0.119070  1.0  -0.0461
  C  C712  1  0.687870  0.931880  0.106530  1.0  -0.0447
  C  C713  1  0.662460  0.890410  0.104110  1.0  -0.3408
  C  C714  1  0.612430  0.886000  0.114240  1.0  -0.0787
  C  C715  1  0.587830  0.923060  0.126780  1.0  -0.0408
  C  C716  1  0.930600  0.868800  0.110600  1.0  0.7255
  C  C717  1  0.875490  0.860580  0.102350  1.0  -0.0986
  C  C718  1  0.846400  0.879920  0.072280  1.0  -0.0746
  C  C719  1  0.791400  0.874190  0.065030  1.0  -0.0404
  C  C720  1  0.765510  0.849120  0.087870  1.0  -0.2704
  C  C721  1  0.794600  0.829770  0.117940  1.0  -0.0472
  C  C722  1  0.849600  0.835500  0.125190  1.0  -0.1
  C  C723  1  0.584900  0.672200  0.117800  1.0  0.7169
  C  C724  1  0.617930  0.712300  0.110580  1.0  -0.1458
  C  C725  1  0.637900  0.742900  0.136820  1.0  -0.0379
  C  C726  1  0.661950  0.782260  0.127880  1.0  -0.0457
  C  C727  1  0.666060  0.791090  0.092700  1.0  -0.33
  C  C728  1  0.646100  0.760500  0.066460  1.0  -0.0478
  C  C729  1  0.622040  0.721140  0.075400  1.0  -0.0564
  C  C730  1  0.557180  0.851400  0.932600  1.0  0.3622
  C  C731  1  0.601000  0.849600  0.964240  1.0  -0.0933
  C  C732  1  0.579510  0.866080  0.992990  1.0  -0.1563
  C  C733  1  0.610300  0.866890  0.026440  1.0  -0.0869
  C  C734  1  0.662500  0.851230  0.031130  1.0  -0.1842
  C  C735  1  0.683960  0.834750  0.002380  1.0  -0.0493
  C  C736  1  0.653200  0.833940  0.968930  1.0  -0.0771
  C  C737  1  0.837800  0.996370  0.561130  1.0  0.7081
  C  C738  1  0.864160  0.039880  0.572580  1.0  -0.1681
  C  C739  1  0.919440  0.041790  0.575810  1.0  -0.0395
  C  C740  1  0.946030  0.081790  0.585430  1.0  -0.0435
  C  C741  1  0.917340  0.119870  0.591810  1.0  -0.3337
  C  C742  1  0.862060  0.117960  0.588580  1.0  -0.0536
  C  C743  1  0.835470  0.077960  0.578970  1.0  -0.052
  C  C744  1  0.979500  0.175100  0.770000  1.0  0.6853
  C  C745  1  0.971660  0.178300  0.729800  1.0  -0.1582
  C  C746  1  0.950530  0.140560  0.711300  1.0  -0.0804
  C  C747  1  0.944050  0.139970  0.674520  1.0  -0.046
  C  C748  1  0.958710  0.177100  0.656220  1.0  -0.3343
  C  C749  1  0.979850  0.214830  0.674720  1.0  -0.0441
  C  C750  1  0.986330  0.215430  0.711510  1.0  -0.0699
  C  C751  1  0.812700  0.317100  0.523800  1.0  0.7285
  C  C752  1  0.850090  0.283730  0.542840  1.0  -0.1468
  C  C753  1  0.867350  0.290640  0.578770  1.0  -0.0654
  C  C754  1  0.898120  0.258230  0.598630  1.0  -0.0629
  C  C755  1  0.911630  0.218920  0.582550  1.0  -0.2784
  C  C756  1  0.894360  0.212010  0.546620  1.0  -0.0693
  C  C757  1  0.863590  0.244420  0.526760  1.0  -0.0728
  C  C758  1  0.177060  0.138300  0.570900  1.0  0.6161
  C  C759  1  0.120040  0.146640  0.575880  1.0  -0.1273
  C  C760  1  0.077100  0.151880  0.548780  1.0  -0.0643
  C  C761  1  0.027190  0.163340  0.556720  1.0  -0.0471
  C  C762  1  0.020250  0.169550  0.591760  1.0  -0.1956
  C  C763  1  0.063200  0.164310  0.618850  1.0  -0.0293
  C  C764  1  0.113110  0.152860  0.610920  1.0  -0.0523
  O  O765  1  0.274860  0.606750  0.530110  1.0  -1.22
  O  O766  1  0.232060  0.551200  0.456420  1.0  -0.6004
  O  O767  1  0.205110  0.523930  0.505050  1.0  -0.6061
  O  O768  1  0.008890  0.405470  0.136870  1.0  -0.8791
  O  O769  1  0.826900  0.432660  0.439060  1.0  -0.5833
  O  O770  1  0.818760  0.357950  0.426610  1.0  -0.5793
  O  O771  1  0.142640  0.177440  0.445940  1.0  -0.6013
  O  O772  1  0.214640  0.200230  0.424080  1.0  -0.59
  O  O773  1  0.002910  0.450800  0.210960  1.0  -0.5928
  O  O774  1  0.082650  0.417850  0.207370  1.0  -0.6152
  O  O775  1  0.096430  0.570730  0.839390  1.0  -0.6541
  O  O776  1  0.079540  0.641590  0.824190  1.0  -0.5762
  O  O777  1  0.349660  0.608350  0.604890  1.0  -0.6177
  O  O778  1  0.271800  0.578330  0.604560  1.0  -0.6188
  O  O779  1  0.426080  0.834150  0.817150  1.0  -0.6445
  O  O780  1  0.493910  0.794390  0.848670  1.0  -0.5669
  O  O781  1  0.445700  0.455960  0.883590  1.0  -0.5883
  O  O782  1  0.456700  0.430850  0.833400  1.0  -0.6794
  O  O783  1  0.109930  0.457620  0.141460  1.0  -0.6394
  O  O784  1  0.040430  0.500950  0.147470  1.0  -0.5908
  O  O785  1  0.454920  0.645660  0.140150  1.0  -0.6311
  O  O786  1  0.456400  0.610000  0.091770  1.0  -0.6531
  O  O787  1  0.060400  0.852560  0.093580  1.0  -0.6451
  O  O788  1  0.082300  0.832800  0.150500  1.0  -0.5894
  O  O789  1  0.078000  0.657250  0.905000  1.0  -0.5861
  O  O790  1  0.006690  0.655770  0.924880  1.0  -0.5026
  O  O791  1  0.360640  0.535740  0.554160  1.0  -0.6321
  O  O792  1  0.285620  0.501750  0.562340  1.0  -0.5649
  O  O793  1  0.467600  0.358840  0.783320  1.0  -0.5696
  O  O794  1  0.494400  0.289130  0.785540  1.0  -0.4739
  O  O795  1  0.298670  0.192260  0.491350  1.0  -0.637
  O  O796  1  0.298910  0.148680  0.536970  1.0  -0.567
  O  O797  1  0.717120  0.367960  0.595710  1.0  -0.5154
  O  O798  1  0.677140  0.372670  0.538700  1.0  -0.5949
  O  O799  1  0.225140  0.106750  0.469890  1.0  -1.22
  O  O800  1  0.267940  0.051200  0.543580  1.0  -0.5996
  O  O801  1  0.294890  0.023930  0.494950  1.0  -0.605
  O  O802  1  0.491110  0.905470  0.863130  1.0  -0.8794
  O  O803  1  0.673100  0.932660  0.560940  1.0  -0.5846
  O  O804  1  0.681240  0.857950  0.573390  1.0  -0.5789
  O  O805  1  0.357360  0.677440  0.554060  1.0  -0.6007
  O  O806  1  0.285360  0.700230  0.575920  1.0  -0.5892
  O  O807  1  0.497090  0.950800  0.789040  1.0  -0.5929
  O  O808  1  0.417350  0.917850  0.792630  1.0  -0.6189
  O  O809  1  0.403570  0.070730  0.160610  1.0  -0.6548
  O  O810  1  0.420460  0.141590  0.175810  1.0  -0.5785
  O  O811  1  0.150340  0.108350  0.395110  1.0  -0.616
  O  O812  1  0.228200  0.078330  0.395440  1.0  -0.6188
  O  O813  1  0.073920  0.334150  0.182850  1.0  -0.6431
  O  O814  1  0.006090  0.294390  0.151330  1.0  -0.5655
  O  O815  1  0.054300  0.955960  0.116410  1.0  -0.588
  O  O816  1  0.043300  0.930850  0.166600  1.0  -0.6795
  O  O817  1  0.390070  0.957620  0.858540  1.0  -0.639
  O  O818  1  0.459570  0.000950  0.852530  1.0  -0.5903
  O  O819  1  0.045080  0.145660  0.859850  1.0  -0.6295
  O  O820  1  0.043600  0.110000  0.908230  1.0  -0.6516
  O  O821  1  0.439600  0.352560  0.906420  1.0  -0.6474
  O  O822  1  0.417700  0.332800  0.849500  1.0  -0.5906
  O  O823  1  0.422000  0.157250  0.095000  1.0  -0.5874
  O  O824  1  0.493310  0.155770  0.075120  1.0  -0.5128
  O  O825  1  0.139360  0.035740  0.445840  1.0  -0.6305
  O  O826  1  0.214380  0.001750  0.437660  1.0  -0.5647
  O  O827  1  0.032400  0.858840  0.216680  1.0  -0.5687
  O  O828  1  0.005600  0.789130  0.214460  1.0  -0.4746
  O  O829  1  0.201330  0.692260  0.508650  1.0  -0.638
  O  O830  1  0.201090  0.648680  0.463030  1.0  -0.5671
  O  O831  1  0.782880  0.867960  0.404290  1.0  -0.5167
  O  O832  1  0.822860  0.872670  0.461300  1.0  -0.5973
  O  O833  1  0.725140  0.393250  0.469890  1.0  -1.22
  O  O834  1  0.767940  0.448800  0.543580  1.0  -0.5991
  O  O835  1  0.794890  0.476070  0.494950  1.0  -0.6057
  O  O836  1  0.991110  0.594530  0.863130  1.0  -0.8793
  O  O837  1  0.173100  0.567340  0.560940  1.0  -0.5835
  O  O838  1  0.181240  0.642050  0.573390  1.0  -0.577
  O  O839  1  0.857360  0.822560  0.554060  1.0  -0.6007
  O  O840  1  0.785360  0.799770  0.575920  1.0  -0.5875
  O  O841  1  0.997090  0.549200  0.789040  1.0  -0.5925
  O  O842  1  0.917350  0.582150  0.792630  1.0  -0.618
  O  O843  1  0.903570  0.429270  0.160610  1.0  -0.6565
  O  O844  1  0.920460  0.358410  0.175810  1.0  -0.5782
  O  O845  1  0.650340  0.391650  0.395110  1.0  -0.6179
  O  O846  1  0.728200  0.421670  0.395440  1.0  -0.619
  O  O847  1  0.573920  0.165850  0.182850  1.0  -0.6424
  O  O848  1  0.506090  0.205610  0.151330  1.0  -0.5668
  O  O849  1  0.554300  0.544040  0.116410  1.0  -0.5872
  O  O850  1  0.543300  0.569150  0.166600  1.0  -0.6792
  O  O851  1  0.890070  0.542380  0.858540  1.0  -0.6397
  O  O852  1  0.959570  0.499050  0.852530  1.0  -0.5919
  O  O853  1  0.545080  0.354340  0.859850  1.0  -0.6294
  O  O854  1  0.543600  0.390000  0.908230  1.0  -0.6542
  O  O855  1  0.939600  0.147440  0.906420  1.0  -0.6473
  O  O856  1  0.917700  0.167200  0.849500  1.0  -0.5904
  O  O857  1  0.922000  0.342750  0.095000  1.0  -0.5868
  O  O858  1  0.993310  0.344230  0.075120  1.0  -0.5042
  O  O859  1  0.639360  0.464260  0.445840  1.0  -0.6303
  O  O860  1  0.714380  0.498250  0.437660  1.0  -0.564
  O  O861  1  0.532400  0.641160  0.216680  1.0  -0.5669
  O  O862  1  0.505600  0.710870  0.214460  1.0  -0.4738
  O  O863  1  0.701330  0.807740  0.508650  1.0  -0.6371
  O  O864  1  0.701090  0.851320  0.463030  1.0  -0.5676
  O  O865  1  0.282880  0.632040  0.404290  1.0  -0.5164
  O  O866  1  0.322860  0.627330  0.461300  1.0  -0.5971
  O  O867  1  0.774860  0.893250  0.530110  1.0  -1.2201
  O  O868  1  0.732060  0.948800  0.456420  1.0  -0.6003
  O  O869  1  0.705110  0.976070  0.505050  1.0  -0.6067
  O  O870  1  0.508890  0.094530  0.136870  1.0  -0.8794
  O  O871  1  0.326900  0.067340  0.439060  1.0  -0.5834
  O  O872  1  0.318760  0.142050  0.426610  1.0  -0.5783
  O  O873  1  0.642640  0.322560  0.445940  1.0  -0.6014
  O  O874  1  0.714640  0.299770  0.424080  1.0  -0.5888
  O  O875  1  0.502910  0.049200  0.210960  1.0  -0.5927
  O  O876  1  0.582650  0.082150  0.207370  1.0  -0.6153
  O  O877  1  0.596430  0.929270  0.839390  1.0  -0.6535
  O  O878  1  0.579540  0.858410  0.824190  1.0  -0.5771
  O  O879  1  0.849660  0.891650  0.604890  1.0  -0.6162
  O  O880  1  0.771800  0.921670  0.604560  1.0  -0.6191
  O  O881  1  0.926080  0.665850  0.817150  1.0  -0.6441
  O  O882  1  0.993910  0.705610  0.848670  1.0  -0.5666
  O  O883  1  0.945700  0.044040  0.883590  1.0  -0.5884
  O  O884  1  0.956700  0.069150  0.833400  1.0  -0.6787
  O  O885  1  0.609930  0.042380  0.141460  1.0  -0.6399
  O  O886  1  0.540430  0.999050  0.147470  1.0  -0.5922
  O  O887  1  0.954920  0.854340  0.140150  1.0  -0.631
  O  O888  1  0.956400  0.890000  0.091770  1.0  -0.6564
  O  O889  1  0.560400  0.647440  0.093580  1.0  -0.6448
  O  O890  1  0.582300  0.667200  0.150500  1.0  -0.5894
  O  O891  1  0.578000  0.842750  0.905000  1.0  -0.5859
  O  O892  1  0.506690  0.844230  0.924880  1.0  -0.5085
  O  O893  1  0.860640  0.964260  0.554160  1.0  -0.6314
  O  O894  1  0.785620  0.998250  0.562340  1.0  -0.5648
  O  O895  1  0.967600  0.141160  0.783320  1.0  -0.5676
  O  O896  1  0.994400  0.210870  0.785540  1.0  -0.4731
  O  O897  1  0.798670  0.307740  0.491350  1.0  -0.6369
  O  O898  1  0.798910  0.351320  0.536970  1.0  -0.5662
  O  O899  1  0.217120  0.132040  0.595710  1.0  -0.5161
  O  O900  1  0.177140  0.127330  0.538700  1.0  -0.5955
