# generated using pymatgen
data_CoH24C22(N4O3)2
_symmetry_space_group_name_H-M   'P 1'
_cell_length_a   12.57640000
_cell_length_b   12.57640000
_cell_length_c   62.94100000
_cell_angle_alpha   90.00000000
_cell_angle_beta   90.00000000
_cell_angle_gamma   120.00000000
_symmetry_Int_Tables_number   1
_chemical_formula_structural   CoH24C22(N4O3)2
_chemical_formula_sum   'Co12 H288 C264 N96 O72'
_cell_volume   8621.38330521
_cell_formula_units_Z   12
loop_
 _symmetry_equiv_pos_site_id
 _symmetry_equiv_pos_as_xyz
  1  'x, y, z'
loop_
 _atom_site_type_symbol
 _atom_site_label
 _atom_site_symmetry_multiplicity
 _atom_site_fract_x
 _atom_site_fract_y
 _atom_site_fract_z
 _atom_site_occupancy
 _atom_site_charge
  Co  Co1  1  0.594250  0.188500  0.416670  1.0  0.9196
  Co  Co2  1  0.594250  0.405750  0.750000  1.0  0.9251
  Co  Co3  1  0.811500  0.405750  0.083330  1.0  0.9251
  Co  Co4  1  0.405750  0.811500  0.916670  1.0  0.9208
  Co  Co5  1  0.405750  0.594250  0.250000  1.0  0.9248
  Co  Co6  1  0.188500  0.594250  0.583330  1.0  0.9265
  Co  Co7  1  0.696380  0.348190  0.583330  1.0  0.7976
  Co  Co8  1  0.651810  0.303620  0.916670  1.0  0.7914
  Co  Co9  1  0.651810  0.348190  0.250000  1.0  0.7985
  Co  Co10  1  0.303620  0.651810  0.083330  1.0  0.799
  Co  Co11  1  0.348190  0.696380  0.416670  1.0  0.7848
  Co  Co12  1  0.348190  0.651810  0.750000  1.0  0.7989
  H  H13  1  0.978000  0.180000  0.434300  1.0  0.1294
  H  H14  1  0.977700  0.301700  0.439500  1.0  0.155
  H  H15  1  0.903600  0.613600  0.520400  1.0  0.1176
  H  H16  1  0.015000  0.622400  0.533100  1.0  0.1247
  H  H17  1  0.942600  0.730500  0.471800  1.0  0.102
  H  H18  1  0.001200  0.793300  0.450100  1.0  0.1294
  H  H19  1  0.590900  0.433800  0.418200  1.0  0.0703
  H  H20  1  0.624800  0.588000  0.441900  1.0  0.1093
  H  H21  1  0.662000  0.392100  0.488100  1.0  0.1054
  H  H22  1  0.627300  0.244200  0.464000  1.0  0.087
  H  H23  1  0.690200  0.681900  0.475800  1.0  0.0941
  H  H24  1  0.753500  0.630900  0.490800  1.0  0.1
  H  H25  1  0.560000  0.501400  0.507300  1.0  0.0741
  H  H26  1  0.628800  0.373300  0.629400  1.0  0.0718
  H  H27  1  0.471300  0.282700  0.652500  1.0  0.115
  H  H28  1  0.299500  0.002700  0.611500  1.0  0.1213
  H  H29  1  0.463700  0.101800  0.589400  1.0  0.0694
  H  H30  1  0.239500  0.125500  0.657200  1.0  0.0825
  H  H31  1  0.183200  0.008400  0.642600  1.0  0.0805
  H  H32  1  0.304100  0.942300  0.659400  1.0  0.0734
  H  H33  1  0.903200  0.179700  0.471400  1.0  0.2555
  H  H34  1  0.889700  0.393500  0.527200  1.0  0.2929
  H  H35  1  0.974200  0.615100  0.439300  1.0  0.1621
  H  H36  1  0.214500  0.907700  0.492500  1.0  0.4051
  H  H37  1  0.202000  0.022000  0.767630  1.0  0.1301
  H  H38  1  0.324000  0.022300  0.772830  1.0  0.1519
  H  H39  1  0.710000  0.096400  0.853730  1.0  0.1195
  H  H40  1  0.607400  0.985000  0.866430  1.0  0.1284
  H  H41  1  0.787900  0.057400  0.805130  1.0  0.1034
  H  H42  1  0.792100  0.998800  0.783430  1.0  0.1301
  H  H43  1  0.842900  0.409100  0.751530  1.0  0.0694
  H  H44  1  0.963200  0.375200  0.775230  1.0  0.1073
  H  H45  1  0.730100  0.338000  0.821430  1.0  0.1055
  H  H46  1  0.616900  0.372700  0.797330  1.0  0.0854
  H  H47  1  0.991700  0.309800  0.809130  1.0  0.0938
  H  H48  1  0.877400  0.246500  0.824130  1.0  0.1013
  H  H49  1  0.941400  0.440000  0.840630  1.0  0.0745
  H  H50  1  0.744500  0.371200  0.962730  1.0  0.0717
  H  H51  1  0.811400  0.528700  0.985830  1.0  0.1147
  H  H52  1  0.703200  0.700500  0.944830  1.0  0.1219
  H  H53  1  0.638100  0.536300  0.922730  1.0  0.0697
  H  H54  1  0.886000  0.760500  0.990530  1.0  0.0786
  H  H55  1  0.825200  0.816800  0.975930  1.0  0.0808
  H  H56  1  0.638200  0.695900  0.992730  1.0  0.0729
  H  H57  1  0.276500  0.096800  0.804730  1.0  0.2543
  H  H58  1  0.503800  0.110300  0.860530  1.0  0.2921
  H  H59  1  0.640900  0.025800  0.772630  1.0  0.1629
  H  H60  1  0.693200  0.785500  0.825830  1.0  0.4052
  H  H61  1  0.820000  0.798000  0.100970  1.0  0.1295
  H  H62  1  0.698300  0.676000  0.106170  1.0  0.1567
  H  H63  1  0.386400  0.290000  0.187070  1.0  0.118
  H  H64  1  0.377600  0.392600  0.199770  1.0  0.1245
  H  H65  1  0.269500  0.212100  0.138470  1.0  0.103
  H  H66  1  0.206700  0.207900  0.116770  1.0  0.1304
  H  H67  1  0.566200  0.157100  0.084870  1.0  0.0701
  H  H68  1  0.412000  0.036800  0.108570  1.0  0.1071
  H  H69  1  0.607900  0.269900  0.154770  1.0  0.1057
  H  H70  1  0.755800  0.383100  0.130670  1.0  0.0851
  H  H71  1  0.318100  0.008300  0.142470  1.0  0.0947
  H  H72  1  0.369100  0.122600  0.157470  1.0  0.1037
  H  H73  1  0.498600  0.058600  0.173970  1.0  0.0755
  H  H74  1  0.626700  0.255500  0.296070  1.0  0.0725
  H  H75  1  0.717300  0.188600  0.319170  1.0  0.1144
  H  H76  1  0.997300  0.296800  0.278170  1.0  0.1231
  H  H77  1  0.898200  0.361900  0.256070  1.0  0.069
  H  H78  1  0.874500  0.114000  0.323870  1.0  0.0819
  H  H79  1  0.991600  0.174800  0.309270  1.0  0.0785
  H  H80  1  0.057700  0.361800  0.326070  1.0  0.0744
  H  H81  1  0.820300  0.723500  0.138070  1.0  0.2531
  H  H82  1  0.606500  0.496200  0.193870  1.0  0.291
  H  H83  1  0.384900  0.359100  0.105970  1.0  0.1623
  H  H84  1  0.092300  0.306800  0.159170  1.0  0.4057
  H  H85  1  0.022000  0.820000  0.934300  1.0  0.1305
  H  H86  1  0.022300  0.698300  0.939500  1.0  0.1537
  H  H87  1  0.096400  0.386400  0.020400  1.0  0.118
  H  H88  1  0.985000  0.377600  0.033100  1.0  0.1256
  H  H89  1  0.057400  0.269500  0.971800  1.0  0.1024
  H  H90  1  0.998800  0.206700  0.950100  1.0  0.133
  H  H91  1  0.409100  0.566200  0.918200  1.0  0.07
  H  H92  1  0.375200  0.412000  0.941900  1.0  0.1081
  H  H93  1  0.338000  0.607900  0.988100  1.0  0.1053
  H  H94  1  0.372700  0.755800  0.964000  1.0  0.0859
  H  H95  1  0.309800  0.318100  0.975800  1.0  0.0945
  H  H96  1  0.246500  0.369100  0.990800  1.0  0.0994
  H  H97  1  0.440000  0.498600  0.007300  1.0  0.075
  H  H98  1  0.371200  0.626700  0.129400  1.0  0.0717
  H  H99  1  0.528700  0.717300  0.152500  1.0  0.1147
  H  H100  1  0.700500  0.997300  0.111500  1.0  0.1213
  H  H101  1  0.536300  0.898200  0.089400  1.0  0.0694
  H  H102  1  0.760500  0.874500  0.157200  1.0  0.081
  H  H103  1  0.816800  0.991600  0.142600  1.0  0.0801
  H  H104  1  0.695900  0.057700  0.159400  1.0  0.0743
  H  H105  1  0.096800  0.820300  0.971400  1.0  0.2544
  H  H106  1  0.110300  0.606500  0.027200  1.0  0.2921
  H  H107  1  0.025800  0.384900  0.939300  1.0  0.1638
  H  H108  1  0.785500  0.092300  0.992500  1.0  0.4077
  H  H109  1  0.798000  0.978000  0.267630  1.0  0.1289
  H  H110  1  0.676000  0.977700  0.272830  1.0  0.1511
  H  H111  1  0.290000  0.903600  0.353730  1.0  0.12
  H  H112  1  0.392600  0.015000  0.366430  1.0  0.1269
  H  H113  1  0.212100  0.942600  0.305130  1.0  0.1039
  H  H114  1  0.207900  0.001200  0.283430  1.0  0.1318
  H  H115  1  0.157100  0.590900  0.251530  1.0  0.0702
  H  H116  1  0.036800  0.624800  0.275230  1.0  0.108
  H  H117  1  0.269900  0.662000  0.321430  1.0  0.1058
  H  H118  1  0.383100  0.627300  0.297330  1.0  0.0864
  H  H119  1  0.008300  0.690200  0.309130  1.0  0.0937
  H  H120  1  0.122600  0.753500  0.324130  1.0  0.1029
  H  H121  1  0.058600  0.560000  0.340630  1.0  0.0745
  H  H122  1  0.255500  0.628800  0.462730  1.0  0.0713
  H  H123  1  0.188600  0.471300  0.485830  1.0  0.115
  H  H124  1  0.296800  0.299500  0.444830  1.0  0.1215
  H  H125  1  0.361900  0.463700  0.422730  1.0  0.0695
  H  H126  1  0.114000  0.239500  0.490530  1.0  0.0785
  H  H127  1  0.174800  0.183200  0.475930  1.0  0.0809
  H  H128  1  0.361800  0.304100  0.492730  1.0  0.0735
  H  H129  1  0.723500  0.903200  0.304730  1.0  0.2534
  H  H130  1  0.496200  0.889700  0.360530  1.0  0.292
  H  H131  1  0.359100  0.974200  0.272630  1.0  0.1628
  H  H132  1  0.306800  0.214500  0.325830  1.0  0.4054
  H  H133  1  0.180000  0.202000  0.600970  1.0  0.1296
  H  H134  1  0.301700  0.324000  0.606170  1.0  0.1569
  H  H135  1  0.613600  0.710000  0.687070  1.0  0.1183
  H  H136  1  0.622400  0.607400  0.699770  1.0  0.1247
  H  H137  1  0.730500  0.787900  0.638470  1.0  0.1017
  H  H138  1  0.793300  0.792100  0.616770  1.0  0.1293
  H  H139  1  0.433800  0.842900  0.584870  1.0  0.0701
  H  H140  1  0.588000  0.963200  0.608570  1.0  0.1078
  H  H141  1  0.392100  0.730100  0.654770  1.0  0.1054
  H  H142  1  0.244200  0.616900  0.630670  1.0  0.0847
  H  H143  1  0.681900  0.991700  0.642470  1.0  0.0934
  H  H144  1  0.630900  0.877400  0.657470  1.0  0.1009
  H  H145  1  0.501400  0.941400  0.673970  1.0  0.0762
  H  H146  1  0.373300  0.744500  0.796070  1.0  0.0726
  H  H147  1  0.282700  0.811400  0.819170  1.0  0.1145
  H  H148  1  0.002700  0.703200  0.778170  1.0  0.1234
  H  H149  1  0.101800  0.638100  0.756070  1.0  0.0695
  H  H150  1  0.125500  0.886000  0.823870  1.0  0.0802
  H  H151  1  0.008400  0.825200  0.809270  1.0  0.0801
  H  H152  1  0.942300  0.638200  0.826070  1.0  0.0755
  H  H153  1  0.179700  0.276500  0.638070  1.0  0.2549
  H  H154  1  0.393500  0.503800  0.693870  1.0  0.2918
  H  H155  1  0.615100  0.640900  0.605970  1.0  0.1622
  H  H156  1  0.907700  0.693200  0.659170  1.0  0.4046
  H  H157  1  0.798000  0.820000  0.899030  1.0  0.1306
  H  H158  1  0.676000  0.698300  0.893830  1.0  0.1539
  H  H159  1  0.290000  0.386400  0.812930  1.0  0.1175
  H  H160  1  0.392600  0.377600  0.800230  1.0  0.1248
  H  H161  1  0.212100  0.269500  0.861530  1.0  0.1025
  H  H162  1  0.207900  0.206700  0.883230  1.0  0.1299
  H  H163  1  0.157100  0.566200  0.915130  1.0  0.0701
  H  H164  1  0.036800  0.412000  0.891430  1.0  0.1078
  H  H165  1  0.269900  0.607900  0.845230  1.0  0.1053
  H  H166  1  0.383100  0.755800  0.869330  1.0  0.0865
  H  H167  1  0.008300  0.318100  0.857530  1.0  0.0948
  H  H168  1  0.122600  0.369100  0.842530  1.0  0.1018
  H  H169  1  0.058600  0.498600  0.826030  1.0  0.0742
  H  H170  1  0.255500  0.626700  0.703930  1.0  0.072
  H  H171  1  0.188600  0.717300  0.680830  1.0  0.1156
  H  H172  1  0.296800  0.997300  0.721830  1.0  0.1215
  H  H173  1  0.361900  0.898200  0.743930  1.0  0.0689
  H  H174  1  0.114000  0.874500  0.676130  1.0  0.0826
  H  H175  1  0.174800  0.991600  0.690730  1.0  0.0798
  H  H176  1  0.361800  0.057700  0.673930  1.0  0.073
  H  H177  1  0.723500  0.820300  0.861930  1.0  0.2544
  H  H178  1  0.496200  0.606500  0.806130  1.0  0.2914
  H  H179  1  0.359100  0.384900  0.894030  1.0  0.1621
  H  H180  1  0.306800  0.092300  0.840830  1.0  0.4063
  H  H181  1  0.180000  0.978000  0.565700  1.0  0.1301
  H  H182  1  0.301700  0.977700  0.560500  1.0  0.1529
  H  H183  1  0.613600  0.903600  0.479600  1.0  0.1186
  H  H184  1  0.622400  0.015000  0.466900  1.0  0.1268
  H  H185  1  0.730500  0.942600  0.528200  1.0  0.1038
  H  H186  1  0.793300  0.001200  0.549900  1.0  0.1321
  H  H187  1  0.433800  0.590900  0.581800  1.0  0.0697
  H  H188  1  0.588000  0.624800  0.558100  1.0  0.1071
  H  H189  1  0.392100  0.662000  0.511900  1.0  0.1059
  H  H190  1  0.244200  0.627300  0.536000  1.0  0.0856
  H  H191  1  0.681900  0.690200  0.524200  1.0  0.0938
  H  H192  1  0.630900  0.753500  0.509200  1.0  0.1018
  H  H193  1  0.501400  0.560000  0.492700  1.0  0.0739
  H  H194  1  0.373300  0.628800  0.370600  1.0  0.0717
  H  H195  1  0.282700  0.471300  0.347500  1.0  0.1155
  H  H196  1  0.002700  0.299500  0.388500  1.0  0.1215
  H  H197  1  0.101800  0.463700  0.410600  1.0  0.0689
  H  H198  1  0.125500  0.239500  0.342800  1.0  0.0801
  H  H199  1  0.008400  0.183200  0.357400  1.0  0.0819
  H  H200  1  0.942300  0.304100  0.340600  1.0  0.073
  H  H201  1  0.179700  0.903200  0.528600  1.0  0.2542
  H  H202  1  0.393500  0.889700  0.472800  1.0  0.2914
  H  H203  1  0.615100  0.974200  0.560700  1.0  0.1604
  H  H204  1  0.907700  0.214500  0.507500  1.0  0.4054
  H  H205  1  0.022000  0.202000  0.232370  1.0  0.1315
  H  H206  1  0.022300  0.324000  0.227170  1.0  0.1551
  H  H207  1  0.096400  0.710000  0.146270  1.0  0.1172
  H  H208  1  0.985000  0.607400  0.133570  1.0  0.1252
  H  H209  1  0.057400  0.787900  0.194870  1.0  0.103
  H  H210  1  0.998800  0.792100  0.216570  1.0  0.1328
  H  H211  1  0.409100  0.842900  0.248470  1.0  0.0697
  H  H212  1  0.375200  0.963200  0.224770  1.0  0.1074
  H  H213  1  0.338000  0.730100  0.178570  1.0  0.1054
  H  H214  1  0.372700  0.616900  0.202670  1.0  0.0848
  H  H215  1  0.309800  0.991700  0.190870  1.0  0.094
  H  H216  1  0.246500  0.877400  0.175870  1.0  0.1033
  H  H217  1  0.440000  0.941400  0.159370  1.0  0.0759
  H  H218  1  0.371200  0.744500  0.037270  1.0  0.0726
  H  H219  1  0.528700  0.811400  0.014170  1.0  0.1151
  H  H220  1  0.700500  0.703200  0.055170  1.0  0.1231
  H  H221  1  0.536300  0.638100  0.077270  1.0  0.0687
  H  H222  1  0.760500  0.886000  0.009470  1.0  0.0821
  H  H223  1  0.816800  0.825200  0.024070  1.0  0.0785
  H  H224  1  0.695900  0.638200  0.007270  1.0  0.075
  H  H225  1  0.096800  0.276500  0.195270  1.0  0.2549
  H  H226  1  0.110300  0.503800  0.139470  1.0  0.2903
  H  H227  1  0.025800  0.640900  0.227370  1.0  0.1605
  H  H228  1  0.785500  0.693200  0.174170  1.0  0.4066
  H  H229  1  0.202000  0.180000  0.399030  1.0  0.1307
  H  H230  1  0.324000  0.301700  0.393830  1.0  0.1538
  H  H231  1  0.710000  0.613600  0.312930  1.0  0.1173
  H  H232  1  0.607400  0.622400  0.300230  1.0  0.1247
  H  H233  1  0.787900  0.730500  0.361530  1.0  0.1022
  H  H234  1  0.792100  0.793300  0.383230  1.0  0.1297
  H  H235  1  0.842900  0.433800  0.415130  1.0  0.07
  H  H236  1  0.963200  0.588000  0.391430  1.0  0.109
  H  H237  1  0.730100  0.392100  0.345230  1.0  0.1051
  H  H238  1  0.616900  0.244200  0.369330  1.0  0.0861
  H  H239  1  0.991700  0.681900  0.357530  1.0  0.0932
  H  H240  1  0.877400  0.630900  0.342530  1.0  0.0991
  H  H241  1  0.941400  0.501400  0.326030  1.0  0.076
  H  H242  1  0.744500  0.373300  0.203930  1.0  0.072
  H  H243  1  0.811400  0.282700  0.180830  1.0  0.1152
  H  H244  1  0.703200  0.002700  0.221830  1.0  0.1213
  H  H245  1  0.638100  0.101800  0.243930  1.0  0.0691
  H  H246  1  0.886000  0.125500  0.176130  1.0  0.082
  H  H247  1  0.825200  0.008400  0.190730  1.0  0.0793
  H  H248  1  0.638200  0.942300  0.173930  1.0  0.0758
  H  H249  1  0.276500  0.179700  0.361930  1.0  0.2559
  H  H250  1  0.503800  0.393500  0.306130  1.0  0.2919
  H  H251  1  0.640900  0.615100  0.394030  1.0  0.1606
  H  H252  1  0.693200  0.907700  0.340830  1.0  0.4071
  H  H253  1  0.820000  0.022000  0.065700  1.0  0.13
  H  H254  1  0.698300  0.022300  0.060500  1.0  0.1514
  H  H255  1  0.386400  0.096400  0.979600  1.0  0.1198
  H  H256  1  0.377600  0.985000  0.966900  1.0  0.1281
  H  H257  1  0.269500  0.057400  0.028200  1.0  0.1047
  H  H258  1  0.206700  0.998800  0.049900  1.0  0.1298
  H  H259  1  0.566200  0.409100  0.081800  1.0  0.0699
  H  H260  1  0.412000  0.375200  0.058100  1.0  0.1073
  H  H261  1  0.607900  0.338000  0.011900  1.0  0.1054
  H  H262  1  0.755800  0.372700  0.036000  1.0  0.0863
  H  H263  1  0.318100  0.309800  0.024200  1.0  0.0933
  H  H264  1  0.369100  0.246500  0.009200  1.0  0.1051
  H  H265  1  0.498600  0.440000  0.992700  1.0  0.0742
  H  H266  1  0.626700  0.371200  0.870600  1.0  0.0716
  H  H267  1  0.717300  0.528700  0.847500  1.0  0.1151
  H  H268  1  0.997300  0.700500  0.888500  1.0  0.1215
  H  H269  1  0.898200  0.536300  0.910600  1.0  0.0693
  H  H270  1  0.874500  0.760500  0.842800  1.0  0.0792
  H  H271  1  0.991600  0.816800  0.857400  1.0  0.0793
  H  H272  1  0.057700  0.695900  0.840600  1.0  0.0732
  H  H273  1  0.820300  0.096800  0.028600  1.0  0.2538
  H  H274  1  0.606500  0.110300  0.972800  1.0  0.2908
  H  H275  1  0.384900  0.025800  0.060700  1.0  0.1614
  H  H276  1  0.092300  0.785500  0.007500  1.0  0.4059
  H  H277  1  0.978000  0.798000  0.732370  1.0  0.1293
  H  H278  1  0.977700  0.676000  0.727170  1.0  0.1564
  H  H279  1  0.903600  0.290000  0.646270  1.0  0.1184
  H  H280  1  0.015000  0.392600  0.633570  1.0  0.1237
  H  H281  1  0.942600  0.212100  0.694870  1.0  0.1024
  H  H282  1  0.001200  0.207900  0.716570  1.0  0.1305
  H  H283  1  0.590900  0.157100  0.748470  1.0  0.0702
  H  H284  1  0.624800  0.036800  0.724770  1.0  0.1072
  H  H285  1  0.662000  0.269900  0.678570  1.0  0.1055
  H  H286  1  0.627300  0.383100  0.702670  1.0  0.0847
  H  H287  1  0.690200  0.008300  0.690870  1.0  0.0934
  H  H288  1  0.753500  0.122600  0.675870  1.0  0.1033
  H  H289  1  0.560000  0.058600  0.659370  1.0  0.0761
  H  H290  1  0.628800  0.255500  0.537270  1.0  0.0726
  H  H291  1  0.471300  0.188600  0.514170  1.0  0.1153
  H  H292  1  0.299500  0.296800  0.555170  1.0  0.1233
  H  H293  1  0.463700  0.361900  0.577270  1.0  0.0687
  H  H294  1  0.239500  0.114000  0.509470  1.0  0.0825
  H  H295  1  0.183200  0.174800  0.524070  1.0  0.079
  H  H296  1  0.304100  0.361800  0.507270  1.0  0.0724
  H  H297  1  0.903200  0.723500  0.695270  1.0  0.2547
  H  H298  1  0.889700  0.496200  0.639470  1.0  0.2902
  H  H299  1  0.974200  0.359100  0.727370  1.0  0.1593
  H  H300  1  0.214500  0.306800  0.674170  1.0  0.4042
  C  C301  1  0.923300  0.338400  0.469000  1.0  0.3921
  C  C302  1  0.924700  0.451200  0.498750  1.0  0.3808
  C  C303  1  0.959200  0.531500  0.465520  1.0  0.5443
  C  C304  1  0.929800  0.213600  0.439730  1.0  -0.0952
  C  C305  1  0.817700  0.172100  0.426010  1.0  0.7308
  C  C306  1  0.928500  0.569700  0.529940  1.0  -0.1215
  C  C307  1  0.855600  0.541400  0.550260  1.0  0.7615
  C  C308  1  0.005300  0.743500  0.461440  1.0  -0.0902
  C  C309  1  0.130600  0.813600  0.472030  1.0  0.6696
  C  C310  1  0.605800  0.425100  0.432390  1.0  0.1644
  C  C311  1  0.626700  0.519000  0.446670  1.0  -0.1691
  C  C312  1  0.650400  0.509800  0.467940  1.0  0.1258
  C  C313  1  0.648600  0.403400  0.473960  1.0  -0.2056
  C  C314  1  0.627400  0.314500  0.459410  1.0  0.1487
  C  C315  1  0.677600  0.609800  0.483490  1.0  -0.2178
  C  C316  1  0.561000  0.298800  0.625540  1.0  0.1671
  C  C317  1  0.466700  0.244800  0.639630  1.0  -0.199
  C  C318  1  0.363500  0.133100  0.634790  1.0  0.1293
  C  C319  1  0.364900  0.078800  0.615370  1.0  -0.2092
  C  C320  1  0.464100  0.139700  0.602140  1.0  0.1723
  C  C321  1  0.256300  0.066500  0.650300  1.0  -0.2066
  C  C322  1  0.415100  0.076700  0.802330  1.0  0.3906
  C  C323  1  0.526500  0.075300  0.832080  1.0  0.402
  C  C324  1  0.572300  0.040800  0.798850  1.0  0.5456
  C  C325  1  0.283800  0.070200  0.773060  1.0  -0.0962
  C  C326  1  0.354400  0.182300  0.759340  1.0  0.722
  C  C327  1  0.641200  0.071500  0.863270  1.0  -0.1215
  C  C328  1  0.685800  0.144400  0.883590  1.0  0.7592
  C  C329  1  0.738200  0.994700  0.794770  1.0  -0.0915
  C  C330  1  0.683000  0.869400  0.805360  1.0  0.672
  C  C331  1  0.819300  0.394200  0.765720  1.0  0.1619
  C  C332  1  0.892300  0.373300  0.780000  1.0  -0.1787
  C  C333  1  0.859400  0.349600  0.801270  1.0  0.1269
  C  C334  1  0.754800  0.351400  0.807290  1.0  -0.2074
  C  C335  1  0.687100  0.372600  0.792740  1.0  0.1479
  C  C336  1  0.932200  0.322400  0.816820  1.0  -0.2183
  C  C337  1  0.737800  0.439000  0.958870  1.0  0.1692
  C  C338  1  0.778100  0.533300  0.972960  1.0  -0.1983
  C  C339  1  0.769600  0.636500  0.968120  1.0  0.1301
  C  C340  1  0.713900  0.635100  0.948700  1.0  -0.196
  C  C341  1  0.675600  0.535900  0.935470  1.0  0.1747
  C  C342  1  0.810200  0.743700  0.983630  1.0  -0.2113
  C  C343  1  0.661600  0.584900  0.135670  1.0  0.391
  C  C344  1  0.548800  0.473500  0.165420  1.0  0.3955
  C  C345  1  0.468500  0.427700  0.132190  1.0  0.5463
  C  C346  1  0.786400  0.716200  0.106400  1.0  -0.0929
  C  C347  1  0.827900  0.645600  0.092680  1.0  0.7277
  C  C348  1  0.430300  0.358800  0.196610  1.0  -0.1211
  C  C349  1  0.458600  0.314200  0.216930  1.0  0.7745
  C  C350  1  0.256500  0.261800  0.128110  1.0  -0.0917
  C  C351  1  0.186400  0.317000  0.138700  1.0  0.6717
  C  C352  1  0.574900  0.180700  0.099060  1.0  0.1664
  C  C353  1  0.481000  0.107700  0.113340  1.0  -0.1771
  C  C354  1  0.490200  0.140600  0.134610  1.0  0.1259
  C  C355  1  0.596600  0.245200  0.140630  1.0  -0.2049
  C  C356  1  0.685500  0.312900  0.126080  1.0  0.1511
  C  C357  1  0.390200  0.067800  0.150160  1.0  -0.2159
  C  C358  1  0.701200  0.262200  0.292210  1.0  0.1664
  C  C359  1  0.755200  0.221900  0.306300  1.0  -0.2083
  C  C360  1  0.866900  0.230400  0.301460  1.0  0.13
  C  C361  1  0.921200  0.286100  0.282040  1.0  -0.2108
  C  C362  1  0.860300  0.324400  0.268810  1.0  0.1728
  C  C363  1  0.933500  0.189800  0.316970  1.0  -0.2083
  C  C364  1  0.076700  0.661600  0.969000  1.0  0.3915
  C  C365  1  0.075300  0.548800  0.998750  1.0  0.4186
  C  C366  1  0.040800  0.468500  0.965520  1.0  0.546
  C  C367  1  0.070200  0.786400  0.939730  1.0  -0.09
  C  C368  1  0.182300  0.827900  0.926010  1.0  0.7325
  C  C369  1  0.071500  0.430300  0.029940  1.0  -0.1212
  C  C370  1  0.144400  0.458600  0.050260  1.0  0.773
  C  C371  1  0.994700  0.256500  0.961440  1.0  -0.0921
  C  C372  1  0.869400  0.186400  0.972030  1.0  0.6698
  C  C373  1  0.394200  0.574900  0.932390  1.0  0.1633
  C  C374  1  0.373300  0.481000  0.946670  1.0  -0.1772
  C  C375  1  0.349600  0.490200  0.967940  1.0  0.126
  C  C376  1  0.351400  0.596600  0.973960  1.0  -0.2075
  C  C377  1  0.372600  0.685500  0.959410  1.0  0.1477
  C  C378  1  0.322400  0.390200  0.983490  1.0  -0.2171
  C  C379  1  0.439000  0.701200  0.125540  1.0  0.1708
  C  C380  1  0.533300  0.755200  0.139630  1.0  -0.1967
  C  C381  1  0.636500  0.866900  0.134790  1.0  0.1298
  C  C382  1  0.635100  0.921200  0.115370  1.0  -0.1988
  C  C383  1  0.535900  0.860300  0.102140  1.0  0.1699
  C  C384  1  0.743700  0.933500  0.150300  1.0  -0.2065
  C  C385  1  0.584900  0.923300  0.302330  1.0  0.3904
  C  C386  1  0.473500  0.924700  0.332080  1.0  0.4201
  C  C387  1  0.427700  0.959200  0.298850  1.0  0.546
  C  C388  1  0.716200  0.929800  0.273060  1.0  -0.0972
  C  C389  1  0.645600  0.817700  0.259340  1.0  0.7208
  C  C390  1  0.358800  0.928500  0.363270  1.0  -0.1223
  C  C391  1  0.314200  0.855600  0.383590  1.0  0.7731
  C  C392  1  0.261800  0.005300  0.294770  1.0  -0.0938
  C  C393  1  0.317000  0.130600  0.305360  1.0  0.673
  C  C394  1  0.180700  0.605800  0.265720  1.0  0.1648
  C  C395  1  0.107700  0.626700  0.280000  1.0  -0.1786
  C  C396  1  0.140600  0.650400  0.301270  1.0  0.1261
  C  C397  1  0.245200  0.648600  0.307290  1.0  -0.2066
  C  C398  1  0.312900  0.627400  0.292740  1.0  0.1488
  C  C399  1  0.067800  0.677600  0.316820  1.0  -0.2168
  C  C400  1  0.262200  0.561000  0.458870  1.0  0.1706
  C  C401  1  0.221900  0.466700  0.472960  1.0  -0.1999
  C  C402  1  0.230400  0.363500  0.468120  1.0  0.1296
  C  C403  1  0.286100  0.364900  0.448700  1.0  -0.2078
  C  C404  1  0.324400  0.464100  0.435470  1.0  0.1727
  C  C405  1  0.189800  0.256300  0.483630  1.0  -0.2122
  C  C406  1  0.338400  0.415100  0.635670  1.0  0.3917
  C  C407  1  0.451200  0.526500  0.665420  1.0  0.4058
  C  C408  1  0.531500  0.572300  0.632190  1.0  0.5453
  C  C409  1  0.213600  0.283800  0.606400  1.0  -0.0947
  C  C410  1  0.172100  0.354400  0.592680  1.0  0.7317
  C  C411  1  0.569700  0.641200  0.696610  1.0  -0.1219
  C  C412  1  0.541400  0.685800  0.716930  1.0  0.7608
  C  C413  1  0.743500  0.738200  0.628110  1.0  -0.0931
  C  C414  1  0.813600  0.683000  0.638700  1.0  0.6689
  C  C415  1  0.425100  0.819300  0.599060  1.0  0.1639
  C  C416  1  0.519000  0.892300  0.613340  1.0  -0.17
  C  C417  1  0.509800  0.859400  0.634610  1.0  0.126
  C  C418  1  0.403400  0.754800  0.640630  1.0  -0.2042
  C  C419  1  0.314500  0.687100  0.626080  1.0  0.1506
  C  C420  1  0.609800  0.932200  0.650160  1.0  -0.2126
  C  C421  1  0.298800  0.737800  0.792210  1.0  0.1645
  C  C422  1  0.244800  0.778100  0.806300  1.0  -0.2008
  C  C423  1  0.133100  0.769600  0.801460  1.0  0.129
  C  C424  1  0.078800  0.713900  0.782040  1.0  -0.21
  C  C425  1  0.139700  0.675600  0.768810  1.0  0.1756
  C  C426  1  0.066500  0.810200  0.816970  1.0  -0.2061
  C  C427  1  0.584900  0.661600  0.864330  1.0  0.3911
  C  C428  1  0.473500  0.548800  0.834580  1.0  0.4176
  C  C429  1  0.427700  0.468500  0.867810  1.0  0.5458
  C  C430  1  0.716200  0.786400  0.893600  1.0  -0.0907
  C  C431  1  0.645600  0.827900  0.907320  1.0  0.7304
  C  C432  1  0.358800  0.430300  0.803390  1.0  -0.1209
  C  C433  1  0.314200  0.458600  0.783070  1.0  0.7726
  C  C434  1  0.261800  0.256500  0.871890  1.0  -0.0876
  C  C435  1  0.317000  0.186400  0.861300  1.0  0.6705
  C  C436  1  0.180700  0.574900  0.900940  1.0  0.1628
  C  C437  1  0.107700  0.481000  0.886660  1.0  -0.176
  C  C438  1  0.140600  0.490200  0.865390  1.0  0.1273
  C  C439  1  0.245200  0.596600  0.859370  1.0  -0.2052
  C  C440  1  0.312900  0.685500  0.873920  1.0  0.1488
  C  C441  1  0.067800  0.390200  0.849840  1.0  -0.2177
  C  C442  1  0.262200  0.701200  0.707790  1.0  0.1709
  C  C443  1  0.221900  0.755200  0.693700  1.0  -0.2099
  C  C444  1  0.230400  0.866900  0.698540  1.0  0.1288
  C  C445  1  0.286100  0.921200  0.717960  1.0  -0.2083
  C  C446  1  0.324400  0.860300  0.731190  1.0  0.1727
  C  C447  1  0.189800  0.933500  0.683030  1.0  -0.2022
  C  C448  1  0.338400  0.923300  0.531000  1.0  0.3882
  C  C449  1  0.451200  0.924700  0.501250  1.0  0.4198
  C  C450  1  0.531500  0.959200  0.534480  1.0  0.5454
  C  C451  1  0.213600  0.929800  0.560270  1.0  -0.0928
  C  C452  1  0.172100  0.817700  0.573990  1.0  0.7207
  C  C453  1  0.569700  0.928500  0.470060  1.0  -0.1214
  C  C454  1  0.541400  0.855600  0.449740  1.0  0.7585
  C  C455  1  0.743500  0.005300  0.538560  1.0  -0.0916
  C  C456  1  0.813600  0.130600  0.527970  1.0  0.6725
  C  C457  1  0.425100  0.605800  0.567610  1.0  0.1622
  C  C458  1  0.519000  0.626700  0.553330  1.0  -0.1706
  C  C459  1  0.509800  0.650400  0.532060  1.0  0.1276
  C  C460  1  0.403400  0.648600  0.526040  1.0  -0.2061
  C  C461  1  0.314500  0.627400  0.540590  1.0  0.149
  C  C462  1  0.609800  0.677600  0.516510  1.0  -0.2179
  C  C463  1  0.298800  0.561000  0.374460  1.0  0.1717
  C  C464  1  0.244800  0.466700  0.360370  1.0  -0.2098
  C  C465  1  0.133100  0.363500  0.365210  1.0  0.1299
  C  C466  1  0.078800  0.364900  0.384630  1.0  -0.2061
  C  C467  1  0.139700  0.464100  0.397860  1.0  0.1766
  C  C468  1  0.066500  0.256300  0.349700  1.0  -0.2122
  C  C469  1  0.076700  0.415100  0.197670  1.0  0.3907
  C  C470  1  0.075300  0.526500  0.167920  1.0  0.398
  C  C471  1  0.040800  0.572300  0.201150  1.0  0.5456
  C  C472  1  0.070200  0.283800  0.226940  1.0  -0.0941
  C  C473  1  0.182300  0.354400  0.240660  1.0  0.728
  C  C474  1  0.071500  0.641200  0.136730  1.0  -0.1201
  C  C475  1  0.144400  0.685800  0.116410  1.0  0.773
  C  C476  1  0.994700  0.738200  0.205230  1.0  -0.0915
  C  C477  1  0.869400  0.683000  0.194640  1.0  0.6694
  C  C478  1  0.394200  0.819300  0.234280  1.0  0.1625
  C  C479  1  0.373300  0.892300  0.220000  1.0  -0.1757
  C  C480  1  0.349600  0.859400  0.198730  1.0  0.1269
  C  C481  1  0.351400  0.754800  0.192710  1.0  -0.2023
  C  C482  1  0.372600  0.687100  0.207260  1.0  0.1518
  C  C483  1  0.322400  0.932200  0.183180  1.0  -0.2175
  C  C484  1  0.439000  0.737800  0.041130  1.0  0.1682
  C  C485  1  0.533300  0.778100  0.027040  1.0  -0.197
  C  C486  1  0.636500  0.769600  0.031880  1.0  0.1295
  C  C487  1  0.635100  0.713900  0.051300  1.0  -0.207
  C  C488  1  0.535900  0.675600  0.064530  1.0  0.1735
  C  C489  1  0.743700  0.810200  0.016370  1.0  -0.2115
  C  C490  1  0.415100  0.338400  0.364330  1.0  0.39
  C  C491  1  0.526500  0.451200  0.334580  1.0  0.4191
  C  C492  1  0.572300  0.531500  0.367810  1.0  0.5446
  C  C493  1  0.283800  0.213600  0.393600  1.0  -0.0919
  C  C494  1  0.354400  0.172100  0.407320  1.0  0.7311
  C  C495  1  0.641200  0.569700  0.303390  1.0  -0.1192
  C  C496  1  0.685800  0.541400  0.283070  1.0  0.7714
  C  C497  1  0.738200  0.743500  0.371890  1.0  -0.0918
  C  C498  1  0.683000  0.813600  0.361300  1.0  0.6703
  C  C499  1  0.819300  0.425100  0.400940  1.0  0.1613
  C  C500  1  0.892300  0.519000  0.386660  1.0  -0.1747
  C  C501  1  0.859400  0.509800  0.365390  1.0  0.1269
  C  C502  1  0.754800  0.403400  0.359370  1.0  -0.205
  C  C503  1  0.687100  0.314500  0.373920  1.0  0.1485
  C  C504  1  0.932200  0.609800  0.349840  1.0  -0.218
  C  C505  1  0.737800  0.298800  0.207790  1.0  0.1713
  C  C506  1  0.778100  0.244800  0.193700  1.0  -0.1961
  C  C507  1  0.769600  0.133100  0.198540  1.0  0.1297
  C  C508  1  0.713900  0.078800  0.217960  1.0  -0.2079
  C  C509  1  0.675600  0.139700  0.231190  1.0  0.1722
  C  C510  1  0.810200  0.066500  0.183030  1.0  -0.202
  C  C511  1  0.661600  0.076700  0.031000  1.0  0.3909
  C  C512  1  0.548800  0.075300  0.001250  1.0  0.4066
  C  C513  1  0.468500  0.040800  0.034480  1.0  0.5463
  C  C514  1  0.786400  0.070200  0.060270  1.0  -0.095
  C  C515  1  0.827900  0.182300  0.073990  1.0  0.7286
  C  C516  1  0.430300  0.071500  0.970060  1.0  -0.1207
  C  C517  1  0.458600  0.144400  0.949740  1.0  0.7598
  C  C518  1  0.256500  0.994700  0.038560  1.0  -0.0922
  C  C519  1  0.186400  0.869400  0.027970  1.0  0.6719
  C  C520  1  0.574900  0.394200  0.067610  1.0  0.1629
  C  C521  1  0.481000  0.373300  0.053330  1.0  -0.1776
  C  C522  1  0.490200  0.349600  0.032060  1.0  0.1271
  C  C523  1  0.596600  0.351400  0.026040  1.0  -0.2049
  C  C524  1  0.685500  0.372600  0.040590  1.0  0.1494
  C  C525  1  0.390200  0.322400  0.016510  1.0  -0.2184
  C  C526  1  0.701200  0.439000  0.874460  1.0  0.1701
  C  C527  1  0.755200  0.533300  0.860370  1.0  -0.2078
  C  C528  1  0.866900  0.636500  0.865210  1.0  0.1294
  C  C529  1  0.921200  0.635100  0.884630  1.0  -0.2081
  C  C530  1  0.860300  0.535900  0.897860  1.0  0.1727
  C  C531  1  0.933500  0.743700  0.849700  1.0  -0.211
  C  C532  1  0.923300  0.584900  0.697670  1.0  0.389
  C  C533  1  0.924700  0.473500  0.667920  1.0  0.4213
  C  C534  1  0.959200  0.427700  0.701150  1.0  0.5462
  C  C535  1  0.929800  0.716200  0.726940  1.0  -0.0924
  C  C536  1  0.817700  0.645600  0.740660  1.0  0.73
  C  C537  1  0.928500  0.358800  0.636730  1.0  -0.1211
  C  C538  1  0.855600  0.314200  0.616410  1.0  0.7613
  C  C539  1  0.005300  0.261800  0.705230  1.0  -0.089
  C  C540  1  0.130600  0.317000  0.694640  1.0  0.669
  C  C541  1  0.605800  0.180700  0.734280  1.0  0.1635
  C  C542  1  0.626700  0.107700  0.720000  1.0  -0.1779
  C  C543  1  0.650400  0.140600  0.698730  1.0  0.127
  C  C544  1  0.648600  0.245200  0.692710  1.0  -0.2033
  C  C545  1  0.627400  0.312900  0.707260  1.0  0.1511
  C  C546  1  0.677600  0.067800  0.683180  1.0  -0.212
  C  C547  1  0.561000  0.262200  0.541130  1.0  0.167
  C  C548  1  0.466700  0.221900  0.527040  1.0  -0.2094
  C  C549  1  0.363500  0.230400  0.531880  1.0  0.1295
  C  C550  1  0.364900  0.286100  0.551300  1.0  -0.2099
  C  C551  1  0.464100  0.324400  0.564530  1.0  0.1751
  C  C552  1  0.256300  0.189800  0.516370  1.0  -0.2113
  C  C553  1  0.576300  0.576300  0.500000  1.0  -0.0958
  C  C554  1  0.000000  0.423700  0.833330  1.0  -0.0952
  C  C555  1  0.423700  0.000000  0.166670  1.0  -0.1021
  C  C556  1  0.423700  0.423700  0.000000  1.0  -0.1038
  C  C557  1  0.000000  0.576300  0.333333  1.0  -0.1005
  C  C558  1  0.576300  0.000000  0.666667  1.0  -0.0945
  C  C559  1  0.287700  0.000000  0.666667  1.0  -0.1103
  C  C560  1  0.712300  0.712300  0.000000  1.0  -0.0979
  C  C561  1  0.000000  0.287700  0.333333  1.0  -0.1071
  C  C562  1  0.712300  0.000000  0.166670  1.0  -0.103
  C  C563  1  0.287700  0.287700  0.500000  1.0  -0.1062
  C  C564  1  0.000000  0.712300  0.833330  1.0  -0.111
  N  N565  1  0.947100  0.429900  0.455950  1.0  -0.5513
  N  N566  1  0.908900  0.343500  0.490860  1.0  -0.3809
  N  N567  1  0.951400  0.549300  0.486720  1.0  -0.5444
  N  N568  1  0.916300  0.235900  0.462250  1.0  -0.3514
  N  N569  1  0.910400  0.457700  0.519530  1.0  -0.3926
  N  N570  1  0.978200  0.625300  0.452800  1.0  -0.3873
  N  N571  1  0.606300  0.323500  0.438350  1.0  -0.3408
  N  N572  1  0.562700  0.251300  0.606350  1.0  -0.3587
  N  N573  1  0.482800  0.052900  0.789280  1.0  -0.5514
  N  N574  1  0.434600  0.091100  0.824190  1.0  -0.3814
  N  N575  1  0.597900  0.048600  0.820050  1.0  -0.5345
  N  N576  1  0.319600  0.083700  0.795580  1.0  -0.3515
  N  N577  1  0.547300  0.089600  0.852860  1.0  -0.3929
  N  N578  1  0.647100  0.021800  0.786130  1.0  -0.3838
  N  N579  1  0.717200  0.393700  0.771680  1.0  -0.3406
  N  N580  1  0.688600  0.437300  0.939680  1.0  -0.3613
  N  N581  1  0.570100  0.517200  0.122620  1.0  -0.5522
  N  N582  1  0.656500  0.565400  0.157530  1.0  -0.3807
  N  N583  1  0.450700  0.402100  0.153390  1.0  -0.5428
  N  N584  1  0.764100  0.680400  0.128920  1.0  -0.3532
  N  N585  1  0.542300  0.452700  0.186200  1.0  -0.3931
  N  N586  1  0.374700  0.352900  0.119470  1.0  -0.3865
  N  N587  1  0.676500  0.282800  0.105020  1.0  -0.3386
  N  N588  1  0.748700  0.311400  0.273020  1.0  -0.3589
  N  N589  1  0.052900  0.570100  0.955950  1.0  -0.5509
  N  N590  1  0.091100  0.656500  0.990860  1.0  -0.3821
  N  N591  1  0.048600  0.450700  0.986720  1.0  -0.5341
  N  N592  1  0.083700  0.764100  0.962250  1.0  -0.3536
  N  N593  1  0.089600  0.542300  0.019530  1.0  -0.3911
  N  N594  1  0.021800  0.374700  0.952800  1.0  -0.3901
  N  N595  1  0.393700  0.676500  0.938350  1.0  -0.3393
  N  N596  1  0.437300  0.748700  0.106350  1.0  -0.3592
  N  N597  1  0.517200  0.947100  0.289280  1.0  -0.5519
  N  N598  1  0.565400  0.908900  0.324190  1.0  -0.3818
  N  N599  1  0.402100  0.951400  0.320050  1.0  -0.5434
  N  N600  1  0.680400  0.916300  0.295580  1.0  -0.3511
  N  N601  1  0.452700  0.910400  0.352860  1.0  -0.394
  N  N602  1  0.352900  0.978200  0.286130  1.0  -0.3854
  N  N603  1  0.282800  0.606300  0.271680  1.0  -0.3398
  N  N604  1  0.311400  0.562700  0.439680  1.0  -0.3575
  N  N605  1  0.429900  0.482800  0.622620  1.0  -0.5509
  N  N606  1  0.343500  0.434600  0.657530  1.0  -0.3807
  N  N607  1  0.549300  0.597900  0.653390  1.0  -0.5319
  N  N608  1  0.235900  0.319600  0.628920  1.0  -0.3534
  N  N609  1  0.457700  0.547300  0.686200  1.0  -0.3917
  N  N610  1  0.625300  0.647100  0.619470  1.0  -0.3873
  N  N611  1  0.323500  0.717200  0.605020  1.0  -0.3405
  N  N612  1  0.251300  0.688600  0.773020  1.0  -0.3601
  N  N613  1  0.517200  0.570100  0.877380  1.0  -0.5492
  N  N614  1  0.565400  0.656500  0.842470  1.0  -0.3813
  N  N615  1  0.402100  0.450700  0.846610  1.0  -0.5438
  N  N616  1  0.680400  0.764100  0.871080  1.0  -0.3522
  N  N617  1  0.452700  0.542300  0.813800  1.0  -0.3939
  N  N618  1  0.352900  0.374700  0.880530  1.0  -0.3874
  N  N619  1  0.282800  0.676500  0.894980  1.0  -0.3394
  N  N620  1  0.311400  0.748700  0.726980  1.0  -0.3585
  N  N621  1  0.429900  0.947100  0.544050  1.0  -0.5506
  N  N622  1  0.343500  0.908900  0.509140  1.0  -0.382
  N  N623  1  0.549300  0.951400  0.513280  1.0  -0.5315
  N  N624  1  0.235900  0.916300  0.537750  1.0  -0.3513
  N  N625  1  0.457700  0.910400  0.480470  1.0  -0.3941
  N  N626  1  0.625300  0.978200  0.547200  1.0  -0.3818
  N  N627  1  0.323500  0.606300  0.561650  1.0  -0.3416
  N  N628  1  0.251300  0.562700  0.393650  1.0  -0.3588
  N  N629  1  0.052900  0.482800  0.210720  1.0  -0.5508
  N  N630  1  0.091100  0.434600  0.175810  1.0  -0.3804
  N  N631  1  0.048600  0.597900  0.179950  1.0  -0.5423
  N  N632  1  0.083700  0.319600  0.204420  1.0  -0.353
  N  N633  1  0.089600  0.547300  0.147140  1.0  -0.3945
  N  N634  1  0.021800  0.647100  0.213870  1.0  -0.3861
  N  N635  1  0.393700  0.717200  0.228320  1.0  -0.3376
  N  N636  1  0.437300  0.688600  0.060320  1.0  -0.3599
  N  N637  1  0.482800  0.429900  0.377380  1.0  -0.5504
  N  N638  1  0.434600  0.343500  0.342470  1.0  -0.3821
  N  N639  1  0.597900  0.549300  0.346610  1.0  -0.5353
  N  N640  1  0.319600  0.235900  0.371080  1.0  -0.3519
  N  N641  1  0.547300  0.457700  0.313800  1.0  -0.392
  N  N642  1  0.647100  0.625300  0.380530  1.0  -0.3875
  N  N643  1  0.717200  0.323500  0.394980  1.0  -0.3412
  N  N644  1  0.688600  0.251300  0.226980  1.0  -0.3591
  N  N645  1  0.570100  0.052900  0.044050  1.0  -0.5503
  N  N646  1  0.656500  0.091100  0.009140  1.0  -0.3825
  N  N647  1  0.450700  0.048600  0.013280  1.0  -0.5428
  N  N648  1  0.764100  0.083700  0.037750  1.0  -0.3509
  N  N649  1  0.542300  0.089600  0.980470  1.0  -0.3953
  N  N650  1  0.374700  0.021800  0.047200  1.0  -0.3837
  N  N651  1  0.676500  0.393700  0.061650  1.0  -0.3391
  N  N652  1  0.748700  0.437300  0.893650  1.0  -0.3594
  N  N653  1  0.947100  0.517200  0.710720  1.0  -0.5513
  N  N654  1  0.908900  0.565400  0.675810  1.0  -0.3813
  N  N655  1  0.951400  0.402100  0.679950  1.0  -0.5321
  N  N656  1  0.916300  0.680400  0.704420  1.0  -0.3532
  N  N657  1  0.910400  0.452700  0.647140  1.0  -0.393
  N  N658  1  0.978200  0.352900  0.713870  1.0  -0.3867
  N  N659  1  0.606300  0.282800  0.728320  1.0  -0.3404
  N  N660  1  0.562700  0.311400  0.560320  1.0  -0.3604
  O  O661  1  0.732800  0.184500  0.433500  1.0  -0.5876
  O  O662  1  0.820600  0.130200  0.408150  1.0  -0.6048
  O  O663  1  0.829000  0.443000  0.560050  1.0  -0.6149
  O  O664  1  0.827900  0.620800  0.556620  1.0  -0.5972
  O  O665  1  0.143000  0.874800  0.488460  1.0  -0.4971
  O  O666  1  0.217400  0.806200  0.463170  1.0  -0.5829
  O  O667  1  0.451700  0.267200  0.766830  1.0  -0.5892
  O  O668  1  0.309600  0.179400  0.741480  1.0  -0.605
  O  O669  1  0.614000  0.171000  0.893380  1.0  -0.6133
  O  O670  1  0.792900  0.172100  0.889950  1.0  -0.6024
  O  O671  1  0.731800  0.857000  0.821790  1.0  -0.4964
  O  O672  1  0.588800  0.782600  0.796500  1.0  -0.5824
  O  O673  1  0.815500  0.548300  0.100170  1.0  -0.5856
  O  O674  1  0.869800  0.690400  0.074820  1.0  -0.6064
  O  O675  1  0.557000  0.386000  0.226720  1.0  -0.615
  O  O676  1  0.379200  0.207100  0.223290  1.0  -0.5987
  O  O677  1  0.125200  0.268200  0.155130  1.0  -0.4967
  O  O678  1  0.193800  0.411200  0.129840  1.0  -0.5823
  O  O679  1  0.267200  0.815500  0.933500  1.0  -0.5867
  O  O680  1  0.179400  0.869800  0.908150  1.0  -0.6066
  O  O681  1  0.171000  0.557000  0.060050  1.0  -0.6146
  O  O682  1  0.172100  0.379200  0.056620  1.0  -0.5981
  O  O683  1  0.857000  0.125200  0.988460  1.0  -0.4966
  O  O684  1  0.782600  0.193800  0.963170  1.0  -0.5815
  O  O685  1  0.548300  0.732800  0.266830  1.0  -0.5885
  O  O686  1  0.690400  0.820600  0.241480  1.0  -0.606
  O  O687  1  0.386000  0.829000  0.393380  1.0  -0.6136
  O  O688  1  0.207100  0.827900  0.389950  1.0  -0.6006
  O  O689  1  0.268200  0.143000  0.321790  1.0  -0.4993
  O  O690  1  0.411200  0.217400  0.296500  1.0  -0.5819
  O  O691  1  0.184500  0.451700  0.600170  1.0  -0.5871
  O  O692  1  0.130200  0.309600  0.574820  1.0  -0.6054
  O  O693  1  0.443000  0.614000  0.726720  1.0  -0.6156
  O  O694  1  0.620800  0.792900  0.723290  1.0  -0.5995
  O  O695  1  0.874800  0.731800  0.655130  1.0  -0.4957
  O  O696  1  0.806200  0.588800  0.629840  1.0  -0.5815
  O  O697  1  0.548300  0.815500  0.899830  1.0  -0.586
  O  O698  1  0.690400  0.869800  0.925180  1.0  -0.6042
  O  O699  1  0.386000  0.557000  0.773280  1.0  -0.6143
  O  O700  1  0.207100  0.379200  0.776710  1.0  -0.5978
  O  O701  1  0.268200  0.125200  0.844870  1.0  -0.4973
  O  O702  1  0.411200  0.193800  0.870160  1.0  -0.5826
  O  O703  1  0.184500  0.732800  0.566500  1.0  -0.5889
  O  O704  1  0.130200  0.820600  0.591850  1.0  -0.6005
  O  O705  1  0.443000  0.829000  0.439950  1.0  -0.6127
  O  O706  1  0.620800  0.827900  0.443380  1.0  -0.6011
  O  O707  1  0.874800  0.143000  0.511540  1.0  -0.497
  O  O708  1  0.806200  0.217400  0.536830  1.0  -0.5826
  O  O709  1  0.267200  0.451700  0.233170  1.0  -0.5854
  O  O710  1  0.179400  0.309600  0.258520  1.0  -0.604
  O  O711  1  0.171000  0.614000  0.106620  1.0  -0.6149
  O  O712  1  0.172100  0.792900  0.110050  1.0  -0.598
  O  O713  1  0.857000  0.731800  0.178210  1.0  -0.497
  O  O714  1  0.782600  0.588800  0.203500  1.0  -0.5825
  O  O715  1  0.451700  0.184500  0.399830  1.0  -0.5869
  O  O716  1  0.309600  0.130200  0.425180  1.0  -0.6015
  O  O717  1  0.614000  0.443000  0.273280  1.0  -0.614
  O  O718  1  0.792900  0.620800  0.276710  1.0  -0.597
  O  O719  1  0.731800  0.874800  0.344870  1.0  -0.4967
  O  O720  1  0.588800  0.806200  0.370160  1.0  -0.5815
  O  O721  1  0.815500  0.267200  0.066500  1.0  -0.5873
  O  O722  1  0.869800  0.179400  0.091850  1.0  -0.6047
  O  O723  1  0.557000  0.171000  0.939950  1.0  -0.6128
  O  O724  1  0.379200  0.172100  0.943380  1.0  -0.6011
  O  O725  1  0.125200  0.857000  0.011540  1.0  -0.4967
  O  O726  1  0.193800  0.782600  0.036830  1.0  -0.5821
  O  O727  1  0.732800  0.548300  0.733170  1.0  -0.5873
  O  O728  1  0.820600  0.690400  0.758520  1.0  -0.6028
  O  O729  1  0.829000  0.386000  0.606620  1.0  -0.6151
  O  O730  1  0.827900  0.207100  0.610050  1.0  -0.5996
  O  O731  1  0.143000  0.268200  0.678210  1.0  -0.4965
  O  O732  1  0.217400  0.411200  0.703500  1.0  -0.5817
