# generated using pymatgen
data_NiH24C22(N4O3)2
_symmetry_space_group_name_H-M   'P 1'
_cell_length_a   12.56110000
_cell_length_b   12.56110000
_cell_length_c   62.47100000
_cell_angle_alpha   90.00000000
_cell_angle_beta   90.00000000
_cell_angle_gamma   120.00000000
_symmetry_Int_Tables_number   1
_chemical_formula_structural   NiH24C22(N4O3)2
_chemical_formula_sum   'Ni12 H288 C264 N96 O72'
_cell_volume   8536.19712839
_cell_formula_units_Z   12
loop_
 _symmetry_equiv_pos_site_id
 _symmetry_equiv_pos_as_xyz
  1  'x, y, z'
loop_
 _atom_site_type_symbol
 _atom_site_label
 _atom_site_symmetry_multiplicity
 _atom_site_fract_x
 _atom_site_fract_y
 _atom_site_fract_z
 _atom_site_occupancy
 _atom_site_charge
  Ni  Ni1  1  0.594270  0.188540  0.416670  1.0  0.6843
  Ni  Ni2  1  0.594270  0.405730  0.750000  1.0  0.6886
  Ni  Ni3  1  0.811460  0.405730  0.083330  1.0  0.69
  Ni  Ni4  1  0.405730  0.811460  0.916670  1.0  0.6864
  Ni  Ni5  1  0.405730  0.594270  0.250000  1.0  0.6886
  Ni  Ni6  1  0.188540  0.594270  0.583330  1.0  0.6927
  Ni  Ni7  1  0.696100  0.348050  0.583330  1.0  0.5094
  Ni  Ni8  1  0.651950  0.303900  0.916670  1.0  0.5032
  Ni  Ni9  1  0.651950  0.348050  0.250000  1.0  0.5096
  Ni  Ni10  1  0.303900  0.651950  0.083330  1.0  0.5106
  Ni  Ni11  1  0.348050  0.696100  0.416670  1.0  0.4963
  Ni  Ni12  1  0.348050  0.651950  0.750000  1.0  0.5108
  H  H13  1  0.963600  0.163200  0.444300  1.0  0.1345
  H  H14  1  0.996400  0.289900  0.434000  1.0  0.1188
  H  H15  1  0.903600  0.613200  0.520200  1.0  0.1153
  H  H16  1  0.015200  0.622500  0.533100  1.0  0.128
  H  H17  1  0.941400  0.730300  0.471600  1.0  0.107
  H  H18  1  0.000200  0.792500  0.449700  1.0  0.1322
  H  H19  1  0.591100  0.434100  0.418200  1.0  0.0731
  H  H20  1  0.626200  0.587900  0.441700  1.0  0.122
  H  H21  1  0.662100  0.391500  0.488200  1.0  0.1091
  H  H22  1  0.626900  0.243200  0.464000  1.0  0.0955
  H  H23  1  0.691000  0.682800  0.475800  1.0  0.0963
  H  H24  1  0.753600  0.630900  0.491000  1.0  0.0986
  H  H25  1  0.560500  0.501900  0.507300  1.0  0.0744
  H  H26  1  0.627900  0.374500  0.629100  1.0  0.0739
  H  H27  1  0.472200  0.281300  0.652800  1.0  0.1221
  H  H28  1  0.299800  0.002400  0.611400  1.0  0.128
  H  H29  1  0.463700  0.103000  0.589200  1.0  0.073
  H  H30  1  0.240200  0.126600  0.657500  1.0  0.0813
  H  H31  1  0.182600  0.009700  0.642700  1.0  0.0832
  H  H32  1  0.304400  0.942600  0.659400  1.0  0.0786
  H  H33  1  0.903000  0.178900  0.471300  1.0  0.331
  H  H34  1  0.891100  0.394300  0.527400  1.0  0.3052
  H  H35  1  0.975200  0.615100  0.439100  1.0  0.1641
  H  H36  1  0.214400  0.907400  0.492500  1.0  0.4086
  H  H37  1  0.199600  0.036400  0.777630  1.0  0.1384
  H  H38  1  0.293500  0.003600  0.767330  1.0  0.1193
  H  H39  1  0.709600  0.096400  0.853530  1.0  0.1163
  H  H40  1  0.607300  0.984800  0.866430  1.0  0.1328
  H  H41  1  0.788900  0.058600  0.804930  1.0  0.1083
  H  H42  1  0.792300  0.999800  0.783030  1.0  0.133
  H  H43  1  0.843000  0.408900  0.751530  1.0  0.0721
  H  H44  1  0.961700  0.373800  0.775030  1.0  0.1216
  H  H45  1  0.729400  0.337900  0.821530  1.0  0.1091
  H  H46  1  0.616300  0.373100  0.797330  1.0  0.0945
  H  H47  1  0.991800  0.309000  0.809130  1.0  0.0953
  H  H48  1  0.877300  0.246400  0.824330  1.0  0.1005
  H  H49  1  0.941400  0.439500  0.840630  1.0  0.0741
  H  H50  1  0.746600  0.372100  0.962430  1.0  0.0736
  H  H51  1  0.809100  0.527800  0.986130  1.0  0.1222
  H  H52  1  0.702600  0.700200  0.944730  1.0  0.1286
  H  H53  1  0.639300  0.536300  0.922530  1.0  0.073
  H  H54  1  0.886400  0.759800  0.990830  1.0  0.0787
  H  H55  1  0.827100  0.817400  0.976030  1.0  0.0838
  H  H56  1  0.638200  0.695600  0.992730  1.0  0.078
  H  H57  1  0.275900  0.097000  0.804630  1.0  0.3298
  H  H58  1  0.503200  0.108900  0.860730  1.0  0.3053
  H  H59  1  0.639900  0.024800  0.772430  1.0  0.1663
  H  H60  1  0.693000  0.785600  0.825830  1.0  0.4084
  H  H61  1  0.836800  0.800400  0.110970  1.0  0.1349
  H  H62  1  0.710100  0.706500  0.100670  1.0  0.1214
  H  H63  1  0.386800  0.290400  0.186870  1.0  0.1153
  H  H64  1  0.377500  0.392700  0.199770  1.0  0.1285
  H  H65  1  0.269700  0.211100  0.138270  1.0  0.1078
  H  H66  1  0.207500  0.207700  0.116370  1.0  0.1334
  H  H67  1  0.565900  0.157000  0.084870  1.0  0.073
  H  H68  1  0.412100  0.038300  0.108370  1.0  0.1196
  H  H69  1  0.608500  0.270600  0.154870  1.0  0.1092
  H  H70  1  0.756800  0.383700  0.130670  1.0  0.0939
  H  H71  1  0.317200  0.008200  0.142470  1.0  0.0965
  H  H72  1  0.369100  0.122700  0.157670  1.0  0.1024
  H  H73  1  0.498100  0.058600  0.173970  1.0  0.0752
  H  H74  1  0.625500  0.253400  0.295770  1.0  0.0747
  H  H75  1  0.718700  0.190900  0.319470  1.0  0.122
  H  H76  1  0.997600  0.297400  0.278070  1.0  0.1303
  H  H77  1  0.897000  0.360700  0.255870  1.0  0.0724
  H  H78  1  0.873400  0.113600  0.324170  1.0  0.0804
  H  H79  1  0.990300  0.172900  0.309370  1.0  0.0813
  H  H80  1  0.057400  0.361800  0.326070  1.0  0.0792
  H  H81  1  0.821100  0.724100  0.137970  1.0  0.3302
  H  H82  1  0.605700  0.496800  0.194070  1.0  0.3031
  H  H83  1  0.384900  0.360100  0.105770  1.0  0.1652
  H  H84  1  0.092600  0.307000  0.159170  1.0  0.4082
  H  H85  1  0.036400  0.836800  0.944300  1.0  0.135
  H  H86  1  0.003600  0.710100  0.934000  1.0  0.1198
  H  H87  1  0.096400  0.386800  0.020200  1.0  0.1154
  H  H88  1  0.984800  0.377500  0.033100  1.0  0.129
  H  H89  1  0.058600  0.269700  0.971600  1.0  0.1075
  H  H90  1  0.999800  0.207500  0.949700  1.0  0.1354
  H  H91  1  0.408900  0.565900  0.918200  1.0  0.0729
  H  H92  1  0.373800  0.412100  0.941700  1.0  0.121
  H  H93  1  0.337900  0.608500  0.988200  1.0  0.1088
  H  H94  1  0.373100  0.756800  0.964000  1.0  0.0948
  H  H95  1  0.309000  0.317200  0.975800  1.0  0.0965
  H  H96  1  0.246400  0.369100  0.991000  1.0  0.0979
  H  H97  1  0.439500  0.498100  0.007300  1.0  0.0745
  H  H98  1  0.372100  0.625500  0.129100  1.0  0.074
  H  H99  1  0.527800  0.718700  0.152800  1.0  0.122
  H  H100  1  0.700200  0.997600  0.111400  1.0  0.1284
  H  H101  1  0.536300  0.897000  0.089200  1.0  0.073
  H  H102  1  0.759800  0.873400  0.157500  1.0  0.0808
  H  H103  1  0.817400  0.990300  0.142700  1.0  0.0827
  H  H104  1  0.695600  0.057400  0.159400  1.0  0.0794
  H  H105  1  0.097000  0.821100  0.971300  1.0  0.3316
  H  H106  1  0.108900  0.605700  0.027400  1.0  0.3042
  H  H107  1  0.024800  0.384900  0.939100  1.0  0.1658
  H  H108  1  0.785600  0.092600  0.992500  1.0  0.4101
  H  H109  1  0.800400  0.963600  0.277630  1.0  0.1445
  H  H110  1  0.706500  0.996400  0.267330  1.0  0.12
  H  H111  1  0.290400  0.903600  0.353530  1.0  0.1159
  H  H112  1  0.392700  0.015200  0.366430  1.0  0.1307
  H  H113  1  0.211100  0.941400  0.304930  1.0  0.1091
  H  H114  1  0.207700  0.000200  0.283030  1.0  0.1349
  H  H115  1  0.157000  0.591100  0.251530  1.0  0.0725
  H  H116  1  0.038300  0.626200  0.275030  1.0  0.1229
  H  H117  1  0.270600  0.662100  0.321530  1.0  0.1094
  H  H118  1  0.383700  0.626900  0.297330  1.0  0.0954
  H  H119  1  0.008200  0.691000  0.309130  1.0  0.0951
  H  H120  1  0.122700  0.753600  0.324330  1.0  0.1011
  H  H121  1  0.058600  0.560500  0.340630  1.0  0.0741
  H  H122  1  0.253400  0.627900  0.462430  1.0  0.0737
  H  H123  1  0.190900  0.472200  0.486130  1.0  0.1223
  H  H124  1  0.297400  0.299800  0.444730  1.0  0.1283
  H  H125  1  0.360700  0.463700  0.422530  1.0  0.0731
  H  H126  1  0.113600  0.240200  0.490830  1.0  0.0769
  H  H127  1  0.172900  0.182600  0.476030  1.0  0.0836
  H  H128  1  0.361800  0.304400  0.492730  1.0  0.079
  H  H129  1  0.724100  0.903000  0.304630  1.0  0.3309
  H  H130  1  0.496800  0.891100  0.360730  1.0  0.3041
  H  H131  1  0.360100  0.975200  0.272430  1.0  0.1656
  H  H132  1  0.307000  0.214400  0.325830  1.0  0.4084
  H  H133  1  0.163200  0.199600  0.610970  1.0  0.1325
  H  H134  1  0.289900  0.293500  0.600670  1.0  0.1221
  H  H135  1  0.613200  0.709600  0.686870  1.0  0.1159
  H  H136  1  0.622500  0.607300  0.699770  1.0  0.1281
  H  H137  1  0.730300  0.788900  0.638270  1.0  0.1067
  H  H138  1  0.792500  0.792300  0.616370  1.0  0.1317
  H  H139  1  0.434100  0.843000  0.584870  1.0  0.0726
  H  H140  1  0.587900  0.961700  0.608370  1.0  0.1209
  H  H141  1  0.391500  0.729400  0.654870  1.0  0.109
  H  H142  1  0.243200  0.616300  0.630670  1.0  0.0934
  H  H143  1  0.682800  0.991800  0.642470  1.0  0.0963
  H  H144  1  0.630900  0.877300  0.657670  1.0  0.0994
  H  H145  1  0.501900  0.941400  0.673970  1.0  0.0759
  H  H146  1  0.374500  0.746600  0.795770  1.0  0.0744
  H  H147  1  0.281300  0.809100  0.819470  1.0  0.1217
  H  H148  1  0.002400  0.702600  0.778070  1.0  0.1307
  H  H149  1  0.103000  0.639300  0.755870  1.0  0.0729
  H  H150  1  0.126600  0.886400  0.824170  1.0  0.08
  H  H151  1  0.009700  0.827100  0.809370  1.0  0.0829
  H  H152  1  0.942600  0.638200  0.826070  1.0  0.0797
  H  H153  1  0.178900  0.275900  0.637970  1.0  0.3316
  H  H154  1  0.394300  0.503200  0.694070  1.0  0.3037
  H  H155  1  0.615100  0.639900  0.605770  1.0  0.1657
  H  H156  1  0.907400  0.693000  0.659170  1.0  0.408
  H  H157  1  0.800400  0.836800  0.889030  1.0  0.1354
  H  H158  1  0.706500  0.710100  0.899330  1.0  0.1195
  H  H159  1  0.290400  0.386800  0.813130  1.0  0.1149
  H  H160  1  0.392700  0.377500  0.800230  1.0  0.1282
  H  H161  1  0.211100  0.269700  0.861730  1.0  0.1077
  H  H162  1  0.207700  0.207500  0.883630  1.0  0.133
  H  H163  1  0.157000  0.565900  0.915130  1.0  0.0723
  H  H164  1  0.038300  0.412100  0.891630  1.0  0.1209
  H  H165  1  0.270600  0.608500  0.845130  1.0  0.1089
  H  H166  1  0.383700  0.756800  0.869330  1.0  0.0953
  H  H167  1  0.008200  0.317200  0.857530  1.0  0.0964
  H  H168  1  0.122700  0.369100  0.842330  1.0  0.1012
  H  H169  1  0.058600  0.498100  0.826030  1.0  0.0739
  H  H170  1  0.253400  0.625500  0.704230  1.0  0.0741
  H  H171  1  0.190900  0.718700  0.680530  1.0  0.1228
  H  H172  1  0.297400  0.997600  0.721930  1.0  0.1284
  H  H173  1  0.360700  0.897000  0.744130  1.0  0.0724
  H  H174  1  0.113600  0.873400  0.675830  1.0  0.0803
  H  H175  1  0.172900  0.990300  0.690630  1.0  0.0825
  H  H176  1  0.361800  0.057400  0.673930  1.0  0.0775
  H  H177  1  0.724100  0.821100  0.862030  1.0  0.3292
  H  H178  1  0.496800  0.605700  0.805930  1.0  0.3038
  H  H179  1  0.360100  0.384900  0.894230  1.0  0.1647
  H  H180  1  0.307000  0.092600  0.840830  1.0  0.4094
  H  H181  1  0.163200  0.963600  0.555700  1.0  0.1384
  H  H182  1  0.289900  0.996400  0.566000  1.0  0.1197
  H  H183  1  0.613200  0.903600  0.479800  1.0  0.1156
  H  H184  1  0.622500  0.015200  0.466900  1.0  0.1314
  H  H185  1  0.730300  0.941400  0.528400  1.0  0.1094
  H  H186  1  0.792500  0.000200  0.550300  1.0  0.1351
  H  H187  1  0.434100  0.591100  0.581800  1.0  0.0717
  H  H188  1  0.587900  0.626200  0.558300  1.0  0.1218
  H  H189  1  0.391500  0.662100  0.511800  1.0  0.1095
  H  H190  1  0.243200  0.626900  0.536000  1.0  0.0944
  H  H191  1  0.682800  0.691000  0.524200  1.0  0.0949
  H  H192  1  0.630900  0.753600  0.509000  1.0  0.1005
  H  H193  1  0.501900  0.560500  0.492700  1.0  0.0735
  H  H194  1  0.374500  0.627900  0.370900  1.0  0.0737
  H  H195  1  0.281300  0.472200  0.347200  1.0  0.1228
  H  H196  1  0.002400  0.299800  0.388600  1.0  0.1283
  H  H197  1  0.103000  0.463700  0.410800  1.0  0.0722
  H  H198  1  0.126600  0.240200  0.342500  1.0  0.0782
  H  H199  1  0.009700  0.182600  0.357300  1.0  0.0849
  H  H200  1  0.942600  0.304400  0.340600  1.0  0.0781
  H  H201  1  0.178900  0.903000  0.528700  1.0  0.3293
  H  H202  1  0.394300  0.891100  0.472600  1.0  0.3036
  H  H203  1  0.615100  0.975200  0.560900  1.0  0.1641
  H  H204  1  0.907400  0.214400  0.507500  1.0  0.4085
  H  H205  1  0.036400  0.199600  0.222370  1.0  0.135
  H  H206  1  0.003600  0.293500  0.232670  1.0  0.1208
  H  H207  1  0.096400  0.709600  0.146470  1.0  0.1149
  H  H208  1  0.984800  0.607300  0.133570  1.0  0.1289
  H  H209  1  0.058600  0.788900  0.195070  1.0  0.1078
  H  H210  1  0.999800  0.792300  0.216970  1.0  0.1351
  H  H211  1  0.408900  0.843000  0.248470  1.0  0.0718
  H  H212  1  0.373800  0.961700  0.224970  1.0  0.1205
  H  H213  1  0.337900  0.729400  0.178470  1.0  0.1093
  H  H214  1  0.373100  0.616300  0.202670  1.0  0.0939
  H  H215  1  0.309000  0.991800  0.190870  1.0  0.0961
  H  H216  1  0.246400  0.877300  0.175670  1.0  0.0991
  H  H217  1  0.439500  0.941400  0.159370  1.0  0.075
  H  H218  1  0.372100  0.746600  0.037570  1.0  0.0749
  H  H219  1  0.527800  0.809100  0.013870  1.0  0.1225
  H  H220  1  0.700200  0.702600  0.055270  1.0  0.1303
  H  H221  1  0.536300  0.639300  0.077470  1.0  0.0722
  H  H222  1  0.759800  0.886400  0.009170  1.0  0.0803
  H  H223  1  0.817400  0.827100  0.023970  1.0  0.0812
  H  H224  1  0.695600  0.638200  0.007270  1.0  0.08
  H  H225  1  0.097000  0.275900  0.195370  1.0  0.3298
  H  H226  1  0.108900  0.503200  0.139270  1.0  0.3032
  H  H227  1  0.024800  0.639900  0.227570  1.0  0.1651
  H  H228  1  0.785600  0.693000  0.174170  1.0  0.4086
  H  H229  1  0.199600  0.163200  0.389030  1.0  0.1355
  H  H230  1  0.293500  0.289900  0.399330  1.0  0.1192
  H  H231  1  0.709600  0.613200  0.313130  1.0  0.1148
  H  H232  1  0.607300  0.622500  0.300230  1.0  0.1287
  H  H233  1  0.788900  0.730300  0.361730  1.0  0.1076
  H  H234  1  0.792300  0.792500  0.383630  1.0  0.133
  H  H235  1  0.843000  0.434100  0.415130  1.0  0.0722
  H  H236  1  0.961700  0.587900  0.391630  1.0  0.1221
  H  H237  1  0.729400  0.391500  0.345130  1.0  0.1088
  H  H238  1  0.616300  0.243200  0.369330  1.0  0.0948
  H  H239  1  0.991800  0.682800  0.357530  1.0  0.0955
  H  H240  1  0.877300  0.630900  0.342330  1.0  0.0974
  H  H241  1  0.941400  0.501900  0.326030  1.0  0.0759
  H  H242  1  0.746600  0.374500  0.204230  1.0  0.0742
  H  H243  1  0.809100  0.281300  0.180530  1.0  0.1223
  H  H244  1  0.702600  0.002400  0.221930  1.0  0.1278
  H  H245  1  0.639300  0.103000  0.244130  1.0  0.0722
  H  H246  1  0.886400  0.126600  0.175830  1.0  0.0808
  H  H247  1  0.827100  0.009700  0.190630  1.0  0.0827
  H  H248  1  0.638200  0.942600  0.173930  1.0  0.0799
  H  H249  1  0.275900  0.178900  0.362030  1.0  0.3308
  H  H250  1  0.503200  0.394300  0.305930  1.0  0.3042
  H  H251  1  0.639900  0.615100  0.394230  1.0  0.1639
  H  H252  1  0.693000  0.907400  0.340830  1.0  0.409
  H  H253  1  0.836800  0.036400  0.055700  1.0  0.143
  H  H254  1  0.710100  0.003600  0.066000  1.0  0.1193
  H  H255  1  0.386800  0.096400  0.979800  1.0  0.1157
  H  H256  1  0.377500  0.984800  0.966900  1.0  0.1324
  H  H257  1  0.269700  0.058600  0.028400  1.0  0.1098
  H  H258  1  0.207500  0.999800  0.050300  1.0  0.133
  H  H259  1  0.565900  0.408900  0.081800  1.0  0.0719
  H  H260  1  0.412100  0.373800  0.058300  1.0  0.1222
  H  H261  1  0.608500  0.337900  0.011800  1.0  0.1092
  H  H262  1  0.756800  0.373100  0.036000  1.0  0.0952
  H  H263  1  0.317200  0.309000  0.024200  1.0  0.0944
  H  H264  1  0.369100  0.246400  0.009000  1.0  0.1043
  H  H265  1  0.498100  0.439500  0.992700  1.0  0.0736
  H  H266  1  0.625500  0.372100  0.870900  1.0  0.0738
  H  H267  1  0.718700  0.527800  0.847200  1.0  0.1223
  H  H268  1  0.997600  0.700200  0.888600  1.0  0.1281
  H  H269  1  0.897000  0.536300  0.910800  1.0  0.0726
  H  H270  1  0.873400  0.759800  0.842500  1.0  0.0772
  H  H271  1  0.990300  0.817400  0.857300  1.0  0.0824
  H  H272  1  0.057400  0.695600  0.840600  1.0  0.0787
  H  H273  1  0.821100  0.097000  0.028700  1.0  0.329
  H  H274  1  0.605700  0.108900  0.972600  1.0  0.3035
  H  H275  1  0.384900  0.024800  0.060900  1.0  0.1648
  H  H276  1  0.092600  0.785600  0.007500  1.0  0.4084
  H  H277  1  0.963600  0.800400  0.722370  1.0  0.135
  H  H278  1  0.996400  0.706500  0.732670  1.0  0.1229
  H  H279  1  0.903600  0.290400  0.646470  1.0  0.1157
  H  H280  1  0.015200  0.392700  0.633570  1.0  0.1276
  H  H281  1  0.941400  0.211100  0.695070  1.0  0.1076
  H  H282  1  0.000200  0.207700  0.716970  1.0  0.1328
  H  H283  1  0.591100  0.157000  0.748470  1.0  0.0721
  H  H284  1  0.626200  0.038300  0.724970  1.0  0.1206
  H  H285  1  0.662100  0.270600  0.678470  1.0  0.1092
  H  H286  1  0.626900  0.383700  0.702670  1.0  0.0935
  H  H287  1  0.691000  0.008200  0.690870  1.0  0.0956
  H  H288  1  0.753600  0.122700  0.675670  1.0  0.103
  H  H289  1  0.560500  0.058600  0.659370  1.0  0.076
  H  H290  1  0.627900  0.253400  0.537570  1.0  0.0745
  H  H291  1  0.472200  0.190900  0.513870  1.0  0.1227
  H  H292  1  0.299800  0.297400  0.555270  1.0  0.1307
  H  H293  1  0.463700  0.360700  0.577470  1.0  0.0718
  H  H294  1  0.240200  0.113600  0.509170  1.0  0.0794
  H  H295  1  0.182600  0.172900  0.523970  1.0  0.0818
  H  H296  1  0.304400  0.361800  0.507270  1.0  0.0779
  H  H297  1  0.903000  0.724100  0.695370  1.0  0.3292
  H  H298  1  0.891100  0.496800  0.639270  1.0  0.3021
  H  H299  1  0.975200  0.360100  0.727570  1.0  0.1646
  H  H300  1  0.214400  0.307000  0.674170  1.0  0.4076
  C  C301  1  0.923900  0.338100  0.469030  1.0  0.3921
  C  C302  1  0.924300  0.451500  0.498590  1.0  0.4209
  C  C303  1  0.958600  0.530600  0.465460  1.0  0.5606
  C  C304  1  0.929600  0.213600  0.439580  1.0  -0.1661
  C  C305  1  0.818000  0.172200  0.425990  1.0  0.7075
  C  C306  1  0.928600  0.569500  0.529960  1.0  -0.1095
  C  C307  1  0.855500  0.541600  0.550430  1.0  0.7771
  C  C308  1  0.004200  0.743100  0.461260  1.0  -0.0847
  C  C309  1  0.130800  0.813800  0.471990  1.0  0.6756
  C  C310  1  0.606100  0.425100  0.432450  1.0  0.1766
  C  C311  1  0.627200  0.518500  0.446590  1.0  -0.2138
  C  C312  1  0.649600  0.509200  0.467890  1.0  0.1324
  C  C313  1  0.648400  0.402700  0.473990  1.0  -0.2028
  C  C314  1  0.627100  0.313600  0.459310  1.0  0.162
  C  C315  1  0.677900  0.610300  0.483600  1.0  -0.1961
  C  C316  1  0.560700  0.298900  0.625390  1.0  0.1804
  C  C317  1  0.466800  0.244000  0.639710  1.0  -0.1929
  C  C318  1  0.363500  0.133100  0.634780  1.0  0.1379
  C  C319  1  0.365000  0.078800  0.615300  1.0  -0.2087
  C  C320  1  0.464100  0.140200  0.602080  1.0  0.1603
  C  C321  1  0.256100  0.067200  0.650390  1.0  -0.191
  C  C322  1  0.414200  0.076100  0.802360  1.0  0.3912
  C  C323  1  0.527200  0.075700  0.831920  1.0  0.4407
  C  C324  1  0.572000  0.041400  0.798790  1.0  0.5618
  C  C325  1  0.284000  0.070400  0.772910  1.0  -0.1683
  C  C326  1  0.354200  0.182000  0.759320  1.0  0.7074
  C  C327  1  0.640900  0.071400  0.863290  1.0  -0.1085
  C  C328  1  0.686100  0.144500  0.883760  1.0  0.7752
  C  C329  1  0.738900  0.995800  0.794590  1.0  -0.0841
  C  C330  1  0.683000  0.869200  0.805320  1.0  0.6764
  C  C331  1  0.819000  0.393900  0.765780  1.0  0.177
  C  C332  1  0.891300  0.372800  0.779920  1.0  -0.225
  C  C333  1  0.859600  0.350400  0.801220  1.0  0.1335
  C  C334  1  0.754300  0.351600  0.807320  1.0  -0.204
  C  C335  1  0.686500  0.372900  0.792640  1.0  0.1615
  C  C336  1  0.932400  0.322100  0.816930  1.0  -0.197
  C  C337  1  0.738200  0.439300  0.958720  1.0  0.1818
  C  C338  1  0.777200  0.533200  0.973040  1.0  -0.1931
  C  C339  1  0.769600  0.636500  0.968110  1.0  0.1391
  C  C340  1  0.713800  0.635000  0.948630  1.0  -0.1963
  C  C341  1  0.676100  0.535900  0.935410  1.0  0.1627
  C  C342  1  0.811100  0.743900  0.983720  1.0  -0.1951
  C  C343  1  0.661900  0.585800  0.135700  1.0  0.3903
  C  C344  1  0.548500  0.472800  0.165260  1.0  0.4371
  C  C345  1  0.469400  0.428000  0.132130  1.0  0.5621
  C  C346  1  0.786400  0.716000  0.106250  1.0  -0.1637
  C  C347  1  0.827800  0.645800  0.092660  1.0  0.7056
  C  C348  1  0.430500  0.359100  0.196630  1.0  -0.1087
  C  C349  1  0.458400  0.313900  0.217100  1.0  0.7925
  C  C350  1  0.256900  0.261100  0.127930  1.0  -0.086
  C  C351  1  0.186200  0.317000  0.138660  1.0  0.6773
  C  C352  1  0.574900  0.181000  0.099120  1.0  0.177
  C  C353  1  0.481500  0.108700  0.113260  1.0  -0.2229
  C  C354  1  0.490800  0.140400  0.134560  1.0  0.1324
  C  C355  1  0.597300  0.245700  0.140660  1.0  -0.2027
  C  C356  1  0.686400  0.313500  0.125980  1.0  0.1646
  C  C357  1  0.389700  0.067600  0.150270  1.0  -0.1925
  C  C358  1  0.701100  0.261800  0.292060  1.0  0.1757
  C  C359  1  0.756000  0.222800  0.306380  1.0  -0.1937
  C  C360  1  0.866900  0.230400  0.301450  1.0  0.1389
  C  C361  1  0.921200  0.286200  0.281970  1.0  -0.2097
  C  C362  1  0.859800  0.323900  0.268750  1.0  0.1648
  C  C363  1  0.932800  0.188900  0.317060  1.0  -0.1961
  C  C364  1  0.076100  0.661900  0.969030  1.0  0.391
  C  C365  1  0.075700  0.548500  0.998590  1.0  0.4547
  C  C366  1  0.041400  0.469400  0.965460  1.0  0.5617
  C  C367  1  0.070400  0.786400  0.939580  1.0  -0.165
  C  C368  1  0.182000  0.827800  0.925990  1.0  0.7074
  C  C369  1  0.071400  0.430500  0.029960  1.0  -0.1092
  C  C370  1  0.144500  0.458400  0.050430  1.0  0.7911
  C  C371  1  0.995800  0.256900  0.961260  1.0  -0.0865
  C  C372  1  0.869200  0.186200  0.971990  1.0  0.6679
  C  C373  1  0.393900  0.574900  0.932450  1.0  0.1775
  C  C374  1  0.372800  0.481500  0.946590  1.0  -0.2227
  C  C375  1  0.350400  0.490800  0.967890  1.0  0.1326
  C  C376  1  0.351600  0.597300  0.973990  1.0  -0.2042
  C  C377  1  0.372900  0.686400  0.959310  1.0  0.162
  C  C378  1  0.322100  0.389700  0.983600  1.0  -0.1967
  C  C379  1  0.439300  0.701100  0.125390  1.0  0.1778
  C  C380  1  0.533200  0.756000  0.139710  1.0  -0.1914
  C  C381  1  0.636500  0.866900  0.134780  1.0  0.1386
  C  C382  1  0.635000  0.921200  0.115300  1.0  -0.1975
  C  C383  1  0.535900  0.859800  0.102080  1.0  0.162
  C  C384  1  0.743900  0.932800  0.150390  1.0  -0.192
  C  C385  1  0.585800  0.923900  0.302360  1.0  0.3881
  C  C386  1  0.472800  0.924300  0.331920  1.0  0.4561
  C  C387  1  0.428000  0.958600  0.298790  1.0  0.5619
  C  C388  1  0.716000  0.929600  0.272910  1.0  -0.1675
  C  C389  1  0.645800  0.818000  0.259320  1.0  0.7058
  C  C390  1  0.359100  0.928600  0.363290  1.0  -0.11
  C  C391  1  0.313900  0.855500  0.383760  1.0  0.7903
  C  C392  1  0.261100  0.004200  0.294590  1.0  -0.0867
  C  C393  1  0.317000  0.130800  0.305320  1.0  0.6784
  C  C394  1  0.181000  0.606100  0.265780  1.0  0.1765
  C  C395  1  0.108700  0.627200  0.279920  1.0  -0.2248
  C  C396  1  0.140400  0.649600  0.301220  1.0  0.1324
  C  C397  1  0.245700  0.648400  0.307320  1.0  -0.2049
  C  C398  1  0.313500  0.627100  0.292640  1.0  0.1631
  C  C399  1  0.067600  0.677900  0.316930  1.0  -0.1959
  C  C400  1  0.261800  0.560700  0.458720  1.0  0.1776
  C  C401  1  0.222800  0.466800  0.473040  1.0  -0.1928
  C  C402  1  0.230400  0.363500  0.468110  1.0  0.1387
  C  C403  1  0.286200  0.365000  0.448630  1.0  -0.2066
  C  C404  1  0.323900  0.464100  0.435410  1.0  0.1643
  C  C405  1  0.188900  0.256100  0.483720  1.0  -0.1957
  C  C406  1  0.338100  0.414200  0.635700  1.0  0.3884
  C  C407  1  0.451500  0.527200  0.665260  1.0  0.4449
  C  C408  1  0.530600  0.572000  0.632130  1.0  0.5615
  C  C409  1  0.213600  0.284000  0.606250  1.0  -0.1638
  C  C410  1  0.172200  0.354200  0.592660  1.0  0.7077
  C  C411  1  0.569500  0.640900  0.696630  1.0  -0.1092
  C  C412  1  0.541600  0.686100  0.717100  1.0  0.7773
  C  C413  1  0.743100  0.738900  0.627930  1.0  -0.085
  C  C414  1  0.813800  0.683000  0.638660  1.0  0.6765
  C  C415  1  0.425100  0.819000  0.599120  1.0  0.1768
  C  C416  1  0.518500  0.891300  0.613260  1.0  -0.2148
  C  C417  1  0.509200  0.859600  0.634560  1.0  0.1325
  C  C418  1  0.402700  0.754300  0.640660  1.0  -0.2017
  C  C419  1  0.313600  0.686500  0.625980  1.0  0.1638
  C  C420  1  0.610300  0.932400  0.650270  1.0  -0.1875
  C  C421  1  0.298900  0.738200  0.792060  1.0  0.1789
  C  C422  1  0.244000  0.777200  0.806380  1.0  -0.1952
  C  C423  1  0.133100  0.769600  0.801450  1.0  0.1376
  C  C424  1  0.078800  0.713800  0.781970  1.0  -0.2086
  C  C425  1  0.140200  0.676100  0.768750  1.0  0.1645
  C  C426  1  0.067200  0.811100  0.817060  1.0  -0.1942
  C  C427  1  0.585800  0.661900  0.864300  1.0  0.3907
  C  C428  1  0.472800  0.548500  0.834740  1.0  0.4542
  C  C429  1  0.428000  0.469400  0.867870  1.0  0.5618
  C  C430  1  0.716000  0.786400  0.893750  1.0  -0.1662
  C  C431  1  0.645800  0.827800  0.907340  1.0  0.7064
  C  C432  1  0.359100  0.430500  0.803370  1.0  -0.1096
  C  C433  1  0.313900  0.458400  0.782900  1.0  0.7893
  C  C434  1  0.261100  0.256900  0.872070  1.0  -0.0828
  C  C435  1  0.317000  0.186200  0.861340  1.0  0.6764
  C  C436  1  0.181000  0.574900  0.900880  1.0  0.1761
  C  C437  1  0.108700  0.481500  0.886740  1.0  -0.2227
  C  C438  1  0.140400  0.490800  0.865440  1.0  0.134
  C  C439  1  0.245700  0.597300  0.859340  1.0  -0.2013
  C  C440  1  0.313500  0.686400  0.874020  1.0  0.1629
  C  C441  1  0.067600  0.389700  0.849730  1.0  -0.1952
  C  C442  1  0.261800  0.701100  0.707940  1.0  0.1773
  C  C443  1  0.222800  0.756000  0.693620  1.0  -0.1925
  C  C444  1  0.230400  0.866900  0.698550  1.0  0.1373
  C  C445  1  0.286200  0.921200  0.718030  1.0  -0.2098
  C  C446  1  0.323900  0.859800  0.731250  1.0  0.1596
  C  C447  1  0.188900  0.932800  0.682940  1.0  -0.1913
  C  C448  1  0.338100  0.923900  0.530970  1.0  0.3887
  C  C449  1  0.451500  0.924300  0.501410  1.0  0.4567
  C  C450  1  0.530600  0.958600  0.534540  1.0  0.5613
  C  C451  1  0.213600  0.929600  0.560420  1.0  -0.1658
  C  C452  1  0.172200  0.818000  0.574010  1.0  0.7078
  C  C453  1  0.569500  0.928600  0.470040  1.0  -0.1094
  C  C454  1  0.541600  0.855500  0.449570  1.0  0.7746
  C  C455  1  0.743100  0.004200  0.538740  1.0  -0.0833
  C  C456  1  0.813800  0.130800  0.528010  1.0  0.6777
  C  C457  1  0.425100  0.606100  0.567550  1.0  0.1768
  C  C458  1  0.518500  0.627200  0.553410  1.0  -0.2158
  C  C459  1  0.509200  0.649600  0.532110  1.0  0.1343
  C  C460  1  0.402700  0.648400  0.526010  1.0  -0.2028
  C  C461  1  0.313600  0.627100  0.540690  1.0  0.1624
  C  C462  1  0.610300  0.677900  0.516400  1.0  -0.1961
  C  C463  1  0.298900  0.560700  0.374610  1.0  0.1814
  C  C464  1  0.244000  0.466800  0.360290  1.0  -0.1936
  C  C465  1  0.133100  0.363500  0.365220  1.0  0.1391
  C  C466  1  0.078800  0.365000  0.384700  1.0  -0.2065
  C  C467  1  0.140200  0.464100  0.397920  1.0  0.1649
  C  C468  1  0.067200  0.256100  0.349610  1.0  -0.1964
  C  C469  1  0.076100  0.414200  0.197640  1.0  0.3898
  C  C470  1  0.075700  0.527200  0.168080  1.0  0.4402
  C  C471  1  0.041400  0.572000  0.201210  1.0  0.5616
  C  C472  1  0.070400  0.284000  0.227090  1.0  -0.1639
  C  C473  1  0.182000  0.354200  0.240680  1.0  0.7058
  C  C474  1  0.071400  0.640900  0.136710  1.0  -0.1079
  C  C475  1  0.144500  0.686100  0.116240  1.0  0.7905
  C  C476  1  0.995800  0.738900  0.205410  1.0  -0.0851
  C  C477  1  0.869200  0.683000  0.194680  1.0  0.674
  C  C478  1  0.393900  0.819000  0.234220  1.0  0.1762
  C  C479  1  0.372800  0.891300  0.220080  1.0  -0.2225
  C  C480  1  0.350400  0.859600  0.198780  1.0  0.1333
  C  C481  1  0.351600  0.754300  0.192680  1.0  -0.1995
  C  C482  1  0.372900  0.686500  0.207360  1.0  0.1652
  C  C483  1  0.322100  0.932400  0.183070  1.0  -0.1925
  C  C484  1  0.439300  0.738200  0.041280  1.0  0.1764
  C  C485  1  0.533200  0.777200  0.026960  1.0  -0.1927
  C  C486  1  0.636500  0.769600  0.031890  1.0  0.1382
  C  C487  1  0.635000  0.713800  0.051370  1.0  -0.2023
  C  C488  1  0.535900  0.676100  0.064590  1.0  0.1652
  C  C489  1  0.743900  0.811100  0.016280  1.0  -0.1961
  C  C490  1  0.414200  0.338100  0.364300  1.0  0.3895
  C  C491  1  0.527200  0.451500  0.334740  1.0  0.4564
  C  C492  1  0.572000  0.530600  0.367870  1.0  0.5608
  C  C493  1  0.284000  0.213600  0.393750  1.0  -0.1639
  C  C494  1  0.354200  0.172200  0.407340  1.0  0.7099
  C  C495  1  0.640900  0.569500  0.303370  1.0  -0.1078
  C  C496  1  0.686100  0.541600  0.282900  1.0  0.7889
  C  C497  1  0.738900  0.743100  0.372070  1.0  -0.0856
  C  C498  1  0.683000  0.813800  0.361340  1.0  0.6744
  C  C499  1  0.819000  0.425100  0.400880  1.0  0.1766
  C  C500  1  0.891300  0.518500  0.386740  1.0  -0.2222
  C  C501  1  0.859600  0.509200  0.365440  1.0  0.1337
  C  C502  1  0.754300  0.402700  0.359340  1.0  -0.2013
  C  C503  1  0.686500  0.313600  0.374020  1.0  0.1621
  C  C504  1  0.932400  0.610300  0.349730  1.0  -0.1912
  C  C505  1  0.738200  0.298900  0.207940  1.0  0.1802
  C  C506  1  0.777200  0.244000  0.193620  1.0  -0.1921
  C  C507  1  0.769600  0.133100  0.198550  1.0  0.1387
  C  C508  1  0.713800  0.078800  0.218030  1.0  -0.2079
  C  C509  1  0.676100  0.140200  0.231250  1.0  0.1631
  C  C510  1  0.811100  0.067200  0.182940  1.0  -0.1913
  C  C511  1  0.661900  0.076100  0.030970  1.0  0.3902
  C  C512  1  0.548500  0.075700  0.001410  1.0  0.4549
  C  C513  1  0.469400  0.041400  0.034540  1.0  0.562
  C  C514  1  0.786400  0.070400  0.060420  1.0  -0.1682
  C  C515  1  0.827800  0.182000  0.074010  1.0  0.7055
  C  C516  1  0.430500  0.071400  0.970040  1.0  -0.1091
  C  C517  1  0.458400  0.144500  0.949570  1.0  0.7763
  C  C518  1  0.256900  0.995800  0.038740  1.0  -0.086
  C  C519  1  0.186200  0.869200  0.028010  1.0  0.6759
  C  C520  1  0.574900  0.393900  0.067550  1.0  0.1756
  C  C521  1  0.481500  0.372800  0.053410  1.0  -0.2229
  C  C522  1  0.490800  0.350400  0.032110  1.0  0.1339
  C  C523  1  0.597300  0.351600  0.026010  1.0  -0.2018
  C  C524  1  0.686400  0.372900  0.040690  1.0  0.1635
  C  C525  1  0.389700  0.322100  0.016400  1.0  -0.1958
  C  C526  1  0.701100  0.439300  0.874610  1.0  0.1787
  C  C527  1  0.756000  0.533200  0.860290  1.0  -0.1925
  C  C528  1  0.866900  0.636500  0.865220  1.0  0.1388
  C  C529  1  0.921200  0.635000  0.884700  1.0  -0.2079
  C  C530  1  0.859800  0.535900  0.897920  1.0  0.1644
  C  C531  1  0.932800  0.743900  0.849610  1.0  -0.1956
  C  C532  1  0.923900  0.585800  0.697640  1.0  0.3875
  C  C533  1  0.924300  0.472800  0.668080  1.0  0.46
  C  C534  1  0.958600  0.428000  0.701210  1.0  0.5622
  C  C535  1  0.929600  0.716000  0.727090  1.0  -0.1629
  C  C536  1  0.818000  0.645800  0.740680  1.0  0.7066
  C  C537  1  0.928600  0.359100  0.636710  1.0  -0.1087
  C  C538  1  0.855500  0.313900  0.616240  1.0  0.7769
  C  C539  1  0.004200  0.261100  0.705410  1.0  -0.083
  C  C540  1  0.130800  0.317000  0.694680  1.0  0.6769
  C  C541  1  0.606100  0.181000  0.734220  1.0  0.1765
  C  C542  1  0.627200  0.108700  0.720080  1.0  -0.224
  C  C543  1  0.649600  0.140400  0.698780  1.0  0.1332
  C  C544  1  0.648400  0.245700  0.692680  1.0  -0.1999
  C  C545  1  0.627100  0.313500  0.707360  1.0  0.1643
  C  C546  1  0.677900  0.067600  0.683070  1.0  -0.1909
  C  C547  1  0.560700  0.261800  0.541280  1.0  0.1775
  C  C548  1  0.466800  0.222800  0.526960  1.0  -0.1946
  C  C549  1  0.363500  0.230400  0.531890  1.0  0.1382
  C  C550  1  0.365000  0.286200  0.551370  1.0  -0.2095
  C  C551  1  0.464100  0.323900  0.564590  1.0  0.1635
  C  C552  1  0.256100  0.188900  0.516280  1.0  -0.1943
  C  C553  1  0.576700  0.576700  0.500000  1.0  -0.098
  C  C554  1  0.000000  0.423300  0.833330  1.0  -0.0974
  C  C555  1  0.423300  0.000000  0.166670  1.0  -0.1034
  C  C556  1  0.423300  0.423300  0.000000  1.0  -0.1065
  C  C557  1  0.000000  0.576700  0.333333  1.0  -0.1025
  C  C558  1  0.576700  0.000000  0.666667  1.0  -0.0957
  C  C559  1  0.288000  0.000000  0.666667  1.0  -0.1066
  C  C560  1  0.712000  0.712000  0.000000  1.0  -0.1007
  C  C561  1  0.000000  0.288000  0.333333  1.0  -0.1062
  C  C562  1  0.712000  0.000000  0.166670  1.0  -0.1006
  C  C563  1  0.288000  0.288000  0.500000  1.0  -0.1099
  C  C564  1  0.000000  0.712000  0.833330  1.0  -0.1104
  N  N565  1  0.947000  0.429600  0.455880  1.0  -0.5201
  N  N566  1  0.908800  0.343400  0.490900  1.0  -0.4107
  N  N567  1  0.951900  0.548900  0.486710  1.0  -0.5439
  N  N568  1  0.916300  0.235400  0.462180  1.0  -0.3539
  N  N569  1  0.910900  0.458200  0.519640  1.0  -0.3905
  N  N570  1  0.978200  0.625000  0.452790  1.0  -0.3863
  N  N571  1  0.606200  0.322600  0.438240  1.0  -0.3176
  N  N572  1  0.562300  0.250900  0.606410  1.0  -0.3325
  N  N573  1  0.482600  0.053000  0.789210  1.0  -0.522
  N  N574  1  0.434600  0.091200  0.824230  1.0  -0.413
  N  N575  1  0.597000  0.048100  0.820040  1.0  -0.5297
  N  N576  1  0.319100  0.083700  0.795510  1.0  -0.3547
  N  N577  1  0.547300  0.089100  0.852970  1.0  -0.3907
  N  N578  1  0.646800  0.021800  0.786120  1.0  -0.3828
  N  N579  1  0.716400  0.393800  0.771570  1.0  -0.3149
  N  N580  1  0.688600  0.437700  0.939740  1.0  -0.3359
  N  N581  1  0.570400  0.517400  0.122550  1.0  -0.521
  N  N582  1  0.656600  0.565400  0.157570  1.0  -0.4109
  N  N583  1  0.451100  0.403000  0.153380  1.0  -0.5424
  N  N584  1  0.764600  0.680900  0.128850  1.0  -0.3555
  N  N585  1  0.541800  0.452700  0.186310  1.0  -0.3903
  N  N586  1  0.375000  0.353200  0.119460  1.0  -0.3836
  N  N587  1  0.677400  0.283600  0.104910  1.0  -0.3146
  N  N588  1  0.749100  0.311400  0.273080  1.0  -0.3335
  N  N589  1  0.053000  0.570400  0.955880  1.0  -0.521
  N  N590  1  0.091200  0.656600  0.990900  1.0  -0.4118
  N  N591  1  0.048100  0.451100  0.986710  1.0  -0.5323
  N  N592  1  0.083700  0.764600  0.962180  1.0  -0.3548
  N  N593  1  0.089100  0.541800  0.019640  1.0  -0.3881
  N  N594  1  0.021800  0.375000  0.952790  1.0  -0.3855
  N  N595  1  0.393800  0.677400  0.938240  1.0  -0.3139
  N  N596  1  0.437700  0.749100  0.106410  1.0  -0.3347
  N  N597  1  0.517400  0.947000  0.289210  1.0  -0.5207
  N  N598  1  0.565400  0.908800  0.324230  1.0  -0.4131
  N  N599  1  0.403000  0.951900  0.320040  1.0  -0.5394
  N  N600  1  0.680900  0.916300  0.295510  1.0  -0.353
  N  N601  1  0.452700  0.910900  0.352970  1.0  -0.3914
  N  N602  1  0.353200  0.978200  0.286120  1.0  -0.3844
  N  N603  1  0.283600  0.606200  0.271570  1.0  -0.3147
  N  N604  1  0.311400  0.562300  0.439740  1.0  -0.332
  N  N605  1  0.429600  0.482600  0.622550  1.0  -0.5217
  N  N606  1  0.343400  0.434600  0.657570  1.0  -0.4125
  N  N607  1  0.548900  0.597000  0.653380  1.0  -0.5316
  N  N608  1  0.235400  0.319100  0.628850  1.0  -0.3562
  N  N609  1  0.458200  0.547300  0.686310  1.0  -0.3895
  N  N610  1  0.625000  0.646800  0.619460  1.0  -0.3851
  N  N611  1  0.322600  0.716400  0.604910  1.0  -0.3146
  N  N612  1  0.250900  0.688600  0.773080  1.0  -0.3327
  N  N613  1  0.517400  0.570400  0.877450  1.0  -0.5214
  N  N614  1  0.565400  0.656600  0.842430  1.0  -0.4111
  N  N615  1  0.403000  0.451100  0.846620  1.0  -0.5422
  N  N616  1  0.680900  0.764600  0.871150  1.0  -0.3547
  N  N617  1  0.452700  0.541800  0.813690  1.0  -0.3904
  N  N618  1  0.353200  0.375000  0.880540  1.0  -0.3865
  N  N619  1  0.283600  0.677400  0.895090  1.0  -0.3154
  N  N620  1  0.311400  0.749100  0.726920  1.0  -0.3317
  N  N621  1  0.429600  0.947000  0.544120  1.0  -0.5231
  N  N622  1  0.343400  0.908800  0.509100  1.0  -0.4138
  N  N623  1  0.548900  0.951900  0.513290  1.0  -0.5302
  N  N624  1  0.235400  0.916300  0.537820  1.0  -0.3549
  N  N625  1  0.458200  0.910900  0.480360  1.0  -0.3907
  N  N626  1  0.625000  0.978200  0.547210  1.0  -0.3803
  N  N627  1  0.322600  0.606200  0.561760  1.0  -0.3152
  N  N628  1  0.250900  0.562300  0.393590  1.0  -0.3327
  N  N629  1  0.053000  0.482600  0.210790  1.0  -0.5219
  N  N630  1  0.091200  0.434600  0.175770  1.0  -0.411
  N  N631  1  0.048100  0.597000  0.179960  1.0  -0.542
  N  N632  1  0.083700  0.319100  0.204490  1.0  -0.3556
  N  N633  1  0.089100  0.547300  0.147030  1.0  -0.3912
  N  N634  1  0.021800  0.646800  0.213880  1.0  -0.3844
  N  N635  1  0.393800  0.716400  0.228430  1.0  -0.3131
  N  N636  1  0.437700  0.688600  0.060260  1.0  -0.3335
  N  N637  1  0.482600  0.429600  0.377450  1.0  -0.5226
  N  N638  1  0.434600  0.343400  0.342430  1.0  -0.412
  N  N639  1  0.597000  0.548900  0.346620  1.0  -0.5338
  N  N640  1  0.319100  0.235400  0.371150  1.0  -0.3542
  N  N641  1  0.547300  0.458200  0.313690  1.0  -0.3887
  N  N642  1  0.646800  0.625000  0.380540  1.0  -0.385
  N  N643  1  0.716400  0.322600  0.395090  1.0  -0.3162
  N  N644  1  0.688600  0.250900  0.226920  1.0  -0.3332
  N  N645  1  0.570400  0.053000  0.044120  1.0  -0.5218
  N  N646  1  0.656600  0.091200  0.009100  1.0  -0.4138
  N  N647  1  0.451100  0.048100  0.013290  1.0  -0.5419
  N  N648  1  0.764600  0.083700  0.037820  1.0  -0.3536
  N  N649  1  0.541800  0.089100  0.980360  1.0  -0.3921
  N  N650  1  0.375000  0.021800  0.047210  1.0  -0.3812
  N  N651  1  0.677400  0.393800  0.061760  1.0  -0.3138
  N  N652  1  0.749100  0.437700  0.893590  1.0  -0.3336
  N  N653  1  0.947000  0.517400  0.710790  1.0  -0.523
  N  N654  1  0.908800  0.565400  0.675770  1.0  -0.4129
  N  N655  1  0.951900  0.403000  0.679960  1.0  -0.5317
  N  N656  1  0.916300  0.680900  0.704490  1.0  -0.3573
  N  N657  1  0.910900  0.452700  0.647030  1.0  -0.3899
  N  N658  1  0.978200  0.353200  0.713880  1.0  -0.3843
  N  N659  1  0.606200  0.283600  0.728430  1.0  -0.315
  N  N660  1  0.562300  0.311400  0.560260  1.0  -0.3321
  O  O661  1  0.733000  0.185000  0.433440  1.0  -0.5918
  O  O662  1  0.820300  0.129900  0.408040  1.0  -0.5946
  O  O663  1  0.828800  0.443200  0.560070  1.0  -0.6077
  O  O664  1  0.827900  0.620300  0.556720  1.0  -0.5922
  O  O665  1  0.142800  0.874300  0.488490  1.0  -0.4906
  O  O666  1  0.216900  0.805700  0.463130  1.0  -0.5775
  O  O667  1  0.452000  0.267000  0.766770  1.0  -0.5936
  O  O668  1  0.309600  0.179700  0.741370  1.0  -0.5928
  O  O669  1  0.614400  0.171200  0.893400  1.0  -0.6054
  O  O670  1  0.792400  0.172100  0.890050  1.0  -0.5978
  O  O671  1  0.731500  0.857200  0.821820  1.0  -0.4905
  O  O672  1  0.588800  0.783100  0.796460  1.0  -0.5767
  O  O673  1  0.815000  0.548000  0.100110  1.0  -0.5907
  O  O674  1  0.870100  0.690400  0.074710  1.0  -0.5931
  O  O675  1  0.556800  0.385600  0.226740  1.0  -0.6074
  O  O676  1  0.379700  0.207600  0.223390  1.0  -0.5935
  O  O677  1  0.125700  0.268500  0.155160  1.0  -0.4916
  O  O678  1  0.194300  0.411200  0.129800  1.0  -0.5754
  O  O679  1  0.267000  0.815000  0.933440  1.0  -0.5907
  O  O680  1  0.179700  0.870100  0.908040  1.0  -0.5951
  O  O681  1  0.171200  0.556800  0.060070  1.0  -0.6077
  O  O682  1  0.172100  0.379700  0.056720  1.0  -0.5925
  O  O683  1  0.857200  0.125700  0.988490  1.0  -0.4908
  O  O684  1  0.783100  0.194300  0.963130  1.0  -0.5757
  O  O685  1  0.548000  0.733000  0.266770  1.0  -0.594
  O  O686  1  0.690400  0.820300  0.241370  1.0  -0.5936
  O  O687  1  0.385600  0.828800  0.393400  1.0  -0.6059
  O  O688  1  0.207600  0.827900  0.390050  1.0  -0.5956
  O  O689  1  0.268500  0.142800  0.321820  1.0  -0.4939
  O  O690  1  0.411200  0.216900  0.296460  1.0  -0.5765
  O  O691  1  0.185000  0.452000  0.600110  1.0  -0.5917
  O  O692  1  0.129900  0.309600  0.574710  1.0  -0.5937
  O  O693  1  0.443200  0.614400  0.726740  1.0  -0.6076
  O  O694  1  0.620300  0.792400  0.723390  1.0  -0.5951
  O  O695  1  0.874300  0.731500  0.655160  1.0  -0.4896
  O  O696  1  0.805700  0.588800  0.629800  1.0  -0.5764
  O  O697  1  0.548000  0.815000  0.899890  1.0  -0.5899
  O  O698  1  0.690400  0.870100  0.925290  1.0  -0.5934
  O  O699  1  0.385600  0.556800  0.773260  1.0  -0.6073
  O  O700  1  0.207600  0.379700  0.776610  1.0  -0.5928
  O  O701  1  0.268500  0.125700  0.844840  1.0  -0.4899
  O  O702  1  0.411200  0.194300  0.870200  1.0  -0.5785
  O  O703  1  0.185000  0.733000  0.566560  1.0  -0.5936
  O  O704  1  0.129900  0.820300  0.591960  1.0  -0.5907
  O  O705  1  0.443200  0.828800  0.439930  1.0  -0.605
  O  O706  1  0.620300  0.827900  0.443280  1.0  -0.5968
  O  O707  1  0.874300  0.142800  0.511510  1.0  -0.4916
  O  O708  1  0.805700  0.216900  0.536870  1.0  -0.5776
  O  O709  1  0.267000  0.452000  0.233230  1.0  -0.5909
  O  O710  1  0.179700  0.309600  0.258630  1.0  -0.5923
  O  O711  1  0.171200  0.614400  0.106600  1.0  -0.6066
  O  O712  1  0.172100  0.792400  0.109950  1.0  -0.5946
  O  O713  1  0.857200  0.731500  0.178180  1.0  -0.4902
  O  O714  1  0.783100  0.588800  0.203540  1.0  -0.5781
  O  O715  1  0.452000  0.185000  0.399890  1.0  -0.5911
  O  O716  1  0.309600  0.129900  0.425290  1.0  -0.592
  O  O717  1  0.614400  0.443200  0.273260  1.0  -0.6061
  O  O718  1  0.792400  0.620300  0.276610  1.0  -0.5928
  O  O719  1  0.731500  0.874300  0.344840  1.0  -0.49
  O  O720  1  0.588800  0.805700  0.370200  1.0  -0.5769
  O  O721  1  0.815000  0.267000  0.066560  1.0  -0.5925
  O  O722  1  0.870100  0.179700  0.091960  1.0  -0.5933
  O  O723  1  0.556800  0.171200  0.939930  1.0  -0.6049
  O  O724  1  0.379700  0.172100  0.943280  1.0  -0.5964
  O  O725  1  0.125700  0.857200  0.011510  1.0  -0.4896
  O  O726  1  0.194300  0.783100  0.036870  1.0  -0.5784
  O  O727  1  0.733000  0.548000  0.733230  1.0  -0.5929
  O  O728  1  0.820300  0.690400  0.758630  1.0  -0.5908
  O  O729  1  0.828800  0.385600  0.606600  1.0  -0.6066
  O  O730  1  0.827900  0.207600  0.609950  1.0  -0.5954
  O  O731  1  0.142800  0.268500  0.678180  1.0  -0.4905
  O  O732  1  0.216900  0.411200  0.703540  1.0  -0.5772
