# generated using pymatgen
data_Cu3H29C53N7O12
_symmetry_space_group_name_H-M   'P 1'
_cell_length_a   27.85950000
_cell_length_b   27.85950000
_cell_length_c   27.85950000
_cell_angle_alpha   96.35890000
_cell_angle_beta   116.39900000
_cell_angle_gamma   116.39900000
_symmetry_Int_Tables_number   1
_chemical_formula_structural   Cu3H29C53N7O12
_chemical_formula_sum   'Cu24 H232 C424 N56 O96'
_cell_volume   16015.33411598
_cell_formula_units_Z   8
loop_
 _symmetry_equiv_pos_site_id
 _symmetry_equiv_pos_as_xyz
  1  'x, y, z'
loop_
 _atom_site_type_symbol
 _atom_site_label
 _atom_site_symmetry_multiplicity
 _atom_site_fract_x
 _atom_site_fract_y
 _atom_site_fract_z
 _atom_site_occupancy
 _atom_site_charge
  Cu  Cu1  1  0.774270  0.597040  0.383530  1.0  0.9292
  Cu  Cu2  1  0.709560  0.647720  0.360480  1.0  0.9
  Cu  Cu3  1  0.739940  0.649170  0.835090  1.0  0.8429
  Cu  Cu4  1  0.725730  0.109270  0.822770  1.0  0.9248
  Cu  Cu5  1  0.790440  0.150920  0.938160  1.0  0.8978
  Cu  Cu6  1  0.760060  0.595150  0.909230  1.0  0.8421
  Cu  Cu7  1  0.213510  0.616470  0.890740  1.0  0.9296
  Cu  Cu8  1  0.287240  0.639520  0.849080  1.0  0.8994
  Cu  Cu9  1  0.814080  0.164910  0.404850  1.0  0.8419
  Cu  Cu10  1  0.286490  0.177230  0.402950  1.0  0.9295
  Cu  Cu11  1  0.212760  0.061840  0.352280  1.0  0.9038
  Cu  Cu12  1  0.685920  0.090770  0.350830  1.0  0.8426
  Cu  Cu13  1  0.786490  0.383530  0.109260  1.0  0.9301
  Cu  Cu14  1  0.712760  0.360480  0.150920  1.0  0.8983
  Cu  Cu15  1  0.185920  0.835090  0.595150  1.0  0.8435
  Cu  Cu16  1  0.713510  0.822770  0.597050  1.0  0.9267
  Cu  Cu17  1  0.787240  0.938160  0.647720  1.0  0.9026
  Cu  Cu18  1  0.314080  0.909230  0.649170  1.0  0.8419
  Cu  Cu19  1  0.225730  0.402960  0.616470  1.0  0.9305
  Cu  Cu20  1  0.290440  0.352280  0.639520  1.0  0.9018
  Cu  Cu21  1  0.260060  0.350830  0.164910  1.0  0.843
  Cu  Cu22  1  0.274270  0.890730  0.177230  1.0  0.9255
  Cu  Cu23  1  0.209560  0.849080  0.061840  1.0  0.8988
  Cu  Cu24  1  0.239940  0.404850  0.090770  1.0  0.8417
  H  H25  1  0.865800  0.655900  0.568100  1.0  0.1105
  H  H26  1  0.744400  0.707700  0.531500  1.0  0.1063
  H  H27  1  0.770100  0.727800  0.625100  1.0  0.1156
  H  H28  1  0.842400  0.712000  0.689200  1.0  0.0993
  H  H29  1  0.869800  0.651400  0.790200  1.0  0.1138
  H  H30  1  0.898000  0.571200  0.901400  1.0  0.1187
  H  H31  1  0.967000  0.563400  0.885200  1.0  0.1246
  H  H32  1  0.978900  0.588500  0.813000  1.0  0.1113
  H  H33  1  0.077800  0.644700  0.772300  1.0  0.1127
  H  H34  1  0.179800  0.674300  0.701100  1.0  0.1098
  H  H35  1  0.109300  0.690200  0.629900  1.0  0.1074
  H  H36  1  0.028700  0.689400  0.635300  1.0  0.0938
  H  H37  1  0.622500  0.591400  0.173300  1.0  0.1201
  H  H38  1  0.736900  0.530200  0.217100  1.0  0.1042
  H  H39  1  0.714100  0.506200  0.124300  1.0  0.1048
  H  H40  1  0.648500  0.529800  0.055900  1.0  0.1109
  H  H41  1  0.632100  0.598400  0.958300  1.0  0.0995
  H  H42  1  0.546600  0.595700  0.796100  1.0  0.106
  H  H43  1  0.450300  0.562100  0.790400  1.0  0.1081
  H  H44  1  0.450000  0.561500  0.874100  1.0  0.1082
  H  H45  1  0.422500  0.610100  0.969000  1.0  0.1111
  H  H46  1  0.313300  0.574900  0.035000  1.0  0.0936
  H  H47  1  0.375300  0.551700  0.102000  1.0  0.1051
  H  H48  1  0.462800  0.555800  0.102800  1.0  0.1176
  H  H49  1  0.696400  0.631600  0.711800  1.0  0.0791
  H  H50  1  0.658800  0.664900  0.637300  1.0  0.1274
  H  H51  1  0.662500  0.749100  0.666667  1.0  0.0904
  H  H52  1  0.693100  0.792200  0.755900  1.0  0.1268
  H  H53  1  0.729000  0.752900  0.825300  1.0  0.0905
  H  H54  1  0.634200  0.202300  0.790100  1.0  0.1102
  H  H55  1  0.755600  0.287100  0.963300  1.0  0.1075
  H  H56  1  0.729900  0.355000  0.957700  1.0  0.1143
  H  H57  1  0.657600  0.346800  0.869600  1.0  0.0981
  H  H58  1  0.630200  0.420400  0.781600  1.0  0.1138
  H  H59  1  0.602000  0.503400  0.673200  1.0  0.1196
  H  H60  1  0.533000  0.418200  0.596400  1.0  0.1238
  H  H61  1  0.521100  0.334100  0.609600  1.0  0.1111
  H  H62  1  0.422200  0.194500  0.566900  1.0  0.1123
  H  H63  1  0.320200  0.021300  0.494500  1.0  0.1102
  H  H64  1  0.390700  0.020600  0.580900  1.0  0.1072
  H  H65  1  0.471300  0.106600  0.660700  1.0  0.094
  H  H66  1  0.877500  0.050800  0.968900  1.0  0.1195
  H  H67  1  0.763100  0.980200  0.793300  1.0  0.1035
  H  H68  1  0.785900  0.910200  0.792100  1.0  0.1046
  H  H69  1  0.851500  0.907400  0.881300  1.0  0.1102
  H  H70  1  0.867900  0.826200  0.966300  1.0  0.1011
  H  H71  1  0.953400  0.749500  0.049100  1.0  0.1057
  H  H72  1  0.049700  0.840100  0.111800  1.0  0.1096
  H  H73  1  0.050000  0.924100  0.111500  1.0  0.1088
  H  H74  1  0.077500  0.046500  0.187600  1.0  0.1106
  H  H75  1  0.186700  0.221700  0.261600  1.0  0.0933
  H  H76  1  0.124700  0.226700  0.176400  1.0  0.105
  H  H77  1  0.037200  0.140000  0.093000  1.0  0.1172
  H  H78  1  0.803600  0.515400  0.935200  1.0  0.08
  H  H79  1  0.841200  0.478500  0.006100  1.0  0.1262
  H  H80  1  0.837500  0.504100  0.086600  1.0  0.0905
  H  H81  1  0.806900  0.562800  0.099100  1.0  0.1268
  H  H82  1  0.771000  0.596300  0.023900  1.0  0.089
  H  H83  1  0.087800  0.431900  0.797700  1.0  0.1118
  H  H84  1  0.176200  0.468500  0.712900  1.0  0.1089
  H  H85  1  0.102700  0.374900  0.645000  1.0  0.1148
  H  H86  1  0.022800  0.310800  0.653200  1.0  0.099
  H  H87  1  0.861200  0.209800  0.579600  1.0  0.113
  H  H88  1  0.669800  0.098600  0.496600  1.0  0.1199
  H  H89  1  0.678200  0.114800  0.581800  1.0  0.1254
  H  H90  1  0.775500  0.187000  0.665900  1.0  0.1126
  H  H91  1  0.872400  0.227700  0.805500  1.0  0.1106
  H  H92  1  0.973200  0.298900  0.978700  1.0  0.1098
  H  H93  1  0.060300  0.370100  0.979400  1.0  0.1057
  H  H94  1  0.054100  0.364700  0.893400  1.0  0.0942
  H  H95  1  0.418100  0.826700  0.949200  1.0  0.1197
  H  H96  1  0.313100  0.782900  0.019800  1.0  0.1036
  H  H97  1  0.381900  0.875700  0.089800  1.0  0.1048
  H  H98  1  0.473900  0.944100  0.092600  1.0  0.1112
  H  H99  1  0.640100  0.041700  0.173800  1.0  0.0974
  H  H100  1  0.799600  0.203900  0.250500  1.0  0.1041
  H  H101  1  0.771700  0.209600  0.159900  1.0  0.1089
  H  H102  1  0.687400  0.125900  0.075900  1.0  0.1079
  H  H103  1  0.641100  0.031000  0.953500  1.0  0.1094
  H  H104  1  0.539900  0.965000  0.778300  1.0  0.0949
  H  H105  1  0.449700  0.898000  0.773300  1.0  0.1044
  H  H106  1  0.453000  0.897200  0.860000  1.0  0.1184
  H  H107  1  0.919800  0.288200  0.484600  1.0  0.0785
  H  H108  1  0.027600  0.362700  0.521500  1.0  0.1263
  H  H109  1  0.082500  0.333400  0.495900  1.0  0.0896
  H  H110  1  0.036300  0.244100  0.437200  1.0  0.1262
  H  H111  1  0.927600  0.174700  0.403700  1.0  0.0901
  H  H112  1  0.412200  0.209900  0.344100  1.0  0.1122
  H  H113  1  0.323800  0.036700  0.292300  1.0  0.1087
  H  H114  1  0.397300  0.042300  0.272200  1.0  0.1162
  H  H115  1  0.477200  0.130400  0.288000  1.0  0.0976
  H  H116  1  0.638800  0.218400  0.348600  1.0  0.1135
  H  H117  1  0.830200  0.326800  0.428800  1.0  0.1215
  H  H118  1  0.821800  0.403600  0.436600  1.0  0.125
  H  H119  1  0.724500  0.390400  0.411500  1.0  0.1129
  H  H120  1  0.627600  0.433100  0.355300  1.0  0.1122
  H  H121  1  0.526800  0.505500  0.325700  1.0  0.1098
  H  H122  1  0.439700  0.419100  0.309800  1.0  0.1084
  H  H123  1  0.445900  0.339300  0.310600  1.0  0.0945
  H  H124  1  0.081900  0.031100  0.408600  1.0  0.1216
  H  H125  1  0.186900  0.206700  0.469800  1.0  0.1044
  H  H126  1  0.118100  0.207900  0.493800  1.0  0.105
  H  H127  1  0.026100  0.118700  0.470200  1.0  0.1105
  H  H128  1  0.859900  0.033700  0.401600  1.0  0.1005
  H  H129  1  0.700400  0.950900  0.404300  1.0  0.1046
  H  H130  1  0.728300  0.888200  0.437900  1.0  0.108
  H  H131  1  0.812600  0.888500  0.438500  1.0  0.1071
  H  H132  1  0.858900  0.812400  0.389900  1.0  0.1076
  H  H133  1  0.960100  0.738400  0.425100  1.0  0.094
  H  H134  1  0.050300  0.823600  0.448300  1.0  0.1061
  H  H135  1  0.047000  0.907000  0.444200  1.0  0.119
  H  H136  1  0.580200  0.064800  0.368400  1.0  0.079
  H  H137  1  0.472400  0.993900  0.335100  1.0  0.1271
  H  H138  1  0.417500  0.913400  0.250900  1.0  0.0907
  H  H139  1  0.463700  0.900900  0.207800  1.0  0.1257
  H  H140  1  0.572400  0.976100  0.247100  1.0  0.0909
  H  H141  1  0.912200  0.568100  0.202300  1.0  0.1115
  H  H142  1  0.823800  0.531500  0.287100  1.0  0.1092
  H  H143  1  0.897300  0.625100  0.355000  1.0  0.1165
  H  H144  1  0.977200  0.689200  0.346800  1.0  0.0985
  H  H145  1  0.138800  0.790200  0.420400  1.0  0.113
  H  H146  1  0.330200  0.901400  0.503400  1.0  0.1202
  H  H147  1  0.321800  0.885200  0.418200  1.0  0.124
  H  H148  1  0.224500  0.813000  0.334100  1.0  0.1127
  H  H149  1  0.127600  0.772300  0.194500  1.0  0.1112
  H  H150  1  0.026800  0.701100  0.021300  1.0  0.1088
  H  H151  1  0.939700  0.629900  0.020600  1.0  0.1064
  H  H152  1  0.945900  0.635300  0.106600  1.0  0.0946
  H  H153  1  0.581900  0.173300  0.050800  1.0  0.1195
  H  H154  1  0.686900  0.217100  0.980200  1.0  0.1039
  H  H155  1  0.618100  0.124300  0.910200  1.0  0.1049
  H  H156  1  0.526100  0.055900  0.907400  1.0  0.111
  H  H157  1  0.359900  0.958300  0.826200  1.0  0.098
  H  H158  1  0.200400  0.796100  0.749500  1.0  0.1047
  H  H159  1  0.228300  0.790400  0.840100  1.0  0.109
  H  H160  1  0.312600  0.874100  0.924100  1.0  0.1084
  H  H161  1  0.358900  0.969000  0.046500  1.0  0.1089
  H  H162  1  0.460100  0.035000  0.221700  1.0  0.0949
  H  H163  1  0.550300  0.102000  0.226700  1.0  0.1047
  H  H164  1  0.547000  0.102800  0.140000  1.0  0.1184
  H  H165  1  0.080200  0.711800  0.515400  1.0  0.0793
  H  H166  1  0.972400  0.637300  0.478500  1.0  0.1252
  H  H167  1  0.917500  0.666667  0.504100  1.0  0.0892
  H  H168  1  0.963700  0.755900  0.562800  1.0  0.1263
  H  H169  1  0.072400  0.825300  0.596300  1.0  0.0907
  H  H170  1  0.587800  0.790100  0.655900  1.0  0.1123
  H  H171  1  0.676200  0.963300  0.707700  1.0  0.109
  H  H172  1  0.602700  0.957700  0.727800  1.0  0.1149
  H  H173  1  0.522800  0.869600  0.712000  1.0  0.0978
  H  H174  1  0.361200  0.781600  0.651400  1.0  0.1139
  H  H175  1  0.169800  0.673200  0.571200  1.0  0.1216
  H  H176  1  0.178200  0.596400  0.563400  1.0  0.126
  H  H177  1  0.275500  0.609600  0.588500  1.0  0.1125
  H  H178  1  0.372400  0.566900  0.644700  1.0  0.1127
  H  H179  1  0.473200  0.494500  0.674300  1.0  0.1099
  H  H180  1  0.560300  0.580900  0.690200  1.0  0.1094
  H  H181  1  0.554100  0.660700  0.689400  1.0  0.0945
  H  H182  1  0.918100  0.968900  0.591400  1.0  0.1218
  H  H183  1  0.813100  0.793300  0.530200  1.0  0.1043
  H  H184  1  0.881900  0.792100  0.506200  1.0  0.105
  H  H185  1  0.973900  0.881300  0.529800  1.0  0.1118
  H  H186  1  0.140100  0.966300  0.598400  1.0  0.1015
  H  H187  1  0.299600  0.049100  0.595700  1.0  0.1049
  H  H188  1  0.271700  0.111800  0.562100  1.0  0.1087
  H  H189  1  0.187400  0.111500  0.561500  1.0  0.1084
  H  H190  1  0.141100  0.187600  0.610100  1.0  0.1083
  H  H191  1  0.039900  0.261600  0.574900  1.0  0.0936
  H  H192  1  0.949700  0.176400  0.551700  1.0  0.1062
  H  H193  1  0.953000  0.093000  0.555800  1.0  0.1191
  H  H194  1  0.419800  0.935200  0.631600  1.0  0.0792
  H  H195  1  0.527600  0.006100  0.664900  1.0  0.1277
  H  H196  1  0.582500  0.086600  0.749100  1.0  0.09
  H  H197  1  0.536300  0.099100  0.792200  1.0  0.1259
  H  H198  1  0.427600  0.023900  0.752900  1.0  0.0904
  H  H199  1  0.134200  0.344100  0.431900  1.0  0.1108
  H  H200  1  0.255600  0.292300  0.468500  1.0  0.1076
  H  H201  1  0.229900  0.272200  0.374900  1.0  0.1154
  H  H202  1  0.157600  0.288000  0.310800  1.0  0.0996
  H  H203  1  0.130200  0.348600  0.209800  1.0  0.1138
  H  H204  1  0.102000  0.428800  0.098600  1.0  0.1195
  H  H205  1  0.033000  0.436600  0.114800  1.0  0.1245
  H  H206  1  0.021100  0.411500  0.187000  1.0  0.1115
  H  H207  1  0.922200  0.355300  0.227700  1.0  0.1128
  H  H208  1  0.820200  0.325700  0.298900  1.0  0.1095
  H  H209  1  0.890700  0.309800  0.370100  1.0  0.1078
  H  H210  1  0.971300  0.310600  0.364700  1.0  0.0939
  H  H211  1  0.377500  0.408600  0.826700  1.0  0.1206
  H  H212  1  0.263100  0.469800  0.782900  1.0  0.1041
  H  H213  1  0.285900  0.493800  0.875700  1.0  0.1049
  H  H214  1  0.351500  0.470200  0.944100  1.0  0.1107
  H  H215  1  0.367900  0.401600  0.041700  1.0  0.0999
  H  H216  1  0.453400  0.404300  0.203900  1.0  0.1062
  H  H217  1  0.549700  0.437900  0.209600  1.0  0.108
  H  H218  1  0.550000  0.438500  0.125900  1.0  0.1081
  H  H219  1  0.577500  0.389900  0.031000  1.0  0.1111
  H  H220  1  0.686700  0.425100  0.965000  1.0  0.0923
  H  H221  1  0.624700  0.448300  0.898000  1.0  0.1057
  H  H222  1  0.537200  0.444200  0.897200  1.0  0.1181
  H  H223  1  0.303600  0.368400  0.288200  1.0  0.0794
  H  H224  1  0.341200  0.335100  0.362700  1.0  0.1272
  H  H225  1  0.337500  0.250900  0.333400  1.0  0.0899
  H  H226  1  0.306900  0.207800  0.244100  1.0  0.1264
  H  H227  1  0.271000  0.247100  0.174700  1.0  0.0912
  H  H228  1  0.365800  0.797700  0.209900  1.0  0.1107
  H  H229  1  0.244400  0.712900  0.036700  1.0  0.1076
  H  H230  1  0.270100  0.645000  0.042300  1.0  0.1161
  H  H231  1  0.342400  0.653200  0.130400  1.0  0.098
  H  H232  1  0.369800  0.579600  0.218400  1.0  0.1144
  H  H233  1  0.398000  0.496600  0.326800  1.0  0.1193
  H  H234  1  0.467000  0.581800  0.403600  1.0  0.1249
  H  H235  1  0.478900  0.665900  0.390400  1.0  0.1116
  H  H236  1  0.577800  0.805500  0.433100  1.0  0.1123
  H  H237  1  0.679800  0.978700  0.505500  1.0  0.1106
  H  H238  1  0.609300  0.979400  0.419100  1.0  0.1082
  H  H239  1  0.528700  0.893400  0.339300  1.0  0.094
  H  H240  1  0.122500  0.949200  0.031100  1.0  0.1192
  H  H241  1  0.236900  0.019800  0.206700  1.0  0.1046
  H  H242  1  0.214100  0.089800  0.207900  1.0  0.1047
  H  H243  1  0.148500  0.092600  0.118700  1.0  0.1099
  H  H244  1  0.132100  0.173800  0.033700  1.0  0.101
  H  H245  1  0.046600  0.250500  0.950900  1.0  0.1051
  H  H246  1  0.950300  0.159900  0.888200  1.0  0.111
  H  H247  1  0.950000  0.075900  0.888500  1.0  0.1085
  H  H248  1  0.922500  0.953500  0.812400  1.0  0.1111
  H  H249  1  0.813300  0.778300  0.738400  1.0  0.0926
  H  H250  1  0.875300  0.773300  0.823600  1.0  0.1045
  H  H251  1  0.962800  0.860000  0.907000  1.0  0.1173
  H  H252  1  0.196400  0.484600  0.064800  1.0  0.0784
  H  H253  1  0.158800  0.521500  0.993900  1.0  0.1263
  H  H254  1  0.162500  0.495900  0.913400  1.0  0.0906
  H  H255  1  0.193100  0.437200  0.900900  1.0  0.1277
  H  H256  1  0.229000  0.403700  0.976100  1.0  0.0896
  C  C257  1  0.909310  0.674110  0.677820  1.0  0.3045
  C  C258  1  0.939900  0.646500  0.753000  1.0  0.4302
  C  C259  1  0.991300  0.662280  0.707980  1.0  0.38
  C  C260  1  0.863100  0.684780  0.636480  1.0  -0.0797
  C  C261  1  0.846400  0.670430  0.579230  1.0  -0.0023
  C  C262  1  0.801200  0.677840  0.539040  1.0  -0.1298
  C  C263  1  0.773600  0.700930  0.557530  1.0  -0.0633
  C  C264  1  0.789200  0.713390  0.613390  1.0  -0.0986
  C  C265  1  0.832900  0.704520  0.651620  1.0  -0.0662
  C  C266  1  0.781010  0.660290  0.477140  1.0  0.6705
  C  C267  1  0.930000  0.627800  0.798000  1.0  -0.0849
  C  C268  1  0.889900  0.634100  0.809400  1.0  0.0373
  C  C269  1  0.879400  0.615200  0.849000  1.0  -0.1436
  C  C270  1  0.907100  0.585930  0.876030  1.0  -0.0562
  C  C271  1  0.946000  0.579660  0.865060  1.0  -0.0759
  C  C272  1  0.955600  0.597180  0.823780  1.0  -0.0691
  C  C273  1  0.833300  0.620160  0.860460  1.0  0.6918
  C  C274  1  0.044100  0.665070  0.703770  1.0  -0.1681
  C  C275  1  0.084800  0.654500  0.744100  1.0  0.0093
  C  C276  1  0.136600  0.657930  0.744130  1.0  -0.1695
  C  C277  1  0.145700  0.671700  0.701800  1.0  -0.0433
  C  C278  1  0.103700  0.682200  0.659300  1.0  -0.109
  C  C279  1  0.054800  0.680400  0.661800  1.0  -0.0451
  C  C280  1  0.179300  0.645500  0.789000  1.0  0.6784
  C  C281  1  0.583600  0.571210  0.065010  1.0  0.2147
  C  C282  1  0.541400  0.577900  0.977500  1.0  0.333
  C  C283  1  0.502100  0.582900  0.031600  1.0  0.3557
  C  C284  1  0.630800  0.562700  0.109100  1.0  -0.0718
  C  C285  1  0.641900  0.575500  0.164000  1.0  -0.0558
  C  C286  1  0.683600  0.563600  0.206200  1.0  -0.1465
  C  C287  1  0.709900  0.538100  0.190000  1.0  -0.0267
  C  C288  1  0.696900  0.524200  0.134500  1.0  -0.094
  C  C289  1  0.656800  0.537800  0.093000  1.0  -0.1379
  C  C290  1  0.703050  0.583740  0.266310  1.0  0.7084
  C  C291  1  0.542800  0.581400  0.926800  1.0  -0.0486
  C  C292  1  0.597100  0.593400  0.925500  1.0  -0.0135
  C  C293  1  0.601000  0.597900  0.879100  1.0  -0.0647
  C  C294  1  0.544300  0.589400  0.827300  1.0  -0.084
  C  C295  1  0.487300  0.572100  0.824800  1.0  -0.0699
  C  C296  1  0.486500  0.570100  0.874600  1.0  -0.0748
  C  C297  1  0.658600  0.612300  0.879300  1.0  0.7343
  C  C298  1  0.451100  0.583730  0.035630  1.0  -0.1466
  C  C299  1  0.413170  0.598270  0.995440  1.0  -0.017
  C  C300  1  0.361970  0.595240  0.995010  1.0  -0.12
  C  C301  1  0.348000  0.577240  0.035640  1.0  -0.052
  C  C302  1  0.384700  0.563000  0.075500  1.0  -0.0745
  C  C303  1  0.437800  0.565700  0.076300  1.0  -0.0569
  C  C304  1  0.321400  0.609710  0.951510  1.0  0.6876
  C  C305  1  0.696400  0.664700  0.721100  1.0  0.1508
  C  C306  1  0.673500  0.683700  0.675400  1.0  -0.1345
  C  C307  1  0.675400  0.733500  0.693900  1.0  -0.0677
  C  C308  1  0.693800  0.759600  0.745800  1.0  -0.1371
  C  C309  1  0.715700  0.735400  0.787500  1.0  0.1942
  C  C310  1  0.590690  0.268510  0.764800  1.0  0.3047
  C  C311  1  0.560100  0.313100  0.706600  1.0  0.4301
  C  C312  1  0.508700  0.216680  0.670980  1.0  0.3812
  C  C313  1  0.636900  0.273380  0.821680  1.0  -0.0787
  C  C314  1  0.653600  0.232830  0.824030  1.0  -0.0023
  C  C315  1  0.698800  0.237840  0.876640  1.0  -0.1284
  C  C316  1  0.726400  0.283930  0.927330  1.0  -0.0634
  C  C317  1  0.710800  0.324190  0.924190  1.0  -0.0956
  C  C318  1  0.667100  0.318720  0.871620  1.0  -0.0627
  C  C319  1  0.718990  0.196130  0.879280  1.0  0.6703
  C  C320  1  0.570000  0.368000  0.697800  1.0  -0.0849
  C  C321  1  0.610100  0.419500  0.744200  1.0  0.0409
  C  C322  1  0.620600  0.469600  0.735800  1.0  -0.1422
  C  C323  1  0.592900  0.468930  0.678830  1.0  -0.058
  C  C324  1  0.554000  0.419060  0.633660  1.0  -0.0765
  C  C325  1  0.544400  0.368180  0.641580  1.0  -0.0732
  C  C326  1  0.666667  0.527160  0.786860  1.0  0.6948
  C  C327  1  0.455900  0.159670  0.620970  1.0  -0.1679
  C  C328  1  0.415200  0.159300  0.569700  1.0  0.0067
  C  C329  1  0.363400  0.107530  0.521330  1.0  -0.1678
  C  C330  1  0.354300  0.056100  0.526000  1.0  -0.0469
  C  C331  1  0.396300  0.055600  0.578500  1.0  -0.1116
  C  C332  1  0.445200  0.107000  0.625600  1.0  -0.045
  C  C333  1  0.320700  0.109700  0.466200  1.0  0.6791
  C  C334  1  0.916400  0.981410  0.987610  1.0  0.2212
  C  C335  1  0.958600  0.936100  0.036500  1.0  0.332
  C  C336  1  0.997900  0.029500  0.080800  1.0  0.358
  C  C337  1  0.869200  0.978300  0.931900  1.0  -0.0707
  C  C338  1  0.858100  0.022100  0.933600  1.0  -0.0489
  C  C339  1  0.816400  0.022600  0.880000  1.0  -0.1488
  C  C340  1  0.790100  0.980100  0.828200  1.0  -0.0278
  C  C341  1  0.803100  0.937600  0.827300  1.0  -0.094
  C  C342  1  0.843200  0.936200  0.881000  1.0  -0.1368
  C  C343  1  0.796950  0.063260  0.880690  1.0  0.7081
  C  C344  1  0.957200  0.884000  0.038600  1.0  -0.0519
  C  C345  1  0.902900  0.828400  0.996300  1.0  -0.0139
  C  C346  1  0.899000  0.778100  0.996900  1.0  -0.0638
  C  C347  1  0.955700  0.783000  0.045100  1.0  -0.0806
  C  C348  1  0.012700  0.837500  0.084800  1.0  -0.0695
  C  C349  1  0.013500  0.888100  0.083600  1.0  -0.0747
  C  C350  1  0.841400  0.720700  0.953700  1.0  0.7352
  C  C351  1  0.048900  0.084530  0.132630  1.0  -0.1486
  C  C352  1  0.086830  0.082270  0.185100  1.0  -0.0144
  C  C353  1  0.138030  0.133040  0.233270  1.0  -0.121
  C  C354  1  0.152000  0.187640  0.229240  1.0  -0.051
  C  C355  1  0.115300  0.190800  0.178300  1.0  -0.0751
  C  C356  1  0.062200  0.138500  0.127900  1.0  -0.0581
  C  C357  1  0.178600  0.130110  0.288310  1.0  0.691
  C  C358  1  0.803600  0.524700  0.968300  1.0  0.158
  C  C359  1  0.826500  0.501900  0.010200  1.0  -0.1347
  C  C360  1  0.824600  0.518500  0.058100  1.0  -0.0671
  C  C361  1  0.806200  0.552000  0.065800  1.0  -0.1357
  C  C362  1  0.784300  0.571800  0.019700  1.0  0.1887
  C  C363  1  0.996290  0.322180  0.731490  1.0  0.305
  C  C364  1  0.893500  0.247000  0.686900  1.0  0.4299
  C  C365  1  0.954300  0.292020  0.783320  1.0  0.3805
  C  C366  1  0.048300  0.363520  0.726620  1.0  -0.0807
  C  C367  1  0.091200  0.420770  0.767170  1.0  -0.0023
  C  C368  1  0.138800  0.460960  0.762160  1.0  -0.1272
  C  C369  1  0.143400  0.442470  0.716070  1.0  -0.0655
  C  C370  1  0.100000  0.386610  0.675810  1.0  -0.0982
  C  C371  1  0.052900  0.348380  0.681280  1.0  -0.065
  C  C372  1  0.183150  0.522860  0.803870  1.0  0.671
  C  C373  1  0.829800  0.202000  0.632000  1.0  -0.0835
  C  C374  1  0.824700  0.190600  0.580500  1.0  0.0411
  C  C375  1  0.766200  0.151000  0.530400  1.0  -0.142
  C  C376  1  0.709900  0.123970  0.531070  1.0  -0.0576
  C  C377  1  0.714600  0.134940  0.580940  1.0  -0.0792
  C  C378  1  0.773400  0.176220  0.631820  1.0  -0.0699
  C  C379  1  0.759700  0.139540  0.472840  1.0  0.6934
  C  C380  1  0.961300  0.296230  0.840330  1.0  -0.1646
  C  C381  1  0.910400  0.255900  0.840700  1.0  0.0076
  C  C382  1  0.913800  0.255870  0.892470  1.0  -0.1678
  C  C383  1  0.969900  0.298200  0.943900  1.0  -0.0395
  C  C384  1  0.022900  0.340700  0.944400  1.0  -0.1126
  C  C385  1  0.018600  0.338200  0.893000  1.0  -0.0425
  C  C386  1  0.856500  0.211000  0.890300  1.0  0.679
  C  C387  1  0.506200  0.934990  0.018590  1.0  0.2164
  C  C388  1  0.600400  0.022500  0.063900  1.0  0.3332
  C  C389  1  0.551300  0.968400  0.970500  1.0  0.3518
  C  C390  1  0.453600  0.890900  0.021700  1.0  -0.0789
  C  C391  1  0.411500  0.836000  0.977900  1.0  -0.0534
  C  C392  1  0.357400  0.793800  0.977400  1.0  -0.1499
  C  C393  1  0.348100  0.810000  0.019900  1.0  -0.0271
  C  C394  1  0.389700  0.865500  0.062400  1.0  -0.0948
  C  C395  1  0.444800  0.907000  0.063800  1.0  -0.1381
  C  C396  1  0.317430  0.733690  0.936740  1.0  0.7082
  C  C397  1  0.654600  0.073200  0.116000  1.0  -0.0494
  C  C398  1  0.667900  0.074500  0.171600  1.0  -0.009
  C  C399  1  0.718800  0.120900  0.221900  1.0  -0.0659
  C  C400  1  0.762100  0.172700  0.217000  1.0  -0.0826
  C  C401  1  0.747300  0.175200  0.162500  1.0  -0.0675
  C  C402  1  0.695500  0.125400  0.111900  1.0  -0.071
  C  C403  1  0.733000  0.120700  0.279300  1.0  0.7361
  C  C404  1  0.548100  0.964370  0.915470  1.0  -0.1486
  C  C405  1  0.602830  0.004560  0.917730  1.0  -0.0148
  C  C406  1  0.600230  0.004990  0.866960  1.0  -0.1223
  C  C407  1  0.541600  0.964360  0.812360  1.0  -0.0529
  C  C408  1  0.487500  0.924500  0.809200  1.0  -0.0769
  C  C409  1  0.489400  0.923700  0.861500  1.0  -0.0577
  C  C410  1  0.658200  0.048490  0.869890  1.0  0.6918
  C  C411  1  0.943600  0.278900  0.475300  1.0  0.1545
  C  C412  1  0.008300  0.324600  0.498100  1.0  -0.1354
  C  C413  1  0.039600  0.306100  0.481500  1.0  -0.0658
  C  C414  1  0.013800  0.254200  0.448000  1.0  -0.1405
  C  C415  1  0.947900  0.212500  0.428200  1.0  0.1906
  C  C416  1  0.503710  0.235200  0.325890  1.0  0.305
  C  C417  1  0.606500  0.293400  0.353500  1.0  0.4303
  C  C418  1  0.545700  0.329020  0.337720  1.0  0.381
  C  C419  1  0.451700  0.178320  0.315220  1.0  -0.0794
  C  C420  1  0.408800  0.175970  0.329570  1.0  -0.0016
  C  C421  1  0.361200  0.123360  0.322160  1.0  -0.1274
  C  C422  1  0.356600  0.072670  0.299070  1.0  -0.0672
  C  C423  1  0.400000  0.075810  0.286610  1.0  -0.099
  C  C424  1  0.447100  0.128380  0.295480  1.0  -0.0637
  C  C425  1  0.316850  0.120720  0.339710  1.0  0.6745
  C  C426  1  0.670200  0.302200  0.372200  1.0  -0.0847
  C  C427  1  0.675300  0.255800  0.365900  1.0  0.0405
  C  C428  1  0.733800  0.264200  0.384800  1.0  -0.1444
  C  C429  1  0.790100  0.321170  0.414070  1.0  -0.0605
  C  C430  1  0.785400  0.366340  0.420340  1.0  -0.0786
  C  C431  1  0.726600  0.358420  0.402820  1.0  -0.0723
  C  C432  1  0.740300  0.213140  0.379840  1.0  0.6933
  C  C433  1  0.538700  0.379030  0.334930  1.0  -0.167
  C  C434  1  0.589600  0.430300  0.345500  1.0  0.0092
  C  C435  1  0.586200  0.478670  0.342070  1.0  -0.1702
  C  C436  1  0.530100  0.474000  0.328300  1.0  -0.0436
  C  C437  1  0.477100  0.421500  0.317800  1.0  -0.1126
  C  C438  1  0.481400  0.374400  0.319600  1.0  -0.0438
  C  C439  1  0.643500  0.533800  0.354500  1.0  0.6785
  C  C440  1  0.993800  0.012390  0.428790  1.0  0.2147
  C  C441  1  0.899600  0.963500  0.422100  1.0  0.3332
  C  C442  1  0.948700  0.919200  0.417100  1.0  0.3551
  C  C443  1  0.046400  0.068100  0.437300  1.0  -0.0783
  C  C444  1  0.088500  0.066400  0.424500  1.0  -0.0536
  C  C445  1  0.142600  0.120000  0.436400  1.0  -0.1454
  C  C446  1  0.151900  0.171800  0.461900  1.0  -0.0284
  C  C447  1  0.110300  0.172700  0.475800  1.0  -0.0953
  C  C448  1  0.055200  0.119000  0.462200  1.0  -0.1367
  C  C449  1  0.182570  0.119310  0.416260  1.0  0.7089
  C  C450  1  0.845400  0.961400  0.418600  1.0  -0.0524
  C  C451  1  0.832100  0.003700  0.406600  1.0  -0.016
  C  C452  1  0.781200  0.003100  0.402100  1.0  -0.0653
  C  C453  1  0.737900  0.954900  0.410600  1.0  -0.0829
  C  C454  1  0.752700  0.915200  0.427900  1.0  -0.0696
  C  C455  1  0.804500  0.916400  0.429900  1.0  -0.0722
  C  C456  1  0.767000  0.046300  0.387700  1.0  0.7354
  C  C457  1  0.951900  0.867370  0.416270  1.0  -0.145
  C  C458  1  0.897170  0.814900  0.401730  1.0  -0.0151
  C  C459  1  0.899770  0.766730  0.404760  1.0  -0.1215
  C  C460  1  0.958400  0.770760  0.422760  1.0  -0.0511
  C  C461  1  0.012500  0.821700  0.437000  1.0  -0.0764
  C  C462  1  0.010600  0.872100  0.434300  1.0  -0.061
  C  C463  1  0.841800  0.711690  0.390290  1.0  0.6915
  C  C464  1  0.556400  0.031700  0.335300  1.0  0.1531
  C  C465  1  0.491700  0.989800  0.316300  1.0  -0.1325
  C  C466  1  0.460400  0.941900  0.266500  1.0  -0.0696
  C  C467  1  0.486200  0.934200  0.240400  1.0  -0.1397
  C  C468  1  0.552100  0.980300  0.264600  1.0  0.1932
  C  C469  1  0.003710  0.677820  0.268510  1.0  0.3053
  C  C470  1  0.106500  0.753000  0.313100  1.0  0.4305
  C  C471  1  0.045700  0.707980  0.216680  1.0  0.3801
  C  C472  1  0.951700  0.636480  0.273380  1.0  -0.0791
  C  C473  1  0.908800  0.579230  0.232830  1.0  -0.0014
  C  C474  1  0.861200  0.539040  0.237840  1.0  -0.1269
  C  C475  1  0.856600  0.557530  0.283930  1.0  -0.0663
  C  C476  1  0.900000  0.613390  0.324190  1.0  -0.0982
  C  C477  1  0.947100  0.651620  0.318720  1.0  -0.0657
  C  C478  1  0.816850  0.477140  0.196130  1.0  0.673
  C  C479  1  0.170200  0.798000  0.368000  1.0  -0.0849
  C  C480  1  0.175300  0.809400  0.419500  1.0  0.0397
  C  C481  1  0.233800  0.849000  0.469600  1.0  -0.1424
  C  C482  1  0.290100  0.876030  0.468930  1.0  -0.0574
  C  C483  1  0.285400  0.865060  0.419060  1.0  -0.079
  C  C484  1  0.226600  0.823780  0.368180  1.0  -0.073
  C  C485  1  0.240300  0.860460  0.527160  1.0  0.6943
  C  C486  1  0.038700  0.703770  0.159670  1.0  -0.1671
  C  C487  1  0.089600  0.744100  0.159300  1.0  0.0069
  C  C488  1  0.086200  0.744130  0.107530  1.0  -0.169
  C  C489  1  0.030100  0.701800  0.056100  1.0  -0.0396
  C  C490  1  0.977100  0.659300  0.055600  1.0  -0.1102
  C  C491  1  0.981400  0.661800  0.107000  1.0  -0.043
  C  C492  1  0.143500  0.789000  0.109700  1.0  0.6795
  C  C493  1  0.493800  0.065010  0.981410  1.0  0.2172
  C  C494  1  0.399600  0.977500  0.936100  1.0  0.3338
  C  C495  1  0.448700  0.031600  0.029500  1.0  0.3534
  C  C496  1  0.546400  0.109100  0.978300  1.0  -0.0775
  C  C497  1  0.588500  0.164000  0.022100  1.0  -0.053
  C  C498  1  0.642600  0.206200  0.022600  1.0  -0.1496
  C  C499  1  0.651900  0.190000  0.980100  1.0  -0.0268
  C  C500  1  0.610300  0.134500  0.937600  1.0  -0.093
  C  C501  1  0.555200  0.093000  0.936200  1.0  -0.1376
  C  C502  1  0.682570  0.266310  0.063260  1.0  0.7077
  C  C503  1  0.345400  0.926800  0.884000  1.0  -0.0506
  C  C504  1  0.332100  0.925500  0.828400  1.0  -0.0106
  C  C505  1  0.281200  0.879100  0.778100  1.0  -0.0664
  C  C506  1  0.237900  0.827300  0.783000  1.0  -0.0808
  C  C507  1  0.252700  0.824800  0.837500  1.0  -0.0677
  C  C508  1  0.304500  0.874600  0.888100  1.0  -0.0695
  C  C509  1  0.267000  0.879300  0.720700  1.0  0.7346
  C  C510  1  0.451900  0.035630  0.084530  1.0  -0.1477
  C  C511  1  0.397170  0.995440  0.082270  1.0  -0.013
  C  C512  1  0.399770  0.995010  0.133040  1.0  -0.1235
  C  C513  1  0.458400  0.035640  0.187640  1.0  -0.0519
  C  C514  1  0.512500  0.075500  0.190800  1.0  -0.0727
  C  C515  1  0.510600  0.076300  0.138500  1.0  -0.0567
  C  C516  1  0.341800  0.951510  0.130110  1.0  0.6918
  C  C517  1  0.056400  0.721100  0.524700  1.0  0.1536
  C  C518  1  0.991700  0.675400  0.501900  1.0  -0.1335
  C  C519  1  0.960400  0.693900  0.518500  1.0  -0.0681
  C  C520  1  0.986200  0.745800  0.552000  1.0  -0.1315
  C  C521  1  0.052100  0.787500  0.571800  1.0  0.192
  C  C522  1  0.496290  0.764800  0.674110  1.0  0.3051
  C  C523  1  0.393500  0.706600  0.646500  1.0  0.4284
  C  C524  1  0.454300  0.670980  0.662280  1.0  0.3824
  C  C525  1  0.548300  0.821680  0.684780  1.0  -0.0805
  C  C526  1  0.591200  0.824030  0.670430  1.0  -0.0031
  C  C527  1  0.638800  0.876640  0.677840  1.0  -0.127
  C  C528  1  0.643400  0.927330  0.700930  1.0  -0.0661
  C  C529  1  0.600000  0.924190  0.713390  1.0  -0.0987
  C  C530  1  0.552900  0.871620  0.704520  1.0  -0.0632
  C  C531  1  0.683150  0.879280  0.660290  1.0  0.6724
  C  C532  1  0.329800  0.697800  0.627800  1.0  -0.0832
  C  C533  1  0.324700  0.744200  0.634100  1.0  0.0403
  C  C534  1  0.266200  0.735800  0.615200  1.0  -0.1445
  C  C535  1  0.209900  0.678830  0.585930  1.0  -0.0617
  C  C536  1  0.214600  0.633660  0.579660  1.0  -0.0797
  C  C537  1  0.273400  0.641580  0.597180  1.0  -0.0715
  C  C538  1  0.259700  0.786860  0.620160  1.0  0.6941
  C  C539  1  0.461300  0.620970  0.665070  1.0  -0.1667
  C  C540  1  0.410400  0.569700  0.654500  1.0  0.0084
  C  C541  1  0.413800  0.521330  0.657930  1.0  -0.1705
  C  C542  1  0.469900  0.526000  0.671700  1.0  -0.0433
  C  C543  1  0.522900  0.578500  0.682200  1.0  -0.114
  C  C544  1  0.518600  0.625600  0.680400  1.0  -0.0436
  C  C545  1  0.356500  0.466200  0.645500  1.0  0.6792
  C  C546  1  0.006200  0.987610  0.571210  1.0  0.2156
  C  C547  1  0.100400  0.036500  0.577900  1.0  0.3312
  C  C548  1  0.051300  0.080800  0.582900  1.0  0.359
  C  C549  1  0.953600  0.931900  0.562700  1.0  -0.0713
  C  C550  1  0.911500  0.933600  0.575500  1.0  -0.0541
  C  C551  1  0.857400  0.880000  0.563600  1.0  -0.1452
  C  C552  1  0.848100  0.828200  0.538100  1.0  -0.0296
  C  C553  1  0.889700  0.827300  0.524200  1.0  -0.0935
  C  C554  1  0.944800  0.881000  0.537800  1.0  -0.1368
  C  C555  1  0.817430  0.880690  0.583740  1.0  0.7094
  C  C556  1  0.154600  0.038600  0.581400  1.0  -0.0519
  C  C557  1  0.167900  0.996300  0.593400  1.0  -0.0154
  C  C558  1  0.218800  0.996900  0.597900  1.0  -0.0654
  C  C559  1  0.262100  0.045100  0.589400  1.0  -0.083
  C  C560  1  0.247300  0.084800  0.572100  1.0  -0.0692
  C  C561  1  0.195500  0.083600  0.570100  1.0  -0.0719
  C  C562  1  0.233000  0.953700  0.612300  1.0  0.7346
  C  C563  1  0.048100  0.132630  0.583730  1.0  -0.1434
  C  C564  1  0.102830  0.185100  0.598270  1.0  -0.0126
  C  C565  1  0.100230  0.233270  0.595240  1.0  -0.1198
  C  C566  1  0.041600  0.229240  0.577240  1.0  -0.0518
  C  C567  1  0.987500  0.178300  0.563000  1.0  -0.0797
  C  C568  1  0.989400  0.127900  0.565700  1.0  -0.0592
  C  C569  1  0.158200  0.288310  0.609710  1.0  0.6916
  C  C570  1  0.443600  0.968300  0.664700  1.0  0.1508
  C  C571  1  0.508300  0.010200  0.683700  1.0  -0.1332
  C  C572  1  0.539600  0.058100  0.733500  1.0  -0.0681
  C  C573  1  0.513800  0.065800  0.759600  1.0  -0.138
  C  C574  1  0.447900  0.019700  0.735400  1.0  0.1913
  C  C575  1  0.090690  0.325890  0.322180  1.0  0.3042
  C  C576  1  0.060100  0.353500  0.247000  1.0  0.4309
  C  C577  1  0.008700  0.337720  0.292020  1.0  0.3797
  C  C578  1  0.136900  0.315220  0.363520  1.0  -0.0795
  C  C579  1  0.153600  0.329570  0.420770  1.0  -0.0019
  C  C580  1  0.198800  0.322160  0.460960  1.0  -0.1302
  C  C581  1  0.226400  0.299070  0.442470  1.0  -0.0626
  C  C582  1  0.210800  0.286610  0.386610  1.0  -0.0974
  C  C583  1  0.167100  0.295480  0.348380  1.0  -0.0661
  C  C584  1  0.218990  0.339710  0.522860  1.0  0.6715
  C  C585  1  0.070000  0.372200  0.202000  1.0  -0.0857
  C  C586  1  0.110100  0.365900  0.190600  1.0  0.0388
  C  C587  1  0.120600  0.384800  0.151000  1.0  -0.1449
  C  C588  1  0.092900  0.414070  0.123970  1.0  -0.0565
  C  C589  1  0.054000  0.420340  0.134940  1.0  -0.0779
  C  C590  1  0.044400  0.402820  0.176220  1.0  -0.0675
  C  C591  1  0.166700  0.379840  0.139540  1.0  0.691
  C  C592  1  0.955900  0.334930  0.296230  1.0  -0.1665
  C  C593  1  0.915200  0.345500  0.255900  1.0  0.0075
  C  C594  1  0.863400  0.342070  0.255870  1.0  -0.1693
  C  C595  1  0.854300  0.328300  0.298200  1.0  -0.0459
  C  C596  1  0.896300  0.317800  0.340700  1.0  -0.11
  C  C597  1  0.945200  0.319600  0.338200  1.0  -0.0452
  C  C598  1  0.820700  0.354500  0.211000  1.0  0.6775
  C  C599  1  0.416400  0.428790  0.934990  1.0  0.216
  C  C600  1  0.458600  0.422100  0.022500  1.0  0.3315
  C  C601  1  0.497900  0.417100  0.968400  1.0  0.3552
  C  C602  1  0.369200  0.437300  0.890900  1.0  -0.0732
  C  C603  1  0.358100  0.424500  0.836000  1.0  -0.0563
  C  C604  1  0.316400  0.436400  0.793800  1.0  -0.147
  C  C605  1  0.290100  0.461900  0.810000  1.0  -0.0279
  C  C606  1  0.303100  0.475800  0.865500  1.0  -0.0937
  C  C607  1  0.343200  0.462200  0.907000  1.0  -0.1373
  C  C608  1  0.296950  0.416260  0.733690  1.0  0.7095
  C  C609  1  0.457200  0.418600  0.073200  1.0  -0.0496
  C  C610  1  0.402900  0.406600  0.074500  1.0  -0.0132
  C  C611  1  0.399000  0.402100  0.120900  1.0  -0.0645
  C  C612  1  0.455700  0.410600  0.172700  1.0  -0.0832
  C  C613  1  0.512700  0.427900  0.175200  1.0  -0.0679
  C  C614  1  0.513500  0.429900  0.125400  1.0  -0.0714
  C  C615  1  0.341400  0.387700  0.120700  1.0  0.7359
  C  C616  1  0.548900  0.416270  0.964370  1.0  -0.1474
  C  C617  1  0.586830  0.401730  0.004560  1.0  -0.0153
  C  C618  1  0.638030  0.404760  0.004990  1.0  -0.1199
  C  C619  1  0.652000  0.422760  0.964360  1.0  -0.0531
  C  C620  1  0.615300  0.437000  0.924500  1.0  -0.075
  C  C621  1  0.562200  0.434300  0.923700  1.0  -0.0588
  C  C622  1  0.678600  0.390290  0.048490  1.0  0.688
  C  C623  1  0.303600  0.335300  0.278900  1.0  0.1534
  C  C624  1  0.326500  0.316300  0.324600  1.0  -0.1343
  C  C625  1  0.324600  0.266500  0.306100  1.0  -0.0688
  C  C626  1  0.306200  0.240400  0.254200  1.0  -0.1405
  C  C627  1  0.284300  0.264600  0.212500  1.0  0.1953
  C  C628  1  0.409310  0.731490  0.235200  1.0  0.3047
  C  C629  1  0.439900  0.686900  0.293400  1.0  0.4302
  C  C630  1  0.491300  0.783320  0.329020  1.0  0.3808
  C  C631  1  0.363100  0.726620  0.178320  1.0  -0.0793
  C  C632  1  0.346400  0.767170  0.175970  1.0  -0.0029
  C  C633  1  0.301200  0.762160  0.123360  1.0  -0.131
  C  C634  1  0.273600  0.716070  0.072670  1.0  -0.0637
  C  C635  1  0.289200  0.675810  0.075810  1.0  -0.0963
  C  C636  1  0.332900  0.681280  0.128380  1.0  -0.0638
  C  C637  1  0.281010  0.803870  0.120720  1.0  0.669
  C  C638  1  0.430000  0.632000  0.302200  1.0  -0.0849
  C  C639  1  0.389900  0.580500  0.255800  1.0  0.04
  C  C640  1  0.379400  0.530400  0.264200  1.0  -0.1428
  C  C641  1  0.407100  0.531070  0.321170  1.0  -0.0602
  C  C642  1  0.446000  0.580940  0.366340  1.0  -0.0767
  C  C643  1  0.455600  0.631820  0.358420  1.0  -0.0729
  C  C644  1  0.333333  0.472840  0.213140  1.0  0.6949
  C  C645  1  0.544100  0.840330  0.379030  1.0  -0.1682
  C  C646  1  0.584800  0.840700  0.430300  1.0  0.0088
  C  C647  1  0.636600  0.892470  0.478670  1.0  -0.1683
  C  C648  1  0.645700  0.943900  0.474000  1.0  -0.0476
  C  C649  1  0.603700  0.944400  0.421500  1.0  -0.1132
  C  C650  1  0.554800  0.893000  0.374400  1.0  -0.0435
  C  C651  1  0.679300  0.890300  0.533800  1.0  0.6786
  C  C652  1  0.083600  0.018590  0.012390  1.0  0.2172
  C  C653  1  0.041400  0.063900  0.963500  1.0  0.3311
  C  C654  1  0.002100  0.970500  0.919200  1.0  0.3518
  C  C655  1  0.130800  0.021700  0.068100  1.0  -0.0759
  C  C656  1  0.141900  0.977900  0.066400  1.0  -0.05
  C  C657  1  0.183600  0.977400  0.120000  1.0  -0.1474
  C  C658  1  0.209900  0.019900  0.171800  1.0  -0.0266
  C  C659  1  0.196900  0.062400  0.172700  1.0  -0.0947
  C  C660  1  0.156800  0.063800  0.119000  1.0  -0.1372
  C  C661  1  0.203050  0.936740  0.119310  1.0  0.7089
  C  C662  1  0.042800  0.116000  0.961400  1.0  -0.0504
  C  C663  1  0.097100  0.171600  0.003700  1.0  -0.012
  C  C664  1  0.101000  0.221900  0.003100  1.0  -0.0644
  C  C665  1  0.044300  0.217000  0.954900  1.0  -0.0808
  C  C666  1  0.987300  0.162500  0.915200  1.0  -0.0716
  C  C667  1  0.986500  0.111900  0.916400  1.0  -0.0748
  C  C668  1  0.158600  0.279300  0.046300  1.0  0.735
  C  C669  1  0.951100  0.915470  0.867370  1.0  -0.1501
  C  C670  1  0.913170  0.917730  0.814900  1.0  -0.0132
  C  C671  1  0.861970  0.866960  0.766730  1.0  -0.1211
  C  C672  1  0.848000  0.812360  0.770760  1.0  -0.0496
  C  C673  1  0.884700  0.809200  0.821700  1.0  -0.0763
  C  C674  1  0.937800  0.861500  0.872100  1.0  -0.056
  C  C675  1  0.821400  0.869890  0.711690  1.0  0.692
  C  C676  1  0.196400  0.475300  0.031700  1.0  0.1595
  C  C677  1  0.173500  0.498100  0.989800  1.0  -0.1362
  C  C678  1  0.175400  0.481500  0.941900  1.0  -0.0675
  C  C679  1  0.193800  0.448000  0.934200  1.0  -0.1367
  C  C680  1  0.215700  0.428200  0.980300  1.0  0.19
  N  N681  1  0.954080  0.675150  0.670350  1.0  -0.3986
  N  N682  1  0.902940  0.661560  0.720700  1.0  -0.3535
  N  N683  1  0.985770  0.646730  0.749300  1.0  -0.4193
  N  N684  1  0.542340  0.575060  0.073000  1.0  -0.2485
  N  N685  1  0.587220  0.572880  0.017900  1.0  -0.3184
  N  N686  1  0.499700  0.585130  0.982830  1.0  -0.3785
  N  N687  1  0.717340  0.689830  0.774470  1.0  -0.2935
  N  N688  1  0.545920  0.216270  0.721070  1.0  -0.3977
  N  N689  1  0.597060  0.317760  0.758620  1.0  -0.3532
  N  N690  1  0.514230  0.263530  0.660960  1.0  -0.4159
  N  N691  1  0.957660  0.030660  0.032720  1.0  -0.2407
  N  N692  1  0.912780  0.930680  0.985660  1.0  -0.3136
  N  N693  1  0.000300  0.983130  0.085430  1.0  -0.3742
  N  N694  1  0.782660  0.557130  0.972490  1.0  -0.2972
  N  N695  1  0.004800  0.329650  0.783730  1.0  -0.3983
  N  N696  1  0.940860  0.279300  0.682240  1.0  -0.3544
  N  N697  1  0.897430  0.250700  0.736470  1.0  -0.4143
  N  N698  1  0.502060  0.927000  0.969340  1.0  -0.2422
  N  N699  1  0.554980  0.982100  0.069320  1.0  -0.3141
  N  N700  1  0.602300  0.017170  0.016870  1.0  -0.3724
  N  N701  1  0.915360  0.225530  0.442870  1.0  -0.2945
  N  N702  1  0.495200  0.278930  0.324850  1.0  -0.398
  N  N703  1  0.559140  0.241380  0.338440  1.0  -0.3522
  N  N704  1  0.602570  0.339040  0.353270  1.0  -0.413
  N  N705  1  0.997940  0.967280  0.424940  1.0  -0.2418
  N  N706  1  0.945020  0.014340  0.427120  1.0  -0.3128
  N  N707  1  0.897700  0.914570  0.414870  1.0  -0.3826
  N  N708  1  0.584640  0.027510  0.310170  1.0  -0.294
  N  N709  1  0.995200  0.670350  0.216270  1.0  -0.3978
  N  N710  1  0.059140  0.720700  0.317760  1.0  -0.354
  N  N711  1  0.102570  0.749300  0.263530  1.0  -0.4174
  N  N712  1  0.497940  0.073000  0.030660  1.0  -0.2458
  N  N713  1  0.445020  0.017900  0.930680  1.0  -0.3166
  N  N714  1  0.397700  0.982830  0.983130  1.0  -0.3746
  N  N715  1  0.084640  0.774470  0.557130  1.0  -0.294
  N  N716  1  0.504800  0.721070  0.675150  1.0  -0.3977
  N  N717  1  0.440860  0.758620  0.661560  1.0  -0.3523
  N  N718  1  0.397430  0.660960  0.646730  1.0  -0.4146
  N  N719  1  0.002060  0.032720  0.575060  1.0  -0.2411
  N  N720  1  0.054980  0.985660  0.572880  1.0  -0.3125
  N  N721  1  0.102300  0.085430  0.585130  1.0  -0.3826
  N  N722  1  0.415360  0.972490  0.689830  1.0  -0.2957
  N  N723  1  0.045920  0.324850  0.329650  1.0  -0.3992
  N  N724  1  0.097060  0.338440  0.279300  1.0  -0.3536
  N  N725  1  0.014230  0.353270  0.250700  1.0  -0.4164
  N  N726  1  0.457660  0.424940  0.927000  1.0  -0.244
  N  N727  1  0.412780  0.427120  0.982100  1.0  -0.3117
  N  N728  1  0.500300  0.414870  0.017170  1.0  -0.3783
  N  N729  1  0.282660  0.310170  0.225530  1.0  -0.2967
  N  N730  1  0.454080  0.783730  0.278930  1.0  -0.3969
  N  N731  1  0.402940  0.682240  0.241380  1.0  -0.353
  N  N732  1  0.485770  0.736470  0.339040  1.0  -0.4185
  N  N733  1  0.042340  0.969340  0.967280  1.0  -0.241
  N  N734  1  0.087220  0.069320  0.014340  1.0  -0.313
  N  N735  1  0.999700  0.016870  0.914570  1.0  -0.3712
  N  N736  1  0.217340  0.442870  0.027510  1.0  -0.2939
  O  O737  1  0.802640  0.633460  0.463980  1.0  -0.5761
  O  O738  1  0.744250  0.671950  0.444460  1.0  -0.5583
  O  O739  1  0.810230  0.646700  0.836370  1.0  -0.5729
  O  O740  1  0.819950  0.594830  0.891460  1.0  -0.5628
  O  O741  1  0.164030  0.629960  0.823830  1.0  -0.5901
  O  O742  1  0.227510  0.652310  0.790040  1.0  -0.5683
  O  O743  1  0.683870  0.613320  0.280450  1.0  -0.5882
  O  O744  1  0.736680  0.568660  0.300480  1.0  -0.5647
  O  O745  1  0.695380  0.600670  0.915630  1.0  -0.5786
  O  O746  1  0.669060  0.633770  0.845390  1.0  -0.5867
  O  O747  1  0.335020  0.622810  0.914290  1.0  -0.5884
  O  O748  1  0.275650  0.606830  0.951740  1.0  -0.5631
  O  O749  1  0.697360  0.161340  0.830820  1.0  -0.5803
  O  O750  1  0.755750  0.200210  0.927700  1.0  -0.5603
  O  O751  1  0.689770  0.526140  0.836470  1.0  -0.5729
  O  O752  1  0.680050  0.571510  0.774880  1.0  -0.5613
  O  O753  1  0.335970  0.159800  0.465930  1.0  -0.5906
  O  O754  1  0.272490  0.062530  0.424800  1.0  -0.5663
  O  O755  1  0.816130  0.096580  0.929450  1.0  -0.588
  O  O756  1  0.763320  0.063800  0.831980  1.0  -0.5627
  O  O757  1  0.804620  0.720250  0.905290  1.0  -0.5755
  O  O758  1  0.830940  0.676330  0.964710  1.0  -0.5857
  O  O759  1  0.164980  0.079270  0.287790  1.0  -0.587
  O  O760  1  0.224350  0.176090  0.331180  1.0  -0.564
  O  O761  1  0.169480  0.536020  0.838660  1.0  -0.5742
  O  O762  1  0.227490  0.555540  0.799790  1.0  -0.5616
  O  O763  1  0.810330  0.163630  0.473860  1.0  -0.573
  O  O764  1  0.703370  0.108540  0.428490  1.0  -0.5615
  O  O765  1  0.806130  0.176170  0.840200  1.0  -0.5906
  O  O766  1  0.862270  0.209960  0.937470  1.0  -0.5683
  O  O767  1  0.332870  0.719550  0.903420  1.0  -0.5887
  O  O768  1  0.268180  0.699520  0.936200  1.0  -0.5643
  O  O769  1  0.685040  0.084370  0.279750  1.0  -0.5764
  O  O770  1  0.788380  0.154610  0.323670  1.0  -0.5836
  O  O771  1  0.708520  0.085710  0.920730  1.0  -0.5836
  O  O772  1  0.655090  0.048260  0.823910  1.0  -0.5646
  O  O773  1  0.330520  0.169180  0.366540  1.0  -0.5759
  O  O774  1  0.272510  0.072300  0.328050  1.0  -0.5609
  O  O775  1  0.689670  0.163530  0.353300  1.0  -0.5735
  O  O776  1  0.796630  0.225120  0.405170  1.0  -0.5623
  O  O777  1  0.693870  0.534070  0.370040  1.0  -0.5902
  O  O778  1  0.637730  0.575200  0.347690  1.0  -0.5673
  O  O779  1  0.167130  0.070550  0.386680  1.0  -0.5901
  O  O780  1  0.231820  0.168020  0.431340  1.0  -0.564
  O  O781  1  0.814960  0.094710  0.399330  1.0  -0.5742
  O  O782  1  0.711620  0.035290  0.366230  1.0  -0.5834
  O  O783  1  0.791480  0.712210  0.377190  1.0  -0.5817
  O  O784  1  0.844910  0.668820  0.393170  1.0  -0.5638
  O  O785  1  0.830520  0.463980  0.161340  1.0  -0.5758
  O  O786  1  0.772510  0.444460  0.200210  1.0  -0.5595
  O  O787  1  0.189670  0.836370  0.526140  1.0  -0.5723
  O  O788  1  0.296630  0.891460  0.571510  1.0  -0.5609
  O  O789  1  0.193870  0.823830  0.159800  1.0  -0.5923
  O  O790  1  0.137730  0.790040  0.062530  1.0  -0.5681
  O  O791  1  0.667130  0.280450  0.096580  1.0  -0.5871
  O  O792  1  0.731820  0.300480  0.063800  1.0  -0.565
  O  O793  1  0.314960  0.915630  0.720250  1.0  -0.5769
  O  O794  1  0.211620  0.845390  0.676330  1.0  -0.5838
  O  O795  1  0.291480  0.914290  0.079270  1.0  -0.5845
  O  O796  1  0.344910  0.951740  0.176090  1.0  -0.5646
  O  O797  1  0.669480  0.830820  0.633460  1.0  -0.5766
  O  O798  1  0.727490  0.927700  0.671950  1.0  -0.5612
  O  O799  1  0.310330  0.836470  0.646700  1.0  -0.5739
  O  O800  1  0.203370  0.774880  0.594830  1.0  -0.5619
  O  O801  1  0.306130  0.465930  0.629960  1.0  -0.5895
  O  O802  1  0.362270  0.424800  0.652310  1.0  -0.5684
  O  O803  1  0.832870  0.929450  0.613320  1.0  -0.588
  O  O804  1  0.768180  0.831980  0.568660  1.0  -0.5649
  O  O805  1  0.185040  0.905290  0.600670  1.0  -0.5758
  O  O806  1  0.288380  0.964710  0.633770  1.0  -0.5832
  O  O807  1  0.208520  0.287790  0.622810  1.0  -0.5823
  O  O808  1  0.155090  0.331180  0.606830  1.0  -0.5637
  O  O809  1  0.197360  0.366540  0.536020  1.0  -0.576
  O  O810  1  0.255750  0.328050  0.555540  1.0  -0.5576
  O  O811  1  0.189770  0.353300  0.163630  1.0  -0.5729
  O  O812  1  0.180050  0.405170  0.108540  1.0  -0.563
  O  O813  1  0.835970  0.370040  0.176170  1.0  -0.5899
  O  O814  1  0.772490  0.347690  0.209960  1.0  -0.5687
  O  O815  1  0.316130  0.386680  0.719550  1.0  -0.5884
  O  O816  1  0.263320  0.431340  0.699520  1.0  -0.5643
  O  O817  1  0.304620  0.399330  0.084370  1.0  -0.5769
  O  O818  1  0.330940  0.366230  0.154610  1.0  -0.5859
  O  O819  1  0.664980  0.377190  0.085710  1.0  -0.5876
  O  O820  1  0.724350  0.393170  0.048260  1.0  -0.5624
  O  O821  1  0.302640  0.838660  0.169180  1.0  -0.5799
  O  O822  1  0.244250  0.799790  0.072300  1.0  -0.5601
  O  O823  1  0.310230  0.473860  0.163530  1.0  -0.5738
  O  O824  1  0.319950  0.428490  0.225120  1.0  -0.5625
  O  O825  1  0.664030  0.840200  0.534070  1.0  -0.5915
  O  O826  1  0.727510  0.937470  0.575200  1.0  -0.5647
  O  O827  1  0.183870  0.903420  0.070550  1.0  -0.5888
  O  O828  1  0.236680  0.936200  0.168020  1.0  -0.5628
  O  O829  1  0.195380  0.279750  0.094710  1.0  -0.5755
  O  O830  1  0.169060  0.323670  0.035290  1.0  -0.5854
  O  O831  1  0.835020  0.920730  0.712210  1.0  -0.5863
  O  O832  1  0.775650  0.823910  0.668820  1.0  -0.5624
