# generated using pymatgen
data_ZnMo3H5C9O8
_symmetry_space_group_name_H-M   'P 1'
_cell_length_a   48.92800000
_cell_length_b   48.92800000
_cell_length_c   48.92800000
_cell_angle_alpha   90.00000000
_cell_angle_beta   90.00000000
_cell_angle_gamma   90.00000000
_symmetry_Int_Tables_number   1
_chemical_formula_structural   ZnMo3H5C9O8
_chemical_formula_sum   'Zn96 Mo288 H480 C864 O768'
_cell_volume   117131.14567475
_cell_formula_units_Z   96
loop_
 _symmetry_equiv_pos_site_id
 _symmetry_equiv_pos_as_xyz
  1  'x, y, z'
loop_
 _atom_site_type_symbol
 _atom_site_label
 _atom_site_symmetry_multiplicity
 _atom_site_fract_x
 _atom_site_fract_y
 _atom_site_fract_z
 _atom_site_occupancy
 _atom_site_charge
  Zn  Zn1  1  0.578440  0.005180  0.808940  1.0  1.1039
  Zn  Zn2  1  0.078440  0.505180  0.308940  1.0  1.1039
  Zn  Zn3  1  0.921560  0.994820  0.308940  1.0  1.1026
  Zn  Zn4  1  0.421560  0.494820  0.808940  1.0  1.1026
  Zn  Zn5  1  0.421560  0.505180  0.691060  1.0  1.1045
  Zn  Zn6  1  0.921560  0.005180  0.191060  1.0  1.1045
  Zn  Zn7  1  0.078440  0.494820  0.191060  1.0  1.105
  Zn  Zn8  1  0.578440  0.994820  0.691060  1.0  1.105
  Zn  Zn9  1  0.808940  0.578440  0.005180  1.0  1.1037
  Zn  Zn10  1  0.308940  0.078440  0.505180  1.0  1.1037
  Zn  Zn11  1  0.308940  0.921560  0.994820  1.0  1.1046
  Zn  Zn12  1  0.808940  0.421560  0.494820  1.0  1.1046
  Zn  Zn13  1  0.691060  0.421560  0.505180  1.0  1.106
  Zn  Zn14  1  0.191060  0.921560  0.005180  1.0  1.106
  Zn  Zn15  1  0.191060  0.078440  0.494820  1.0  1.1057
  Zn  Zn16  1  0.691060  0.578440  0.994820  1.0  1.1057
  Zn  Zn17  1  0.005180  0.808940  0.578440  1.0  1.1055
  Zn  Zn18  1  0.505180  0.308940  0.078440  1.0  1.1055
  Zn  Zn19  1  0.994820  0.308940  0.921560  1.0  1.106
  Zn  Zn20  1  0.494820  0.808940  0.421560  1.0  1.106
  Zn  Zn21  1  0.505180  0.691060  0.421560  1.0  1.1082
  Zn  Zn22  1  0.005180  0.191060  0.921560  1.0  1.1082
  Zn  Zn23  1  0.494820  0.191060  0.078440  1.0  1.1074
  Zn  Zn24  1  0.994820  0.691060  0.578440  1.0  1.1074
  Zn  Zn25  1  0.244820  0.171560  0.558940  1.0  1.1053
  Zn  Zn26  1  0.744820  0.671560  0.058940  1.0  1.1053
  Zn  Zn27  1  0.255180  0.828440  0.058940  1.0  1.1051
  Zn  Zn28  1  0.755180  0.328440  0.558940  1.0  1.1051
  Zn  Zn29  1  0.744820  0.328440  0.441060  1.0  1.1062
  Zn  Zn30  1  0.244820  0.828440  0.941060  1.0  1.1062
  Zn  Zn31  1  0.755180  0.671560  0.941060  1.0  1.1068
  Zn  Zn32  1  0.255180  0.171560  0.441060  1.0  1.1068
  Zn  Zn33  1  0.671560  0.941060  0.755180  1.0  1.1033
  Zn  Zn34  1  0.171560  0.441060  0.255180  1.0  1.1033
  Zn  Zn35  1  0.328440  0.441060  0.744820  1.0  1.1043
  Zn  Zn36  1  0.828440  0.941060  0.244820  1.0  1.1043
  Zn  Zn37  1  0.828440  0.058940  0.255180  1.0  1.1045
  Zn  Zn38  1  0.328440  0.558940  0.755180  1.0  1.1045
  Zn  Zn39  1  0.171560  0.558940  0.244820  1.0  1.1038
  Zn  Zn40  1  0.671560  0.058940  0.744820  1.0  1.1038
  Zn  Zn41  1  0.441060  0.744820  0.328440  1.0  1.1045
  Zn  Zn42  1  0.941060  0.244820  0.828440  1.0  1.1045
  Zn  Zn43  1  0.941060  0.755180  0.671560  1.0  1.1052
  Zn  Zn44  1  0.441060  0.255180  0.171560  1.0  1.1052
  Zn  Zn45  1  0.558940  0.244820  0.171560  1.0  1.1057
  Zn  Zn46  1  0.058940  0.744820  0.671560  1.0  1.1057
  Zn  Zn47  1  0.058940  0.255180  0.828440  1.0  1.1053
  Zn  Zn48  1  0.558940  0.755180  0.328440  1.0  1.1053
  Zn  Zn49  1  0.755180  0.828440  0.441060  1.0  1.105
  Zn  Zn50  1  0.255180  0.328440  0.941060  1.0  1.105
  Zn  Zn51  1  0.744820  0.171560  0.941060  1.0  1.1053
  Zn  Zn52  1  0.244820  0.671560  0.441060  1.0  1.1053
  Zn  Zn53  1  0.255180  0.671560  0.558940  1.0  1.1072
  Zn  Zn54  1  0.755180  0.171560  0.058940  1.0  1.1072
  Zn  Zn55  1  0.244820  0.328440  0.058940  1.0  1.1067
  Zn  Zn56  1  0.744820  0.828440  0.558940  1.0  1.1067
  Zn  Zn57  1  0.328440  0.058940  0.244820  1.0  1.104
  Zn  Zn58  1  0.828440  0.558940  0.744820  1.0  1.104
  Zn  Zn59  1  0.671560  0.558940  0.255180  1.0  1.1027
  Zn  Zn60  1  0.171560  0.058940  0.755180  1.0  1.1027
  Zn  Zn61  1  0.171560  0.941060  0.744820  1.0  1.1048
  Zn  Zn62  1  0.671560  0.441060  0.244820  1.0  1.1048
  Zn  Zn63  1  0.828440  0.441060  0.755180  1.0  1.1055
  Zn  Zn64  1  0.328440  0.941060  0.255180  1.0  1.1055
  Zn  Zn65  1  0.558940  0.255180  0.671560  1.0  1.1048
  Zn  Zn66  1  0.058940  0.755180  0.171560  1.0  1.1048
  Zn  Zn67  1  0.058940  0.244820  0.328440  1.0  1.1043
  Zn  Zn68  1  0.558940  0.744820  0.828440  1.0  1.1043
  Zn  Zn69  1  0.441060  0.755180  0.828440  1.0  1.1061
  Zn  Zn70  1  0.941060  0.255180  0.328440  1.0  1.1061
  Zn  Zn71  1  0.941060  0.744820  0.171560  1.0  1.1066
  Zn  Zn72  1  0.441060  0.244820  0.671560  1.0  1.1066
  Zn  Zn73  1  0.421560  0.994820  0.191060  1.0  1.1026
  Zn  Zn74  1  0.921560  0.494820  0.691060  1.0  1.1026
  Zn  Zn75  1  0.078440  0.005180  0.691060  1.0  1.1036
  Zn  Zn76  1  0.578440  0.505180  0.191060  1.0  1.1036
  Zn  Zn77  1  0.578440  0.494820  0.308940  1.0  1.1047
  Zn  Zn78  1  0.078440  0.994820  0.808940  1.0  1.1047
  Zn  Zn79  1  0.921560  0.505180  0.808940  1.0  1.1039
  Zn  Zn80  1  0.421560  0.005180  0.308940  1.0  1.1039
  Zn  Zn81  1  0.191060  0.421560  0.994820  1.0  1.1046
  Zn  Zn82  1  0.691060  0.921560  0.494820  1.0  1.1046
  Zn  Zn83  1  0.691060  0.078440  0.005180  1.0  1.1039
  Zn  Zn84  1  0.191060  0.578440  0.505180  1.0  1.1039
  Zn  Zn85  1  0.308940  0.578440  0.494820  1.0  1.105
  Zn  Zn86  1  0.808940  0.078440  0.994820  1.0  1.105
  Zn  Zn87  1  0.808940  0.921560  0.505180  1.0  1.1052
  Zn  Zn88  1  0.308940  0.421560  0.005180  1.0  1.1052
  Zn  Zn89  1  0.994820  0.191060  0.421560  1.0  1.1064
  Zn  Zn90  1  0.494820  0.691060  0.921560  1.0  1.1064
  Zn  Zn91  1  0.005180  0.691060  0.078440  1.0  1.1059
  Zn  Zn92  1  0.505180  0.191060  0.578440  1.0  1.1059
  Zn  Zn93  1  0.494820  0.308940  0.578440  1.0  1.1065
  Zn  Zn94  1  0.994820  0.808940  0.078440  1.0  1.1065
  Zn  Zn95  1  0.505180  0.808940  0.921560  1.0  1.1075
  Zn  Zn96  1  0.005180  0.308940  0.421560  1.0  1.1075
  Mo  Mo97  1  0.606790  0.939820  0.791670  1.0  1.1055
  Mo  Mo98  1  0.556030  0.967260  0.752660  1.0  1.0345
  Mo  Mo99  1  0.607310  0.933480  0.719150  1.0  1.1853
  Mo  Mo100  1  0.106790  0.439820  0.291670  1.0  1.1055
  Mo  Mo101  1  0.056030  0.467260  0.252660  1.0  1.0319
  Mo  Mo102  1  0.107310  0.433480  0.219150  1.0  1.1853
  Mo  Mo103  1  0.893210  0.060180  0.291670  1.0  1.1077
  Mo  Mo104  1  0.943970  0.032740  0.252660  1.0  1.0325
  Mo  Mo105  1  0.892690  0.066520  0.219150  1.0  1.1848
  Mo  Mo106  1  0.393210  0.560180  0.791670  1.0  1.1077
  Mo  Mo107  1  0.443970  0.532740  0.752660  1.0  1.0352
  Mo  Mo108  1  0.392690  0.566520  0.719150  1.0  1.1848
  Mo  Mo109  1  0.393210  0.439820  0.708330  1.0  1.1071
  Mo  Mo110  1  0.443970  0.467260  0.747340  1.0  1.0352
  Mo  Mo111  1  0.392690  0.433480  0.780850  1.0  1.1851
  Mo  Mo112  1  0.893210  0.939820  0.208330  1.0  1.1071
  Mo  Mo113  1  0.943970  0.967260  0.247340  1.0  1.0326
  Mo  Mo114  1  0.892690  0.933480  0.280850  1.0  1.1851
  Mo  Mo115  1  0.106790  0.560180  0.208330  1.0  1.1073
  Mo  Mo116  1  0.056030  0.532740  0.247340  1.0  1.0318
  Mo  Mo117  1  0.107310  0.566520  0.280850  1.0  1.1859
  Mo  Mo118  1  0.606790  0.060180  0.708330  1.0  1.1073
  Mo  Mo119  1  0.556030  0.032740  0.747340  1.0  1.0341
  Mo  Mo120  1  0.607310  0.066520  0.780850  1.0  1.1859
  Mo  Mo121  1  0.791670  0.606790  0.939820  1.0  1.1061
  Mo  Mo122  1  0.752660  0.556030  0.967260  1.0  1.0373
  Mo  Mo123  1  0.719150  0.607310  0.933480  1.0  1.1858
  Mo  Mo124  1  0.291670  0.106790  0.439820  1.0  1.1061
  Mo  Mo125  1  0.252660  0.056030  0.467260  1.0  1.0346
  Mo  Mo126  1  0.219150  0.107310  0.433480  1.0  1.1858
  Mo  Mo127  1  0.291670  0.893210  0.060180  1.0  1.1044
  Mo  Mo128  1  0.252660  0.943970  0.032740  1.0  1.0353
  Mo  Mo129  1  0.219150  0.892690  0.066520  1.0  1.1843
  Mo  Mo130  1  0.791670  0.393210  0.560180  1.0  1.1044
  Mo  Mo131  1  0.752660  0.443970  0.532740  1.0  1.0378
  Mo  Mo132  1  0.719150  0.392690  0.566520  1.0  1.1843
  Mo  Mo133  1  0.708330  0.393210  0.439820  1.0  1.1049
  Mo  Mo134  1  0.747340  0.443970  0.467260  1.0  1.038
  Mo  Mo135  1  0.780850  0.392690  0.433480  1.0  1.1842
  Mo  Mo136  1  0.208330  0.893210  0.939820  1.0  1.1049
  Mo  Mo137  1  0.247340  0.943970  0.967260  1.0  1.0359
  Mo  Mo138  1  0.280850  0.892690  0.933480  1.0  1.1842
  Mo  Mo139  1  0.208330  0.106790  0.560180  1.0  1.1033
  Mo  Mo140  1  0.247340  0.056030  0.532740  1.0  1.0339
  Mo  Mo141  1  0.280850  0.107310  0.566520  1.0  1.1843
  Mo  Mo142  1  0.708330  0.606790  0.060180  1.0  1.1033
  Mo  Mo143  1  0.747340  0.556030  0.032740  1.0  1.037
  Mo  Mo144  1  0.780850  0.607310  0.066520  1.0  1.1843
  Mo  Mo145  1  0.939820  0.791670  0.606790  1.0  1.1073
  Mo  Mo146  1  0.967260  0.752660  0.556030  1.0  1.0395
  Mo  Mo147  1  0.933480  0.719150  0.607310  1.0  1.1833
  Mo  Mo148  1  0.439820  0.291670  0.106790  1.0  1.1073
  Mo  Mo149  1  0.467260  0.252660  0.056030  1.0  1.039
  Mo  Mo150  1  0.433480  0.219150  0.107310  1.0  1.1833
  Mo  Mo151  1  0.060180  0.291670  0.893210  1.0  1.1062
  Mo  Mo152  1  0.032740  0.252660  0.943970  1.0  1.0338
  Mo  Mo153  1  0.066520  0.219150  0.892690  1.0  1.1831
  Mo  Mo154  1  0.560180  0.791670  0.393210  1.0  1.1062
  Mo  Mo155  1  0.532740  0.752660  0.443970  1.0  1.0341
  Mo  Mo156  1  0.566520  0.719150  0.392690  1.0  1.1831
  Mo  Mo157  1  0.439820  0.708330  0.393210  1.0  1.1068
  Mo  Mo158  1  0.467260  0.747340  0.443970  1.0  1.0338
  Mo  Mo159  1  0.433480  0.780850  0.392690  1.0  1.1836
  Mo  Mo160  1  0.939820  0.208330  0.893210  1.0  1.1068
  Mo  Mo161  1  0.967260  0.247340  0.943970  1.0  1.033
  Mo  Mo162  1  0.933480  0.280850  0.892690  1.0  1.1836
  Mo  Mo163  1  0.560180  0.208330  0.106790  1.0  1.1056
  Mo  Mo164  1  0.532740  0.247340  0.056030  1.0  1.037
  Mo  Mo165  1  0.566520  0.280850  0.107310  1.0  1.1829
  Mo  Mo166  1  0.060180  0.708330  0.606790  1.0  1.1056
  Mo  Mo167  1  0.032740  0.747340  0.556030  1.0  1.0377
  Mo  Mo168  1  0.066520  0.780850  0.607310  1.0  1.1829
  Mo  Mo169  1  0.310180  0.143210  0.541670  1.0  1.1042
  Mo  Mo170  1  0.282740  0.193970  0.502660  1.0  1.0369
  Mo  Mo171  1  0.316520  0.142690  0.469150  1.0  1.1826
  Mo  Mo172  1  0.810180  0.643210  0.041670  1.0  1.1042
  Mo  Mo173  1  0.782740  0.693970  0.002660  1.0  1.0369
  Mo  Mo174  1  0.816520  0.642690  0.969150  1.0  1.1826
  Mo  Mo175  1  0.189820  0.856790  0.041670  1.0  1.1061
  Mo  Mo176  1  0.217260  0.806030  0.002660  1.0  1.0371
  Mo  Mo177  1  0.183480  0.857310  0.969150  1.0  1.183
  Mo  Mo178  1  0.689820  0.356790  0.541670  1.0  1.1061
  Mo  Mo179  1  0.717260  0.306030  0.502660  1.0  1.0371
  Mo  Mo180  1  0.683480  0.357310  0.469150  1.0  1.183
  Mo  Mo181  1  0.810180  0.356790  0.458330  1.0  1.1055
  Mo  Mo182  1  0.782740  0.306030  0.497340  1.0  1.0366
  Mo  Mo183  1  0.816520  0.357310  0.530850  1.0  1.1831
  Mo  Mo184  1  0.310180  0.856790  0.958330  1.0  1.1055
  Mo  Mo185  1  0.282740  0.806030  0.997340  1.0  1.0366
  Mo  Mo186  1  0.316520  0.857310  0.030850  1.0  1.1831
  Mo  Mo187  1  0.689820  0.643210  0.958330  1.0  1.1066
  Mo  Mo188  1  0.717260  0.693970  0.997340  1.0  1.0379
  Mo  Mo189  1  0.683480  0.642690  0.030850  1.0  1.1837
  Mo  Mo190  1  0.189820  0.143210  0.458330  1.0  1.1066
  Mo  Mo191  1  0.217260  0.193970  0.497340  1.0  1.0379
  Mo  Mo192  1  0.183480  0.142690  0.530850  1.0  1.1837
  Mo  Mo193  1  0.643210  0.958330  0.689820  1.0  1.1073
  Mo  Mo194  1  0.693970  0.997340  0.717260  1.0  1.0356
  Mo  Mo195  1  0.642690  0.030850  0.683480  1.0  1.1838
  Mo  Mo196  1  0.143210  0.458330  0.189820  1.0  1.1073
  Mo  Mo197  1  0.193970  0.497340  0.217260  1.0  1.0356
  Mo  Mo198  1  0.142690  0.530850  0.183480  1.0  1.1838
  Mo  Mo199  1  0.356790  0.458330  0.810180  1.0  1.1043
  Mo  Mo200  1  0.306030  0.497340  0.782740  1.0  1.0349
  Mo  Mo201  1  0.357310  0.530850  0.816520  1.0  1.1848
  Mo  Mo202  1  0.856790  0.958330  0.310180  1.0  1.1043
  Mo  Mo203  1  0.806030  0.997340  0.282740  1.0  1.0349
  Mo  Mo204  1  0.857310  0.030850  0.316520  1.0  1.1848
  Mo  Mo205  1  0.856790  0.041670  0.189820  1.0  1.1067
  Mo  Mo206  1  0.806030  0.002660  0.217260  1.0  1.0345
  Mo  Mo207  1  0.857310  0.969150  0.183480  1.0  1.1858
  Mo  Mo208  1  0.356790  0.541670  0.689820  1.0  1.1067
  Mo  Mo209  1  0.306030  0.502660  0.717260  1.0  1.0345
  Mo  Mo210  1  0.357310  0.469150  0.683480  1.0  1.1858
  Mo  Mo211  1  0.143210  0.541670  0.310180  1.0  1.1058
  Mo  Mo212  1  0.193970  0.502660  0.282740  1.0  1.0354
  Mo  Mo213  1  0.142690  0.469150  0.316520  1.0  1.1839
  Mo  Mo214  1  0.643210  0.041670  0.810180  1.0  1.1058
  Mo  Mo215  1  0.693970  0.002660  0.782740  1.0  1.0354
  Mo  Mo216  1  0.642690  0.969150  0.816520  1.0  1.1839
  Mo  Mo217  1  0.458330  0.810180  0.356790  1.0  1.1063
  Mo  Mo218  1  0.497340  0.782740  0.306030  1.0  1.0377
  Mo  Mo219  1  0.530850  0.816520  0.357310  1.0  1.1851
  Mo  Mo220  1  0.958330  0.310180  0.856790  1.0  1.1063
  Mo  Mo221  1  0.997340  0.282740  0.806030  1.0  1.0377
  Mo  Mo222  1  0.030850  0.316520  0.857310  1.0  1.1851
  Mo  Mo223  1  0.958330  0.689820  0.643210  1.0  1.1051
  Mo  Mo224  1  0.997340  0.717260  0.693970  1.0  1.0345
  Mo  Mo225  1  0.030850  0.683480  0.642690  1.0  1.1852
  Mo  Mo226  1  0.458330  0.189820  0.143210  1.0  1.1051
  Mo  Mo227  1  0.497340  0.217260  0.193970  1.0  1.0345
  Mo  Mo228  1  0.530850  0.183480  0.142690  1.0  1.1852
  Mo  Mo229  1  0.541670  0.310180  0.143210  1.0  1.1076
  Mo  Mo230  1  0.502660  0.282740  0.193970  1.0  1.0336
  Mo  Mo231  1  0.469150  0.316520  0.142690  1.0  1.186
  Mo  Mo232  1  0.041670  0.810180  0.643210  1.0  1.1076
  Mo  Mo233  1  0.002660  0.782740  0.693970  1.0  1.0336
  Mo  Mo234  1  0.969150  0.816520  0.642690  1.0  1.186
  Mo  Mo235  1  0.041670  0.189820  0.856790  1.0  1.1063
  Mo  Mo236  1  0.002660  0.217260  0.806030  1.0  1.0387
  Mo  Mo237  1  0.969150  0.183480  0.857310  1.0  1.1851
  Mo  Mo238  1  0.541670  0.689820  0.356790  1.0  1.1063
  Mo  Mo239  1  0.502660  0.717260  0.306030  1.0  1.0387
  Mo  Mo240  1  0.469150  0.683480  0.357310  1.0  1.1851
  Mo  Mo241  1  0.689820  0.856790  0.458330  1.0  1.1068
  Mo  Mo242  1  0.717260  0.806030  0.497340  1.0  1.0372
  Mo  Mo243  1  0.683480  0.857310  0.530850  1.0  1.1838
  Mo  Mo244  1  0.189820  0.356790  0.958330  1.0  1.1068
  Mo  Mo245  1  0.217260  0.306030  0.997340  1.0  1.0372
  Mo  Mo246  1  0.183480  0.357310  0.030850  1.0  1.1838
  Mo  Mo247  1  0.810180  0.143210  0.958330  1.0  1.1059
  Mo  Mo248  1  0.782740  0.193970  0.997340  1.0  1.0373
  Mo  Mo249  1  0.816520  0.142690  0.030850  1.0  1.1834
  Mo  Mo250  1  0.310180  0.643210  0.458330  1.0  1.1059
  Mo  Mo251  1  0.282740  0.693970  0.497340  1.0  1.0373
  Mo  Mo252  1  0.316520  0.642690  0.530850  1.0  1.1834
  Mo  Mo253  1  0.189820  0.643210  0.541670  1.0  1.1055
  Mo  Mo254  1  0.217260  0.693970  0.502660  1.0  1.0375
  Mo  Mo255  1  0.183480  0.642690  0.469150  1.0  1.1831
  Mo  Mo256  1  0.689820  0.143210  0.041670  1.0  1.1055
  Mo  Mo257  1  0.717260  0.193970  0.002660  1.0  1.0375
  Mo  Mo258  1  0.683480  0.142690  0.969150  1.0  1.1831
  Mo  Mo259  1  0.310180  0.356790  0.041670  1.0  1.104
  Mo  Mo260  1  0.282740  0.306030  0.002660  1.0  1.0363
  Mo  Mo261  1  0.316520  0.357310  0.969150  1.0  1.1824
  Mo  Mo262  1  0.810180  0.856790  0.541670  1.0  1.104
  Mo  Mo263  1  0.782740  0.806030  0.502660  1.0  1.0363
  Mo  Mo264  1  0.816520  0.857310  0.469150  1.0  1.1824
  Mo  Mo265  1  0.356790  0.041670  0.310180  1.0  1.1049
  Mo  Mo266  1  0.306030  0.002660  0.282740  1.0  1.0346
  Mo  Mo267  1  0.357310  0.969150  0.316520  1.0  1.184
  Mo  Mo268  1  0.856790  0.541670  0.810180  1.0  1.1049
  Mo  Mo269  1  0.806030  0.502660  0.782740  1.0  1.0346
  Mo  Mo270  1  0.857310  0.469150  0.816520  1.0  1.184
  Mo  Mo271  1  0.643210  0.541670  0.189820  1.0  1.1062
  Mo  Mo272  1  0.693970  0.502660  0.217260  1.0  1.0357
  Mo  Mo273  1  0.642690  0.469150  0.183480  1.0  1.1842
  Mo  Mo274  1  0.143210  0.041670  0.689820  1.0  1.1062
  Mo  Mo275  1  0.193970  0.002660  0.717260  1.0  1.0357
  Mo  Mo276  1  0.142690  0.969150  0.683480  1.0  1.1842
  Mo  Mo277  1  0.143210  0.958330  0.810180  1.0  1.105
  Mo  Mo278  1  0.193970  0.997340  0.782740  1.0  1.0356
  Mo  Mo279  1  0.142690  0.030850  0.816520  1.0  1.1849
  Mo  Mo280  1  0.643210  0.458330  0.310180  1.0  1.105
  Mo  Mo281  1  0.693970  0.497340  0.282740  1.0  1.0356
  Mo  Mo282  1  0.642690  0.530850  0.316520  1.0  1.1849
  Mo  Mo283  1  0.856790  0.458330  0.689820  1.0  1.1076
  Mo  Mo284  1  0.806030  0.497340  0.717260  1.0  1.0345
  Mo  Mo285  1  0.857310  0.530850  0.683480  1.0  1.1853
  Mo  Mo286  1  0.356790  0.958330  0.189820  1.0  1.1076
  Mo  Mo287  1  0.306030  0.997340  0.217260  1.0  1.0345
  Mo  Mo288  1  0.357310  0.030850  0.183480  1.0  1.1853
  Mo  Mo289  1  0.541670  0.189820  0.643210  1.0  1.1057
  Mo  Mo290  1  0.502660  0.217260  0.693970  1.0  1.0339
  Mo  Mo291  1  0.469150  0.183480  0.642690  1.0  1.1856
  Mo  Mo292  1  0.041670  0.689820  0.143210  1.0  1.1057
  Mo  Mo293  1  0.002660  0.717260  0.193970  1.0  1.0339
  Mo  Mo294  1  0.969150  0.683480  0.142690  1.0  1.1856
  Mo  Mo295  1  0.041670  0.310180  0.356790  1.0  1.107
  Mo  Mo296  1  0.002660  0.282740  0.306030  1.0  1.0376
  Mo  Mo297  1  0.969150  0.316520  0.357310  1.0  1.1855
  Mo  Mo298  1  0.541670  0.810180  0.856790  1.0  1.107
  Mo  Mo299  1  0.502660  0.782740  0.806030  1.0  1.0376
  Mo  Mo300  1  0.469150  0.816520  0.857310  1.0  1.1855
  Mo  Mo301  1  0.458330  0.689820  0.856790  1.0  1.1058
  Mo  Mo302  1  0.497340  0.717260  0.806030  1.0  1.0388
  Mo  Mo303  1  0.530850  0.683480  0.857310  1.0  1.1847
  Mo  Mo304  1  0.958330  0.189820  0.356790  1.0  1.1058
  Mo  Mo305  1  0.997340  0.217260  0.306030  1.0  1.0388
  Mo  Mo306  1  0.030850  0.183480  0.357310  1.0  1.1847
  Mo  Mo307  1  0.958330  0.810180  0.143210  1.0  1.1064
  Mo  Mo308  1  0.997340  0.782740  0.193970  1.0  1.0342
  Mo  Mo309  1  0.030850  0.816520  0.142690  1.0  1.1857
  Mo  Mo310  1  0.458330  0.310180  0.643210  1.0  1.1064
  Mo  Mo311  1  0.497340  0.282740  0.693970  1.0  1.0342
  Mo  Mo312  1  0.530850  0.316520  0.642690  1.0  1.1857
  Mo  Mo313  1  0.393210  0.060180  0.208330  1.0  1.1075
  Mo  Mo314  1  0.443970  0.032740  0.247340  1.0  1.0353
  Mo  Mo315  1  0.392690  0.066520  0.280850  1.0  1.1853
  Mo  Mo316  1  0.893210  0.560180  0.708330  1.0  1.1075
  Mo  Mo317  1  0.943970  0.532740  0.747340  1.0  1.0326
  Mo  Mo318  1  0.892690  0.566520  0.780850  1.0  1.1853
  Mo  Mo319  1  0.106790  0.939820  0.708330  1.0  1.1072
  Mo  Mo320  1  0.056030  0.967260  0.747340  1.0  1.0322
  Mo  Mo321  1  0.107310  0.933480  0.780850  1.0  1.1856
  Mo  Mo322  1  0.606790  0.439820  0.208330  1.0  1.1072
  Mo  Mo323  1  0.556030  0.467260  0.247340  1.0  1.0348
  Mo  Mo324  1  0.607310  0.433480  0.280850  1.0  1.1856
  Mo  Mo325  1  0.606790  0.560180  0.291670  1.0  1.107
  Mo  Mo326  1  0.556030  0.532740  0.252660  1.0  1.0337
  Mo  Mo327  1  0.607310  0.566520  0.219150  1.0  1.1854
  Mo  Mo328  1  0.106790  0.060180  0.791670  1.0  1.107
  Mo  Mo329  1  0.056030  0.032740  0.752660  1.0  1.0314
  Mo  Mo330  1  0.107310  0.066520  0.719150  1.0  1.1854
  Mo  Mo331  1  0.893210  0.439820  0.791670  1.0  1.1059
  Mo  Mo332  1  0.943970  0.467260  0.752660  1.0  1.0326
  Mo  Mo333  1  0.892690  0.433480  0.719150  1.0  1.1847
  Mo  Mo334  1  0.393210  0.939820  0.291670  1.0  1.1059
  Mo  Mo335  1  0.443970  0.967260  0.252660  1.0  1.0352
  Mo  Mo336  1  0.392690  0.933480  0.219150  1.0  1.1847
  Mo  Mo337  1  0.208330  0.393210  0.060180  1.0  1.1032
  Mo  Mo338  1  0.247340  0.443970  0.032740  1.0  1.0378
  Mo  Mo339  1  0.280850  0.392690  0.066520  1.0  1.1852
  Mo  Mo340  1  0.708330  0.893210  0.560180  1.0  1.1032
  Mo  Mo341  1  0.747340  0.943970  0.532740  1.0  1.0353
  Mo  Mo342  1  0.780850  0.892690  0.566520  1.0  1.1852
  Mo  Mo343  1  0.708330  0.106790  0.939820  1.0  1.1057
  Mo  Mo344  1  0.747340  0.056030  0.967260  1.0  1.0347
  Mo  Mo345  1  0.780850  0.107310  0.933480  1.0  1.1842
  Mo  Mo346  1  0.208330  0.606790  0.439820  1.0  1.1057
  Mo  Mo347  1  0.247340  0.556030  0.467260  1.0  1.0373
  Mo  Mo348  1  0.280850  0.607310  0.433480  1.0  1.1842
  Mo  Mo349  1  0.291670  0.606790  0.560180  1.0  1.1041
  Mo  Mo350  1  0.252660  0.556030  0.532740  1.0  1.0369
  Mo  Mo351  1  0.219150  0.607310  0.566520  1.0  1.1836
  Mo  Mo352  1  0.791670  0.106790  0.060180  1.0  1.1041
  Mo  Mo353  1  0.752660  0.056030  0.032740  1.0  1.0337
  Mo  Mo354  1  0.719150  0.107310  0.066520  1.0  1.1836
  Mo  Mo355  1  0.791670  0.893210  0.439820  1.0  1.1056
  Mo  Mo356  1  0.752660  0.943970  0.467260  1.0  1.0357
  Mo  Mo357  1  0.719150  0.892690  0.433480  1.0  1.1856
  Mo  Mo358  1  0.291670  0.393210  0.939820  1.0  1.1056
  Mo  Mo359  1  0.252660  0.443970  0.967260  1.0  1.0379
  Mo  Mo360  1  0.219150  0.392690  0.933480  1.0  1.1856
  Mo  Mo361  1  0.060180  0.208330  0.393210  1.0  1.1055
  Mo  Mo362  1  0.032740  0.247340  0.443970  1.0  1.0342
  Mo  Mo363  1  0.066520  0.280850  0.392690  1.0  1.1837
  Mo  Mo364  1  0.560180  0.708330  0.893210  1.0  1.1055
  Mo  Mo365  1  0.532740  0.747340  0.943970  1.0  1.0339
  Mo  Mo366  1  0.566520  0.780850  0.892690  1.0  1.1837
  Mo  Mo367  1  0.939820  0.708330  0.106790  1.0  1.107
  Mo  Mo368  1  0.967260  0.747340  0.056030  1.0  1.0389
  Mo  Mo369  1  0.933480  0.780850  0.107310  1.0  1.1834
  Mo  Mo370  1  0.439820  0.208330  0.606790  1.0  1.107
  Mo  Mo371  1  0.467260  0.247340  0.556030  1.0  1.0394
  Mo  Mo372  1  0.433480  0.280850  0.607310  1.0  1.1834
  Mo  Mo373  1  0.560180  0.291670  0.606790  1.0  1.1066
  Mo  Mo374  1  0.532740  0.252660  0.556030  1.0  1.0379
  Mo  Mo375  1  0.566520  0.219150  0.607310  1.0  1.1822
  Mo  Mo376  1  0.060180  0.791670  0.106790  1.0  1.1066
  Mo  Mo377  1  0.032740  0.752660  0.056030  1.0  1.0372
  Mo  Mo378  1  0.066520  0.719150  0.107310  1.0  1.1822
  Mo  Mo379  1  0.439820  0.791670  0.893210  1.0  1.1069
  Mo  Mo380  1  0.467260  0.752660  0.943970  1.0  1.0328
  Mo  Mo381  1  0.433480  0.719150  0.892690  1.0  1.1835
  Mo  Mo382  1  0.939820  0.291670  0.393210  1.0  1.1069
  Mo  Mo383  1  0.967260  0.252660  0.443970  1.0  1.0338
  Mo  Mo384  1  0.933480  0.219150  0.392690  1.0  1.1835
  H  H385  1  0.577000  0.020400  0.911600  1.0  0.1146
  H  H386  1  0.515600  0.000500  0.866200  1.0  0.1193
  H  H387  1  0.549600  0.022900  0.951900  1.0  0.1361
  H  H388  1  0.484700  0.007300  0.903900  1.0  0.1292
  H  H389  1  0.514000  0.052800  0.970000  1.0  0.1375
  H  H390  1  0.077000  0.520400  0.411600  1.0  0.1146
  H  H391  1  0.015600  0.500500  0.366200  1.0  0.12
  H  H392  1  0.049600  0.522900  0.451900  1.0  0.1361
  H  H393  1  0.984700  0.507300  0.403900  1.0  0.1292
  H  H394  1  0.014000  0.552800  0.470000  1.0  0.1375
  H  H395  1  0.923000  0.979600  0.411600  1.0  0.114
  H  H396  1  0.984400  0.999500  0.366200  1.0  0.121
  H  H397  1  0.950400  0.977100  0.451900  1.0  0.1366
  H  H398  1  0.015300  0.992700  0.403900  1.0  0.1296
  H  H399  1  0.986000  0.947200  0.470000  1.0  0.1376
  H  H400  1  0.423000  0.479600  0.911600  1.0  0.114
  H  H401  1  0.484400  0.499500  0.866200  1.0  0.1201
  H  H402  1  0.450400  0.477100  0.951900  1.0  0.1366
  H  H403  1  0.515300  0.492700  0.903900  1.0  0.1296
  H  H404  1  0.486000  0.447200  0.970000  1.0  0.1376
  H  H405  1  0.423000  0.520400  0.588400  1.0  0.1146
  H  H406  1  0.484400  0.500500  0.633800  1.0  0.1196
  H  H407  1  0.450400  0.522900  0.548100  1.0  0.1381
  H  H408  1  0.515300  0.507300  0.596100  1.0  0.1283
  H  H409  1  0.486000  0.552800  0.530000  1.0  0.137
  H  H410  1  0.923000  0.020400  0.088400  1.0  0.1146
  H  H411  1  0.984400  0.000500  0.133800  1.0  0.1207
  H  H412  1  0.950400  0.022900  0.048100  1.0  0.1381
  H  H413  1  0.015300  0.007300  0.096100  1.0  0.1283
  H  H414  1  0.986000  0.052800  0.030000  1.0  0.137
  H  H415  1  0.077000  0.479600  0.088400  1.0  0.1144
  H  H416  1  0.015600  0.499500  0.133800  1.0  0.1208
  H  H417  1  0.049600  0.477100  0.048100  1.0  0.1369
  H  H418  1  0.984700  0.492700  0.096100  1.0  0.1303
  H  H419  1  0.014000  0.447200  0.030000  1.0  0.1382
  H  H420  1  0.577000  0.979600  0.588400  1.0  0.1144
  H  H421  1  0.515600  0.999500  0.633800  1.0  0.1199
  H  H422  1  0.549600  0.977100  0.548100  1.0  0.1369
  H  H423  1  0.484700  0.992700  0.596100  1.0  0.1303
  H  H424  1  0.514000  0.947200  0.530000  1.0  0.1382
  H  H425  1  0.911600  0.577000  0.020400  1.0  0.1157
  H  H426  1  0.866200  0.515600  0.000500  1.0  0.1201
  H  H427  1  0.951900  0.549600  0.022900  1.0  0.1371
  H  H428  1  0.903900  0.484700  0.007300  1.0  0.1303
  H  H429  1  0.970000  0.514000  0.052800  1.0  0.1383
  H  H430  1  0.411600  0.077000  0.520400  1.0  0.1157
  H  H431  1  0.366200  0.015600  0.500500  1.0  0.1209
  H  H432  1  0.451900  0.049600  0.522900  1.0  0.1371
  H  H433  1  0.403900  0.984700  0.507300  1.0  0.1303
  H  H434  1  0.470000  0.014000  0.552800  1.0  0.1383
  H  H435  1  0.411600  0.923000  0.979600  1.0  0.1162
  H  H436  1  0.366200  0.984400  0.999500  1.0  0.1202
  H  H437  1  0.451900  0.950400  0.977100  1.0  0.1376
  H  H438  1  0.403900  0.015300  0.992700  1.0  0.1302
  H  H439  1  0.470000  0.986000  0.947200  1.0  0.1377
  H  H440  1  0.911600  0.423000  0.479600  1.0  0.1162
  H  H441  1  0.866200  0.484400  0.499500  1.0  0.1196
  H  H442  1  0.951900  0.450400  0.477100  1.0  0.1376
  H  H443  1  0.903900  0.515300  0.492700  1.0  0.1302
  H  H444  1  0.970000  0.486000  0.447200  1.0  0.1377
  H  H445  1  0.588400  0.423000  0.520400  1.0  0.1157
  H  H446  1  0.633800  0.484400  0.500500  1.0  0.1212
  H  H447  1  0.548100  0.450400  0.522900  1.0  0.1379
  H  H448  1  0.596100  0.515300  0.507300  1.0  0.1297
  H  H449  1  0.530000  0.486000  0.552800  1.0  0.1384
  H  H450  1  0.088400  0.923000  0.020400  1.0  0.1157
  H  H451  1  0.133800  0.984400  0.000500  1.0  0.1216
  H  H452  1  0.048100  0.950400  0.022900  1.0  0.1379
  H  H453  1  0.096100  0.015300  0.007300  1.0  0.1297
  H  H454  1  0.030000  0.986000  0.052800  1.0  0.1384
  H  H455  1  0.088400  0.077000  0.479600  1.0  0.1153
  H  H456  1  0.133800  0.015600  0.499500  1.0  0.1205
  H  H457  1  0.048100  0.049600  0.477100  1.0  0.1377
  H  H458  1  0.096100  0.984700  0.492700  1.0  0.1303
  H  H459  1  0.030000  0.014000  0.447200  1.0  0.1393
  H  H460  1  0.588400  0.577000  0.979600  1.0  0.1153
  H  H461  1  0.633800  0.515600  0.999500  1.0  0.1198
  H  H462  1  0.548100  0.549600  0.977100  1.0  0.1377
  H  H463  1  0.596100  0.484700  0.992700  1.0  0.1303
  H  H464  1  0.530000  0.514000  0.947200  1.0  0.1393
  H  H465  1  0.020400  0.911600  0.577000  1.0  0.115
  H  H466  1  0.000500  0.866200  0.515600  1.0  0.1204
  H  H467  1  0.022900  0.951900  0.549600  1.0  0.1375
  H  H468  1  0.007300  0.903900  0.484700  1.0  0.1289
  H  H469  1  0.052800  0.970000  0.514000  1.0  0.1365
  H  H470  1  0.520400  0.411600  0.077000  1.0  0.115
  H  H471  1  0.500500  0.366200  0.015600  1.0  0.1208
  H  H472  1  0.522900  0.451900  0.049600  1.0  0.1375
  H  H473  1  0.507300  0.403900  0.984700  1.0  0.1289
  H  H474  1  0.552800  0.470000  0.014000  1.0  0.1365
  H  H475  1  0.979600  0.411600  0.923000  1.0  0.1153
  H  H476  1  0.999500  0.366200  0.984400  1.0  0.1211
  H  H477  1  0.977100  0.451900  0.950400  1.0  0.138
  H  H478  1  0.992700  0.403900  0.015300  1.0  0.1294
  H  H479  1  0.947200  0.470000  0.986000  1.0  0.1369
  H  H480  1  0.479600  0.911600  0.423000  1.0  0.1153
  H  H481  1  0.499500  0.866200  0.484400  1.0  0.1206
  H  H482  1  0.477100  0.951900  0.450400  1.0  0.138
  H  H483  1  0.492700  0.903900  0.515300  1.0  0.1294
  H  H484  1  0.447200  0.970000  0.486000  1.0  0.1369
  H  H485  1  0.520400  0.588400  0.423000  1.0  0.115
  H  H486  1  0.500500  0.633800  0.484400  1.0  0.1207
  H  H487  1  0.522900  0.548100  0.450400  1.0  0.1378
  H  H488  1  0.507300  0.596100  0.515300  1.0  0.1291
  H  H489  1  0.552800  0.530000  0.486000  1.0  0.1368
  H  H490  1  0.020400  0.088400  0.923000  1.0  0.115
  H  H491  1  0.000500  0.133800  0.984400  1.0  0.1213
  H  H492  1  0.022900  0.048100  0.950400  1.0  0.1378
  H  H493  1  0.007300  0.096100  0.015300  1.0  0.1291
  H  H494  1  0.052800  0.030000  0.986000  1.0  0.1368
  H  H495  1  0.479600  0.088400  0.077000  1.0  0.1152
  H  H496  1  0.499500  0.133800  0.015600  1.0  0.1214
  H  H497  1  0.477100  0.048100  0.049600  1.0  0.1385
  H  H498  1  0.492700  0.096100  0.984700  1.0  0.1288
  H  H499  1  0.447200  0.030000  0.014000  1.0  0.1373
  H  H500  1  0.979600  0.588400  0.577000  1.0  0.1152
  H  H501  1  0.999500  0.633800  0.515600  1.0  0.1207
  H  H502  1  0.977100  0.548100  0.549600  1.0  0.1385
  H  H503  1  0.992700  0.596100  0.484700  1.0  0.1288
  H  H504  1  0.947200  0.530000  0.514000  1.0  0.1373
  H  H505  1  0.229600  0.173000  0.661600  1.0  0.1157
  H  H506  1  0.249500  0.234400  0.616200  1.0  0.1202
  H  H507  1  0.227100  0.200400  0.701900  1.0  0.1379
  H  H508  1  0.242700  0.265300  0.653900  1.0  0.1288
  H  H509  1  0.197200  0.236000  0.720000  1.0  0.1374
  H  H510  1  0.729600  0.673000  0.161600  1.0  0.1157
  H  H511  1  0.749500  0.734400  0.116200  1.0  0.1202
  H  H512  1  0.727100  0.700400  0.201900  1.0  0.1379
  H  H513  1  0.742700  0.765300  0.153900  1.0  0.1288
  H  H514  1  0.697200  0.736000  0.220000  1.0  0.1374
  H  H515  1  0.270400  0.827000  0.161600  1.0  0.1152
  H  H516  1  0.250500  0.765600  0.116200  1.0  0.1198
  H  H517  1  0.272900  0.799600  0.201900  1.0  0.1377
  H  H518  1  0.257300  0.734700  0.153900  1.0  0.129
  H  H519  1  0.302800  0.764000  0.220000  1.0  0.1373
  H  H520  1  0.770400  0.327000  0.661600  1.0  0.1152
  H  H521  1  0.750500  0.265600  0.616200  1.0  0.1198
  H  H522  1  0.772900  0.299600  0.701900  1.0  0.1377
  H  H523  1  0.757300  0.234700  0.653900  1.0  0.129
  H  H524  1  0.802800  0.264000  0.720000  1.0  0.1373
  H  H525  1  0.729600  0.327000  0.338400  1.0  0.1159
  H  H526  1  0.749500  0.265600  0.383800  1.0  0.1197
  H  H527  1  0.727100  0.299600  0.298100  1.0  0.1386
  H  H528  1  0.742700  0.234700  0.346100  1.0  0.1293
  H  H529  1  0.697200  0.264000  0.280000  1.0  0.1376
  H  H530  1  0.229600  0.827000  0.838400  1.0  0.1159
  H  H531  1  0.249500  0.765600  0.883800  1.0  0.1197
  H  H532  1  0.227100  0.799600  0.798100  1.0  0.1386
  H  H533  1  0.242700  0.734700  0.846100  1.0  0.1293
  H  H534  1  0.197200  0.764000  0.780000  1.0  0.1376
  H  H535  1  0.770400  0.673000  0.838400  1.0  0.1159
  H  H536  1  0.750500  0.734400  0.883800  1.0  0.12
  H  H537  1  0.772900  0.700400  0.798100  1.0  0.1387
  H  H538  1  0.757300  0.765300  0.846100  1.0  0.1291
  H  H539  1  0.802800  0.736000  0.780000  1.0  0.1369
  H  H540  1  0.270400  0.173000  0.338400  1.0  0.1159
  H  H541  1  0.250500  0.234400  0.383800  1.0  0.12
  H  H542  1  0.272900  0.200400  0.298100  1.0  0.1387
  H  H543  1  0.257300  0.265300  0.346100  1.0  0.1291
  H  H544  1  0.302800  0.236000  0.280000  1.0  0.1369
  H  H545  1  0.673000  0.838400  0.770400  1.0  0.1143
  H  H546  1  0.734400  0.883800  0.750500  1.0  0.1207
  H  H547  1  0.700400  0.798100  0.772900  1.0  0.1378
  H  H548  1  0.765300  0.846100  0.757300  1.0  0.1299
  H  H549  1  0.736000  0.780000  0.802800  1.0  0.1388
  H  H550  1  0.173000  0.338400  0.270400  1.0  0.1143
  H  H551  1  0.234400  0.383800  0.250500  1.0  0.1207
  H  H552  1  0.200400  0.298100  0.272900  1.0  0.1378
  H  H553  1  0.265300  0.346100  0.257300  1.0  0.1299
  H  H554  1  0.236000  0.280000  0.302800  1.0  0.1388
  H  H555  1  0.327000  0.338400  0.729600  1.0  0.1143
  H  H556  1  0.265600  0.383800  0.749500  1.0  0.1204
  H  H557  1  0.299600  0.298100  0.727100  1.0  0.1372
  H  H558  1  0.234700  0.346100  0.742700  1.0  0.1303
  H  H559  1  0.264000  0.280000  0.697200  1.0  0.1392
  H  H560  1  0.827000  0.838400  0.229600  1.0  0.1143
  H  H561  1  0.765600  0.883800  0.249500  1.0  0.1204
  H  H562  1  0.799600  0.798100  0.227100  1.0  0.1372
  H  H563  1  0.734700  0.846100  0.242700  1.0  0.1303
  H  H564  1  0.764000  0.780000  0.197200  1.0  0.1392
  H  H565  1  0.827000  0.161600  0.270400  1.0  0.1148
  H  H566  1  0.765600  0.116200  0.250500  1.0  0.1198
  H  H567  1  0.799600  0.201900  0.272900  1.0  0.1366
  H  H568  1  0.734700  0.153900  0.257300  1.0  0.1308
  H  H569  1  0.764000  0.220000  0.302800  1.0  0.1395
  H  H570  1  0.327000  0.661600  0.770400  1.0  0.1148
  H  H571  1  0.265600  0.616200  0.750500  1.0  0.1198
  H  H572  1  0.299600  0.701900  0.772900  1.0  0.1366
  H  H573  1  0.234700  0.653900  0.757300  1.0  0.1308
  H  H574  1  0.264000  0.720000  0.802800  1.0  0.1395
  H  H575  1  0.173000  0.661600  0.229600  1.0  0.1149
  H  H576  1  0.234400  0.616200  0.249500  1.0  0.1195
  H  H577  1  0.200400  0.701900  0.227100  1.0  0.1377
  H  H578  1  0.265300  0.653900  0.242700  1.0  0.1294
  H  H579  1  0.236000  0.720000  0.197200  1.0  0.1385
  H  H580  1  0.673000  0.161600  0.729600  1.0  0.1149
  H  H581  1  0.734400  0.116200  0.749500  1.0  0.1195
  H  H582  1  0.700400  0.201900  0.727100  1.0  0.1377
  H  H583  1  0.765300  0.153900  0.742700  1.0  0.1294
  H  H584  1  0.736000  0.220000  0.697200  1.0  0.1385
  H  H585  1  0.338400  0.729600  0.327000  1.0  0.1148
  H  H586  1  0.383800  0.749500  0.265600  1.0  0.1208
  H  H587  1  0.298100  0.727100  0.299600  1.0  0.1371
  H  H588  1  0.346100  0.742700  0.234700  1.0  0.13
  H  H589  1  0.280000  0.697200  0.264000  1.0  0.137
  H  H590  1  0.838400  0.229600  0.827000  1.0  0.1148
  H  H591  1  0.883800  0.249500  0.765600  1.0  0.1208
  H  H592  1  0.798100  0.227100  0.799600  1.0  0.1371
  H  H593  1  0.846100  0.242700  0.734700  1.0  0.13
  H  H594  1  0.780000  0.197200  0.764000  1.0  0.137
  H  H595  1  0.838400  0.770400  0.673000  1.0  0.1149
  H  H596  1  0.883800  0.750500  0.734400  1.0  0.1206
  H  H597  1  0.798100  0.772900  0.700400  1.0  0.1375
  H  H598  1  0.846100  0.757300  0.765300  1.0  0.1294
  H  H599  1  0.780000  0.802800  0.736000  1.0  0.1365
  H  H600  1  0.338400  0.270400  0.173000  1.0  0.1149
  H  H601  1  0.383800  0.250500  0.234400  1.0  0.1206
  H  H602  1  0.298100  0.272900  0.200400  1.0  0.1375
  H  H603  1  0.346100  0.257300  0.265300  1.0  0.1294
  H  H604  1  0.280000  0.302800  0.236000  1.0  0.1365
  H  H605  1  0.661600  0.229600  0.173000  1.0  0.1152
  H  H606  1  0.616200  0.249500  0.234400  1.0  0.1199
  H  H607  1  0.701900  0.227100  0.200400  1.0  0.1367
  H  H608  1  0.653900  0.242700  0.265300  1.0  0.1305
  H  H609  1  0.720000  0.197200  0.236000  1.0  0.1364
  H  H610  1  0.161600  0.729600  0.673000  1.0  0.1152
  H  H611  1  0.116200  0.749500  0.734400  1.0  0.1199
  H  H612  1  0.201900  0.727100  0.700400  1.0  0.1367
  H  H613  1  0.153900  0.742700  0.765300  1.0  0.1305
  H  H614  1  0.220000  0.697200  0.736000  1.0  0.1364
  H  H615  1  0.161600  0.270400  0.827000  1.0  0.1158
  H  H616  1  0.116200  0.250500  0.765600  1.0  0.1197
  H  H617  1  0.201900  0.272900  0.799600  1.0  0.1373
  H  H618  1  0.153900  0.257300  0.734700  1.0  0.1296
  H  H619  1  0.220000  0.302800  0.764000  1.0  0.1359
  H  H620  1  0.661600  0.770400  0.327000  1.0  0.1158
  H  H621  1  0.616200  0.750500  0.265600  1.0  0.1197
  H  H622  1  0.701900  0.772900  0.299600  1.0  0.1373
  H  H623  1  0.653900  0.757300  0.234700  1.0  0.1296
  H  H624  1  0.720000  0.802800  0.264000  1.0  0.1359
  H  H625  1  0.770400  0.827000  0.338400  1.0  0.1155
  H  H626  1  0.750500  0.765600  0.383800  1.0  0.1198
  H  H627  1  0.772900  0.799600  0.298100  1.0  0.1385
  H  H628  1  0.757300  0.734700  0.346100  1.0  0.1291
  H  H629  1  0.802800  0.764000  0.280000  1.0  0.1365
  H  H630  1  0.270400  0.327000  0.838400  1.0  0.1155
  H  H631  1  0.250500  0.265600  0.883800  1.0  0.1198
  H  H632  1  0.272900  0.299600  0.798100  1.0  0.1385
  H  H633  1  0.257300  0.234700  0.846100  1.0  0.1291
  H  H634  1  0.302800  0.264000  0.780000  1.0  0.1365
  H  H635  1  0.729600  0.173000  0.838400  1.0  0.1161
  H  H636  1  0.749500  0.234400  0.883800  1.0  0.1202
  H  H637  1  0.727100  0.200400  0.798100  1.0  0.1394
  H  H638  1  0.742700  0.265300  0.846100  1.0  0.1291
  H  H639  1  0.697200  0.236000  0.780000  1.0  0.1372
  H  H640  1  0.229600  0.673000  0.338400  1.0  0.1161
  H  H641  1  0.249500  0.734400  0.383800  1.0  0.1202
  H  H642  1  0.227100  0.700400  0.298100  1.0  0.1394
  H  H643  1  0.242700  0.765300  0.346100  1.0  0.1291
  H  H644  1  0.197200  0.736000  0.280000  1.0  0.1372
  H  H645  1  0.270400  0.673000  0.661600  1.0  0.1155
  H  H646  1  0.250500  0.734400  0.616200  1.0  0.1198
  H  H647  1  0.272900  0.700400  0.701900  1.0  0.1375
  H  H648  1  0.257300  0.765300  0.653900  1.0  0.1291
  H  H649  1  0.302800  0.736000  0.720000  1.0  0.1371
  H  H650  1  0.770400  0.173000  0.161600  1.0  0.1155
  H  H651  1  0.750500  0.234400  0.116200  1.0  0.1198
  H  H652  1  0.772900  0.200400  0.201900  1.0  0.1375
  H  H653  1  0.757300  0.265300  0.153900  1.0  0.1291
  H  H654  1  0.802800  0.236000  0.220000  1.0  0.1371
  H  H655  1  0.229600  0.327000  0.161600  1.0  0.1155
  H  H656  1  0.249500  0.265600  0.116200  1.0  0.1198
  H  H657  1  0.227100  0.299600  0.201900  1.0  0.138
  H  H658  1  0.242700  0.234700  0.153900  1.0  0.1293
  H  H659  1  0.197200  0.264000  0.220000  1.0  0.1382
  H  H660  1  0.729600  0.827000  0.661600  1.0  0.1155
  H  H661  1  0.749500  0.765600  0.616200  1.0  0.1198
  H  H662  1  0.727100  0.799600  0.701900  1.0  0.138
  H  H663  1  0.742700  0.734700  0.653900  1.0  0.1293
  H  H664  1  0.697200  0.764000  0.720000  1.0  0.1382
  H  H665  1  0.327000  0.161600  0.229600  1.0  0.1147
  H  H666  1  0.265600  0.116200  0.249500  1.0  0.1197
  H  H667  1  0.299600  0.201900  0.227100  1.0  0.1371
  H  H668  1  0.234700  0.153900  0.242700  1.0  0.1306
  H  H669  1  0.264000  0.220000  0.197200  1.0  0.1389
  H  H670  1  0.827000  0.661600  0.729600  1.0  0.1147
  H  H671  1  0.765600  0.616200  0.749500  1.0  0.1197
  H  H672  1  0.799600  0.701900  0.727100  1.0  0.1371
  H  H673  1  0.734700  0.653900  0.742700  1.0  0.1306
  H  H674  1  0.764000  0.720000  0.697200  1.0  0.1389
  H  H675  1  0.673000  0.661600  0.270400  1.0  0.1146
  H  H676  1  0.734400  0.616200  0.250500  1.0  0.1203
  H  H677  1  0.700400  0.701900  0.272900  1.0  0.138
  H  H678  1  0.765300  0.653900  0.257300  1.0  0.1297
  H  H679  1  0.736000  0.720000  0.302800  1.0  0.1388
  H  H680  1  0.173000  0.161600  0.770400  1.0  0.1146
  H  H681  1  0.234400  0.116200  0.750500  1.0  0.1203
  H  H682  1  0.200400  0.201900  0.772900  1.0  0.138
  H  H683  1  0.265300  0.153900  0.757300  1.0  0.1297
  H  H684  1  0.236000  0.220000  0.802800  1.0  0.1388
  H  H685  1  0.173000  0.838400  0.729600  1.0  0.1144
  H  H686  1  0.234400  0.883800  0.749500  1.0  0.1201
  H  H687  1  0.200400  0.798100  0.727100  1.0  0.1379
  H  H688  1  0.265300  0.846100  0.742700  1.0  0.13
  H  H689  1  0.236000  0.780000  0.697200  1.0  0.1393
  H  H690  1  0.673000  0.338400  0.229600  1.0  0.1144
  H  H691  1  0.734400  0.383800  0.249500  1.0  0.1201
  H  H692  1  0.700400  0.298100  0.227100  1.0  0.1379
  H  H693  1  0.765300  0.346100  0.242700  1.0  0.13
  H  H694  1  0.736000  0.280000  0.197200  1.0  0.1393
  H  H695  1  0.827000  0.338400  0.770400  1.0  0.1145
  H  H696  1  0.765600  0.383800  0.750500  1.0  0.1205
  H  H697  1  0.799600  0.298100  0.772900  1.0  0.1371
  H  H698  1  0.734700  0.346100  0.757300  1.0  0.1302
  H  H699  1  0.764000  0.280000  0.802800  1.0  0.1393
  H  H700  1  0.327000  0.838400  0.270400  1.0  0.1145
  H  H701  1  0.265600  0.883800  0.250500  1.0  0.1205
  H  H702  1  0.299600  0.798100  0.272900  1.0  0.1371
  H  H703  1  0.234700  0.846100  0.257300  1.0  0.1302
  H  H704  1  0.264000  0.780000  0.302800  1.0  0.1393
  H  H705  1  0.661600  0.270400  0.673000  1.0  0.1153
  H  H706  1  0.616200  0.250500  0.734400  1.0  0.1201
  H  H707  1  0.701900  0.272900  0.700400  1.0  0.1368
  H  H708  1  0.653900  0.257300  0.765300  1.0  0.1304
  H  H709  1  0.720000  0.302800  0.736000  1.0  0.1363
  H  H710  1  0.161600  0.770400  0.173000  1.0  0.1153
  H  H711  1  0.116200  0.750500  0.234400  1.0  0.1201
  H  H712  1  0.201900  0.772900  0.200400  1.0  0.1368
  H  H713  1  0.153900  0.757300  0.265300  1.0  0.1304
  H  H714  1  0.220000  0.802800  0.236000  1.0  0.1363
  H  H715  1  0.161600  0.229600  0.327000  1.0  0.1157
  H  H716  1  0.116200  0.249500  0.265600  1.0  0.1197
  H  H717  1  0.201900  0.227100  0.299600  1.0  0.1376
  H  H718  1  0.153900  0.242700  0.234700  1.0  0.13
  H  H719  1  0.220000  0.197200  0.264000  1.0  0.1371
  H  H720  1  0.661600  0.729600  0.827000  1.0  0.1157
  H  H721  1  0.616200  0.749500  0.765600  1.0  0.1197
  H  H722  1  0.701900  0.727100  0.799600  1.0  0.1376
  H  H723  1  0.653900  0.742700  0.734700  1.0  0.13
  H  H724  1  0.720000  0.697200  0.764000  1.0  0.1371
  H  H725  1  0.338400  0.770400  0.827000  1.0  0.1149
  H  H726  1  0.383800  0.750500  0.765600  1.0  0.1205
  H  H727  1  0.298100  0.772900  0.799600  1.0  0.1374
  H  H728  1  0.346100  0.757300  0.734700  1.0  0.1297
  H  H729  1  0.280000  0.802800  0.764000  1.0  0.1356
  H  H730  1  0.838400  0.270400  0.327000  1.0  0.1149
  H  H731  1  0.883800  0.250500  0.265600  1.0  0.1205
  H  H732  1  0.798100  0.272900  0.299600  1.0  0.1374
  H  H733  1  0.846100  0.257300  0.234700  1.0  0.1297
  H  H734  1  0.780000  0.302800  0.264000  1.0  0.1356
  H  H735  1  0.838400  0.729600  0.173000  1.0  0.1148
  H  H736  1  0.883800  0.749500  0.234400  1.0  0.1206
  H  H737  1  0.798100  0.727100  0.200400  1.0  0.1369
  H  H738  1  0.846100  0.742700  0.265300  1.0  0.1296
  H  H739  1  0.780000  0.697200  0.236000  1.0  0.1369
  H  H740  1  0.338400  0.229600  0.673000  1.0  0.1148
  H  H741  1  0.383800  0.249500  0.734400  1.0  0.1206
  H  H742  1  0.298100  0.227100  0.700400  1.0  0.1369
  H  H743  1  0.346100  0.242700  0.765300  1.0  0.1296
  H  H744  1  0.280000  0.197200  0.736000  1.0  0.1369
  H  H745  1  0.423000  0.979600  0.088400  1.0  0.1144
  H  H746  1  0.484400  0.999500  0.133800  1.0  0.1195
  H  H747  1  0.450400  0.977100  0.048100  1.0  0.1382
  H  H748  1  0.515300  0.992700  0.096100  1.0  0.1285
  H  H749  1  0.486000  0.947200  0.030000  1.0  0.1376
  H  H750  1  0.923000  0.479600  0.588400  1.0  0.1144
  H  H751  1  0.984400  0.499500  0.633800  1.0  0.1208
  H  H752  1  0.950400  0.477100  0.548100  1.0  0.1382
  H  H753  1  0.015300  0.492700  0.596100  1.0  0.1285
  H  H754  1  0.986000  0.447200  0.530000  1.0  0.1376
  H  H755  1  0.077000  0.020400  0.588400  1.0  0.1151
  H  H756  1  0.015600  0.000500  0.633800  1.0  0.121
  H  H757  1  0.049600  0.022900  0.548100  1.0  0.1373
  H  H758  1  0.984700  0.007300  0.596100  1.0  0.1302
  H  H759  1  0.014000  0.052800  0.530000  1.0  0.1369
  H  H760  1  0.577000  0.520400  0.088400  1.0  0.1151
  H  H761  1  0.515600  0.500500  0.133800  1.0  0.1201
  H  H762  1  0.549600  0.522900  0.048100  1.0  0.1373
  H  H763  1  0.484700  0.507300  0.096100  1.0  0.1302
  H  H764  1  0.514000  0.552800  0.030000  1.0  0.1369
  H  H765  1  0.577000  0.479600  0.411600  1.0  0.1141
  H  H766  1  0.515600  0.499500  0.366200  1.0  0.1193
  H  H767  1  0.549600  0.477100  0.451900  1.0  0.1359
  H  H768  1  0.484700  0.492700  0.403900  1.0  0.1295
  H  H769  1  0.514000  0.447200  0.470000  1.0  0.1381
  H  H770  1  0.077000  0.979600  0.911600  1.0  0.1141
  H  H771  1  0.015600  0.999500  0.866200  1.0  0.1199
  H  H772  1  0.049600  0.977100  0.951900  1.0  0.1359
  H  H773  1  0.984700  0.992700  0.903900  1.0  0.1295
  H  H774  1  0.014000  0.947200  0.970000  1.0  0.1381
  H  H775  1  0.923000  0.520400  0.911600  1.0  0.1141
  H  H776  1  0.984400  0.500500  0.866200  1.0  0.1212
  H  H777  1  0.950400  0.522900  0.951900  1.0  0.1371
  H  H778  1  0.015300  0.507300  0.903900  1.0  0.1293
  H  H779  1  0.986000  0.552800  0.970000  1.0  0.1378
  H  H780  1  0.423000  0.020400  0.411600  1.0  0.1141
  H  H781  1  0.484400  0.000500  0.366200  1.0  0.12
  H  H782  1  0.450400  0.022900  0.451900  1.0  0.1371
  H  H783  1  0.515300  0.007300  0.403900  1.0  0.1293
  H  H784  1  0.486000  0.052800  0.470000  1.0  0.1378
  H  H785  1  0.088400  0.423000  0.979600  1.0  0.1155
  H  H786  1  0.133800  0.484400  0.999500  1.0  0.1206
  H  H787  1  0.048100  0.450400  0.977100  1.0  0.1377
  H  H788  1  0.096100  0.515300  0.992700  1.0  0.1297
  H  H789  1  0.030000  0.486000  0.947200  1.0  0.1389
  H  H790  1  0.588400  0.923000  0.479600  1.0  0.1155
  H  H791  1  0.633800  0.984400  0.499500  1.0  0.1211
  H  H792  1  0.548100  0.950400  0.477100  1.0  0.1377
  H  H793  1  0.596100  0.015300  0.492700  1.0  0.1297
  H  H794  1  0.530000  0.986000  0.447200  1.0  0.1389
  H  H795  1  0.588400  0.077000  0.020400  1.0  0.1155
  H  H796  1  0.633800  0.015600  0.000500  1.0  0.1206
  H  H797  1  0.548100  0.049600  0.022900  1.0  0.1376
  H  H798  1  0.596100  0.984700  0.007300  1.0  0.1304
  H  H799  1  0.530000  0.014000  0.052800  1.0  0.1381
  H  H800  1  0.088400  0.577000  0.520400  1.0  0.1155
  H  H801  1  0.133800  0.515600  0.500500  1.0  0.1203
  H  H802  1  0.048100  0.549600  0.522900  1.0  0.1376
  H  H803  1  0.096100  0.484700  0.507300  1.0  0.1304
  H  H804  1  0.030000  0.514000  0.552800  1.0  0.1381
  H  H805  1  0.411600  0.577000  0.479600  1.0  0.1157
  H  H806  1  0.366200  0.515600  0.499500  1.0  0.1197
  H  H807  1  0.451900  0.549600  0.477100  1.0  0.1374
  H  H808  1  0.403900  0.484700  0.492700  1.0  0.1302
  H  H809  1  0.470000  0.514000  0.447200  1.0  0.1384
  H  H810  1  0.911600  0.077000  0.979600  1.0  0.1157
  H  H811  1  0.866200  0.015600  0.999500  1.0  0.1207
  H  H812  1  0.951900  0.049600  0.977100  1.0  0.1374
  H  H813  1  0.903900  0.984700  0.992700  1.0  0.1302
  H  H814  1  0.970000  0.014000  0.947200  1.0  0.1384
  H  H815  1  0.911600  0.923000  0.520400  1.0  0.1162
  H  H816  1  0.866200  0.984400  0.500500  1.0  0.1207
  H  H817  1  0.951900  0.950400  0.522900  1.0  0.138
  H  H818  1  0.903900  0.015300  0.507300  1.0  0.1303
  H  H819  1  0.970000  0.986000  0.552800  1.0  0.1385
  H  H820  1  0.411600  0.423000  0.020400  1.0  0.1162
  H  H821  1  0.366200  0.484400  0.000500  1.0  0.1202
  H  H822  1  0.451900  0.450400  0.022900  1.0  0.138
  H  H823  1  0.403900  0.515300  0.007300  1.0  0.1303
  H  H824  1  0.470000  0.486000  0.052800  1.0  0.1385
  H  H825  1  0.979600  0.088400  0.423000  1.0  0.1152
  H  H826  1  0.999500  0.133800  0.484400  1.0  0.1208
  H  H827  1  0.977100  0.048100  0.450400  1.0  0.1384
  H  H828  1  0.992700  0.096100  0.515300  1.0  0.1293
  H  H829  1  0.947200  0.030000  0.486000  1.0  0.1376
  H  H830  1  0.479600  0.588400  0.923000  1.0  0.1152
  H  H831  1  0.499500  0.633800  0.984400  1.0  0.1215
  H  H832  1  0.477100  0.548100  0.950400  1.0  0.1384
  H  H833  1  0.492700  0.596100  0.015300  1.0  0.1293
  H  H834  1  0.447200  0.530000  0.986000  1.0  0.1376
  H  H835  1  0.020400  0.588400  0.077000  1.0  0.1149
  H  H836  1  0.000500  0.633800  0.015600  1.0  0.1211
  H  H837  1  0.022900  0.548100  0.049600  1.0  0.1381
  H  H838  1  0.007300  0.596100  0.984700  1.0  0.1289
  H  H839  1  0.052800  0.530000  0.014000  1.0  0.1365
  H  H840  1  0.520400  0.088400  0.577000  1.0  0.1149
  H  H841  1  0.500500  0.133800  0.515600  1.0  0.1205
  H  H842  1  0.522900  0.048100  0.549600  1.0  0.1381
  H  H843  1  0.507300  0.096100  0.484700  1.0  0.1289
  H  H844  1  0.552800  0.030000  0.514000  1.0  0.1365
  H  H845  1  0.479600  0.411600  0.577000  1.0  0.1154
  H  H846  1  0.499500  0.366200  0.515600  1.0  0.1203
  H  H847  1  0.477100  0.451900  0.549600  1.0  0.138
  H  H848  1  0.492700  0.403900  0.484700  1.0  0.129
  H  H849  1  0.447200  0.470000  0.514000  1.0  0.1373
  H  H850  1  0.979600  0.911600  0.077000  1.0  0.1154
  H  H851  1  0.999500  0.866200  0.015600  1.0  0.1205
  H  H852  1  0.977100  0.951900  0.049600  1.0  0.138
  H  H853  1  0.992700  0.903900  0.984700  1.0  0.129
  H  H854  1  0.947200  0.970000  0.014000  1.0  0.1373
  H  H855  1  0.520400  0.911600  0.923000  1.0  0.1151
  H  H856  1  0.500500  0.866200  0.984400  1.0  0.1212
  H  H857  1  0.522900  0.951900  0.950400  1.0  0.138
  H  H858  1  0.507300  0.903900  0.015300  1.0  0.1293
  H  H859  1  0.552800  0.970000  0.986000  1.0  0.1364
  H  H860  1  0.020400  0.411600  0.423000  1.0  0.1151
  H  H861  1  0.000500  0.366200  0.484400  1.0  0.1206
  H  H862  1  0.022900  0.451900  0.450400  1.0  0.138
  H  H863  1  0.007300  0.403900  0.515300  1.0  0.1293
  H  H864  1  0.052800  0.470000  0.486000  1.0  0.1364
  C  C865  1  0.566800  0.009300  0.862700  1.0  0.7236
  C  C866  1  0.547800  0.011600  0.885800  1.0  -0.0585
  C  C867  1  0.558300  0.017400  0.910300  1.0  -0.0014
  C  C868  1  0.522300  0.006300  0.883000  1.0  -0.0516
  C  C869  1  0.541900  0.019100  0.935000  1.0  -0.1533
  C  C870  1  0.503500  0.009300  0.906400  1.0  -0.0845
  C  C871  1  0.513700  0.014900  0.931800  1.0  0.0706
  C  C872  1  0.496900  0.017800  0.956700  1.0  0.0341
  C  C873  1  0.500300  0.040100  0.973500  1.0  -0.0965
  C  C874  1  0.066800  0.509300  0.362700  1.0  0.7236
  C  C875  1  0.047800  0.511600  0.385800  1.0  -0.0585
  C  C876  1  0.058300  0.517400  0.410300  1.0  -0.0014
  C  C877  1  0.022300  0.506300  0.383000  1.0  -0.0516
  C  C878  1  0.041900  0.519100  0.435000  1.0  -0.1533
  C  C879  1  0.003500  0.509300  0.406400  1.0  -0.0845
  C  C880  1  0.013700  0.514900  0.431800  1.0  0.0706
  C  C881  1  0.996900  0.517800  0.456700  1.0  0.0341
  C  C882  1  0.000300  0.540100  0.473500  1.0  -0.0965
  C  C883  1  0.933200  0.990700  0.362700  1.0  0.7244
  C  C884  1  0.952200  0.988400  0.385800  1.0  -0.0591
  C  C885  1  0.941700  0.982600  0.410300  1.0  -0.0054
  C  C886  1  0.977700  0.993700  0.383000  1.0  -0.0521
  C  C887  1  0.958100  0.980900  0.435000  1.0  -0.1533
  C  C888  1  0.996500  0.990700  0.406400  1.0  -0.082
  C  C889  1  0.986300  0.985100  0.431800  1.0  0.0714
  C  C890  1  0.003100  0.982200  0.456700  1.0  0.0337
  C  C891  1  0.999700  0.959900  0.473500  1.0  -0.0964
  C  C892  1  0.433200  0.490700  0.862700  1.0  0.7244
  C  C893  1  0.452200  0.488400  0.885800  1.0  -0.0591
  C  C894  1  0.441700  0.482600  0.910300  1.0  -0.0054
  C  C895  1  0.477700  0.493700  0.883000  1.0  -0.0521
  C  C896  1  0.458100  0.480900  0.935000  1.0  -0.1533
  C  C897  1  0.496500  0.490700  0.906400  1.0  -0.082
  C  C898  1  0.486300  0.485100  0.931800  1.0  0.0714
  C  C899  1  0.503100  0.482200  0.956700  1.0  0.0337
  C  C900  1  0.499700  0.459900  0.973500  1.0  -0.0964
  C  C901  1  0.433200  0.509300  0.637300  1.0  0.7244
  C  C902  1  0.452200  0.511600  0.614200  1.0  -0.0589
  C  C903  1  0.441700  0.517400  0.589700  1.0  -0.0056
  C  C904  1  0.477700  0.506300  0.617000  1.0  -0.0482
  C  C905  1  0.458100  0.519100  0.565000  1.0  -0.1538
  C  C906  1  0.496500  0.509300  0.593600  1.0  -0.0846
  C  C907  1  0.486300  0.514900  0.568200  1.0  0.0694
  C  C908  1  0.503100  0.517800  0.543300  1.0  0.0342
  C  C909  1  0.499700  0.540100  0.526500  1.0  -0.0967
  C  C910  1  0.933200  0.009300  0.137300  1.0  0.7244
  C  C911  1  0.952200  0.011600  0.114200  1.0  -0.0589
  C  C912  1  0.941700  0.017400  0.089700  1.0  -0.0056
  C  C913  1  0.977700  0.006300  0.117000  1.0  -0.0482
  C  C914  1  0.958100  0.019100  0.065000  1.0  -0.1538
  C  C915  1  0.996500  0.009300  0.093600  1.0  -0.0846
  C  C916  1  0.986300  0.014900  0.068200  1.0  0.0694
  C  C917  1  0.003100  0.017800  0.043300  1.0  0.0342
  C  C918  1  0.999700  0.040100  0.026500  1.0  -0.0967
  C  C919  1  0.066800  0.490700  0.137300  1.0  0.7247
  C  C920  1  0.047800  0.488400  0.114200  1.0  -0.0594
  C  C921  1  0.058300  0.482600  0.089700  1.0  -0.0012
  C  C922  1  0.022300  0.493700  0.117000  1.0  -0.0495
  C  C923  1  0.041900  0.480900  0.065000  1.0  -0.1524
  C  C924  1  0.003500  0.490700  0.093600  1.0  -0.0888
  C  C925  1  0.013700  0.485100  0.068200  1.0  0.069
  C  C926  1  0.996900  0.482200  0.043300  1.0  0.0329
  C  C927  1  0.000300  0.459900  0.026500  1.0  -0.0958
  C  C928  1  0.566800  0.990700  0.637300  1.0  0.7247
  C  C929  1  0.547800  0.988400  0.614200  1.0  -0.0594
  C  C930  1  0.558300  0.982600  0.589700  1.0  -0.0012
  C  C931  1  0.522300  0.993700  0.617000  1.0  -0.0495
  C  C932  1  0.541900  0.980900  0.565000  1.0  -0.1524
  C  C933  1  0.503500  0.990700  0.593600  1.0  -0.0888
  C  C934  1  0.513700  0.985100  0.568200  1.0  0.069
  C  C935  1  0.496900  0.982200  0.543300  1.0  0.0329
  C  C936  1  0.500300  0.959900  0.526500  1.0  -0.0958
  C  C937  1  0.862700  0.566800  0.009300  1.0  0.7197
  C  C938  1  0.885800  0.547800  0.011600  1.0  -0.0578
  C  C939  1  0.910300  0.558300  0.017400  1.0  -0.0068
  C  C940  1  0.883000  0.522300  0.006300  1.0  -0.0511
  C  C941  1  0.935000  0.541900  0.019100  1.0  -0.1551
  C  C942  1  0.906400  0.503500  0.009300  1.0  -0.0799
  C  C943  1  0.931800  0.513700  0.014900  1.0  0.069
  C  C944  1  0.956700  0.496900  0.017800  1.0  0.0352
  C  C945  1  0.973500  0.500300  0.040100  1.0  -0.0971
  C  C946  1  0.362700  0.066800  0.509300  1.0  0.7197
  C  C947  1  0.385800  0.047800  0.511600  1.0  -0.0578
  C  C948  1  0.410300  0.058300  0.517400  1.0  -0.0068
  C  C949  1  0.383000  0.022300  0.506300  1.0  -0.0511
  C  C950  1  0.435000  0.041900  0.519100  1.0  -0.1551
  C  C951  1  0.406400  0.003500  0.509300  1.0  -0.0799
  C  C952  1  0.431800  0.013700  0.514900  1.0  0.069
  C  C953  1  0.456700  0.996900  0.517800  1.0  0.0352
  C  C954  1  0.473500  0.000300  0.540100  1.0  -0.0971
  C  C955  1  0.362700  0.933200  0.990700  1.0  0.7214
  C  C956  1  0.385800  0.952200  0.988400  1.0  -0.0575
  C  C957  1  0.410300  0.941700  0.982600  1.0  -0.006
  C  C958  1  0.383000  0.977700  0.993700  1.0  -0.0523
  C  C959  1  0.435000  0.958100  0.980900  1.0  -0.1561
  C  C960  1  0.406400  0.996500  0.990700  1.0  -0.0827
  C  C961  1  0.431800  0.986300  0.985100  1.0  0.07
  C  C962  1  0.456700  0.003100  0.982200  1.0  0.0363
  C  C963  1  0.473500  0.999700  0.959900  1.0  -0.0951
  C  C964  1  0.862700  0.433200  0.490700  1.0  0.7214
  C  C965  1  0.885800  0.452200  0.488400  1.0  -0.0575
  C  C966  1  0.910300  0.441700  0.482600  1.0  -0.006
  C  C967  1  0.883000  0.477700  0.493700  1.0  -0.0523
  C  C968  1  0.935000  0.458100  0.480900  1.0  -0.1561
  C  C969  1  0.906400  0.496500  0.490700  1.0  -0.0827
  C  C970  1  0.931800  0.486300  0.485100  1.0  0.07
  C  C971  1  0.956700  0.503100  0.482200  1.0  0.0363
  C  C972  1  0.973500  0.499700  0.459900  1.0  -0.0951
  C  C973  1  0.637300  0.433200  0.509300  1.0  0.7215
  C  C974  1  0.614200  0.452200  0.511600  1.0  -0.059
  C  C975  1  0.589700  0.441700  0.517400  1.0  -0.0043
  C  C976  1  0.617000  0.477700  0.506300  1.0  -0.0511
  C  C977  1  0.565000  0.458100  0.519100  1.0  -0.1551
  C  C978  1  0.593600  0.496500  0.509300  1.0  -0.0809
  C  C979  1  0.568200  0.486300  0.514900  1.0  0.0701
  C  C980  1  0.543300  0.503100  0.517800  1.0  0.0383
  C  C981  1  0.526500  0.499700  0.540100  1.0  -0.0963
  C  C982  1  0.137300  0.933200  0.009300  1.0  0.7215
  C  C983  1  0.114200  0.952200  0.011600  1.0  -0.059
  C  C984  1  0.089700  0.941700  0.017400  1.0  -0.0043
  C  C985  1  0.117000  0.977700  0.006300  1.0  -0.0511
  C  C986  1  0.065000  0.958100  0.019100  1.0  -0.1551
  C  C987  1  0.093600  0.996500  0.009300  1.0  -0.0809
  C  C988  1  0.068200  0.986300  0.014900  1.0  0.0701
  C  C989  1  0.043300  0.003100  0.017800  1.0  0.0383
  C  C990  1  0.026500  0.999700  0.040100  1.0  -0.0963
  C  C991  1  0.137300  0.066800  0.490700  1.0  0.7196
  C  C992  1  0.114200  0.047800  0.488400  1.0  -0.0595
  C  C993  1  0.089700  0.058300  0.482600  1.0  -0.0076
  C  C994  1  0.117000  0.022300  0.493700  1.0  -0.0503
  C  C995  1  0.065000  0.041900  0.480900  1.0  -0.1563
  C  C996  1  0.093600  0.003500  0.490700  1.0  -0.0785
  C  C997  1  0.068200  0.013700  0.485100  1.0  0.0718
  C  C998  1  0.043300  0.996900  0.482200  1.0  0.0383
  C  C999  1  0.026500  0.000300  0.459900  1.0  -0.0969
  C  C1000  1  0.637300  0.566800  0.990700  1.0  0.7196
  C  C1001  1  0.614200  0.547800  0.988400  1.0  -0.0595
  C  C1002  1  0.589700  0.558300  0.982600  1.0  -0.0076
  C  C1003  1  0.617000  0.522300  0.993700  1.0  -0.0503
  C  C1004  1  0.565000  0.541900  0.980900  1.0  -0.1563
  C  C1005  1  0.593600  0.503500  0.990700  1.0  -0.0785
  C  C1006  1  0.568200  0.513700  0.985100  1.0  0.0718
  C  C1007  1  0.543300  0.496900  0.982200  1.0  0.0383
  C  C1008  1  0.526500  0.500300  0.959900  1.0  -0.0969
  C  C1009  1  0.009300  0.862700  0.566800  1.0  0.7235
  C  C1010  1  0.011600  0.885800  0.547800  1.0  -0.0593
  C  C1011  1  0.017400  0.910300  0.558300  1.0  -0.0048
  C  C1012  1  0.006300  0.883000  0.522300  1.0  -0.0534
  C  C1013  1  0.019100  0.935000  0.541900  1.0  -0.1526
  C  C1014  1  0.009300  0.906400  0.503500  1.0  -0.0806
  C  C1015  1  0.014900  0.931800  0.513700  1.0  0.0693
  C  C1016  1  0.017800  0.956700  0.496900  1.0  0.0352
  C  C1017  1  0.040100  0.973500  0.500300  1.0  -0.0949
  C  C1018  1  0.509300  0.362700  0.066800  1.0  0.7235
  C  C1019  1  0.511600  0.385800  0.047800  1.0  -0.0593
  C  C1020  1  0.517400  0.410300  0.058300  1.0  -0.0048
  C  C1021  1  0.506300  0.383000  0.022300  1.0  -0.0534
  C  C1022  1  0.519100  0.435000  0.041900  1.0  -0.1526
  C  C1023  1  0.509300  0.406400  0.003500  1.0  -0.0806
  C  C1024  1  0.514900  0.431800  0.013700  1.0  0.0693
  C  C1025  1  0.517800  0.456700  0.996900  1.0  0.0352
  C  C1026  1  0.540100  0.473500  0.000300  1.0  -0.0949
  C  C1027  1  0.990700  0.362700  0.933200  1.0  0.7233
  C  C1028  1  0.988400  0.385800  0.952200  1.0  -0.058
  C  C1029  1  0.982600  0.410300  0.941700  1.0  -0.0039
  C  C1030  1  0.993700  0.383000  0.977700  1.0  -0.0532
  C  C1031  1  0.980900  0.435000  0.958100  1.0  -0.1543
  C  C1032  1  0.990700  0.406400  0.996500  1.0  -0.0856
  C  C1033  1  0.985100  0.431800  0.986300  1.0  0.0683
  C  C1034  1  0.982200  0.456700  0.003100  1.0  0.0354
  C  C1035  1  0.959900  0.473500  0.999700  1.0  -0.0964
  C  C1036  1  0.490700  0.862700  0.433200  1.0  0.7233
  C  C1037  1  0.488400  0.885800  0.452200  1.0  -0.058
  C  C1038  1  0.482600  0.910300  0.441700  1.0  -0.0039
  C  C1039  1  0.493700  0.883000  0.477700  1.0  -0.0532
  C  C1040  1  0.480900  0.935000  0.458100  1.0  -0.1543
  C  C1041  1  0.490700  0.906400  0.496500  1.0  -0.0856
  C  C1042  1  0.485100  0.931800  0.486300  1.0  0.0683
  C  C1043  1  0.482200  0.956700  0.503100  1.0  0.0354
  C  C1044  1  0.459900  0.973500  0.499700  1.0  -0.0964
  C  C1045  1  0.509300  0.637300  0.433200  1.0  0.7239
  C  C1046  1  0.511600  0.614200  0.452200  1.0  -0.0595
  C  C1047  1  0.517400  0.589700  0.441700  1.0  -0.0056
  C  C1048  1  0.506300  0.617000  0.477700  1.0  -0.0535
  C  C1049  1  0.519100  0.565000  0.458100  1.0  -0.1535
  C  C1050  1  0.509300  0.593600  0.496500  1.0  -0.0847
  C  C1051  1  0.514900  0.568200  0.486300  1.0  0.0686
  C  C1052  1  0.517800  0.543300  0.503100  1.0  0.0357
  C  C1053  1  0.540100  0.526500  0.499700  1.0  -0.0966
  C  C1054  1  0.009300  0.137300  0.933200  1.0  0.7239
  C  C1055  1  0.011600  0.114200  0.952200  1.0  -0.0595
  C  C1056  1  0.017400  0.089700  0.941700  1.0  -0.0056
  C  C1057  1  0.006300  0.117000  0.977700  1.0  -0.0535
  C  C1058  1  0.019100  0.065000  0.958100  1.0  -0.1535
  C  C1059  1  0.009300  0.093600  0.996500  1.0  -0.0847
  C  C1060  1  0.014900  0.068200  0.986300  1.0  0.0686
  C  C1061  1  0.017800  0.043300  0.003100  1.0  0.0357
  C  C1062  1  0.040100  0.026500  0.999700  1.0  -0.0966
  C  C1063  1  0.490700  0.137300  0.066800  1.0  0.7227
  C  C1064  1  0.488400  0.114200  0.047800  1.0  -0.0591
  C  C1065  1  0.482600  0.089700  0.058300  1.0  -0.0051
  C  C1066  1  0.493700  0.117000  0.022300  1.0  -0.0542
  C  C1067  1  0.480900  0.065000  0.041900  1.0  -0.1539
  C  C1068  1  0.490700  0.093600  0.003500  1.0  -0.0842
  C  C1069  1  0.485100  0.068200  0.013700  1.0  0.0692
  C  C1070  1  0.482200  0.043300  0.996900  1.0  0.0354
  C  C1071  1  0.459900  0.026500  0.000300  1.0  -0.0952
  C  C1072  1  0.990700  0.637300  0.566800  1.0  0.7227
  C  C1073  1  0.988400  0.614200  0.547800  1.0  -0.0591
  C  C1074  1  0.982600  0.589700  0.558300  1.0  -0.0051
  C  C1075  1  0.993700  0.617000  0.522300  1.0  -0.0542
  C  C1076  1  0.980900  0.565000  0.541900  1.0  -0.1539
  C  C1077  1  0.990700  0.593600  0.503500  1.0  -0.0842
  C  C1078  1  0.985100  0.568200  0.513700  1.0  0.0692
  C  C1079  1  0.982200  0.543300  0.496900  1.0  0.0354
  C  C1080  1  0.959900  0.526500  0.500300  1.0  -0.0952
  C  C1081  1  0.240700  0.183200  0.612700  1.0  0.7227
  C  C1082  1  0.238400  0.202200  0.635800  1.0  -0.0573
  C  C1083  1  0.232600  0.191700  0.660300  1.0  -0.0064
  C  C1084  1  0.243700  0.227700  0.633000  1.0  -0.054
  C  C1085  1  0.230900  0.208100  0.685000  1.0  -0.1564
  C  C1086  1  0.240700  0.246500  0.656400  1.0  -0.0832
  C  C1087  1  0.235100  0.236300  0.681800  1.0  0.0704
  C  C1088  1  0.232200  0.253100  0.706700  1.0  0.0336
  C  C1089  1  0.209900  0.249700  0.723500  1.0  -0.0952
  C  C1090  1  0.740700  0.683200  0.112700  1.0  0.7227
  C  C1091  1  0.738400  0.702200  0.135800  1.0  -0.0573
  C  C1092  1  0.732600  0.691700  0.160300  1.0  -0.0064
  C  C1093  1  0.743700  0.727700  0.133000  1.0  -0.054
  C  C1094  1  0.730900  0.708100  0.185000  1.0  -0.1564
  C  C1095  1  0.740700  0.746500  0.156400  1.0  -0.0832
  C  C1096  1  0.735100  0.736300  0.181800  1.0  0.0704
  C  C1097  1  0.732200  0.753100  0.206700  1.0  0.0336
  C  C1098  1  0.709900  0.749700  0.223500  1.0  -0.0952
  C  C1099  1  0.259300  0.816800  0.112700  1.0  0.7217
  C  C1100  1  0.261600  0.797800  0.135800  1.0  -0.058
  C  C1101  1  0.267400  0.808300  0.160300  1.0  -0.0082
  C  C1102  1  0.256300  0.772300  0.133000  1.0  -0.0532
  C  C1103  1  0.269100  0.791900  0.185000  1.0  -0.155
  C  C1104  1  0.259300  0.753500  0.156400  1.0  -0.0807
  C  C1105  1  0.264900  0.763700  0.181800  1.0  0.0706
  C  C1106  1  0.267800  0.746900  0.206700  1.0  0.0338
  C  C1107  1  0.290100  0.750300  0.223500  1.0  -0.0956
  C  C1108  1  0.759300  0.316800  0.612700  1.0  0.7217
  C  C1109  1  0.761600  0.297800  0.635800  1.0  -0.058
  C  C1110  1  0.767400  0.308300  0.660300  1.0  -0.0082
  C  C1111  1  0.756300  0.272300  0.633000  1.0  -0.0532
  C  C1112  1  0.769100  0.291900  0.685000  1.0  -0.155
  C  C1113  1  0.759300  0.253500  0.656400  1.0  -0.0807
  C  C1114  1  0.764900  0.263700  0.681800  1.0  0.0706
  C  C1115  1  0.767800  0.246900  0.706700  1.0  0.0338
  C  C1116  1  0.790100  0.250300  0.723500  1.0  -0.0956
  C  C1117  1  0.740700  0.316800  0.387300  1.0  0.7219
  C  C1118  1  0.738400  0.297800  0.364200  1.0  -0.0579
  C  C1119  1  0.732600  0.308300  0.339700  1.0  -0.0082
  C  C1120  1  0.743700  0.272300  0.367000  1.0  -0.0495
  C  C1121  1  0.730900  0.291900  0.315000  1.0  -0.1561
  C  C1122  1  0.740700  0.253500  0.343600  1.0  -0.0853
  C  C1123  1  0.735100  0.263700  0.318200  1.0  0.0679
  C  C1124  1  0.732200  0.246900  0.293300  1.0  0.0327
  C  C1125  1  0.709900  0.250300  0.276500  1.0  -0.0963
  C  C1126  1  0.240700  0.816800  0.887300  1.0  0.7219
  C  C1127  1  0.238400  0.797800  0.864200  1.0  -0.0579
  C  C1128  1  0.232600  0.808300  0.839700  1.0  -0.0082
  C  C1129  1  0.243700  0.772300  0.867000  1.0  -0.0495
  C  C1130  1  0.230900  0.791900  0.815000  1.0  -0.1561
  C  C1131  1  0.240700  0.753500  0.843600  1.0  -0.0853
  C  C1132  1  0.235100  0.763700  0.818200  1.0  0.0679
  C  C1133  1  0.232200  0.746900  0.793300  1.0  0.0327
  C  C1134  1  0.209900  0.750300  0.776500  1.0  -0.0963
  C  C1135  1  0.759300  0.683200  0.887300  1.0  0.7245
  C  C1136  1  0.761600  0.702200  0.864200  1.0  -0.0581
  C  C1137  1  0.767400  0.691700  0.839700  1.0  -0.0044
  C  C1138  1  0.756300  0.727700  0.867000  1.0  -0.0529
  C  C1139  1  0.769100  0.708100  0.815000  1.0  -0.1548
  C  C1140  1  0.759300  0.746500  0.843600  1.0  -0.0858
  C  C1141  1  0.764900  0.736300  0.818200  1.0  0.0686
  C  C1142  1  0.767800  0.753100  0.793300  1.0  0.0336
  C  C1143  1  0.790100  0.749700  0.776500  1.0  -0.0945
  C  C1144  1  0.259300  0.183200  0.387300  1.0  0.7245
  C  C1145  1  0.261600  0.202200  0.364200  1.0  -0.0581
  C  C1146  1  0.267400  0.191700  0.339700  1.0  -0.0044
  C  C1147  1  0.256300  0.227700  0.367000  1.0  -0.0529
  C  C1148  1  0.269100  0.208100  0.315000  1.0  -0.1548
  C  C1149  1  0.259300  0.246500  0.343600  1.0  -0.0858
  C  C1150  1  0.264900  0.236300  0.318200  1.0  0.0686
  C  C1151  1  0.267800  0.253100  0.293300  1.0  0.0336
  C  C1152  1  0.290100  0.249700  0.276500  1.0  -0.0945
  C  C1153  1  0.683200  0.887300  0.759300  1.0  0.7234
  C  C1154  1  0.702200  0.864200  0.761600  1.0  -0.0588
  C  C1155  1  0.691700  0.839700  0.767400  1.0  -0.0046
  C  C1156  1  0.727700  0.867000  0.756300  1.0  -0.0531
  C  C1157  1  0.708100  0.815000  0.769100  1.0  -0.1538
  C  C1158  1  0.746500  0.843600  0.759300  1.0  -0.0853
  C  C1159  1  0.736300  0.818200  0.764900  1.0  0.0692
  C  C1160  1  0.753100  0.793300  0.767800  1.0  0.0364
  C  C1161  1  0.749700  0.776500  0.790100  1.0  -0.0968
  C  C1162  1  0.183200  0.387300  0.259300  1.0  0.7234
  C  C1163  1  0.202200  0.364200  0.261600  1.0  -0.0588
  C  C1164  1  0.191700  0.339700  0.267400  1.0  -0.0046
  C  C1165  1  0.227700  0.367000  0.256300  1.0  -0.0531
  C  C1166  1  0.208100  0.315000  0.269100  1.0  -0.1538
  C  C1167  1  0.246500  0.343600  0.259300  1.0  -0.0853
  C  C1168  1  0.236300  0.318200  0.264900  1.0  0.0692
  C  C1169  1  0.253100  0.293300  0.267800  1.0  0.0364
  C  C1170  1  0.249700  0.276500  0.290100  1.0  -0.0968
  C  C1171  1  0.316800  0.387300  0.740700  1.0  0.7233
  C  C1172  1  0.297800  0.364200  0.738400  1.0  -0.0585
  C  C1173  1  0.308300  0.339700  0.732600  1.0  -0.0018
  C  C1174  1  0.272300  0.367000  0.743700  1.0  -0.0527
  C  C1175  1  0.291900  0.315000  0.730900  1.0  -0.1537
  C  C1176  1  0.253500  0.343600  0.740700  1.0  -0.0882
  C  C1177  1  0.263700  0.318200  0.735100  1.0  0.0704
  C  C1178  1  0.246900  0.293300  0.732200  1.0  0.0359
  C  C1179  1  0.250300  0.276500  0.709900  1.0  -0.0959
  C  C1180  1  0.816800  0.887300  0.240700  1.0  0.7233
  C  C1181  1  0.797800  0.864200  0.238400  1.0  -0.0585
  C  C1182  1  0.808300  0.839700  0.232600  1.0  -0.0018
  C  C1183  1  0.772300  0.867000  0.243700  1.0  -0.0527
  C  C1184  1  0.791900  0.815000  0.230900  1.0  -0.1537
  C  C1185  1  0.753500  0.843600  0.240700  1.0  -0.0882
  C  C1186  1  0.763700  0.818200  0.235100  1.0  0.0704
  C  C1187  1  0.746900  0.793300  0.232200  1.0  0.0359
  C  C1188  1  0.750300  0.776500  0.209900  1.0  -0.0959
  C  C1189  1  0.816800  0.112700  0.259300  1.0  0.7234
  C  C1190  1  0.797800  0.135800  0.261600  1.0  -0.0581
  C  C1191  1  0.808300  0.160300  0.267400  1.0  1e-04
  C  C1192  1  0.772300  0.133000  0.256300  1.0  -0.0525
  C  C1193  1  0.791900  0.185000  0.269100  1.0  -0.1529
  C  C1194  1  0.753500  0.156400  0.259300  1.0  -0.0851
  C  C1195  1  0.763700  0.181800  0.264900  1.0  0.0695
  C  C1196  1  0.746900  0.206700  0.267800  1.0  0.0357
  C  C1197  1  0.750300  0.223500  0.290100  1.0  -0.0965
  C  C1198  1  0.316800  0.612700  0.759300  1.0  0.7234
  C  C1199  1  0.297800  0.635800  0.761600  1.0  -0.0581
  C  C1200  1  0.308300  0.660300  0.767400  1.0  1e-04
  C  C1201  1  0.272300  0.633000  0.756300  1.0  -0.0525
  C  C1202  1  0.291900  0.685000  0.769100  1.0  -0.1529
  C  C1203  1  0.253500  0.656400  0.759300  1.0  -0.0851
  C  C1204  1  0.263700  0.681800  0.764900  1.0  0.0695
  C  C1205  1  0.246900  0.706700  0.767800  1.0  0.0357
  C  C1206  1  0.250300  0.723500  0.790100  1.0  -0.0965
  C  C1207  1  0.183200  0.612700  0.240700  1.0  0.724
  C  C1208  1  0.202200  0.635800  0.238400  1.0  -0.0574
  C  C1209  1  0.191700  0.660300  0.232600  1.0  -0.0052
  C  C1210  1  0.227700  0.633000  0.243700  1.0  -0.0532
  C  C1211  1  0.208100  0.685000  0.230900  1.0  -0.1556
  C  C1212  1  0.246500  0.656400  0.240700  1.0  -0.0833
  C  C1213  1  0.236300  0.681800  0.235100  1.0  0.0706
  C  C1214  1  0.253100  0.706700  0.232200  1.0  0.0362
  C  C1215  1  0.249700  0.723500  0.209900  1.0  -0.0953
  C  C1216  1  0.683200  0.112700  0.740700  1.0  0.724
  C  C1217  1  0.702200  0.135800  0.738400  1.0  -0.0574
  C  C1218  1  0.691700  0.160300  0.732600  1.0  -0.0052
  C  C1219  1  0.727700  0.133000  0.743700  1.0  -0.0532
  C  C1220  1  0.708100  0.185000  0.730900  1.0  -0.1556
  C  C1221  1  0.746500  0.156400  0.740700  1.0  -0.0833
  C  C1222  1  0.736300  0.181800  0.735100  1.0  0.0706
  C  C1223  1  0.753100  0.206700  0.732200  1.0  0.0362
  C  C1224  1  0.749700  0.223500  0.709900  1.0  -0.0953
  C  C1225  1  0.387300  0.740700  0.316800  1.0  0.7221
  C  C1226  1  0.364200  0.738400  0.297800  1.0  -0.0615
  C  C1227  1  0.339700  0.732600  0.308300  1.0  -0.0055
  C  C1228  1  0.367000  0.743700  0.272300  1.0  -0.0491
  C  C1229  1  0.315000  0.730900  0.291900  1.0  -0.1532
  C  C1230  1  0.343600  0.740700  0.253500  1.0  -0.0769
  C  C1231  1  0.318200  0.735100  0.263700  1.0  0.0712
  C  C1232  1  0.293300  0.732200  0.246900  1.0  0.0376
  C  C1233  1  0.276500  0.709900  0.250300  1.0  -0.0955
  C  C1234  1  0.887300  0.240700  0.816800  1.0  0.7221
  C  C1235  1  0.864200  0.238400  0.797800  1.0  -0.0615
  C  C1236  1  0.839700  0.232600  0.808300  1.0  -0.0055
  C  C1237  1  0.867000  0.243700  0.772300  1.0  -0.0491
  C  C1238  1  0.815000  0.230900  0.791900  1.0  -0.1532
  C  C1239  1  0.843600  0.240700  0.753500  1.0  -0.0769
  C  C1240  1  0.818200  0.235100  0.763700  1.0  0.0712
  C  C1241  1  0.793300  0.232200  0.746900  1.0  0.0376
  C  C1242  1  0.776500  0.209900  0.750300  1.0  -0.0955
  C  C1243  1  0.887300  0.759300  0.683200  1.0  0.7222
  C  C1244  1  0.864200  0.761600  0.702200  1.0  -0.0609
  C  C1245  1  0.839700  0.767400  0.691700  1.0  -0.0052
  C  C1246  1  0.867000  0.756300  0.727700  1.0  -0.0498
  C  C1247  1  0.815000  0.769100  0.708100  1.0  -0.1533
  C  C1248  1  0.843600  0.759300  0.746500  1.0  -0.0806
  C  C1249  1  0.818200  0.764900  0.736300  1.0  0.0696
  C  C1250  1  0.793300  0.767800  0.753100  1.0  0.0384
  C  C1251  1  0.776500  0.790100  0.749700  1.0  -0.0977
  C  C1252  1  0.387300  0.259300  0.183200  1.0  0.7222
  C  C1253  1  0.364200  0.261600  0.202200  1.0  -0.0609
  C  C1254  1  0.339700  0.267400  0.191700  1.0  -0.0052
  C  C1255  1  0.367000  0.256300  0.227700  1.0  -0.0498
  C  C1256  1  0.315000  0.269100  0.208100  1.0  -0.1533
  C  C1257  1  0.343600  0.259300  0.246500  1.0  -0.0806
  C  C1258  1  0.318200  0.264900  0.236300  1.0  0.0696
  C  C1259  1  0.293300  0.267800  0.253100  1.0  0.0384
  C  C1260  1  0.276500  0.290100  0.249700  1.0  -0.0977
  C  C1261  1  0.612700  0.240700  0.183200  1.0  0.7228
  C  C1262  1  0.635800  0.238400  0.202200  1.0  -0.0599
  C  C1263  1  0.660300  0.232600  0.191700  1.0  -0.005
  C  C1264  1  0.633000  0.243700  0.227700  1.0  -0.0507
  C  C1265  1  0.685000  0.230900  0.208100  1.0  -0.1521
  C  C1266  1  0.656400  0.240700  0.246500  1.0  -0.0812
  C  C1267  1  0.681800  0.235100  0.236300  1.0  0.0686
  C  C1268  1  0.706700  0.232200  0.253100  1.0  0.0357
  C  C1269  1  0.723500  0.209900  0.249700  1.0  -0.0968
  C  C1270  1  0.112700  0.740700  0.683200  1.0  0.7228
  C  C1271  1  0.135800  0.738400  0.702200  1.0  -0.0599
  C  C1272  1  0.160300  0.732600  0.691700  1.0  -0.005
  C  C1273  1  0.133000  0.743700  0.727700  1.0  -0.0507
  C  C1274  1  0.185000  0.730900  0.708100  1.0  -0.1521
  C  C1275  1  0.156400  0.740700  0.746500  1.0  -0.0812
  C  C1276  1  0.181800  0.735100  0.736300  1.0  0.0686
  C  C1277  1  0.206700  0.732200  0.753100  1.0  0.0357
  C  C1278  1  0.223500  0.709900  0.749700  1.0  -0.0968
  C  C1279  1  0.112700  0.259300  0.816800  1.0  0.7215
  C  C1280  1  0.135800  0.261600  0.797800  1.0  -0.0596
  C  C1281  1  0.160300  0.267400  0.808300  1.0  -0.0055
  C  C1282  1  0.133000  0.256300  0.772300  1.0  -0.0505
  C  C1283  1  0.185000  0.269100  0.791900  1.0  -0.1525
  C  C1284  1  0.156400  0.259300  0.753500  1.0  -0.0779
  C  C1285  1  0.181800  0.264900  0.763700  1.0  0.069
  C  C1286  1  0.206700  0.267800  0.746900  1.0  0.0362
  C  C1287  1  0.223500  0.290100  0.750300  1.0  -0.0969
  C  C1288  1  0.612700  0.759300  0.316800  1.0  0.7215
  C  C1289  1  0.635800  0.761600  0.297800  1.0  -0.0596
  C  C1290  1  0.660300  0.767400  0.308300  1.0  -0.0055
  C  C1291  1  0.633000  0.756300  0.272300  1.0  -0.0505
  C  C1292  1  0.685000  0.769100  0.291900  1.0  -0.1525
  C  C1293  1  0.656400  0.759300  0.253500  1.0  -0.0779
  C  C1294  1  0.681800  0.764900  0.263700  1.0  0.069
  C  C1295  1  0.706700  0.767800  0.246900  1.0  0.0362
  C  C1296  1  0.723500  0.790100  0.250300  1.0  -0.0969
  C  C1297  1  0.759300  0.816800  0.387300  1.0  0.7222
  C  C1298  1  0.761600  0.797800  0.364200  1.0  -0.0587
  C  C1299  1  0.767400  0.808300  0.339700  1.0  -0.0078
  C  C1300  1  0.756300  0.772300  0.367000  1.0  -0.0513
  C  C1301  1  0.769100  0.791900  0.315000  1.0  -0.1552
  C  C1302  1  0.759300  0.753500  0.343600  1.0  -0.0845
  C  C1303  1  0.764900  0.763700  0.318200  1.0  0.0691
  C  C1304  1  0.767800  0.746900  0.293300  1.0  0.0333
  C  C1305  1  0.790100  0.750300  0.276500  1.0  -0.0956
  C  C1306  1  0.259300  0.316800  0.887300  1.0  0.7222
  C  C1307  1  0.261600  0.297800  0.864200  1.0  -0.0587
  C  C1308  1  0.267400  0.308300  0.839700  1.0  -0.0078
  C  C1309  1  0.256300  0.272300  0.867000  1.0  -0.0513
  C  C1310  1  0.269100  0.291900  0.815000  1.0  -0.1552
  C  C1311  1  0.259300  0.253500  0.843600  1.0  -0.0845
  C  C1312  1  0.264900  0.263700  0.818200  1.0  0.0691
  C  C1313  1  0.267800  0.246900  0.793300  1.0  0.0333
  C  C1314  1  0.290100  0.250300  0.776500  1.0  -0.0956
  C  C1315  1  0.740700  0.183200  0.887300  1.0  0.7242
  C  C1316  1  0.738400  0.202200  0.864200  1.0  -0.0574
  C  C1317  1  0.732600  0.191700  0.839700  1.0  -0.0056
  C  C1318  1  0.743700  0.227700  0.867000  1.0  -0.0514
  C  C1319  1  0.730900  0.208100  0.815000  1.0  -0.1555
  C  C1320  1  0.740700  0.246500  0.843600  1.0  -0.086
  C  C1321  1  0.735100  0.236300  0.818200  1.0  0.0678
  C  C1322  1  0.732200  0.253100  0.793300  1.0  0.033
  C  C1323  1  0.709900  0.249700  0.776500  1.0  -0.0957
  C  C1324  1  0.240700  0.683200  0.387300  1.0  0.7242
  C  C1325  1  0.238400  0.702200  0.364200  1.0  -0.0574
  C  C1326  1  0.232600  0.691700  0.339700  1.0  -0.0056
  C  C1327  1  0.243700  0.727700  0.367000  1.0  -0.0514
  C  C1328  1  0.230900  0.708100  0.315000  1.0  -0.1555
  C  C1329  1  0.240700  0.746500  0.343600  1.0  -0.086
  C  C1330  1  0.235100  0.736300  0.318200  1.0  0.0678
  C  C1331  1  0.232200  0.753100  0.293300  1.0  0.033
  C  C1332  1  0.209900  0.749700  0.276500  1.0  -0.0957
  C  C1333  1  0.259300  0.683200  0.612700  1.0  0.7231
  C  C1334  1  0.261600  0.702200  0.635800  1.0  -0.0581
  C  C1335  1  0.267400  0.691700  0.660300  1.0  -0.0057
  C  C1336  1  0.256300  0.727700  0.633000  1.0  -0.0533
  C  C1337  1  0.269100  0.708100  0.685000  1.0  -0.1554
  C  C1338  1  0.259300  0.746500  0.656400  1.0  -0.0833
  C  C1339  1  0.264900  0.736300  0.681800  1.0  0.0707
  C  C1340  1  0.267800  0.753100  0.706700  1.0  0.034
  C  C1341  1  0.290100  0.749700  0.723500  1.0  -0.0943
  C  C1342  1  0.759300  0.183200  0.112700  1.0  0.7231
  C  C1343  1  0.761600  0.202200  0.135800  1.0  -0.0581
  C  C1344  1  0.767400  0.191700  0.160300  1.0  -0.0057
  C  C1345  1  0.756300  0.227700  0.133000  1.0  -0.0533
  C  C1346  1  0.769100  0.208100  0.185000  1.0  -0.1554
  C  C1347  1  0.759300  0.246500  0.156400  1.0  -0.0833
  C  C1348  1  0.764900  0.236300  0.181800  1.0  0.0707
  C  C1349  1  0.767800  0.253100  0.206700  1.0  0.034
  C  C1350  1  0.790100  0.249700  0.223500  1.0  -0.0943
  C  C1351  1  0.240700  0.316800  0.112700  1.0  0.7213
  C  C1352  1  0.238400  0.297800  0.135800  1.0  -0.057
  C  C1353  1  0.232600  0.308300  0.160300  1.0  -0.008
  C  C1354  1  0.243700  0.272300  0.133000  1.0  -0.0539
  C  C1355  1  0.230900  0.291900  0.185000  1.0  -0.1562
  C  C1356  1  0.240700  0.253500  0.156400  1.0  -0.0813
  C  C1357  1  0.235100  0.263700  0.181800  1.0  0.0702
  C  C1358  1  0.232200  0.246900  0.206700  1.0  0.0335
  C  C1359  1  0.209900  0.250300  0.223500  1.0  -0.0962
  C  C1360  1  0.740700  0.816800  0.612700  1.0  0.7213
  C  C1361  1  0.738400  0.797800  0.635800  1.0  -0.057
  C  C1362  1  0.732600  0.808300  0.660300  1.0  -0.008
  C  C1363  1  0.743700  0.772300  0.633000  1.0  -0.0539
  C  C1364  1  0.730900  0.791900  0.685000  1.0  -0.1562
  C  C1365  1  0.740700  0.753500  0.656400  1.0  -0.0813
  C  C1366  1  0.735100  0.763700  0.681800  1.0  0.0702
  C  C1367  1  0.732200  0.746900  0.706700  1.0  0.0335
  C  C1368  1  0.709900  0.750300  0.723500  1.0  -0.0962
  C  C1369  1  0.316800  0.112700  0.240700  1.0  0.7237
  C  C1370  1  0.297800  0.135800  0.238400  1.0  -0.0574
  C  C1371  1  0.308300  0.160300  0.232600  1.0  -0.0013
  C  C1372  1  0.272300  0.133000  0.243700  1.0  -0.0529
  C  C1373  1  0.291900  0.185000  0.230900  1.0  -0.1548
  C  C1374  1  0.253500  0.156400  0.240700  1.0  -0.0854
  C  C1375  1  0.263700  0.181800  0.235100  1.0  0.0703
  C  C1376  1  0.246900  0.206700  0.232200  1.0  0.0359
  C  C1377  1  0.250300  0.223500  0.209900  1.0  -0.0957
  C  C1378  1  0.816800  0.612700  0.740700  1.0  0.7237
  C  C1379  1  0.797800  0.635800  0.738400  1.0  -0.0574
  C  C1380  1  0.808300  0.660300  0.732600  1.0  -0.0013
  C  C1381  1  0.772300  0.633000  0.743700  1.0  -0.0529
  C  C1382  1  0.791900  0.685000  0.730900  1.0  -0.1548
  C  C1383  1  0.753500  0.656400  0.740700  1.0  -0.0854
  C  C1384  1  0.763700  0.681800  0.735100  1.0  0.0703
  C  C1385  1  0.746900  0.706700  0.732200  1.0  0.0359
  C  C1386  1  0.750300  0.723500  0.709900  1.0  -0.0957
  C  C1387  1  0.683200  0.612700  0.259300  1.0  0.7238
  C  C1388  1  0.702200  0.635800  0.261600  1.0  -0.058
  C  C1389  1  0.691700  0.660300  0.267400  1.0  -0.004
  C  C1390  1  0.727700  0.633000  0.256300  1.0  -0.0527
  C  C1391  1  0.708100  0.685000  0.269100  1.0  -0.1541
  C  C1392  1  0.746500  0.656400  0.259300  1.0  -0.0829
  C  C1393  1  0.736300  0.681800  0.264900  1.0  0.0697
  C  C1394  1  0.753100  0.706700  0.267800  1.0  0.0358
  C  C1395  1  0.749700  0.723500  0.290100  1.0  -0.0965
  C  C1396  1  0.183200  0.112700  0.759300  1.0  0.7238
  C  C1397  1  0.202200  0.135800  0.761600  1.0  -0.058
  C  C1398  1  0.191700  0.160300  0.767400  1.0  -0.004
  C  C1399  1  0.227700  0.133000  0.756300  1.0  -0.0527
  C  C1400  1  0.208100  0.185000  0.769100  1.0  -0.1541
  C  C1401  1  0.246500  0.156400  0.759300  1.0  -0.0829
  C  C1402  1  0.236300  0.181800  0.764900  1.0  0.0697
  C  C1403  1  0.253100  0.206700  0.767800  1.0  0.0358
  C  C1404  1  0.249700  0.223500  0.790100  1.0  -0.0965
  C  C1405  1  0.183200  0.887300  0.740700  1.0  0.7235
  C  C1406  1  0.202200  0.864200  0.738400  1.0  -0.0585
  C  C1407  1  0.191700  0.839700  0.732600  1.0  -0.0056
  C  C1408  1  0.227700  0.867000  0.743700  1.0  -0.0532
  C  C1409  1  0.208100  0.815000  0.730900  1.0  -0.1547
  C  C1410  1  0.246500  0.843600  0.740700  1.0  -0.0855
  C  C1411  1  0.236300  0.818200  0.735100  1.0  0.0706
  C  C1412  1  0.253100  0.793300  0.732200  1.0  0.0361
  C  C1413  1  0.249700  0.776500  0.709900  1.0  -0.0961
  C  C1414  1  0.683200  0.387300  0.240700  1.0  0.7235
  C  C1415  1  0.702200  0.364200  0.238400  1.0  -0.0585
  C  C1416  1  0.691700  0.339700  0.232600  1.0  -0.0056
  C  C1417  1  0.727700  0.367000  0.243700  1.0  -0.0532
  C  C1418  1  0.708100  0.315000  0.230900  1.0  -0.1547
  C  C1419  1  0.746500  0.343600  0.240700  1.0  -0.0855
  C  C1420  1  0.736300  0.318200  0.235100  1.0  0.0706
  C  C1421  1  0.753100  0.293300  0.232200  1.0  0.0361
  C  C1422  1  0.749700  0.276500  0.209900  1.0  -0.0961
  C  C1423  1  0.816800  0.387300  0.759300  1.0  0.723
  C  C1424  1  0.797800  0.364200  0.761600  1.0  -0.0588
  C  C1425  1  0.808300  0.339700  0.767400  1.0  -0.0004
  C  C1426  1  0.772300  0.367000  0.756300  1.0  -0.0528
  C  C1427  1  0.791900  0.315000  0.769100  1.0  -0.1525
  C  C1428  1  0.753500  0.343600  0.759300  1.0  -0.0877
  C  C1429  1  0.763700  0.318200  0.764900  1.0  0.0694
  C  C1430  1  0.746900  0.293300  0.767800  1.0  0.0362
  C  C1431  1  0.750300  0.276500  0.790100  1.0  -0.0965
  C  C1432  1  0.316800  0.887300  0.259300  1.0  0.723
  C  C1433  1  0.297800  0.864200  0.261600  1.0  -0.0588
  C  C1434  1  0.308300  0.839700  0.267400  1.0  -0.0004
  C  C1435  1  0.272300  0.867000  0.256300  1.0  -0.0528
  C  C1436  1  0.291900  0.815000  0.269100  1.0  -0.1525
  C  C1437  1  0.253500  0.843600  0.259300  1.0  -0.0877
  C  C1438  1  0.263700  0.818200  0.264900  1.0  0.0694
  C  C1439  1  0.246900  0.793300  0.267800  1.0  0.0362
  C  C1440  1  0.250300  0.776500  0.290100  1.0  -0.0965
  C  C1441  1  0.612700  0.259300  0.683200  1.0  0.723
  C  C1442  1  0.635800  0.261600  0.702200  1.0  -0.0595
  C  C1443  1  0.660300  0.267400  0.691700  1.0  -0.0059
  C  C1444  1  0.633000  0.256300  0.727700  1.0  -0.0507
  C  C1445  1  0.685000  0.269100  0.708100  1.0  -0.1523
  C  C1446  1  0.656400  0.259300  0.746500  1.0  -0.0817
  C  C1447  1  0.681800  0.264900  0.736300  1.0  0.0683
  C  C1448  1  0.706700  0.267800  0.753100  1.0  0.0362
  C  C1449  1  0.723500  0.290100  0.749700  1.0  -0.0977
  C  C1450  1  0.112700  0.759300  0.183200  1.0  0.723
  C  C1451  1  0.135800  0.761600  0.202200  1.0  -0.0595
  C  C1452  1  0.160300  0.767400  0.191700  1.0  -0.0059
  C  C1453  1  0.133000  0.756300  0.227700  1.0  -0.0507
  C  C1454  1  0.185000  0.769100  0.208100  1.0  -0.1523
  C  C1455  1  0.156400  0.759300  0.246500  1.0  -0.0817
  C  C1456  1  0.181800  0.764900  0.236300  1.0  0.0683
  C  C1457  1  0.206700  0.767800  0.253100  1.0  0.0362
  C  C1458  1  0.223500  0.790100  0.249700  1.0  -0.0977
  C  C1459  1  0.112700  0.240700  0.316800  1.0  0.7215
  C  C1460  1  0.135800  0.238400  0.297800  1.0  -0.0595
  C  C1461  1  0.160300  0.232600  0.308300  1.0  -0.006
  C  C1462  1  0.133000  0.243700  0.272300  1.0  -0.0504
  C  C1463  1  0.185000  0.230900  0.291900  1.0  -0.1524
  C  C1464  1  0.156400  0.240700  0.253500  1.0  -0.0774
  C  C1465  1  0.181800  0.235100  0.263700  1.0  0.0692
  C  C1466  1  0.206700  0.232200  0.246900  1.0  0.0357
  C  C1467  1  0.223500  0.209900  0.250300  1.0  -0.0951
  C  C1468  1  0.612700  0.740700  0.816800  1.0  0.7215
  C  C1469  1  0.635800  0.738400  0.797800  1.0  -0.0595
  C  C1470  1  0.660300  0.732600  0.808300  1.0  -0.006
  C  C1471  1  0.633000  0.743700  0.772300  1.0  -0.0504
  C  C1472  1  0.685000  0.730900  0.791900  1.0  -0.1524
  C  C1473  1  0.656400  0.740700  0.753500  1.0  -0.0774
  C  C1474  1  0.681800  0.735100  0.763700  1.0  0.0692
  C  C1475  1  0.706700  0.732200  0.746900  1.0  0.0357
  C  C1476  1  0.723500  0.709900  0.750300  1.0  -0.0951
  C  C1477  1  0.387300  0.759300  0.816800  1.0  0.7221
  C  C1478  1  0.364200  0.761600  0.797800  1.0  -0.0614
  C  C1479  1  0.339700  0.767400  0.808300  1.0  -0.0046
  C  C1480  1  0.367000  0.756300  0.772300  1.0  -0.0493
  C  C1481  1  0.315000  0.769100  0.791900  1.0  -0.1533
  C  C1482  1  0.343600  0.759300  0.753500  1.0  -0.0772
  C  C1483  1  0.318200  0.764900  0.763700  1.0  0.0708
  C  C1484  1  0.293300  0.767800  0.746900  1.0  0.0384
  C  C1485  1  0.276500  0.790100  0.750300  1.0  -0.0969
  C  C1486  1  0.887300  0.259300  0.316800  1.0  0.7221
  C  C1487  1  0.864200  0.261600  0.297800  1.0  -0.0614
  C  C1488  1  0.839700  0.267400  0.308300  1.0  -0.0046
  C  C1489  1  0.867000  0.256300  0.272300  1.0  -0.0493
  C  C1490  1  0.815000  0.269100  0.291900  1.0  -0.1533
  C  C1491  1  0.843600  0.259300  0.253500  1.0  -0.0772
  C  C1492  1  0.818200  0.264900  0.263700  1.0  0.0708
  C  C1493  1  0.793300  0.267800  0.246900  1.0  0.0384
  C  C1494  1  0.776500  0.290100  0.250300  1.0  -0.0969
  C  C1495  1  0.887300  0.740700  0.183200  1.0  0.7219
  C  C1496  1  0.864200  0.738400  0.202200  1.0  -0.0614
  C  C1497  1  0.839700  0.732600  0.191700  1.0  -0.0044
  C  C1498  1  0.867000  0.743700  0.227700  1.0  -0.0492
  C  C1499  1  0.815000  0.730900  0.208100  1.0  -0.1532
  C  C1500  1  0.843600  0.740700  0.246500  1.0  -0.0805
  C  C1501  1  0.818200  0.735100  0.236300  1.0  0.0701
  C  C1502  1  0.793300  0.732200  0.253100  1.0  0.0378
  C  C1503  1  0.776500  0.709900  0.249700  1.0  -0.0974
  C  C1504  1  0.387300  0.240700  0.683200  1.0  0.7219
  C  C1505  1  0.364200  0.238400  0.702200  1.0  -0.0614
  C  C1506  1  0.339700  0.232600  0.691700  1.0  -0.0044
  C  C1507  1  0.367000  0.243700  0.727700  1.0  -0.0492
  C  C1508  1  0.315000  0.230900  0.708100  1.0  -0.1532
  C  C1509  1  0.343600  0.240700  0.746500  1.0  -0.0805
  C  C1510  1  0.318200  0.235100  0.736300  1.0  0.0701
  C  C1511  1  0.293300  0.232200  0.753100  1.0  0.0378
  C  C1512  1  0.276500  0.209900  0.749700  1.0  -0.0974
  C  C1513  1  0.433200  0.990700  0.137300  1.0  0.7243
  C  C1514  1  0.452200  0.988400  0.114200  1.0  -0.059
  C  C1515  1  0.441700  0.982600  0.089700  1.0  -0.0048
  C  C1516  1  0.477700  0.993700  0.117000  1.0  -0.0484
  C  C1517  1  0.458100  0.980900  0.065000  1.0  -0.1531
  C  C1518  1  0.496500  0.990700  0.093600  1.0  -0.0847
  C  C1519  1  0.486300  0.985100  0.068200  1.0  0.0696
  C  C1520  1  0.503100  0.982200  0.043300  1.0  0.0335
  C  C1521  1  0.499700  0.959900  0.026500  1.0  -0.0962
  C  C1522  1  0.933200  0.490700  0.637300  1.0  0.7243
  C  C1523  1  0.952200  0.488400  0.614200  1.0  -0.059
  C  C1524  1  0.941700  0.482600  0.589700  1.0  -0.0048
  C  C1525  1  0.977700  0.493700  0.617000  1.0  -0.0484
  C  C1526  1  0.958100  0.480900  0.565000  1.0  -0.1531
  C  C1527  1  0.996500  0.490700  0.593600  1.0  -0.0847
  C  C1528  1  0.986300  0.485100  0.568200  1.0  0.0696
  C  C1529  1  0.003100  0.482200  0.543300  1.0  0.0335
  C  C1530  1  0.999700  0.459900  0.526500  1.0  -0.0962
  C  C1531  1  0.066800  0.009300  0.637300  1.0  0.7247
  C  C1532  1  0.047800  0.011600  0.614200  1.0  -0.0595
  C  C1533  1  0.058300  0.017400  0.589700  1.0  -0.0012
  C  C1534  1  0.022300  0.006300  0.617000  1.0  -0.0493
  C  C1535  1  0.041900  0.019100  0.565000  1.0  -0.153
  C  C1536  1  0.003500  0.009300  0.593600  1.0  -0.0894
  C  C1537  1  0.013700  0.014900  0.568200  1.0  0.0689
  C  C1538  1  0.996900  0.017800  0.543300  1.0  0.0332
  C  C1539  1  0.000300  0.040100  0.526500  1.0  -0.0962
  C  C1540  1  0.566800  0.509300  0.137300  1.0  0.7247
  C  C1541  1  0.547800  0.511600  0.114200  1.0  -0.0595
  C  C1542  1  0.558300  0.517400  0.089700  1.0  -0.0012
  C  C1543  1  0.522300  0.506300  0.117000  1.0  -0.0493
  C  C1544  1  0.541900  0.519100  0.065000  1.0  -0.153
  C  C1545  1  0.503500  0.509300  0.093600  1.0  -0.0894
  C  C1546  1  0.513700  0.514900  0.068200  1.0  0.0689
  C  C1547  1  0.496900  0.517800  0.043300  1.0  0.0332
  C  C1548  1  0.500300  0.540100  0.026500  1.0  -0.0962
  C  C1549  1  0.566800  0.490700  0.362700  1.0  0.7236
  C  C1550  1  0.547800  0.488400  0.385800  1.0  -0.059
  C  C1551  1  0.558300  0.482600  0.410300  1.0  -0.0019
  C  C1552  1  0.522300  0.493700  0.383000  1.0  -0.0515
  C  C1553  1  0.541900  0.480900  0.435000  1.0  -0.1528
  C  C1554  1  0.503500  0.490700  0.406400  1.0  -0.0846
  C  C1555  1  0.513700  0.485100  0.431800  1.0  0.0709
  C  C1556  1  0.496900  0.482200  0.456700  1.0  0.0339
  C  C1557  1  0.500300  0.459900  0.473500  1.0  -0.0967
  C  C1558  1  0.066800  0.990700  0.862700  1.0  0.7236
  C  C1559  1  0.047800  0.988400  0.885800  1.0  -0.059
  C  C1560  1  0.058300  0.982600  0.910300  1.0  -0.0019
  C  C1561  1  0.022300  0.993700  0.883000  1.0  -0.0515
  C  C1562  1  0.041900  0.980900  0.935000  1.0  -0.1528
  C  C1563  1  0.003500  0.990700  0.906400  1.0  -0.0846
  C  C1564  1  0.013700  0.985100  0.931800  1.0  0.0709
  C  C1565  1  0.996900  0.982200  0.956700  1.0  0.0339
  C  C1566  1  0.000300  0.959900  0.973500  1.0  -0.0967
  C  C1567  1  0.933200  0.509300  0.862700  1.0  0.7245
  C  C1568  1  0.952200  0.511600  0.885800  1.0  -0.0585
  C  C1569  1  0.941700  0.517400  0.910300  1.0  -0.0059
  C  C1570  1  0.977700  0.506300  0.883000  1.0  -0.0521
  C  C1571  1  0.958100  0.519100  0.935000  1.0  -0.1537
  C  C1572  1  0.996500  0.509300  0.906400  1.0  -0.082
  C  C1573  1  0.986300  0.514900  0.931800  1.0  0.071
  C  C1574  1  0.003100  0.517800  0.956700  1.0  0.0343
  C  C1575  1  0.999700  0.540100  0.973500  1.0  -0.0967
  C  C1576  1  0.433200  0.009300  0.362700  1.0  0.7245
  C  C1577  1  0.452200  0.011600  0.385800  1.0  -0.0585
  C  C1578  1  0.441700  0.017400  0.410300  1.0  -0.0059
  C  C1579  1  0.477700  0.006300  0.383000  1.0  -0.0521
  C  C1580  1  0.458100  0.019100  0.435000  1.0  -0.1537
  C  C1581  1  0.496500  0.009300  0.406400  1.0  -0.082
  C  C1582  1  0.486300  0.014900  0.431800  1.0  0.071
  C  C1583  1  0.503100  0.017800  0.456700  1.0  0.0343
  C  C1584  1  0.499700  0.040100  0.473500  1.0  -0.0967
  C  C1585  1  0.137300  0.433200  0.990700  1.0  0.7218
  C  C1586  1  0.114200  0.452200  0.988400  1.0  -0.0587
  C  C1587  1  0.089700  0.441700  0.982600  1.0  -0.0056
  C  C1588  1  0.117000  0.477700  0.993700  1.0  -0.0503
  C  C1589  1  0.065000  0.458100  0.980900  1.0  -0.1562
  C  C1590  1  0.093600  0.496500  0.990700  1.0  -0.0808
  C  C1591  1  0.068200  0.486300  0.985100  1.0  0.0713
  C  C1592  1  0.043300  0.503100  0.982200  1.0  0.0384
  C  C1593  1  0.026500  0.499700  0.959900  1.0  -0.0959
  C  C1594  1  0.637300  0.933200  0.490700  1.0  0.7218
  C  C1595  1  0.614200  0.952200  0.488400  1.0  -0.0587
  C  C1596  1  0.589700  0.941700  0.482600  1.0  -0.0056
  C  C1597  1  0.617000  0.977700  0.493700  1.0  -0.0503
  C  C1598  1  0.565000  0.958100  0.480900  1.0  -0.1562
  C  C1599  1  0.593600  0.996500  0.490700  1.0  -0.0808
  C  C1600  1  0.568200  0.986300  0.485100  1.0  0.0713
  C  C1601  1  0.543300  0.003100  0.482200  1.0  0.0384
  C  C1602  1  0.526500  0.999700  0.459900  1.0  -0.0959
  C  C1603  1  0.637300  0.066800  0.009300  1.0  0.7194
  C  C1604  1  0.614200  0.047800  0.011600  1.0  -0.0599
  C  C1605  1  0.589700  0.058300  0.017400  1.0  -0.0057
  C  C1606  1  0.617000  0.022300  0.006300  1.0  -0.0514
  C  C1607  1  0.565000  0.041900  0.019100  1.0  -0.1557
  C  C1608  1  0.593600  0.003500  0.009300  1.0  -0.0782
  C  C1609  1  0.568200  0.013700  0.014900  1.0  0.0708
  C  C1610  1  0.543300  0.996900  0.017800  1.0  0.0378
  C  C1611  1  0.526500  0.000300  0.040100  1.0  -0.0969
  C  C1612  1  0.137300  0.566800  0.509300  1.0  0.7194
  C  C1613  1  0.114200  0.547800  0.511600  1.0  -0.0599
  C  C1614  1  0.089700  0.558300  0.517400  1.0  -0.0057
  C  C1615  1  0.117000  0.522300  0.506300  1.0  -0.0514
  C  C1616  1  0.065000  0.541900  0.519100  1.0  -0.1557
  C  C1617  1  0.093600  0.503500  0.509300  1.0  -0.0782
  C  C1618  1  0.068200  0.513700  0.514900  1.0  0.0708
  C  C1619  1  0.043300  0.496900  0.517800  1.0  0.0378
  C  C1620  1  0.026500  0.500300  0.540100  1.0  -0.0969
  C  C1621  1  0.362700  0.566800  0.490700  1.0  0.7199
  C  C1622  1  0.385800  0.547800  0.488400  1.0  -0.0576
  C  C1623  1  0.410300  0.558300  0.482600  1.0  -0.0084
  C  C1624  1  0.383000  0.522300  0.493700  1.0  -0.0511
  C  C1625  1  0.435000  0.541900  0.480900  1.0  -0.1557
  C  C1626  1  0.406400  0.503500  0.490700  1.0  -0.0806
  C  C1627  1  0.431800  0.513700  0.485100  1.0  0.0703
  C  C1628  1  0.456700  0.496900  0.482200  1.0  0.0363
  C  C1629  1  0.473500  0.500300  0.459900  1.0  -0.0957
  C  C1630  1  0.862700  0.066800  0.990700  1.0  0.7199
  C  C1631  1  0.885800  0.047800  0.988400  1.0  -0.0576
  C  C1632  1  0.910300  0.058300  0.982600  1.0  -0.0084
  C  C1633  1  0.883000  0.022300  0.993700  1.0  -0.0511
  C  C1634  1  0.935000  0.041900  0.980900  1.0  -0.1557
  C  C1635  1  0.906400  0.003500  0.990700  1.0  -0.0806
  C  C1636  1  0.931800  0.013700  0.985100  1.0  0.0703
  C  C1637  1  0.956700  0.996900  0.982200  1.0  0.0363
  C  C1638  1  0.973500  0.000300  0.959900  1.0  -0.0957
  C  C1639  1  0.862700  0.933200  0.509300  1.0  0.7211
  C  C1640  1  0.885800  0.952200  0.511600  1.0  -0.0577
  C  C1641  1  0.910300  0.941700  0.517400  1.0  -0.0047
  C  C1642  1  0.883000  0.977700  0.506300  1.0  -0.052
  C  C1643  1  0.935000  0.958100  0.519100  1.0  -0.1546
  C  C1644  1  0.906400  0.996500  0.509300  1.0  -0.0822
  C  C1645  1  0.931800  0.986300  0.514900  1.0  0.0686
  C  C1646  1  0.956700  0.003100  0.517800  1.0  0.0357
  C  C1647  1  0.973500  0.999700  0.540100  1.0  -0.0967
  C  C1648  1  0.362700  0.433200  0.009300  1.0  0.7211
  C  C1649  1  0.385800  0.452200  0.011600  1.0  -0.0577
  C  C1650  1  0.410300  0.441700  0.017400  1.0  -0.0047
  C  C1651  1  0.383000  0.477700  0.006300  1.0  -0.052
  C  C1652  1  0.435000  0.458100  0.019100  1.0  -0.1546
  C  C1653  1  0.406400  0.496500  0.009300  1.0  -0.0822
  C  C1654  1  0.431800  0.486300  0.014900  1.0  0.0686
  C  C1655  1  0.456700  0.503100  0.017800  1.0  0.0357
  C  C1656  1  0.473500  0.499700  0.040100  1.0  -0.0967
  C  C1657  1  0.990700  0.137300  0.433200  1.0  0.7237
  C  C1658  1  0.988400  0.114200  0.452200  1.0  -0.0589
  C  C1659  1  0.982600  0.089700  0.441700  1.0  -0.0046
  C  C1660  1  0.993700  0.117000  0.477700  1.0  -0.0528
  C  C1661  1  0.980900  0.065000  0.458100  1.0  -0.1531
  C  C1662  1  0.990700  0.093600  0.496500  1.0  -0.0856
  C  C1663  1  0.985100  0.068200  0.486300  1.0  0.0686
  C  C1664  1  0.982200  0.043300  0.503100  1.0  0.0355
  C  C1665  1  0.959900  0.026500  0.499700  1.0  -0.0968
  C  C1666  1  0.490700  0.637300  0.933200  1.0  0.7237
  C  C1667  1  0.488400  0.614200  0.952200  1.0  -0.0589
  C  C1668  1  0.482600  0.589700  0.941700  1.0  -0.0046
  C  C1669  1  0.493700  0.617000  0.977700  1.0  -0.0528
  C  C1670  1  0.480900  0.565000  0.958100  1.0  -0.1531
  C  C1671  1  0.490700  0.593600  0.996500  1.0  -0.0856
  C  C1672  1  0.485100  0.568200  0.986300  1.0  0.0686
  C  C1673  1  0.482200  0.543300  0.003100  1.0  0.0355
  C  C1674  1  0.459900  0.526500  0.999700  1.0  -0.0968
  C  C1675  1  0.009300  0.637300  0.066800  1.0  0.7229
  C  C1676  1  0.011600  0.614200  0.047800  1.0  -0.0597
  C  C1677  1  0.017400  0.589700  0.058300  1.0  -0.0041
  C  C1678  1  0.006300  0.617000  0.022300  1.0  -0.054
  C  C1679  1  0.019100  0.565000  0.041900  1.0  -0.1525
  C  C1680  1  0.009300  0.593600  0.003500  1.0  -0.0843
  C  C1681  1  0.014900  0.568200  0.013700  1.0  0.0695
  C  C1682  1  0.017800  0.543300  0.996900  1.0  0.0355
  C  C1683  1  0.040100  0.526500  0.000300  1.0  -0.0951
  C  C1684  1  0.509300  0.137300  0.566800  1.0  0.7229
  C  C1685  1  0.511600  0.114200  0.547800  1.0  -0.0597
  C  C1686  1  0.517400  0.089700  0.558300  1.0  -0.0041
  C  C1687  1  0.506300  0.117000  0.522300  1.0  -0.054
  C  C1688  1  0.519100  0.065000  0.541900  1.0  -0.1525
  C  C1689  1  0.509300  0.093600  0.503500  1.0  -0.0843
  C  C1690  1  0.514900  0.068200  0.513700  1.0  0.0695
  C  C1691  1  0.517800  0.043300  0.496900  1.0  0.0355
  C  C1692  1  0.540100  0.026500  0.500300  1.0  -0.0951
  C  C1693  1  0.490700  0.362700  0.566800  1.0  0.7231
  C  C1694  1  0.488400  0.385800  0.547800  1.0  -0.0588
  C  C1695  1  0.482600  0.410300  0.558300  1.0  -0.0059
  C  C1696  1  0.493700  0.383000  0.522300  1.0  -0.0529
  C  C1697  1  0.480900  0.435000  0.541900  1.0  -0.1543
  C  C1698  1  0.490700  0.406400  0.503500  1.0  -0.0804
  C  C1699  1  0.485100  0.431800  0.513700  1.0  0.0688
  C  C1700  1  0.482200  0.456700  0.496900  1.0  0.0351
  C  C1701  1  0.459900  0.473500  0.500300  1.0  -0.0945
  C  C1702  1  0.990700  0.862700  0.066800  1.0  0.7231
  C  C1703  1  0.988400  0.885800  0.047800  1.0  -0.0588
  C  C1704  1  0.982600  0.910300  0.058300  1.0  -0.0059
  C  C1705  1  0.993700  0.883000  0.022300  1.0  -0.0529
  C  C1706  1  0.980900  0.935000  0.041900  1.0  -0.1543
  C  C1707  1  0.990700  0.906400  0.003500  1.0  -0.0804
  C  C1708  1  0.985100  0.931800  0.013700  1.0  0.0688
  C  C1709  1  0.982200  0.956700  0.996900  1.0  0.0351
  C  C1710  1  0.959900  0.973500  0.000300  1.0  -0.0945
  C  C1711  1  0.509300  0.862700  0.933200  1.0  0.7237
  C  C1712  1  0.511600  0.885800  0.952200  1.0  -0.0584
  C  C1713  1  0.517400  0.910300  0.941700  1.0  -0.0048
  C  C1714  1  0.506300  0.883000  0.977700  1.0  -0.0541
  C  C1715  1  0.519100  0.935000  0.958100  1.0  -0.1539
  C  C1716  1  0.509300  0.906400  0.996500  1.0  -0.0854
  C  C1717  1  0.514900  0.931800  0.986300  1.0  0.0686
  C  C1718  1  0.517800  0.956700  0.003100  1.0  0.0356
  C  C1719  1  0.540100  0.973500  0.999700  1.0  -0.0967
  C  C1720  1  0.009300  0.362700  0.433200  1.0  0.7237
  C  C1721  1  0.011600  0.385800  0.452200  1.0  -0.0584
  C  C1722  1  0.017400  0.410300  0.441700  1.0  -0.0048
  C  C1723  1  0.006300  0.383000  0.477700  1.0  -0.0541
  C  C1724  1  0.019100  0.435000  0.458100  1.0  -0.1539
  C  C1725  1  0.009300  0.406400  0.496500  1.0  -0.0854
  C  C1726  1  0.014900  0.431800  0.486300  1.0  0.0686
  C  C1727  1  0.017800  0.456700  0.503100  1.0  0.0356
  C  C1728  1  0.040100  0.473500  0.499700  1.0  -0.0967
  O  O1729  1  0.603990  0.974330  0.811650  1.0  -0.8576
  O  O1730  1  0.609280  0.915620  0.756940  1.0  -0.6468
  O  O1731  1  0.568370  0.948040  0.782180  1.0  -0.6914
  O  O1732  1  0.645580  0.943590  0.786370  1.0  -0.8254
  O  O1733  1  0.558770  0.997250  0.725120  1.0  -0.7597
  O  O1734  1  0.570800  0.942000  0.726140  1.0  -0.673
  O  O1735  1  0.554790  0.006130  0.840940  1.0  -0.5546
  O  O1736  1  0.592390  0.010260  0.865080  1.0  -0.4468
  O  O1737  1  0.103990  0.474330  0.311650  1.0  -0.8576
  O  O1738  1  0.109280  0.415620  0.256940  1.0  -0.6468
  O  O1739  1  0.068370  0.448040  0.282180  1.0  -0.6914
  O  O1740  1  0.145580  0.443590  0.286370  1.0  -0.8254
  O  O1741  1  0.058770  0.497250  0.225120  1.0  -0.7597
  O  O1742  1  0.070800  0.442000  0.226140  1.0  -0.673
  O  O1743  1  0.054790  0.506130  0.340940  1.0  -0.5546
  O  O1744  1  0.092390  0.510260  0.365080  1.0  -0.4468
  O  O1745  1  0.896010  0.025670  0.311650  1.0  -0.8566
  O  O1746  1  0.890720  0.084380  0.256940  1.0  -0.6471
  O  O1747  1  0.931630  0.051960  0.282180  1.0  -0.6902
  O  O1748  1  0.854420  0.056410  0.286370  1.0  -0.8238
  O  O1749  1  0.941230  0.002750  0.225120  1.0  -0.7597
  O  O1750  1  0.929200  0.058000  0.226140  1.0  -0.6733
  O  O1751  1  0.945210  0.993870  0.340940  1.0  -0.5553
  O  O1752  1  0.907610  0.989740  0.365080  1.0  -0.4458
  O  O1753  1  0.396010  0.525670  0.811650  1.0  -0.8566
  O  O1754  1  0.390720  0.584380  0.756940  1.0  -0.6471
  O  O1755  1  0.431630  0.551960  0.782180  1.0  -0.6902
  O  O1756  1  0.354420  0.556410  0.786370  1.0  -0.8238
  O  O1757  1  0.441230  0.502750  0.725120  1.0  -0.7597
  O  O1758  1  0.429200  0.558000  0.726140  1.0  -0.6733
  O  O1759  1  0.445210  0.493870  0.840940  1.0  -0.5553
  O  O1760  1  0.407610  0.489740  0.865080  1.0  -0.4458
  O  O1761  1  0.396010  0.474330  0.688350  1.0  -0.8586
  O  O1762  1  0.390720  0.415620  0.743060  1.0  -0.6462
  O  O1763  1  0.431630  0.448040  0.717820  1.0  -0.6907
  O  O1764  1  0.354420  0.443590  0.713630  1.0  -0.8268
  O  O1765  1  0.441230  0.497250  0.774880  1.0  -0.759
  O  O1766  1  0.429200  0.442000  0.773860  1.0  -0.6721
  O  O1767  1  0.445210  0.506130  0.659060  1.0  -0.5551
  O  O1768  1  0.407610  0.510260  0.634920  1.0  -0.4471
  O  O1769  1  0.896010  0.974330  0.188350  1.0  -0.8586
  O  O1770  1  0.890720  0.915620  0.243060  1.0  -0.6462
  O  O1771  1  0.931630  0.948040  0.217820  1.0  -0.6907
  O  O1772  1  0.854420  0.943590  0.213630  1.0  -0.8268
  O  O1773  1  0.941230  0.997250  0.274880  1.0  -0.759
  O  O1774  1  0.929200  0.942000  0.273860  1.0  -0.6721
  O  O1775  1  0.945210  0.006130  0.159060  1.0  -0.5551
  O  O1776  1  0.907610  0.010260  0.134920  1.0  -0.4471
  O  O1777  1  0.103990  0.525670  0.188350  1.0  -0.8585
  O  O1778  1  0.109280  0.584380  0.243060  1.0  -0.6474
  O  O1779  1  0.068370  0.551960  0.217820  1.0  -0.6909
  O  O1780  1  0.145580  0.556410  0.213630  1.0  -0.8257
  O  O1781  1  0.058770  0.502750  0.274880  1.0  -0.7595
  O  O1782  1  0.070800  0.558000  0.273860  1.0  -0.6738
  O  O1783  1  0.054790  0.493870  0.159060  1.0  -0.5552
  O  O1784  1  0.092390  0.489740  0.134920  1.0  -0.4477
  O  O1785  1  0.603990  0.025670  0.688350  1.0  -0.8585
  O  O1786  1  0.609280  0.084380  0.743060  1.0  -0.6474
  O  O1787  1  0.568370  0.051960  0.717820  1.0  -0.6909
  O  O1788  1  0.645580  0.056410  0.713630  1.0  -0.8257
  O  O1789  1  0.558770  0.002750  0.774880  1.0  -0.7595
  O  O1790  1  0.570800  0.058000  0.773860  1.0  -0.6738
  O  O1791  1  0.554790  0.993870  0.659060  1.0  -0.5552
  O  O1792  1  0.592390  0.989740  0.634920  1.0  -0.4477
  O  O1793  1  0.811650  0.603990  0.974330  1.0  -0.8595
  O  O1794  1  0.756940  0.609280  0.915620  1.0  -0.6486
  O  O1795  1  0.782180  0.568370  0.948040  1.0  -0.6869
  O  O1796  1  0.786370  0.645580  0.943590  1.0  -0.8256
  O  O1797  1  0.725120  0.558770  0.997250  1.0  -0.7581
  O  O1798  1  0.726140  0.570800  0.942000  1.0  -0.6719
  O  O1799  1  0.840940  0.554790  0.006130  1.0  -0.5548
  O  O1800  1  0.865080  0.592390  0.010260  1.0  -0.4404
  O  O1801  1  0.311650  0.103990  0.474330  1.0  -0.8595
  O  O1802  1  0.256940  0.109280  0.415620  1.0  -0.6486
  O  O1803  1  0.282180  0.068370  0.448040  1.0  -0.6869
  O  O1804  1  0.286370  0.145580  0.443590  1.0  -0.8256
  O  O1805  1  0.225120  0.058770  0.497250  1.0  -0.7581
  O  O1806  1  0.226140  0.070800  0.442000  1.0  -0.6719
  O  O1807  1  0.340940  0.054790  0.506130  1.0  -0.5548
  O  O1808  1  0.365080  0.092390  0.510260  1.0  -0.4404
  O  O1809  1  0.311650  0.896010  0.025670  1.0  -0.8593
  O  O1810  1  0.256940  0.890720  0.084380  1.0  -0.6488
  O  O1811  1  0.282180  0.931630  0.051960  1.0  -0.6907
  O  O1812  1  0.286370  0.854420  0.056410  1.0  -0.8245
  O  O1813  1  0.225120  0.941230  0.002750  1.0  -0.757
  O  O1814  1  0.226140  0.929200  0.058000  1.0  -0.6745
  O  O1815  1  0.340940  0.945210  0.993870  1.0  -0.5555
  O  O1816  1  0.365080  0.907610  0.989740  1.0  -0.4393
  O  O1817  1  0.811650  0.396010  0.525670  1.0  -0.8593
  O  O1818  1  0.756940  0.390720  0.584380  1.0  -0.6488
  O  O1819  1  0.782180  0.431630  0.551960  1.0  -0.6907
  O  O1820  1  0.786370  0.354420  0.556410  1.0  -0.8245
  O  O1821  1  0.725120  0.441230  0.502750  1.0  -0.757
  O  O1822  1  0.726140  0.429200  0.558000  1.0  -0.6745
  O  O1823  1  0.840940  0.445210  0.493870  1.0  -0.5555
  O  O1824  1  0.865080  0.407610  0.489740  1.0  -0.4393
  O  O1825  1  0.688350  0.396010  0.474330  1.0  -0.8595
  O  O1826  1  0.743060  0.390720  0.415620  1.0  -0.6483
  O  O1827  1  0.717820  0.431630  0.448040  1.0  -0.69
  O  O1828  1  0.713630  0.354420  0.443590  1.0  -0.8258
  O  O1829  1  0.774880  0.441230  0.497250  1.0  -0.7569
  O  O1830  1  0.773860  0.429200  0.442000  1.0  -0.6741
  O  O1831  1  0.659060  0.445210  0.506130  1.0  -0.5548
  O  O1832  1  0.634920  0.407610  0.510260  1.0  -0.4394
  O  O1833  1  0.188350  0.896010  0.974330  1.0  -0.8595
  O  O1834  1  0.243060  0.890720  0.915620  1.0  -0.6483
  O  O1835  1  0.217820  0.931630  0.948040  1.0  -0.69
  O  O1836  1  0.213630  0.854420  0.943590  1.0  -0.8258
  O  O1837  1  0.274880  0.941230  0.997250  1.0  -0.7569
  O  O1838  1  0.273860  0.929200  0.942000  1.0  -0.6741
  O  O1839  1  0.159060  0.945210  0.006130  1.0  -0.5548
  O  O1840  1  0.134920  0.907610  0.010260  1.0  -0.4394
  O  O1841  1  0.188350  0.103990  0.525670  1.0  -0.8593
  O  O1842  1  0.243060  0.109280  0.584380  1.0  -0.649
  O  O1843  1  0.217820  0.068370  0.551960  1.0  -0.6908
  O  O1844  1  0.213630  0.145580  0.556410  1.0  -0.8252
  O  O1845  1  0.274880  0.058770  0.502750  1.0  -0.7575
  O  O1846  1  0.273860  0.070800  0.558000  1.0  -0.6742
  O  O1847  1  0.159060  0.054790  0.493870  1.0  -0.5538
  O  O1848  1  0.134920  0.092390  0.489740  1.0  -0.4405
  O  O1849  1  0.688350  0.603990  0.025670  1.0  -0.8593
  O  O1850  1  0.743060  0.609280  0.084380  1.0  -0.649
  O  O1851  1  0.717820  0.568370  0.051960  1.0  -0.6908
  O  O1852  1  0.713630  0.645580  0.056410  1.0  -0.8252
  O  O1853  1  0.774880  0.558770  0.002750  1.0  -0.7575
  O  O1854  1  0.773860  0.570800  0.058000  1.0  -0.6742
  O  O1855  1  0.659060  0.554790  0.993870  1.0  -0.5538
  O  O1856  1  0.634920  0.592390  0.989740  1.0  -0.4405
  O  O1857  1  0.974330  0.811650  0.603990  1.0  -0.8609
  O  O1858  1  0.915620  0.756940  0.609280  1.0  -0.6478
  O  O1859  1  0.948040  0.782180  0.568370  1.0  -0.6901
  O  O1860  1  0.943590  0.786370  0.645580  1.0  -0.8252
  O  O1861  1  0.997250  0.725120  0.558770  1.0  -0.7593
  O  O1862  1  0.942000  0.726140  0.570800  1.0  -0.6728
  O  O1863  1  0.006130  0.840940  0.554790  1.0  -0.5536
  O  O1864  1  0.010260  0.865080  0.592390  1.0  -0.4386
  O  O1865  1  0.474330  0.311650  0.103990  1.0  -0.8609
  O  O1866  1  0.415620  0.256940  0.109280  1.0  -0.6478
  O  O1867  1  0.448040  0.282180  0.068370  1.0  -0.6901
  O  O1868  1  0.443590  0.286370  0.145580  1.0  -0.8252
  O  O1869  1  0.497250  0.225120  0.058770  1.0  -0.7593
  O  O1870  1  0.442000  0.226140  0.070800  1.0  -0.6728
  O  O1871  1  0.506130  0.340940  0.054790  1.0  -0.5536
  O  O1872  1  0.510260  0.365080  0.092390  1.0  -0.4386
  O  O1873  1  0.025670  0.311650  0.896010  1.0  -0.8605
  O  O1874  1  0.084380  0.256940  0.890720  1.0  -0.6484
  O  O1875  1  0.051960  0.282180  0.931630  1.0  -0.6901
  O  O1876  1  0.056410  0.286370  0.854420  1.0  -0.8251
  O  O1877  1  0.002750  0.225120  0.941230  1.0  -0.7597
  O  O1878  1  0.058000  0.226140  0.929200  1.0  -0.672
  O  O1879  1  0.993870  0.340940  0.945210  1.0  -0.5533
  O  O1880  1  0.989740  0.365080  0.907610  1.0  -0.4393
  O  O1881  1  0.525670  0.811650  0.396010  1.0  -0.8605
  O  O1882  1  0.584380  0.756940  0.390720  1.0  -0.6484
  O  O1883  1  0.551960  0.782180  0.431630  1.0  -0.6901
  O  O1884  1  0.556410  0.786370  0.354420  1.0  -0.8251
  O  O1885  1  0.502750  0.725120  0.441230  1.0  -0.7597
  O  O1886  1  0.558000  0.726140  0.429200  1.0  -0.672
  O  O1887  1  0.493870  0.840940  0.445210  1.0  -0.5533
  O  O1888  1  0.489740  0.865080  0.407610  1.0  -0.4393
  O  O1889  1  0.474330  0.688350  0.396010  1.0  -0.8613
  O  O1890  1  0.415620  0.743060  0.390720  1.0  -0.6469
  O  O1891  1  0.448040  0.717820  0.431630  1.0  -0.6912
  O  O1892  1  0.443590  0.713630  0.354420  1.0  -0.825
  O  O1893  1  0.497250  0.774880  0.441230  1.0  -0.7603
  O  O1894  1  0.442000  0.773860  0.429200  1.0  -0.6721
  O  O1895  1  0.506130  0.659060  0.445210  1.0  -0.5539
  O  O1896  1  0.510260  0.634920  0.407610  1.0  -0.4383
  O  O1897  1  0.974330  0.188350  0.896010  1.0  -0.8613
  O  O1898  1  0.915620  0.243060  0.890720  1.0  -0.6469
  O  O1899  1  0.948040  0.217820  0.931630  1.0  -0.6912
  O  O1900  1  0.943590  0.213630  0.854420  1.0  -0.825
  O  O1901  1  0.997250  0.274880  0.941230  1.0  -0.7603
  O  O1902  1  0.942000  0.273860  0.929200  1.0  -0.6721
  O  O1903  1  0.006130  0.159060  0.945210  1.0  -0.5539
  O  O1904  1  0.010260  0.134920  0.907610  1.0  -0.4383
  O  O1905  1  0.525670  0.188350  0.103990  1.0  -0.8606
  O  O1906  1  0.584380  0.243060  0.109280  1.0  -0.6474
  O  O1907  1  0.551960  0.217820  0.068370  1.0  -0.6884
  O  O1908  1  0.556410  0.213630  0.145580  1.0  -0.826
  O  O1909  1  0.502750  0.274880  0.058770  1.0  -0.7589
  O  O1910  1  0.558000  0.273860  0.070800  1.0  -0.6719
  O  O1911  1  0.493870  0.159060  0.054790  1.0  -0.5549
  O  O1912  1  0.489740  0.134920  0.092390  1.0  -0.4392
  O  O1913  1  0.025670  0.688350  0.603990  1.0  -0.8606
  O  O1914  1  0.084380  0.743060  0.609280  1.0  -0.6474
  O  O1915  1  0.051960  0.717820  0.568370  1.0  -0.6884
  O  O1916  1  0.056410  0.713630  0.645580  1.0  -0.826
  O  O1917  1  0.002750  0.774880  0.558770  1.0  -0.7589
  O  O1918  1  0.058000  0.773860  0.570800  1.0  -0.6719
  O  O1919  1  0.993870  0.659060  0.554790  1.0  -0.5549
  O  O1920  1  0.989740  0.634920  0.592390  1.0  -0.4392
  O  O1921  1  0.275670  0.146010  0.561650  1.0  -0.8587
  O  O1922  1  0.334380  0.140720  0.506940  1.0  -0.648
  O  O1923  1  0.301960  0.181630  0.532180  1.0  -0.6908
  O  O1924  1  0.306410  0.104420  0.536370  1.0  -0.8246
  O  O1925  1  0.252750  0.191230  0.475120  1.0  -0.7568
  O  O1926  1  0.308000  0.179200  0.476140  1.0  -0.6724
  O  O1927  1  0.243870  0.195210  0.590940  1.0  -0.5546
  O  O1928  1  0.239740  0.157610  0.615080  1.0  -0.4363
  O  O1929  1  0.775670  0.646010  0.061650  1.0  -0.8587
  O  O1930  1  0.834380  0.640720  0.006940  1.0  -0.648
  O  O1931  1  0.801960  0.681630  0.032180  1.0  -0.6908
  O  O1932  1  0.806410  0.604420  0.036370  1.0  -0.8246
  O  O1933  1  0.752750  0.691230  0.975120  1.0  -0.7568
  O  O1934  1  0.808000  0.679200  0.976140  1.0  -0.6724
  O  O1935  1  0.743870  0.695210  0.090940  1.0  -0.5546
  O  O1936  1  0.739740  0.657610  0.115080  1.0  -0.4363
  O  O1937  1  0.224330  0.853990  0.061650  1.0  -0.8599
  O  O1938  1  0.165620  0.859280  0.006940  1.0  -0.6477
  O  O1939  1  0.198040  0.818370  0.032180  1.0  -0.6906
  O  O1940  1  0.193590  0.895580  0.036370  1.0  -0.8247
  O  O1941  1  0.247250  0.808770  0.975120  1.0  -0.7578
  O  O1942  1  0.192000  0.820800  0.976140  1.0  -0.6728
  O  O1943  1  0.256130  0.804790  0.090940  1.0  -0.5538
  O  O1944  1  0.260260  0.842390  0.115080  1.0  -0.4381
  O  O1945  1  0.724330  0.353990  0.561650  1.0  -0.8599
  O  O1946  1  0.665620  0.359280  0.506940  1.0  -0.6477
  O  O1947  1  0.698040  0.318370  0.532180  1.0  -0.6906
  O  O1948  1  0.693590  0.395580  0.536370  1.0  -0.8247
  O  O1949  1  0.747250  0.308770  0.475120  1.0  -0.7578
  O  O1950  1  0.692000  0.320800  0.476140  1.0  -0.6728
  O  O1951  1  0.756130  0.304790  0.590940  1.0  -0.5538
  O  O1952  1  0.760260  0.342390  0.615080  1.0  -0.4381
  O  O1953  1  0.775670  0.353990  0.438350  1.0  -0.8606
  O  O1954  1  0.834380  0.359280  0.493060  1.0  -0.6481
  O  O1955  1  0.801960  0.318370  0.467820  1.0  -0.6892
  O  O1956  1  0.806410  0.395580  0.463630  1.0  -0.8263
  O  O1957  1  0.752750  0.308770  0.524880  1.0  -0.7574
  O  O1958  1  0.808000  0.320800  0.523860  1.0  -0.6714
  O  O1959  1  0.743870  0.304790  0.409060  1.0  -0.5536
  O  O1960  1  0.739740  0.342390  0.384920  1.0  -0.44
  O  O1961  1  0.275670  0.853990  0.938350  1.0  -0.8606
  O  O1962  1  0.334380  0.859280  0.993060  1.0  -0.6481
  O  O1963  1  0.301960  0.818370  0.967820  1.0  -0.6892
  O  O1964  1  0.306410  0.895580  0.963630  1.0  -0.8263
  O  O1965  1  0.252750  0.808770  0.024880  1.0  -0.7574
  O  O1966  1  0.308000  0.820800  0.023860  1.0  -0.6714
  O  O1967  1  0.243870  0.804790  0.909060  1.0  -0.5536
  O  O1968  1  0.239740  0.842390  0.884920  1.0  -0.44
  O  O1969  1  0.724330  0.646010  0.938350  1.0  -0.861
  O  O1970  1  0.665620  0.640720  0.993060  1.0  -0.648
  O  O1971  1  0.698040  0.681630  0.967820  1.0  -0.6912
  O  O1972  1  0.693590  0.604420  0.963630  1.0  -0.8263
  O  O1973  1  0.747250  0.691230  0.024880  1.0  -0.7571
  O  O1974  1  0.692000  0.679200  0.023860  1.0  -0.673
  O  O1975  1  0.756130  0.695210  0.909060  1.0  -0.5547
  O  O1976  1  0.760260  0.657610  0.884920  1.0  -0.4386
  O  O1977  1  0.224330  0.146010  0.438350  1.0  -0.861
  O  O1978  1  0.165620  0.140720  0.493060  1.0  -0.648
  O  O1979  1  0.198040  0.181630  0.467820  1.0  -0.6912
  O  O1980  1  0.193590  0.104420  0.463630  1.0  -0.8263
  O  O1981  1  0.247250  0.191230  0.524880  1.0  -0.7571
  O  O1982  1  0.192000  0.179200  0.523860  1.0  -0.673
  O  O1983  1  0.256130  0.195210  0.409060  1.0  -0.5547
  O  O1984  1  0.260260  0.157610  0.384920  1.0  -0.4386
  O  O1985  1  0.646010  0.938350  0.724330  1.0  -0.8587
  O  O1986  1  0.640720  0.993060  0.665620  1.0  -0.6476
  O  O1987  1  0.681630  0.967820  0.698040  1.0  -0.6886
  O  O1988  1  0.604420  0.963630  0.693590  1.0  -0.8254
  O  O1989  1  0.691230  0.024880  0.747250  1.0  -0.7598
  O  O1990  1  0.679200  0.023860  0.692000  1.0  -0.6713
  O  O1991  1  0.695210  0.909060  0.756130  1.0  -0.5567
  O  O1992  1  0.657610  0.884920  0.760260  1.0  -0.4464
  O  O1993  1  0.146010  0.438350  0.224330  1.0  -0.8587
  O  O1994  1  0.140720  0.493060  0.165620  1.0  -0.6476
  O  O1995  1  0.181630  0.467820  0.198040  1.0  -0.6886
  O  O1996  1  0.104420  0.463630  0.193590  1.0  -0.8254
  O  O1997  1  0.191230  0.524880  0.247250  1.0  -0.7598
  O  O1998  1  0.179200  0.523860  0.192000  1.0  -0.6713
  O  O1999  1  0.195210  0.409060  0.256130  1.0  -0.5567
  O  O2000  1  0.157610  0.384920  0.260260  1.0  -0.4464
  O  O2001  1  0.353990  0.438350  0.775670  1.0  -0.8585
  O  O2002  1  0.359280  0.493060  0.834380  1.0  -0.6482
  O  O2003  1  0.318370  0.467820  0.801960  1.0  -0.6913
  O  O2004  1  0.395580  0.463630  0.806410  1.0  -0.825
  O  O2005  1  0.308770  0.524880  0.752750  1.0  -0.7594
  O  O2006  1  0.320800  0.523860  0.808000  1.0  -0.6726
  O  O2007  1  0.304790  0.409060  0.743870  1.0  -0.5555
  O  O2008  1  0.342390  0.384920  0.739740  1.0  -0.4469
  O  O2009  1  0.853990  0.938350  0.275670  1.0  -0.8585
  O  O2010  1  0.859280  0.993060  0.334380  1.0  -0.6482
  O  O2011  1  0.818370  0.967820  0.301960  1.0  -0.6913
  O  O2012  1  0.895580  0.963630  0.306410  1.0  -0.825
  O  O2013  1  0.808770  0.024880  0.252750  1.0  -0.7594
  O  O2014  1  0.820800  0.023860  0.308000  1.0  -0.6726
  O  O2015  1  0.804790  0.909060  0.243870  1.0  -0.5555
  O  O2016  1  0.842390  0.884920  0.239740  1.0  -0.4469
  O  O2017  1  0.853990  0.061650  0.224330  1.0  -0.8587
  O  O2018  1  0.859280  0.006940  0.165620  1.0  -0.648
  O  O2019  1  0.818370  0.032180  0.198040  1.0  -0.6896
  O  O2020  1  0.895580  0.036370  0.193590  1.0  -0.8249
  O  O2021  1  0.808770  0.975120  0.247250  1.0  -0.7597
  O  O2022  1  0.820800  0.976140  0.192000  1.0  -0.6719
  O  O2023  1  0.804790  0.090940  0.256130  1.0  -0.5536
  O  O2024  1  0.842390  0.115080  0.260260  1.0  -0.4466
  O  O2025  1  0.353990  0.561650  0.724330  1.0  -0.8587
  O  O2026  1  0.359280  0.506940  0.665620  1.0  -0.648
  O  O2027  1  0.318370  0.532180  0.698040  1.0  -0.6896
  O  O2028  1  0.395580  0.536370  0.693590  1.0  -0.8249
  O  O2029  1  0.308770  0.475120  0.747250  1.0  -0.7597
  O  O2030  1  0.320800  0.476140  0.692000  1.0  -0.6719
  O  O2031  1  0.304790  0.590940  0.756130  1.0  -0.5536
  O  O2032  1  0.342390  0.615080  0.760260  1.0  -0.4466
  O  O2033  1  0.146010  0.561650  0.275670  1.0  -0.8577
  O  O2034  1  0.140720  0.506940  0.334380  1.0  -0.6483
  O  O2035  1  0.181630  0.532180  0.301960  1.0  -0.6907
  O  O2036  1  0.104420  0.536370  0.306410  1.0  -0.8237
  O  O2037  1  0.191230  0.475120  0.252750  1.0  -0.7595
  O  O2038  1  0.179200  0.476140  0.308000  1.0  -0.6726
  O  O2039  1  0.195210  0.590940  0.243870  1.0  -0.5541
  O  O2040  1  0.157610  0.615080  0.239740  1.0  -0.4458
  O  O2041  1  0.646010  0.061650  0.775670  1.0  -0.8577
  O  O2042  1  0.640720  0.006940  0.834380  1.0  -0.6483
  O  O2043  1  0.681630  0.032180  0.801960  1.0  -0.6907
  O  O2044  1  0.604420  0.036370  0.806410  1.0  -0.8237
  O  O2045  1  0.691230  0.975120  0.752750  1.0  -0.7595
  O  O2046  1  0.679200  0.976140  0.808000  1.0  -0.6726
  O  O2047  1  0.695210  0.090940  0.743870  1.0  -0.5541
  O  O2048  1  0.657610  0.115080  0.739740  1.0  -0.4458
  O  O2049  1  0.438350  0.775670  0.353990  1.0  -0.8595
  O  O2050  1  0.493060  0.834380  0.359280  1.0  -0.6466
  O  O2051  1  0.467820  0.801960  0.318370  1.0  -0.6899
  O  O2052  1  0.463630  0.806410  0.395580  1.0  -0.8256
  O  O2053  1  0.524880  0.752750  0.308770  1.0  -0.7588
  O  O2054  1  0.523860  0.808000  0.320800  1.0  -0.6759
  O  O2055  1  0.409060  0.743870  0.304790  1.0  -0.5553
  O  O2056  1  0.384920  0.739740  0.342390  1.0  -0.4402
  O  O2057  1  0.938350  0.275670  0.853990  1.0  -0.8595
  O  O2058  1  0.993060  0.334380  0.859280  1.0  -0.6466
  O  O2059  1  0.967820  0.301960  0.818370  1.0  -0.6899
  O  O2060  1  0.963630  0.306410  0.895580  1.0  -0.8256
  O  O2061  1  0.024880  0.252750  0.808770  1.0  -0.7588
  O  O2062  1  0.023860  0.308000  0.820800  1.0  -0.6759
  O  O2063  1  0.909060  0.243870  0.804790  1.0  -0.5553
  O  O2064  1  0.884920  0.239740  0.842390  1.0  -0.4402
  O  O2065  1  0.938350  0.724330  0.646010  1.0  -0.8596
  O  O2066  1  0.993060  0.665620  0.640720  1.0  -0.6468
  O  O2067  1  0.967820  0.698040  0.681630  1.0  -0.6916
  O  O2068  1  0.963630  0.693590  0.604420  1.0  -0.8263
  O  O2069  1  0.024880  0.747250  0.691230  1.0  -0.7593
  O  O2070  1  0.023860  0.692000  0.679200  1.0  -0.6749
  O  O2071  1  0.909060  0.756130  0.695210  1.0  -0.5544
  O  O2072  1  0.884920  0.760260  0.657610  1.0  -0.4408
  O  O2073  1  0.438350  0.224330  0.146010  1.0  -0.8596
  O  O2074  1  0.493060  0.165620  0.140720  1.0  -0.6468
  O  O2075  1  0.467820  0.198040  0.181630  1.0  -0.6916
  O  O2076  1  0.463630  0.193590  0.104420  1.0  -0.8263
  O  O2077  1  0.524880  0.247250  0.191230  1.0  -0.7593
  O  O2078  1  0.523860  0.192000  0.179200  1.0  -0.6749
  O  O2079  1  0.409060  0.256130  0.195210  1.0  -0.5544
  O  O2080  1  0.384920  0.260260  0.157610  1.0  -0.4408
  O  O2081  1  0.561650  0.275670  0.146010  1.0  -0.8598
  O  O2082  1  0.506940  0.334380  0.140720  1.0  -0.6479
  O  O2083  1  0.532180  0.301960  0.181630  1.0  -0.6898
  O  O2084  1  0.536370  0.306410  0.104420  1.0  -0.825
  O  O2085  1  0.475120  0.252750  0.191230  1.0  -0.7599
  O  O2086  1  0.476140  0.308000  0.179200  1.0  -0.6747
  O  O2087  1  0.590940  0.243870  0.195210  1.0  -0.5539
  O  O2088  1  0.615080  0.239740  0.157610  1.0  -0.44
  O  O2089  1  0.061650  0.775670  0.646010  1.0  -0.8598
  O  O2090  1  0.006940  0.834380  0.640720  1.0  -0.6479
  O  O2091  1  0.032180  0.801960  0.681630  1.0  -0.6898
  O  O2092  1  0.036370  0.806410  0.604420  1.0  -0.825
  O  O2093  1  0.975120  0.752750  0.691230  1.0  -0.7599
  O  O2094  1  0.976140  0.808000  0.679200  1.0  -0.6747
  O  O2095  1  0.090940  0.743870  0.695210  1.0  -0.5539
  O  O2096  1  0.115080  0.739740  0.657610  1.0  -0.44
  O  O2097  1  0.061650  0.224330  0.853990  1.0  -0.8599
  O  O2098  1  0.006940  0.165620  0.859280  1.0  -0.6468
  O  O2099  1  0.032180  0.198040  0.818370  1.0  -0.6879
  O  O2100  1  0.036370  0.193590  0.895580  1.0  -0.8266
  O  O2101  1  0.975120  0.247250  0.808770  1.0  -0.7589
  O  O2102  1  0.976140  0.192000  0.820800  1.0  -0.6731
  O  O2103  1  0.090940  0.256130  0.804790  1.0  -0.5548
  O  O2104  1  0.115080  0.260260  0.842390  1.0  -0.4401
  O  O2105  1  0.561650  0.724330  0.353990  1.0  -0.8599
  O  O2106  1  0.506940  0.665620  0.359280  1.0  -0.6468
  O  O2107  1  0.532180  0.698040  0.318370  1.0  -0.6879
  O  O2108  1  0.536370  0.693590  0.395580  1.0  -0.8266
  O  O2109  1  0.475120  0.747250  0.308770  1.0  -0.7589
  O  O2110  1  0.476140  0.692000  0.320800  1.0  -0.6731
  O  O2111  1  0.590940  0.756130  0.304790  1.0  -0.5548
  O  O2112  1  0.615080  0.760260  0.342390  1.0  -0.4401
  O  O2113  1  0.724330  0.853990  0.438350  1.0  -0.8611
  O  O2114  1  0.665620  0.859280  0.493060  1.0  -0.6477
  O  O2115  1  0.698040  0.818370  0.467820  1.0  -0.6898
  O  O2116  1  0.693590  0.895580  0.463630  1.0  -0.8263
  O  O2117  1  0.747250  0.808770  0.524880  1.0  -0.7576
  O  O2118  1  0.692000  0.820800  0.523860  1.0  -0.6725
  O  O2119  1  0.756130  0.804790  0.409060  1.0  -0.5541
  O  O2120  1  0.760260  0.842390  0.384920  1.0  -0.4397
  O  O2121  1  0.224330  0.353990  0.938350  1.0  -0.8611
  O  O2122  1  0.165620  0.359280  0.993060  1.0  -0.6477
  O  O2123  1  0.198040  0.318370  0.967820  1.0  -0.6898
  O  O2124  1  0.193590  0.395580  0.963630  1.0  -0.8263
  O  O2125  1  0.247250  0.308770  0.024880  1.0  -0.7576
  O  O2126  1  0.192000  0.320800  0.023860  1.0  -0.6725
  O  O2127  1  0.256130  0.304790  0.909060  1.0  -0.5541
  O  O2128  1  0.260260  0.342390  0.884920  1.0  -0.4397
  O  O2129  1  0.775670  0.146010  0.938350  1.0  -0.8605
  O  O2130  1  0.834380  0.140720  0.993060  1.0  -0.6478
  O  O2131  1  0.801960  0.181630  0.967820  1.0  -0.6906
  O  O2132  1  0.806410  0.104420  0.963630  1.0  -0.8262
  O  O2133  1  0.752750  0.191230  0.024880  1.0  -0.7567
  O  O2134  1  0.808000  0.179200  0.023860  1.0  -0.6718
  O  O2135  1  0.743870  0.195210  0.909060  1.0  -0.5553
  O  O2136  1  0.739740  0.157610  0.884920  1.0  -0.439
  O  O2137  1  0.275670  0.646010  0.438350  1.0  -0.8605
  O  O2138  1  0.334380  0.640720  0.493060  1.0  -0.6478
  O  O2139  1  0.301960  0.681630  0.467820  1.0  -0.6906
  O  O2140  1  0.306410  0.604420  0.463630  1.0  -0.8262
  O  O2141  1  0.252750  0.691230  0.524880  1.0  -0.7567
  O  O2142  1  0.308000  0.679200  0.523860  1.0  -0.6718
  O  O2143  1  0.243870  0.695210  0.409060  1.0  -0.5553
  O  O2144  1  0.239740  0.657610  0.384920  1.0  -0.439
  O  O2145  1  0.224330  0.646010  0.561650  1.0  -0.8595
  O  O2146  1  0.165620  0.640720  0.506940  1.0  -0.648
  O  O2147  1  0.198040  0.681630  0.532180  1.0  -0.6911
  O  O2148  1  0.193590  0.604420  0.536370  1.0  -0.8245
  O  O2149  1  0.247250  0.691230  0.475120  1.0  -0.7572
  O  O2150  1  0.192000  0.679200  0.476140  1.0  -0.674
  O  O2151  1  0.256130  0.695210  0.590940  1.0  -0.5538
  O  O2152  1  0.260260  0.657610  0.615080  1.0  -0.4358
  O  O2153  1  0.724330  0.146010  0.061650  1.0  -0.8595
  O  O2154  1  0.665620  0.140720  0.006940  1.0  -0.648
  O  O2155  1  0.698040  0.181630  0.032180  1.0  -0.6911
  O  O2156  1  0.693590  0.104420  0.036370  1.0  -0.8245
  O  O2157  1  0.747250  0.191230  0.975120  1.0  -0.7572
  O  O2158  1  0.692000  0.179200  0.976140  1.0  -0.674
  O  O2159  1  0.756130  0.195210  0.090940  1.0  -0.5538
  O  O2160  1  0.760260  0.157610  0.115080  1.0  -0.4358
  O  O2161  1  0.275670  0.353990  0.061650  1.0  -0.859
  O  O2162  1  0.334380  0.359280  0.006940  1.0  -0.648
  O  O2163  1  0.301960  0.318370  0.032180  1.0  -0.6904
  O  O2164  1  0.306410  0.395580  0.036370  1.0  -0.825
  O  O2165  1  0.252750  0.308770  0.975120  1.0  -0.7577
  O  O2166  1  0.308000  0.320800  0.976140  1.0  -0.6718
  O  O2167  1  0.243870  0.304790  0.090940  1.0  -0.5532
  O  O2168  1  0.239740  0.342390  0.115080  1.0  -0.4384
  O  O2169  1  0.775670  0.853990  0.561650  1.0  -0.859
  O  O2170  1  0.834380  0.859280  0.506940  1.0  -0.648
  O  O2171  1  0.801960  0.818370  0.532180  1.0  -0.6904
  O  O2172  1  0.806410  0.895580  0.536370  1.0  -0.825
  O  O2173  1  0.752750  0.808770  0.475120  1.0  -0.7577
  O  O2174  1  0.808000  0.820800  0.476140  1.0  -0.6718
  O  O2175  1  0.743870  0.804790  0.590940  1.0  -0.5532
  O  O2176  1  0.739740  0.842390  0.615080  1.0  -0.4384
  O  O2177  1  0.353990  0.061650  0.275670  1.0  -0.8581
  O  O2178  1  0.359280  0.006940  0.334380  1.0  -0.6485
  O  O2179  1  0.318370  0.032180  0.301960  1.0  -0.6902
  O  O2180  1  0.395580  0.036370  0.306410  1.0  -0.824
  O  O2181  1  0.308770  0.975120  0.252750  1.0  -0.7594
  O  O2182  1  0.320800  0.976140  0.308000  1.0  -0.6725
  O  O2183  1  0.304790  0.090940  0.243870  1.0  -0.5544
  O  O2184  1  0.342390  0.115080  0.239740  1.0  -0.4464
  O  O2185  1  0.853990  0.561650  0.775670  1.0  -0.8581
  O  O2186  1  0.859280  0.506940  0.834380  1.0  -0.6485
  O  O2187  1  0.818370  0.532180  0.801960  1.0  -0.6902
  O  O2188  1  0.895580  0.536370  0.806410  1.0  -0.824
  O  O2189  1  0.808770  0.475120  0.752750  1.0  -0.7594
  O  O2190  1  0.820800  0.476140  0.808000  1.0  -0.6725
  O  O2191  1  0.804790  0.590940  0.743870  1.0  -0.5544
  O  O2192  1  0.842390  0.615080  0.739740  1.0  -0.4464
  O  O2193  1  0.646010  0.561650  0.224330  1.0  -0.8582
  O  O2194  1  0.640720  0.506940  0.165620  1.0  -0.6477
  O  O2195  1  0.681630  0.532180  0.198040  1.0  -0.6884
  O  O2196  1  0.604420  0.536370  0.193590  1.0  -0.8246
  O  O2197  1  0.691230  0.475120  0.247250  1.0  -0.7597
  O  O2198  1  0.679200  0.476140  0.192000  1.0  -0.6705
  O  O2199  1  0.695210  0.590940  0.256130  1.0  -0.5547
  O  O2200  1  0.657610  0.615080  0.260260  1.0  -0.446
  O  O2201  1  0.146010  0.061650  0.724330  1.0  -0.8582
  O  O2202  1  0.140720  0.006940  0.665620  1.0  -0.6477
  O  O2203  1  0.181630  0.032180  0.698040  1.0  -0.6884
  O  O2204  1  0.104420  0.036370  0.693590  1.0  -0.8246
  O  O2205  1  0.191230  0.975120  0.747250  1.0  -0.7597
  O  O2206  1  0.179200  0.976140  0.692000  1.0  -0.6705
  O  O2207  1  0.195210  0.090940  0.756130  1.0  -0.5547
  O  O2208  1  0.157610  0.115080  0.760260  1.0  -0.446
  O  O2209  1  0.146010  0.938350  0.775670  1.0  -0.8581
  O  O2210  1  0.140720  0.993060  0.834380  1.0  -0.6484
  O  O2211  1  0.181630  0.967820  0.801960  1.0  -0.6916
  O  O2212  1  0.104420  0.963630  0.806410  1.0  -0.8245
  O  O2213  1  0.191230  0.024880  0.752750  1.0  -0.7595
  O  O2214  1  0.179200  0.023860  0.808000  1.0  -0.6727
  O  O2215  1  0.195210  0.909060  0.743870  1.0  -0.556
  O  O2216  1  0.157610  0.884920  0.739740  1.0  -0.446
  O  O2217  1  0.646010  0.438350  0.275670  1.0  -0.8581
  O  O2218  1  0.640720  0.493060  0.334380  1.0  -0.6484
  O  O2219  1  0.681630  0.467820  0.301960  1.0  -0.6916
  O  O2220  1  0.604420  0.463630  0.306410  1.0  -0.8245
  O  O2221  1  0.691230  0.524880  0.252750  1.0  -0.7595
  O  O2222  1  0.679200  0.523860  0.308000  1.0  -0.6727
  O  O2223  1  0.695210  0.409060  0.243870  1.0  -0.556
  O  O2224  1  0.657610  0.384920  0.239740  1.0  -0.446
  O  O2225  1  0.853990  0.438350  0.724330  1.0  -0.8592
  O  O2226  1  0.859280  0.493060  0.665620  1.0  -0.6477
  O  O2227  1  0.818370  0.467820  0.698040  1.0  -0.6897
  O  O2228  1  0.895580  0.463630  0.693590  1.0  -0.8257
  O  O2229  1  0.808770  0.524880  0.747250  1.0  -0.7598
  O  O2230  1  0.820800  0.523860  0.692000  1.0  -0.6726
  O  O2231  1  0.804790  0.409060  0.756130  1.0  -0.5549
  O  O2232  1  0.842390  0.384920  0.760260  1.0  -0.4472
  O  O2233  1  0.353990  0.938350  0.224330  1.0  -0.8592
  O  O2234  1  0.359280  0.993060  0.165620  1.0  -0.6477
  O  O2235  1  0.318370  0.967820  0.198040  1.0  -0.6897
  O  O2236  1  0.395580  0.963630  0.193590  1.0  -0.8257
  O  O2237  1  0.308770  0.024880  0.247250  1.0  -0.7598
  O  O2238  1  0.320800  0.023860  0.192000  1.0  -0.6726
  O  O2239  1  0.304790  0.909060  0.256130  1.0  -0.5549
  O  O2240  1  0.342390  0.884920  0.260260  1.0  -0.4472
  O  O2241  1  0.561650  0.224330  0.646010  1.0  -0.8605
  O  O2242  1  0.506940  0.165620  0.640720  1.0  -0.6473
  O  O2243  1  0.532180  0.198040  0.681630  1.0  -0.6906
  O  O2244  1  0.536370  0.193590  0.604420  1.0  -0.826
  O  O2245  1  0.475120  0.247250  0.691230  1.0  -0.7599
  O  O2246  1  0.476140  0.192000  0.679200  1.0  -0.6752
  O  O2247  1  0.590940  0.256130  0.695210  1.0  -0.5544
  O  O2248  1  0.615080  0.260260  0.657610  1.0  -0.4404
  O  O2249  1  0.061650  0.724330  0.146010  1.0  -0.8605
  O  O2250  1  0.006940  0.665620  0.140720  1.0  -0.6473
  O  O2251  1  0.032180  0.698040  0.181630  1.0  -0.6906
  O  O2252  1  0.036370  0.693590  0.104420  1.0  -0.826
  O  O2253  1  0.975120  0.747250  0.191230  1.0  -0.7599
  O  O2254  1  0.976140  0.692000  0.179200  1.0  -0.6752
  O  O2255  1  0.090940  0.756130  0.195210  1.0  -0.5544
  O  O2256  1  0.115080  0.760260  0.157610  1.0  -0.4404
  O  O2257  1  0.061650  0.275670  0.353990  1.0  -0.8594
  O  O2258  1  0.006940  0.334380  0.359280  1.0  -0.647
  O  O2259  1  0.032180  0.301960  0.318370  1.0  -0.6897
  O  O2260  1  0.036370  0.306410  0.395580  1.0  -0.8254
  O  O2261  1  0.975120  0.252750  0.308770  1.0  -0.759
  O  O2262  1  0.976140  0.308000  0.320800  1.0  -0.6762
  O  O2263  1  0.090940  0.243870  0.304790  1.0  -0.5551
  O  O2264  1  0.115080  0.239740  0.342390  1.0  -0.4399
  O  O2265  1  0.561650  0.775670  0.853990  1.0  -0.8594
  O  O2266  1  0.506940  0.834380  0.859280  1.0  -0.647
  O  O2267  1  0.532180  0.801960  0.818370  1.0  -0.6897
  O  O2268  1  0.536370  0.806410  0.895580  1.0  -0.8254
  O  O2269  1  0.475120  0.752750  0.808770  1.0  -0.759
  O  O2270  1  0.476140  0.808000  0.820800  1.0  -0.6762
  O  O2271  1  0.590940  0.743870  0.804790  1.0  -0.5551
  O  O2272  1  0.615080  0.739740  0.842390  1.0  -0.4399
  O  O2273  1  0.438350  0.724330  0.853990  1.0  -0.8594
  O  O2274  1  0.493060  0.665620  0.859280  1.0  -0.6464
  O  O2275  1  0.467820  0.698040  0.818370  1.0  -0.6886
  O  O2276  1  0.463630  0.693590  0.895580  1.0  -0.8267
  O  O2277  1  0.524880  0.747250  0.808770  1.0  -0.7587
  O  O2278  1  0.523860  0.692000  0.820800  1.0  -0.6728
  O  O2279  1  0.409060  0.756130  0.804790  1.0  -0.5549
  O  O2280  1  0.384920  0.760260  0.842390  1.0  -0.4404
  O  O2281  1  0.938350  0.224330  0.353990  1.0  -0.8594
  O  O2282  1  0.993060  0.165620  0.359280  1.0  -0.6464
  O  O2283  1  0.967820  0.198040  0.318370  1.0  -0.6886
  O  O2284  1  0.963630  0.193590  0.395580  1.0  -0.8267
  O  O2285  1  0.024880  0.247250  0.308770  1.0  -0.7587
  O  O2286  1  0.023860  0.192000  0.320800  1.0  -0.6728
  O  O2287  1  0.909060  0.256130  0.304790  1.0  -0.5549
  O  O2288  1  0.884920  0.260260  0.342390  1.0  -0.4404
  O  O2289  1  0.938350  0.775670  0.146010  1.0  -0.8598
  O  O2290  1  0.993060  0.834380  0.140720  1.0  -0.6477
  O  O2291  1  0.967820  0.801960  0.181630  1.0  -0.6906
  O  O2292  1  0.963630  0.806410  0.104420  1.0  -0.8251
  O  O2293  1  0.024880  0.752750  0.191230  1.0  -0.7594
  O  O2294  1  0.023860  0.808000  0.179200  1.0  -0.6735
  O  O2295  1  0.909060  0.743870  0.195210  1.0  -0.554
  O  O2296  1  0.884920  0.739740  0.157610  1.0  -0.4405
  O  O2297  1  0.438350  0.275670  0.646010  1.0  -0.8598
  O  O2298  1  0.493060  0.334380  0.640720  1.0  -0.6477
  O  O2299  1  0.467820  0.301960  0.681630  1.0  -0.6906
  O  O2300  1  0.463630  0.306410  0.604420  1.0  -0.8251
  O  O2301  1  0.524880  0.252750  0.691230  1.0  -0.7594
  O  O2302  1  0.523860  0.308000  0.679200  1.0  -0.6735
  O  O2303  1  0.409060  0.243870  0.695210  1.0  -0.554
  O  O2304  1  0.384920  0.239740  0.657610  1.0  -0.4405
  O  O2305  1  0.396010  0.025670  0.188350  1.0  -0.8579
  O  O2306  1  0.390720  0.084380  0.243060  1.0  -0.6472
  O  O2307  1  0.431630  0.051960  0.217820  1.0  -0.69
  O  O2308  1  0.354420  0.056410  0.213630  1.0  -0.8254
  O  O2309  1  0.441230  0.002750  0.274880  1.0  -0.7593
  O  O2310  1  0.429200  0.058000  0.273860  1.0  -0.6729
  O  O2311  1  0.445210  0.993870  0.159060  1.0  -0.5558
  O  O2312  1  0.407610  0.989740  0.134920  1.0  -0.447
  O  O2313  1  0.896010  0.525670  0.688350  1.0  -0.8579
  O  O2314  1  0.890720  0.584380  0.743060  1.0  -0.6472
  O  O2315  1  0.931630  0.551960  0.717820  1.0  -0.69
  O  O2316  1  0.854420  0.556410  0.713630  1.0  -0.8254
  O  O2317  1  0.941230  0.502750  0.774880  1.0  -0.7593
  O  O2318  1  0.929200  0.558000  0.773860  1.0  -0.6729
  O  O2319  1  0.945210  0.493870  0.659060  1.0  -0.5558
  O  O2320  1  0.907610  0.489740  0.634920  1.0  -0.447
  O  O2321  1  0.103990  0.974330  0.688350  1.0  -0.859
  O  O2322  1  0.109280  0.915620  0.743060  1.0  -0.6467
  O  O2323  1  0.068370  0.948040  0.717820  1.0  -0.6908
  O  O2324  1  0.145580  0.943590  0.713630  1.0  -0.8268
  O  O2325  1  0.058770  0.997250  0.774880  1.0  -0.7594
  O  O2326  1  0.070800  0.942000  0.773860  1.0  -0.6731
  O  O2327  1  0.054790  0.006130  0.659060  1.0  -0.5553
  O  O2328  1  0.092390  0.010260  0.634920  1.0  -0.4477
  O  O2329  1  0.603990  0.474330  0.188350  1.0  -0.859
  O  O2330  1  0.609280  0.415620  0.243060  1.0  -0.6467
  O  O2331  1  0.568370  0.448040  0.217820  1.0  -0.6908
  O  O2332  1  0.645580  0.443590  0.213630  1.0  -0.8268
  O  O2333  1  0.558770  0.497250  0.274880  1.0  -0.7594
  O  O2334  1  0.570800  0.442000  0.273860  1.0  -0.6731
  O  O2335  1  0.554790  0.506130  0.159060  1.0  -0.5553
  O  O2336  1  0.592390  0.510260  0.134920  1.0  -0.4477
  O  O2337  1  0.603990  0.525670  0.311650  1.0  -0.8571
  O  O2338  1  0.609280  0.584380  0.256940  1.0  -0.6473
  O  O2339  1  0.568370  0.551960  0.282180  1.0  -0.6909
  O  O2340  1  0.645580  0.556410  0.286370  1.0  -0.8243
  O  O2341  1  0.558770  0.502750  0.225120  1.0  -0.7597
  O  O2342  1  0.570800  0.558000  0.226140  1.0  -0.6747
  O  O2343  1  0.554790  0.493870  0.340940  1.0  -0.5539
  O  O2344  1  0.592390  0.489740  0.365080  1.0  -0.4467
  O  O2345  1  0.103990  0.025670  0.811650  1.0  -0.8571
  O  O2346  1  0.109280  0.084380  0.756940  1.0  -0.6473
  O  O2347  1  0.068370  0.051960  0.782180  1.0  -0.6909
  O  O2348  1  0.145580  0.056410  0.786370  1.0  -0.8243
  O  O2349  1  0.058770  0.002750  0.725120  1.0  -0.7597
  O  O2350  1  0.070800  0.058000  0.726140  1.0  -0.6747
  O  O2351  1  0.054790  0.993870  0.840940  1.0  -0.5539
  O  O2352  1  0.092390  0.989740  0.865080  1.0  -0.4467
  O  O2353  1  0.896010  0.474330  0.811650  1.0  -0.8573
  O  O2354  1  0.890720  0.415620  0.756940  1.0  -0.6466
  O  O2355  1  0.931630  0.448040  0.782180  1.0  -0.6915
  O  O2356  1  0.854420  0.443590  0.786370  1.0  -0.8251
  O  O2357  1  0.941230  0.497250  0.725120  1.0  -0.7594
  O  O2358  1  0.929200  0.442000  0.726140  1.0  -0.672
  O  O2359  1  0.945210  0.506130  0.840940  1.0  -0.555
  O  O2360  1  0.907610  0.510260  0.865080  1.0  -0.4459
  O  O2361  1  0.396010  0.974330  0.311650  1.0  -0.8573
  O  O2362  1  0.390720  0.915620  0.256940  1.0  -0.6466
  O  O2363  1  0.431630  0.948040  0.282180  1.0  -0.6915
  O  O2364  1  0.354420  0.943590  0.286370  1.0  -0.8251
  O  O2365  1  0.441230  0.997250  0.225120  1.0  -0.7594
  O  O2366  1  0.429200  0.942000  0.226140  1.0  -0.672
  O  O2367  1  0.445210  0.006130  0.340940  1.0  -0.555
  O  O2368  1  0.407610  0.010260  0.365080  1.0  -0.4459
  O  O2369  1  0.188350  0.396010  0.025670  1.0  -0.8589
  O  O2370  1  0.243060  0.390720  0.084380  1.0  -0.6483
  O  O2371  1  0.217820  0.431630  0.051960  1.0  -0.6913
  O  O2372  1  0.213630  0.354420  0.056410  1.0  -0.8248
  O  O2373  1  0.274880  0.441230  0.002750  1.0  -0.7566
  O  O2374  1  0.273860  0.429200  0.058000  1.0  -0.6732
  O  O2375  1  0.159060  0.445210  0.993870  1.0  -0.5555
  O  O2376  1  0.134920  0.407610  0.989740  1.0  -0.4392
  O  O2377  1  0.688350  0.896010  0.525670  1.0  -0.8589
  O  O2378  1  0.743060  0.890720  0.584380  1.0  -0.6483
  O  O2379  1  0.717820  0.931630  0.551960  1.0  -0.6913
  O  O2380  1  0.713630  0.854420  0.556410  1.0  -0.8248
  O  O2381  1  0.774880  0.941230  0.502750  1.0  -0.7566
  O  O2382  1  0.773860  0.929200  0.558000  1.0  -0.6732
  O  O2383  1  0.659060  0.945210  0.493870  1.0  -0.5555
  O  O2384  1  0.634920  0.907610  0.489740  1.0  -0.4392
  O  O2385  1  0.688350  0.103990  0.974330  1.0  -0.8597
  O  O2386  1  0.743060  0.109280  0.915620  1.0  -0.648
  O  O2387  1  0.717820  0.068370  0.948040  1.0  -0.6876
  O  O2388  1  0.713630  0.145580  0.943590  1.0  -0.8257
  O  O2389  1  0.774880  0.058770  0.997250  1.0  -0.7578
  O  O2390  1  0.773860  0.070800  0.942000  1.0  -0.6713
  O  O2391  1  0.659060  0.054790  0.006130  1.0  -0.5543
  O  O2392  1  0.634920  0.092390  0.010260  1.0  -0.4406
  O  O2393  1  0.188350  0.603990  0.474330  1.0  -0.8597
  O  O2394  1  0.243060  0.609280  0.415620  1.0  -0.648
  O  O2395  1  0.217820  0.568370  0.448040  1.0  -0.6876
  O  O2396  1  0.213630  0.645580  0.443590  1.0  -0.8257
  O  O2397  1  0.274880  0.558770  0.497250  1.0  -0.7578
  O  O2398  1  0.273860  0.570800  0.442000  1.0  -0.6713
  O  O2399  1  0.159060  0.554790  0.506130  1.0  -0.5543
  O  O2400  1  0.134920  0.592390  0.510260  1.0  -0.4406
  O  O2401  1  0.311650  0.603990  0.525670  1.0  -0.8594
  O  O2402  1  0.256940  0.609280  0.584380  1.0  -0.6494
  O  O2403  1  0.282180  0.568370  0.551960  1.0  -0.6897
  O  O2404  1  0.286370  0.645580  0.556410  1.0  -0.8248
  O  O2405  1  0.225120  0.558770  0.502750  1.0  -0.7578
  O  O2406  1  0.226140  0.570800  0.558000  1.0  -0.6747
  O  O2407  1  0.340940  0.554790  0.493870  1.0  -0.5543
  O  O2408  1  0.365080  0.592390  0.489740  1.0  -0.4403
  O  O2409  1  0.811650  0.103990  0.025670  1.0  -0.8594
  O  O2410  1  0.756940  0.109280  0.084380  1.0  -0.6494
  O  O2411  1  0.782180  0.068370  0.051960  1.0  -0.6897
  O  O2412  1  0.786370  0.145580  0.056410  1.0  -0.8248
  O  O2413  1  0.725120  0.058770  0.002750  1.0  -0.7578
  O  O2414  1  0.726140  0.070800  0.058000  1.0  -0.6747
  O  O2415  1  0.840940  0.054790  0.993870  1.0  -0.5543
  O  O2416  1  0.865080  0.092390  0.989740  1.0  -0.4403
  O  O2417  1  0.811650  0.896010  0.474330  1.0  -0.8595
  O  O2418  1  0.756940  0.890720  0.415620  1.0  -0.6487
  O  O2419  1  0.782180  0.931630  0.448040  1.0  -0.6899
  O  O2420  1  0.786370  0.854420  0.443590  1.0  -0.8256
  O  O2421  1  0.725120  0.941230  0.497250  1.0  -0.7572
  O  O2422  1  0.726140  0.929200  0.442000  1.0  -0.6745
  O  O2423  1  0.840940  0.945210  0.506130  1.0  -0.5548
  O  O2424  1  0.865080  0.907610  0.510260  1.0  -0.4395
  O  O2425  1  0.311650  0.396010  0.974330  1.0  -0.8595
  O  O2426  1  0.256940  0.390720  0.915620  1.0  -0.6487
  O  O2427  1  0.282180  0.431630  0.948040  1.0  -0.6899
  O  O2428  1  0.286370  0.354420  0.943590  1.0  -0.8256
  O  O2429  1  0.225120  0.441230  0.997250  1.0  -0.7572
  O  O2430  1  0.226140  0.429200  0.942000  1.0  -0.6745
  O  O2431  1  0.340940  0.445210  0.006130  1.0  -0.5548
  O  O2432  1  0.365080  0.407610  0.010260  1.0  -0.4395
  O  O2433  1  0.025670  0.188350  0.396010  1.0  -0.8611
  O  O2434  1  0.084380  0.243060  0.390720  1.0  -0.6484
  O  O2435  1  0.051960  0.217820  0.431630  1.0  -0.691
  O  O2436  1  0.056410  0.213630  0.354420  1.0  -0.8253
  O  O2437  1  0.002750  0.274880  0.441230  1.0  -0.7601
  O  O2438  1  0.058000  0.273860  0.429200  1.0  -0.6722
  O  O2439  1  0.993870  0.159060  0.445210  1.0  -0.5547
  O  O2440  1  0.989740  0.134920  0.407610  1.0  -0.4389
  O  O2441  1  0.525670  0.688350  0.896010  1.0  -0.8611
  O  O2442  1  0.584380  0.743060  0.890720  1.0  -0.6484
  O  O2443  1  0.551960  0.717820  0.931630  1.0  -0.691
  O  O2444  1  0.556410  0.713630  0.854420  1.0  -0.8253
  O  O2445  1  0.502750  0.774880  0.941230  1.0  -0.7601
  O  O2446  1  0.558000  0.773860  0.929200  1.0  -0.6722
  O  O2447  1  0.493870  0.659060  0.945210  1.0  -0.5547
  O  O2448  1  0.489740  0.634920  0.907610  1.0  -0.4389
  O  O2449  1  0.974330  0.688350  0.103990  1.0  -0.861
  O  O2450  1  0.915620  0.743060  0.109280  1.0  -0.6476
  O  O2451  1  0.948040  0.717820  0.068370  1.0  -0.6902
  O  O2452  1  0.943590  0.713630  0.145580  1.0  -0.8256
  O  O2453  1  0.997250  0.774880  0.058770  1.0  -0.7592
  O  O2454  1  0.942000  0.773860  0.070800  1.0  -0.6734
  O  O2455  1  0.006130  0.659060  0.054790  1.0  -0.5553
  O  O2456  1  0.010260  0.634920  0.092390  1.0  -0.4387
  O  O2457  1  0.474330  0.188350  0.603990  1.0  -0.861
  O  O2458  1  0.415620  0.243060  0.609280  1.0  -0.6476
  O  O2459  1  0.448040  0.217820  0.568370  1.0  -0.6902
  O  O2460  1  0.443590  0.213630  0.645580  1.0  -0.8256
  O  O2461  1  0.497250  0.274880  0.558770  1.0  -0.7592
  O  O2462  1  0.442000  0.273860  0.570800  1.0  -0.6734
  O  O2463  1  0.506130  0.159060  0.554790  1.0  -0.5553
  O  O2464  1  0.510260  0.134920  0.592390  1.0  -0.4387
  O  O2465  1  0.525670  0.311650  0.603990  1.0  -0.8603
  O  O2466  1  0.584380  0.256940  0.609280  1.0  -0.6475
  O  O2467  1  0.551960  0.282180  0.568370  1.0  -0.6887
  O  O2468  1  0.556410  0.286370  0.645580  1.0  -0.8256
  O  O2469  1  0.502750  0.225120  0.558770  1.0  -0.7588
  O  O2470  1  0.558000  0.226140  0.570800  1.0  -0.6712
  O  O2471  1  0.493870  0.340940  0.554790  1.0  -0.553
  O  O2472  1  0.489740  0.365080  0.592390  1.0  -0.4389
  O  O2473  1  0.025670  0.811650  0.103990  1.0  -0.8603
  O  O2474  1  0.084380  0.756940  0.109280  1.0  -0.6475
  O  O2475  1  0.051960  0.782180  0.068370  1.0  -0.6887
  O  O2476  1  0.056410  0.786370  0.145580  1.0  -0.8256
  O  O2477  1  0.002750  0.725120  0.058770  1.0  -0.7588
  O  O2478  1  0.058000  0.726140  0.070800  1.0  -0.6712
  O  O2479  1  0.993870  0.840940  0.054790  1.0  -0.553
  O  O2480  1  0.989740  0.865080  0.092390  1.0  -0.4389
  O  O2481  1  0.474330  0.811650  0.896010  1.0  -0.8613
  O  O2482  1  0.415620  0.756940  0.890720  1.0  -0.6474
  O  O2483  1  0.448040  0.782180  0.931630  1.0  -0.6901
  O  O2484  1  0.443590  0.786370  0.854420  1.0  -0.8247
  O  O2485  1  0.497250  0.725120  0.941230  1.0  -0.7601
  O  O2486  1  0.442000  0.726140  0.929200  1.0  -0.672
  O  O2487  1  0.506130  0.840940  0.945210  1.0  -0.5527
  O  O2488  1  0.510260  0.865080  0.907610  1.0  -0.4389
  O  O2489  1  0.974330  0.311650  0.396010  1.0  -0.8613
  O  O2490  1  0.915620  0.256940  0.390720  1.0  -0.6474
  O  O2491  1  0.948040  0.282180  0.431630  1.0  -0.6901
  O  O2492  1  0.943590  0.286370  0.354420  1.0  -0.8247
  O  O2493  1  0.997250  0.225120  0.441230  1.0  -0.7601
  O  O2494  1  0.942000  0.226140  0.429200  1.0  -0.672
  O  O2495  1  0.006130  0.340940  0.445210  1.0  -0.5527
  O  O2496  1  0.010260  0.365080  0.407610  1.0  -0.4389
