# generated using pymatgen
data_Nd2Ge3(C3O4)3
_symmetry_space_group_name_H-M   'P 1'
_cell_length_a   34.18370000
_cell_length_b   34.18370000
_cell_length_c   34.18370000
_cell_angle_alpha   90.00000000
_cell_angle_beta   90.00000000
_cell_angle_gamma   90.00000000
_symmetry_Int_Tables_number   1
_chemical_formula_structural   Nd2Ge3(C3O4)3
_chemical_formula_sum   'Nd128 Ge192 C576 O768'
_cell_volume   39944.51985946
_cell_formula_units_Z   64
loop_
 _symmetry_equiv_pos_site_id
 _symmetry_equiv_pos_as_xyz
  1  'x, y, z'
loop_
 _atom_site_type_symbol
 _atom_site_label
 _atom_site_symmetry_multiplicity
 _atom_site_fract_x
 _atom_site_fract_y
 _atom_site_fract_z
 _atom_site_occupancy
 _atom_site_charge
  Nd  Nd1  1  0.630510  0.542540  0.701560  1.0  2.2225
  Nd  Nd2  1  0.547600  0.619300  0.707660  1.0  2.1917
  Nd  Nd3  1  0.130510  0.042540  0.201560  1.0  2.2225
  Nd  Nd4  1  0.047600  0.119300  0.207660  1.0  2.1917
  Nd  Nd5  1  0.869490  0.457460  0.201560  1.0  2.2224
  Nd  Nd6  1  0.952400  0.380700  0.207660  1.0  2.1921
  Nd  Nd7  1  0.369490  0.957460  0.701560  1.0  2.2224
  Nd  Nd8  1  0.452400  0.880700  0.707660  1.0  2.1921
  Nd  Nd9  1  0.369490  0.042540  0.798440  1.0  2.2321
  Nd  Nd10  1  0.452400  0.119300  0.792340  1.0  2.1887
  Nd  Nd11  1  0.869490  0.542540  0.298440  1.0  2.2321
  Nd  Nd12  1  0.952400  0.619300  0.292340  1.0  2.1887
  Nd  Nd13  1  0.130510  0.957460  0.298440  1.0  2.2319
  Nd  Nd14  1  0.047600  0.880700  0.292340  1.0  2.1887
  Nd  Nd15  1  0.630510  0.457460  0.798440  1.0  2.2319
  Nd  Nd16  1  0.547600  0.380700  0.792340  1.0  2.1887
  Nd  Nd17  1  0.701560  0.630510  0.542540  1.0  2.2224
  Nd  Nd18  1  0.707660  0.547600  0.619300  1.0  2.1917
  Nd  Nd19  1  0.201560  0.130510  0.042540  1.0  2.2224
  Nd  Nd20  1  0.207660  0.047600  0.119300  1.0  2.1917
  Nd  Nd21  1  0.201560  0.869490  0.457460  1.0  2.2223
  Nd  Nd22  1  0.207660  0.952400  0.380700  1.0  2.1913
  Nd  Nd23  1  0.701560  0.369490  0.957460  1.0  2.2223
  Nd  Nd24  1  0.707660  0.452400  0.880700  1.0  2.1913
  Nd  Nd25  1  0.798440  0.369490  0.042540  1.0  2.2313
  Nd  Nd26  1  0.792340  0.452400  0.119300  1.0  2.191
  Nd  Nd27  1  0.298440  0.869490  0.542540  1.0  2.2313
  Nd  Nd28  1  0.292340  0.952400  0.619300  1.0  2.191
  Nd  Nd29  1  0.298440  0.130510  0.957460  1.0  2.2311
  Nd  Nd30  1  0.292340  0.047600  0.880700  1.0  2.1913
  Nd  Nd31  1  0.798440  0.630510  0.457460  1.0  2.2311
  Nd  Nd32  1  0.792340  0.547600  0.380700  1.0  2.1913
  Nd  Nd33  1  0.542540  0.701560  0.630510  1.0  2.2229
  Nd  Nd34  1  0.619300  0.707660  0.547600  1.0  2.1877
  Nd  Nd35  1  0.042540  0.201560  0.130510  1.0  2.2229
  Nd  Nd36  1  0.119300  0.207660  0.047600  1.0  2.1877
  Nd  Nd37  1  0.457460  0.201560  0.869490  1.0  2.2229
  Nd  Nd38  1  0.380700  0.207660  0.952400  1.0  2.1915
  Nd  Nd39  1  0.957460  0.701560  0.369490  1.0  2.2229
  Nd  Nd40  1  0.880700  0.707660  0.452400  1.0  2.1915
  Nd  Nd41  1  0.042540  0.798440  0.369490  1.0  2.232
  Nd  Nd42  1  0.119300  0.792340  0.452400  1.0  2.1916
  Nd  Nd43  1  0.542540  0.298440  0.869490  1.0  2.232
  Nd  Nd44  1  0.619300  0.292340  0.952400  1.0  2.1916
  Nd  Nd45  1  0.957460  0.298440  0.130510  1.0  2.2317
  Nd  Nd46  1  0.880700  0.292340  0.047600  1.0  2.1878
  Nd  Nd47  1  0.457460  0.798440  0.630510  1.0  2.2317
  Nd  Nd48  1  0.380700  0.792340  0.547600  1.0  2.1878
  Nd  Nd49  1  0.698850  0.698850  0.698850  1.0  2.0916
  Nd  Nd50  1  0.549880  0.549880  0.549880  1.0  1.9475
  Nd  Nd51  1  0.198850  0.198850  0.198850  1.0  2.0916
  Nd  Nd52  1  0.049880  0.049880  0.049880  1.0  1.9475
  Nd  Nd53  1  0.801150  0.301150  0.198850  1.0  2.0925
  Nd  Nd54  1  0.950120  0.450120  0.049880  1.0  1.947
  Nd  Nd55  1  0.301150  0.801150  0.698850  1.0  2.0925
  Nd  Nd56  1  0.450120  0.950120  0.549880  1.0  1.947
  Nd  Nd57  1  0.301150  0.198850  0.801150  1.0  2.088
  Nd  Nd58  1  0.450120  0.049880  0.950120  1.0  1.9495
  Nd  Nd59  1  0.801150  0.698850  0.301150  1.0  2.088
  Nd  Nd60  1  0.950120  0.549880  0.450120  1.0  1.9495
  Nd  Nd61  1  0.198850  0.801150  0.301150  1.0  2.0883
  Nd  Nd62  1  0.049880  0.950120  0.450120  1.0  1.946
  Nd  Nd63  1  0.698850  0.301150  0.801150  1.0  2.0883
  Nd  Nd64  1  0.549880  0.450120  0.950120  1.0  1.946
  Nd  Nd65  1  0.369490  0.457460  0.298440  1.0  2.2224
  Nd  Nd66  1  0.452400  0.380700  0.292340  1.0  2.1889
  Nd  Nd67  1  0.869490  0.957460  0.798440  1.0  2.2224
  Nd  Nd68  1  0.952400  0.880700  0.792340  1.0  2.1889
  Nd  Nd69  1  0.130510  0.542540  0.798440  1.0  2.2226
  Nd  Nd70  1  0.047600  0.619300  0.792340  1.0  2.1884
  Nd  Nd71  1  0.630510  0.042540  0.298440  1.0  2.2226
  Nd  Nd72  1  0.547600  0.119300  0.292340  1.0  2.1884
  Nd  Nd73  1  0.630510  0.957460  0.201560  1.0  2.2319
  Nd  Nd74  1  0.547600  0.880700  0.207660  1.0  2.1919
  Nd  Nd75  1  0.130510  0.457460  0.701560  1.0  2.2319
  Nd  Nd76  1  0.047600  0.380700  0.707660  1.0  2.1919
  Nd  Nd77  1  0.869490  0.042540  0.701560  1.0  2.2321
  Nd  Nd78  1  0.952400  0.119300  0.707660  1.0  2.1919
  Nd  Nd79  1  0.369490  0.542540  0.201560  1.0  2.2321
  Nd  Nd80  1  0.452400  0.619300  0.207660  1.0  2.1919
  Nd  Nd81  1  0.298440  0.369490  0.457460  1.0  2.222
  Nd  Nd82  1  0.292340  0.452400  0.380700  1.0  2.1911
  Nd  Nd83  1  0.798440  0.869490  0.957460  1.0  2.222
  Nd  Nd84  1  0.792340  0.952400  0.880700  1.0  2.1911
  Nd  Nd85  1  0.798440  0.130510  0.542540  1.0  2.222
  Nd  Nd86  1  0.792340  0.047600  0.619300  1.0  2.1912
  Nd  Nd87  1  0.298440  0.630510  0.042540  1.0  2.222
  Nd  Nd88  1  0.292340  0.547600  0.119300  1.0  2.1912
  Nd  Nd89  1  0.201560  0.630510  0.957460  1.0  2.2315
  Nd  Nd90  1  0.207660  0.547600  0.880700  1.0  2.1916
  Nd  Nd91  1  0.701560  0.130510  0.457460  1.0  2.2315
  Nd  Nd92  1  0.707660  0.047600  0.380700  1.0  2.1916
  Nd  Nd93  1  0.701560  0.869490  0.042540  1.0  2.2317
  Nd  Nd94  1  0.707660  0.952400  0.119300  1.0  2.1914
  Nd  Nd95  1  0.201560  0.369490  0.542540  1.0  2.2317
  Nd  Nd96  1  0.207660  0.452400  0.619300  1.0  2.1914
  Nd  Nd97  1  0.457460  0.298440  0.369490  1.0  2.2224
  Nd  Nd98  1  0.380700  0.292340  0.452400  1.0  2.1917
  Nd  Nd99  1  0.957460  0.798440  0.869490  1.0  2.2224
  Nd  Nd100  1  0.880700  0.792340  0.952400  1.0  2.1917
  Nd  Nd101  1  0.542540  0.798440  0.130510  1.0  2.2223
  Nd  Nd102  1  0.619300  0.792340  0.047600  1.0  2.1876
  Nd  Nd103  1  0.042540  0.298440  0.630510  1.0  2.2223
  Nd  Nd104  1  0.119300  0.292340  0.547600  1.0  2.1876
  Nd  Nd105  1  0.957460  0.201560  0.630510  1.0  2.2321
  Nd  Nd106  1  0.880700  0.207660  0.547600  1.0  2.1879
  Nd  Nd107  1  0.457460  0.701560  0.130510  1.0  2.2321
  Nd  Nd108  1  0.380700  0.707660  0.047600  1.0  2.1879
  Nd  Nd109  1  0.042540  0.701560  0.869490  1.0  2.2324
  Nd  Nd110  1  0.119300  0.707660  0.952400  1.0  2.1914
  Nd  Nd111  1  0.542540  0.201560  0.369490  1.0  2.2324
  Nd  Nd112  1  0.619300  0.207660  0.452400  1.0  2.1914
  Nd  Nd113  1  0.301150  0.301150  0.301150  1.0  2.0891
  Nd  Nd114  1  0.450120  0.450120  0.450120  1.0  1.9476
  Nd  Nd115  1  0.801150  0.801150  0.801150  1.0  2.0891
  Nd  Nd116  1  0.950120  0.950120  0.950120  1.0  1.9476
  Nd  Nd117  1  0.198850  0.698850  0.801150  1.0  2.0878
  Nd  Nd118  1  0.049880  0.549880  0.950120  1.0  1.948
  Nd  Nd119  1  0.698850  0.198850  0.301150  1.0  2.0878
  Nd  Nd120  1  0.549880  0.049880  0.450120  1.0  1.948
  Nd  Nd121  1  0.698850  0.801150  0.198850  1.0  2.092
  Nd  Nd122  1  0.549880  0.950120  0.049880  1.0  1.9457
  Nd  Nd123  1  0.198850  0.301150  0.698850  1.0  2.092
  Nd  Nd124  1  0.049880  0.450120  0.549880  1.0  1.9457
  Nd  Nd125  1  0.801150  0.198850  0.698850  1.0  2.0913
  Nd  Nd126  1  0.950120  0.049880  0.549880  1.0  1.9489
  Nd  Nd127  1  0.301150  0.698850  0.198850  1.0  2.0913
  Nd  Nd128  1  0.450120  0.549880  0.049880  1.0  1.9489
  Ge  Ge129  1  0.716480  0.599430  0.715190  1.0  1.4336
  Ge  Ge130  1  0.639040  0.638800  0.754450  1.0  1.4677
  Ge  Ge131  1  0.541170  0.528720  0.649820  1.0  1.4164
  Ge  Ge132  1  0.495610  0.604420  0.618530  1.0  1.4133
  Ge  Ge133  1  0.216480  0.099430  0.215190  1.0  1.4336
  Ge  Ge134  1  0.139040  0.138800  0.254450  1.0  1.4677
  Ge  Ge135  1  0.041170  0.028720  0.149820  1.0  1.4164
  Ge  Ge136  1  0.995610  0.104420  0.118530  1.0  1.4133
  Ge  Ge137  1  0.783520  0.400570  0.215190  1.0  1.4319
  Ge  Ge138  1  0.860960  0.361200  0.254450  1.0  1.4666
  Ge  Ge139  1  0.958830  0.471280  0.149820  1.0  1.4163
  Ge  Ge140  1  0.004390  0.395580  0.118530  1.0  1.4124
  Ge  Ge141  1  0.283520  0.900570  0.715190  1.0  1.4319
  Ge  Ge142  1  0.360960  0.861200  0.754450  1.0  1.4666
  Ge  Ge143  1  0.458830  0.971280  0.649820  1.0  1.4163
  Ge  Ge144  1  0.504390  0.895580  0.618530  1.0  1.4124
  Ge  Ge145  1  0.283520  0.099430  0.784810  1.0  1.4341
  Ge  Ge146  1  0.360960  0.138800  0.745550  1.0  1.4693
  Ge  Ge147  1  0.458830  0.028720  0.850180  1.0  1.4186
  Ge  Ge148  1  0.504390  0.104420  0.881470  1.0  1.4144
  Ge  Ge149  1  0.783520  0.599430  0.284810  1.0  1.4341
  Ge  Ge150  1  0.860960  0.638800  0.245550  1.0  1.4693
  Ge  Ge151  1  0.958830  0.528720  0.350180  1.0  1.4186
  Ge  Ge152  1  0.004390  0.604420  0.381470  1.0  1.4144
  Ge  Ge153  1  0.216480  0.900570  0.284810  1.0  1.4348
  Ge  Ge154  1  0.139040  0.861200  0.245550  1.0  1.4677
  Ge  Ge155  1  0.041170  0.971280  0.350180  1.0  1.4168
  Ge  Ge156  1  0.995610  0.895580  0.381470  1.0  1.4141
  Ge  Ge157  1  0.716480  0.400570  0.784810  1.0  1.4348
  Ge  Ge158  1  0.639040  0.361200  0.745550  1.0  1.4677
  Ge  Ge159  1  0.541170  0.471280  0.850180  1.0  1.4168
  Ge  Ge160  1  0.495610  0.395580  0.881470  1.0  1.4141
  Ge  Ge161  1  0.715190  0.716480  0.599430  1.0  1.4324
  Ge  Ge162  1  0.754450  0.639040  0.638800  1.0  1.4691
  Ge  Ge163  1  0.649820  0.541170  0.528720  1.0  1.4179
  Ge  Ge164  1  0.618530  0.495610  0.604420  1.0  1.4138
  Ge  Ge165  1  0.215190  0.216480  0.099430  1.0  1.4324
  Ge  Ge166  1  0.254450  0.139040  0.138800  1.0  1.4691
  Ge  Ge167  1  0.149820  0.041170  0.028720  1.0  1.4179
  Ge  Ge168  1  0.118530  0.995610  0.104420  1.0  1.4138
  Ge  Ge169  1  0.215190  0.783520  0.400570  1.0  1.4317
  Ge  Ge170  1  0.254450  0.860960  0.361200  1.0  1.4684
  Ge  Ge171  1  0.149820  0.958830  0.471280  1.0  1.415
  Ge  Ge172  1  0.118530  0.004390  0.395580  1.0  1.4158
  Ge  Ge173  1  0.715190  0.283520  0.900570  1.0  1.4317
  Ge  Ge174  1  0.754450  0.360960  0.861200  1.0  1.4684
  Ge  Ge175  1  0.649820  0.458830  0.971280  1.0  1.415
  Ge  Ge176  1  0.618530  0.504390  0.895580  1.0  1.4158
  Ge  Ge177  1  0.784810  0.283520  0.099430  1.0  1.4337
  Ge  Ge178  1  0.745550  0.360960  0.138800  1.0  1.4679
  Ge  Ge179  1  0.850180  0.458830  0.028720  1.0  1.4178
  Ge  Ge180  1  0.881470  0.504390  0.104420  1.0  1.415
  Ge  Ge181  1  0.284810  0.783520  0.599430  1.0  1.4337
  Ge  Ge182  1  0.245550  0.860960  0.638800  1.0  1.4679
  Ge  Ge183  1  0.350180  0.958830  0.528720  1.0  1.4178
  Ge  Ge184  1  0.381470  0.004390  0.604420  1.0  1.415
  Ge  Ge185  1  0.284810  0.216480  0.900570  1.0  1.4308
  Ge  Ge186  1  0.245550  0.139040  0.861200  1.0  1.4697
  Ge  Ge187  1  0.350180  0.041170  0.971280  1.0  1.4161
  Ge  Ge188  1  0.381470  0.995610  0.895580  1.0  1.4146
  Ge  Ge189  1  0.784810  0.716480  0.400570  1.0  1.4308
  Ge  Ge190  1  0.745550  0.639040  0.361200  1.0  1.4697
  Ge  Ge191  1  0.850180  0.541170  0.471280  1.0  1.4161
  Ge  Ge192  1  0.881470  0.495610  0.395580  1.0  1.4146
  Ge  Ge193  1  0.599430  0.715190  0.716480  1.0  1.4336
  Ge  Ge194  1  0.638800  0.754450  0.639040  1.0  1.4684
  Ge  Ge195  1  0.528720  0.649820  0.541170  1.0  1.4186
  Ge  Ge196  1  0.604420  0.618530  0.495610  1.0  1.415
  Ge  Ge197  1  0.099430  0.215190  0.216480  1.0  1.4336
  Ge  Ge198  1  0.138800  0.254450  0.139040  1.0  1.4684
  Ge  Ge199  1  0.028720  0.149820  0.041170  1.0  1.4186
  Ge  Ge200  1  0.104420  0.118530  0.995610  1.0  1.415
  Ge  Ge201  1  0.400570  0.215190  0.783520  1.0  1.4333
  Ge  Ge202  1  0.361200  0.254450  0.860960  1.0  1.4678
  Ge  Ge203  1  0.471280  0.149820  0.958830  1.0  1.4177
  Ge  Ge204  1  0.395580  0.118530  0.004390  1.0  1.4152
  Ge  Ge205  1  0.900570  0.715190  0.283520  1.0  1.4333
  Ge  Ge206  1  0.861200  0.754450  0.360960  1.0  1.4678
  Ge  Ge207  1  0.971280  0.649820  0.458830  1.0  1.4177
  Ge  Ge208  1  0.895580  0.618530  0.504390  1.0  1.4152
  Ge  Ge209  1  0.099430  0.784810  0.283520  1.0  1.4348
  Ge  Ge210  1  0.138800  0.745550  0.360960  1.0  1.4674
  Ge  Ge211  1  0.028720  0.850180  0.458830  1.0  1.4168
  Ge  Ge212  1  0.104420  0.881470  0.504390  1.0  1.4143
  Ge  Ge213  1  0.599430  0.284810  0.783520  1.0  1.4348
  Ge  Ge214  1  0.638800  0.245550  0.860960  1.0  1.4674
  Ge  Ge215  1  0.528720  0.350180  0.958830  1.0  1.4168
  Ge  Ge216  1  0.604420  0.381470  0.004390  1.0  1.4143
  Ge  Ge217  1  0.900570  0.284810  0.216480  1.0  1.433
  Ge  Ge218  1  0.861200  0.245550  0.139040  1.0  1.469
  Ge  Ge219  1  0.971280  0.350180  0.041170  1.0  1.4192
  Ge  Ge220  1  0.895580  0.381470  0.995610  1.0  1.4149
  Ge  Ge221  1  0.400570  0.784810  0.716480  1.0  1.433
  Ge  Ge222  1  0.361200  0.745550  0.639040  1.0  1.469
  Ge  Ge223  1  0.471280  0.850180  0.541170  1.0  1.4192
  Ge  Ge224  1  0.395580  0.881470  0.495610  1.0  1.4149
  Ge  Ge225  1  0.283520  0.400570  0.284810  1.0  1.4343
  Ge  Ge226  1  0.360960  0.361200  0.245550  1.0  1.4681
  Ge  Ge227  1  0.458830  0.471280  0.350180  1.0  1.4175
  Ge  Ge228  1  0.504390  0.395580  0.381470  1.0  1.4137
  Ge  Ge229  1  0.783520  0.900570  0.784810  1.0  1.4343
  Ge  Ge230  1  0.860960  0.861200  0.745550  1.0  1.4681
  Ge  Ge231  1  0.958830  0.971280  0.850180  1.0  1.4175
  Ge  Ge232  1  0.004390  0.895580  0.881470  1.0  1.4137
  Ge  Ge233  1  0.216480  0.599430  0.784810  1.0  1.4345
  Ge  Ge234  1  0.139040  0.638800  0.745550  1.0  1.4687
  Ge  Ge235  1  0.041170  0.528720  0.850180  1.0  1.4178
  Ge  Ge236  1  0.995610  0.604420  0.881470  1.0  1.4148
  Ge  Ge237  1  0.716480  0.099430  0.284810  1.0  1.4345
  Ge  Ge238  1  0.639040  0.138800  0.245550  1.0  1.4687
  Ge  Ge239  1  0.541170  0.028720  0.350180  1.0  1.4178
  Ge  Ge240  1  0.495610  0.104420  0.381470  1.0  1.4148
  Ge  Ge241  1  0.716480  0.900570  0.215190  1.0  1.4332
  Ge  Ge242  1  0.639040  0.861200  0.254450  1.0  1.4665
  Ge  Ge243  1  0.541170  0.971280  0.149820  1.0  1.4156
  Ge  Ge244  1  0.495610  0.895580  0.118530  1.0  1.413
  Ge  Ge245  1  0.216480  0.400570  0.715190  1.0  1.4332
  Ge  Ge246  1  0.139040  0.361200  0.754450  1.0  1.4665
  Ge  Ge247  1  0.041170  0.471280  0.649820  1.0  1.4156
  Ge  Ge248  1  0.995610  0.395580  0.618530  1.0  1.413
  Ge  Ge249  1  0.783520  0.099430  0.715190  1.0  1.4326
  Ge  Ge250  1  0.860960  0.138800  0.754450  1.0  1.468
  Ge  Ge251  1  0.958830  0.028720  0.649820  1.0  1.4169
  Ge  Ge252  1  0.004390  0.104420  0.618530  1.0  1.4128
  Ge  Ge253  1  0.283520  0.599430  0.215190  1.0  1.4326
  Ge  Ge254  1  0.360960  0.638800  0.254450  1.0  1.468
  Ge  Ge255  1  0.458830  0.528720  0.149820  1.0  1.4169
  Ge  Ge256  1  0.504390  0.604420  0.118530  1.0  1.4128
  Ge  Ge257  1  0.284810  0.283520  0.400570  1.0  1.4319
  Ge  Ge258  1  0.245550  0.360960  0.361200  1.0  1.4685
  Ge  Ge259  1  0.350180  0.458830  0.471280  1.0  1.4153
  Ge  Ge260  1  0.381470  0.504390  0.395580  1.0  1.4156
  Ge  Ge261  1  0.784810  0.783520  0.900570  1.0  1.4319
  Ge  Ge262  1  0.745550  0.860960  0.861200  1.0  1.4685
  Ge  Ge263  1  0.850180  0.958830  0.971280  1.0  1.4153
  Ge  Ge264  1  0.881470  0.004390  0.895580  1.0  1.4156
  Ge  Ge265  1  0.784810  0.216480  0.599430  1.0  1.4326
  Ge  Ge266  1  0.745550  0.139040  0.638800  1.0  1.4693
  Ge  Ge267  1  0.850180  0.041170  0.528720  1.0  1.4182
  Ge  Ge268  1  0.881470  0.995610  0.604420  1.0  1.4134
  Ge  Ge269  1  0.284810  0.716480  0.099430  1.0  1.4326
  Ge  Ge270  1  0.245550  0.639040  0.138800  1.0  1.4693
  Ge  Ge271  1  0.350180  0.541170  0.028720  1.0  1.4182
  Ge  Ge272  1  0.381470  0.495610  0.104420  1.0  1.4134
  Ge  Ge273  1  0.215190  0.716480  0.900570  1.0  1.4308
  Ge  Ge274  1  0.254450  0.639040  0.861200  1.0  1.4693
  Ge  Ge275  1  0.149820  0.541170  0.971280  1.0  1.4157
  Ge  Ge276  1  0.118530  0.495610  0.895580  1.0  1.415
  Ge  Ge277  1  0.715190  0.216480  0.400570  1.0  1.4308
  Ge  Ge278  1  0.754450  0.139040  0.361200  1.0  1.4693
  Ge  Ge279  1  0.649820  0.041170  0.471280  1.0  1.4157
  Ge  Ge280  1  0.618530  0.995610  0.395580  1.0  1.415
  Ge  Ge281  1  0.715190  0.783520  0.099430  1.0  1.4334
  Ge  Ge282  1  0.754450  0.860960  0.138800  1.0  1.4681
  Ge  Ge283  1  0.649820  0.958830  0.028720  1.0  1.4174
  Ge  Ge284  1  0.618530  0.004390  0.104420  1.0  1.4151
  Ge  Ge285  1  0.215190  0.283520  0.599430  1.0  1.4334
  Ge  Ge286  1  0.254450  0.360960  0.638800  1.0  1.4681
  Ge  Ge287  1  0.149820  0.458830  0.528720  1.0  1.4174
  Ge  Ge288  1  0.118530  0.504390  0.604420  1.0  1.4151
  Ge  Ge289  1  0.400570  0.284810  0.283520  1.0  1.4342
  Ge  Ge290  1  0.361200  0.245550  0.360960  1.0  1.4677
  Ge  Ge291  1  0.471280  0.350180  0.458830  1.0  1.418
  Ge  Ge292  1  0.395580  0.381470  0.504390  1.0  1.4149
  Ge  Ge293  1  0.900570  0.784810  0.783520  1.0  1.4342
  Ge  Ge294  1  0.861200  0.745550  0.860960  1.0  1.4677
  Ge  Ge295  1  0.971280  0.850180  0.958830  1.0  1.418
  Ge  Ge296  1  0.895580  0.881470  0.004390  1.0  1.4149
  Ge  Ge297  1  0.599430  0.784810  0.216480  1.0  1.4341
  Ge  Ge298  1  0.638800  0.745550  0.139040  1.0  1.4685
  Ge  Ge299  1  0.528720  0.850180  0.041170  1.0  1.4183
  Ge  Ge300  1  0.604420  0.881470  0.995610  1.0  1.4146
  Ge  Ge301  1  0.099430  0.284810  0.716480  1.0  1.4341
  Ge  Ge302  1  0.138800  0.245550  0.639040  1.0  1.4685
  Ge  Ge303  1  0.028720  0.350180  0.541170  1.0  1.4183
  Ge  Ge304  1  0.104420  0.381470  0.495610  1.0  1.4146
  Ge  Ge305  1  0.900570  0.215190  0.716480  1.0  1.4324
  Ge  Ge306  1  0.861200  0.254450  0.639040  1.0  1.4686
  Ge  Ge307  1  0.971280  0.149820  0.541170  1.0  1.4195
  Ge  Ge308  1  0.895580  0.118530  0.495610  1.0  1.4154
  Ge  Ge309  1  0.400570  0.715190  0.216480  1.0  1.4324
  Ge  Ge310  1  0.361200  0.754450  0.139040  1.0  1.4686
  Ge  Ge311  1  0.471280  0.649820  0.041170  1.0  1.4195
  Ge  Ge312  1  0.395580  0.618530  0.995610  1.0  1.4154
  Ge  Ge313  1  0.099430  0.715190  0.783520  1.0  1.4343
  Ge  Ge314  1  0.138800  0.754450  0.860960  1.0  1.4675
  Ge  Ge315  1  0.028720  0.649820  0.958830  1.0  1.4168
  Ge  Ge316  1  0.104420  0.618530  0.004390  1.0  1.4145
  Ge  Ge317  1  0.599430  0.215190  0.283520  1.0  1.4343
  Ge  Ge318  1  0.638800  0.254450  0.360960  1.0  1.4675
  Ge  Ge319  1  0.528720  0.149820  0.458830  1.0  1.4168
  Ge  Ge320  1  0.604420  0.118530  0.504390  1.0  1.4145
  C  C321  1  0.752000  0.569400  0.747900  1.0  -0.1314
  C  C322  1  0.733800  0.554400  0.785300  1.0  -0.1476
  C  C323  1  0.692800  0.537600  0.781200  1.0  0.6092
  C  C324  1  0.636300  0.625700  0.810100  1.0  -0.1231
  C  C325  1  0.605400  0.648000  0.829500  1.0  -0.1365
  C  C326  1  0.568400  0.649900  0.806700  1.0  0.6236
  C  C327  1  0.509700  0.495400  0.682500  1.0  -0.1267
  C  C328  1  0.528800  0.455900  0.693900  1.0  -0.1277
  C  C329  1  0.565300  0.461800  0.716300  1.0  0.6083
  C  C330  1  0.440400  0.609200  0.625300  1.0  -0.1215
  C  C331  1  0.424900  0.583900  0.657800  1.0  -0.1222
  C  C332  1  0.450000  0.584500  0.693900  1.0  0.613
  C  C333  1  0.252000  0.069400  0.247900  1.0  -0.1314
  C  C334  1  0.233800  0.054400  0.285300  1.0  -0.1476
  C  C335  1  0.192800  0.037600  0.281200  1.0  0.6092
  C  C336  1  0.136300  0.125700  0.310100  1.0  -0.1231
  C  C337  1  0.105400  0.148000  0.329500  1.0  -0.1365
  C  C338  1  0.068400  0.149900  0.306700  1.0  0.6236
  C  C339  1  0.009700  0.995400  0.182500  1.0  -0.1267
  C  C340  1  0.028800  0.955900  0.193900  1.0  -0.1277
  C  C341  1  0.065300  0.961800  0.216300  1.0  0.6083
  C  C342  1  0.940400  0.109200  0.125300  1.0  -0.1215
  C  C343  1  0.924900  0.083900  0.157800  1.0  -0.1222
  C  C344  1  0.950000  0.084500  0.193900  1.0  0.613
  C  C345  1  0.748000  0.430600  0.247900  1.0  -0.1323
  C  C346  1  0.766200  0.445600  0.285300  1.0  -0.1485
  C  C347  1  0.807200  0.462400  0.281200  1.0  0.612
  C  C348  1  0.863700  0.374300  0.310100  1.0  -0.1242
  C  C349  1  0.894600  0.352000  0.329500  1.0  -0.1384
  C  C350  1  0.931600  0.350100  0.306700  1.0  0.6256
  C  C351  1  0.990300  0.504600  0.182500  1.0  -0.1254
  C  C352  1  0.971200  0.544100  0.193900  1.0  -0.1282
  C  C353  1  0.934700  0.538200  0.216300  1.0  0.6077
  C  C354  1  0.059600  0.390800  0.125300  1.0  -0.1197
  C  C355  1  0.075100  0.416100  0.157800  1.0  -0.1202
  C  C356  1  0.050000  0.415500  0.193900  1.0  0.6144
  C  C357  1  0.248000  0.930600  0.747900  1.0  -0.1323
  C  C358  1  0.266200  0.945600  0.785300  1.0  -0.1485
  C  C359  1  0.307200  0.962400  0.781200  1.0  0.612
  C  C360  1  0.363700  0.874300  0.810100  1.0  -0.1242
  C  C361  1  0.394600  0.852000  0.829500  1.0  -0.1384
  C  C362  1  0.431600  0.850100  0.806700  1.0  0.6256
  C  C363  1  0.490300  0.004600  0.682500  1.0  -0.1254
  C  C364  1  0.471200  0.044100  0.693900  1.0  -0.1282
  C  C365  1  0.434700  0.038200  0.716300  1.0  0.6077
  C  C366  1  0.559600  0.890800  0.625300  1.0  -0.1197
  C  C367  1  0.575100  0.916100  0.657800  1.0  -0.1202
  C  C368  1  0.550000  0.915500  0.693900  1.0  0.6144
  C  C369  1  0.248000  0.069400  0.752100  1.0  -0.1314
  C  C370  1  0.266200  0.054400  0.714700  1.0  -0.1478
  C  C371  1  0.307200  0.037600  0.718800  1.0  0.6116
  C  C372  1  0.363700  0.125700  0.689900  1.0  -0.1237
  C  C373  1  0.394600  0.148000  0.670500  1.0  -0.1336
  C  C374  1  0.431600  0.149900  0.693300  1.0  0.6262
  C  C375  1  0.490300  0.995400  0.817500  1.0  -0.1256
  C  C376  1  0.471200  0.955900  0.806100  1.0  -0.13
  C  C377  1  0.434700  0.961800  0.783700  1.0  0.6081
  C  C378  1  0.559600  0.109200  0.874700  1.0  -0.1218
  C  C379  1  0.575100  0.083900  0.842200  1.0  -0.1213
  C  C380  1  0.550000  0.084500  0.806100  1.0  0.6137
  C  C381  1  0.748000  0.569400  0.252100  1.0  -0.1314
  C  C382  1  0.766200  0.554400  0.214700  1.0  -0.1478
  C  C383  1  0.807200  0.537600  0.218800  1.0  0.6116
  C  C384  1  0.863700  0.625700  0.189900  1.0  -0.1237
  C  C385  1  0.894600  0.648000  0.170500  1.0  -0.1336
  C  C386  1  0.931600  0.649900  0.193300  1.0  0.6262
  C  C387  1  0.990300  0.495400  0.317500  1.0  -0.1256
  C  C388  1  0.971200  0.455900  0.306100  1.0  -0.13
  C  C389  1  0.934700  0.461800  0.283700  1.0  0.6081
  C  C390  1  0.059600  0.609200  0.374700  1.0  -0.1218
  C  C391  1  0.075100  0.583900  0.342200  1.0  -0.1213
  C  C392  1  0.050000  0.584500  0.306100  1.0  0.6137
  C  C393  1  0.252000  0.930600  0.252100  1.0  -0.1301
  C  C394  1  0.233800  0.945600  0.214700  1.0  -0.1496
  C  C395  1  0.192800  0.962400  0.218800  1.0  0.6102
  C  C396  1  0.136300  0.874300  0.189900  1.0  -0.1234
  C  C397  1  0.105400  0.852000  0.170500  1.0  -0.1343
  C  C398  1  0.068400  0.850100  0.193300  1.0  0.627
  C  C399  1  0.009700  0.004600  0.317500  1.0  -0.1285
  C  C400  1  0.028800  0.044100  0.306100  1.0  -0.1297
  C  C401  1  0.065300  0.038200  0.283700  1.0  0.6089
  C  C402  1  0.940400  0.890800  0.374700  1.0  -0.1227
  C  C403  1  0.924900  0.916100  0.342200  1.0  -0.121
  C  C404  1  0.950000  0.915500  0.306100  1.0  0.6129
  C  C405  1  0.752000  0.430600  0.752100  1.0  -0.1301
  C  C406  1  0.733800  0.445600  0.714700  1.0  -0.1496
  C  C407  1  0.692800  0.462400  0.718800  1.0  0.6102
  C  C408  1  0.636300  0.374300  0.689900  1.0  -0.1234
  C  C409  1  0.605400  0.352000  0.670500  1.0  -0.1343
  C  C410  1  0.568400  0.350100  0.693300  1.0  0.627
  C  C411  1  0.509700  0.504600  0.817500  1.0  -0.1285
  C  C412  1  0.528800  0.544100  0.806100  1.0  -0.1297
  C  C413  1  0.565300  0.538200  0.783700  1.0  0.6089
  C  C414  1  0.440400  0.390800  0.874700  1.0  -0.1227
  C  C415  1  0.424900  0.416100  0.842200  1.0  -0.121
  C  C416  1  0.450000  0.415500  0.806100  1.0  0.6129
  C  C417  1  0.747900  0.752000  0.569400  1.0  -0.1327
  C  C418  1  0.785300  0.733800  0.554400  1.0  -0.1501
  C  C419  1  0.781200  0.692800  0.537600  1.0  0.6116
  C  C420  1  0.810100  0.636300  0.625700  1.0  -0.1257
  C  C421  1  0.829500  0.605400  0.648000  1.0  -0.1275
  C  C422  1  0.806700  0.568400  0.649900  1.0  0.6309
  C  C423  1  0.682500  0.509700  0.495400  1.0  -0.129
  C  C424  1  0.693900  0.528800  0.455900  1.0  -0.1263
  C  C425  1  0.716300  0.565300  0.461800  1.0  0.6085
  C  C426  1  0.625300  0.440400  0.609200  1.0  -0.1234
  C  C427  1  0.657800  0.424900  0.583900  1.0  -0.1181
  C  C428  1  0.693900  0.450000  0.584500  1.0  0.6092
  C  C429  1  0.247900  0.252000  0.069400  1.0  -0.1327
  C  C430  1  0.285300  0.233800  0.054400  1.0  -0.1501
  C  C431  1  0.281200  0.192800  0.037600  1.0  0.6116
  C  C432  1  0.310100  0.136300  0.125700  1.0  -0.1257
  C  C433  1  0.329500  0.105400  0.148000  1.0  -0.1275
  C  C434  1  0.306700  0.068400  0.149900  1.0  0.6309
  C  C435  1  0.182500  0.009700  0.995400  1.0  -0.129
  C  C436  1  0.193900  0.028800  0.955900  1.0  -0.1263
  C  C437  1  0.216300  0.065300  0.961800  1.0  0.6085
  C  C438  1  0.125300  0.940400  0.109200  1.0  -0.1234
  C  C439  1  0.157800  0.924900  0.083900  1.0  -0.1181
  C  C440  1  0.193900  0.950000  0.084500  1.0  0.6092
  C  C441  1  0.247900  0.748000  0.430600  1.0  -0.1338
  C  C442  1  0.285300  0.766200  0.445600  1.0  -0.1482
  C  C443  1  0.281200  0.807200  0.462400  1.0  0.6119
  C  C444  1  0.310100  0.863700  0.374300  1.0  -0.1268
  C  C445  1  0.329500  0.894600  0.352000  1.0  -0.1254
  C  C446  1  0.306700  0.931600  0.350100  1.0  0.6296
  C  C447  1  0.182500  0.990300  0.504600  1.0  -0.1282
  C  C448  1  0.193900  0.971200  0.544100  1.0  -0.1311
  C  C449  1  0.216300  0.934700  0.538200  1.0  0.6088
  C  C450  1  0.125300  0.059600  0.390800  1.0  -0.1233
  C  C451  1  0.157800  0.075100  0.416100  1.0  -0.1198
  C  C452  1  0.193900  0.050000  0.415500  1.0  0.6101
  C  C453  1  0.747900  0.248000  0.930600  1.0  -0.1338
  C  C454  1  0.785300  0.266200  0.945600  1.0  -0.1482
  C  C455  1  0.781200  0.307200  0.962400  1.0  0.6119
  C  C456  1  0.810100  0.363700  0.874300  1.0  -0.1268
  C  C457  1  0.829500  0.394600  0.852000  1.0  -0.1254
  C  C458  1  0.806700  0.431600  0.850100  1.0  0.6296
  C  C459  1  0.682500  0.490300  0.004600  1.0  -0.1282
  C  C460  1  0.693900  0.471200  0.044100  1.0  -0.1311
  C  C461  1  0.716300  0.434700  0.038200  1.0  0.6088
  C  C462  1  0.625300  0.559600  0.890800  1.0  -0.1233
  C  C463  1  0.657800  0.575100  0.916100  1.0  -0.1198
  C  C464  1  0.693900  0.550000  0.915500  1.0  0.6101
  C  C465  1  0.752100  0.248000  0.069400  1.0  -0.1358
  C  C466  1  0.714700  0.266200  0.054400  1.0  -0.1493
  C  C467  1  0.718800  0.307200  0.037600  1.0  0.6115
  C  C468  1  0.689900  0.363700  0.125700  1.0  -0.1284
  C  C469  1  0.670500  0.394600  0.148000  1.0  -0.1282
  C  C470  1  0.693300  0.431600  0.149900  1.0  0.6303
  C  C471  1  0.817500  0.490300  0.995400  1.0  -0.1287
  C  C472  1  0.806100  0.471200  0.955900  1.0  -0.1292
  C  C473  1  0.783700  0.434700  0.961800  1.0  0.6086
  C  C474  1  0.874700  0.559600  0.109200  1.0  -0.1226
  C  C475  1  0.842200  0.575100  0.083900  1.0  -0.1178
  C  C476  1  0.806100  0.550000  0.084500  1.0  0.6096
  C  C477  1  0.252100  0.748000  0.569400  1.0  -0.1358
  C  C478  1  0.214700  0.766200  0.554400  1.0  -0.1493
  C  C479  1  0.218800  0.807200  0.537600  1.0  0.6115
  C  C480  1  0.189900  0.863700  0.625700  1.0  -0.1284
  C  C481  1  0.170500  0.894600  0.648000  1.0  -0.1282
  C  C482  1  0.193300  0.931600  0.649900  1.0  0.6303
  C  C483  1  0.317500  0.990300  0.495400  1.0  -0.1287
  C  C484  1  0.306100  0.971200  0.455900  1.0  -0.1292
  C  C485  1  0.283700  0.934700  0.461800  1.0  0.6086
  C  C486  1  0.374700  0.059600  0.609200  1.0  -0.1226
  C  C487  1  0.342200  0.075100  0.583900  1.0  -0.1178
  C  C488  1  0.306100  0.050000  0.584500  1.0  0.6096
  C  C489  1  0.252100  0.252000  0.930600  1.0  -0.1345
  C  C490  1  0.214700  0.233800  0.945600  1.0  -0.15
  C  C491  1  0.218800  0.192800  0.962400  1.0  0.6124
  C  C492  1  0.189900  0.136300  0.874300  1.0  -0.1269
  C  C493  1  0.170500  0.105400  0.852000  1.0  -0.1266
  C  C494  1  0.193300  0.068400  0.850100  1.0  0.6295
  C  C495  1  0.317500  0.009700  0.004600  1.0  -0.1287
  C  C496  1  0.306100  0.028800  0.044100  1.0  -0.1295
  C  C497  1  0.283700  0.065300  0.038200  1.0  0.609
  C  C498  1  0.374700  0.940400  0.890800  1.0  -0.122
  C  C499  1  0.342200  0.924900  0.916100  1.0  -0.1187
  C  C500  1  0.306100  0.950000  0.915500  1.0  0.6089
  C  C501  1  0.752100  0.752000  0.430600  1.0  -0.1345
  C  C502  1  0.714700  0.733800  0.445600  1.0  -0.15
  C  C503  1  0.718800  0.692800  0.462400  1.0  0.6124
  C  C504  1  0.689900  0.636300  0.374300  1.0  -0.1269
  C  C505  1  0.670500  0.605400  0.352000  1.0  -0.1266
  C  C506  1  0.693300  0.568400  0.350100  1.0  0.6295
  C  C507  1  0.817500  0.509700  0.504600  1.0  -0.1287
  C  C508  1  0.806100  0.528800  0.544100  1.0  -0.1295
  C  C509  1  0.783700  0.565300  0.538200  1.0  0.609
  C  C510  1  0.874700  0.440400  0.390800  1.0  -0.122
  C  C511  1  0.842200  0.424900  0.416100  1.0  -0.1187
  C  C512  1  0.806100  0.450000  0.415500  1.0  0.6089
  C  C513  1  0.569400  0.747900  0.752000  1.0  -0.1324
  C  C514  1  0.554400  0.785300  0.733800  1.0  -0.1535
  C  C515  1  0.537600  0.781200  0.692800  1.0  0.6111
  C  C516  1  0.625700  0.810100  0.636300  1.0  -0.1256
  C  C517  1  0.648000  0.829500  0.605400  1.0  -0.1274
  C  C518  1  0.649900  0.806700  0.568400  1.0  0.6276
  C  C519  1  0.495400  0.682500  0.509700  1.0  -0.1271
  C  C520  1  0.455900  0.693900  0.528800  1.0  -0.1255
  C  C521  1  0.461800  0.716300  0.565300  1.0  0.6098
  C  C522  1  0.609200  0.625300  0.440400  1.0  -0.1236
  C  C523  1  0.583900  0.657800  0.424900  1.0  -0.1215
  C  C524  1  0.584500  0.693900  0.450000  1.0  0.6112
  C  C525  1  0.069400  0.247900  0.252000  1.0  -0.1324
  C  C526  1  0.054400  0.285300  0.233800  1.0  -0.1535
  C  C527  1  0.037600  0.281200  0.192800  1.0  0.6111
  C  C528  1  0.125700  0.310100  0.136300  1.0  -0.1256
  C  C529  1  0.148000  0.329500  0.105400  1.0  -0.1274
  C  C530  1  0.149900  0.306700  0.068400  1.0  0.6276
  C  C531  1  0.995400  0.182500  0.009700  1.0  -0.1271
  C  C532  1  0.955900  0.193900  0.028800  1.0  -0.1255
  C  C533  1  0.961800  0.216300  0.065300  1.0  0.6098
  C  C534  1  0.109200  0.125300  0.940400  1.0  -0.1236
  C  C535  1  0.083900  0.157800  0.924900  1.0  -0.1215
  C  C536  1  0.084500  0.193900  0.950000  1.0  0.6112
  C  C537  1  0.430600  0.247900  0.748000  1.0  -0.1309
  C  C538  1  0.445600  0.285300  0.766200  1.0  -0.1522
  C  C539  1  0.462400  0.281200  0.807200  1.0  0.609
  C  C540  1  0.374300  0.310100  0.863700  1.0  -0.1269
  C  C541  1  0.352000  0.329500  0.894600  1.0  -0.1262
  C  C542  1  0.350100  0.306700  0.931600  1.0  0.6273
  C  C543  1  0.504600  0.182500  0.990300  1.0  -0.1291
  C  C544  1  0.544100  0.193900  0.971200  1.0  -0.1293
  C  C545  1  0.538200  0.216300  0.934700  1.0  0.6098
  C  C546  1  0.390800  0.125300  0.059600  1.0  -0.123
  C  C547  1  0.416100  0.157800  0.075100  1.0  -0.1295
  C  C548  1  0.415500  0.193900  0.050000  1.0  0.6091
  C  C549  1  0.930600  0.747900  0.248000  1.0  -0.1309
  C  C550  1  0.945600  0.785300  0.266200  1.0  -0.1522
  C  C551  1  0.962400  0.781200  0.307200  1.0  0.609
  C  C552  1  0.874300  0.810100  0.363700  1.0  -0.1269
  C  C553  1  0.852000  0.829500  0.394600  1.0  -0.1262
  C  C554  1  0.850100  0.806700  0.431600  1.0  0.6273
  C  C555  1  0.004600  0.682500  0.490300  1.0  -0.1291
  C  C556  1  0.044100  0.693900  0.471200  1.0  -0.1293
  C  C557  1  0.038200  0.716300  0.434700  1.0  0.6098
  C  C558  1  0.890800  0.625300  0.559600  1.0  -0.123
  C  C559  1  0.916100  0.657800  0.575100  1.0  -0.1295
  C  C560  1  0.915500  0.693900  0.550000  1.0  0.6091
  C  C561  1  0.069400  0.752100  0.248000  1.0  -0.1314
  C  C562  1  0.054400  0.714700  0.266200  1.0  -0.15
  C  C563  1  0.037600  0.718800  0.307200  1.0  0.6104
  C  C564  1  0.125700  0.689900  0.363700  1.0  -0.1246
  C  C565  1  0.148000  0.670500  0.394600  1.0  -0.1272
  C  C566  1  0.149900  0.693300  0.431600  1.0  0.6278
  C  C567  1  0.995400  0.817500  0.490300  1.0  -0.1283
  C  C568  1  0.955900  0.806100  0.471200  1.0  -0.1297
  C  C569  1  0.961800  0.783700  0.434700  1.0  0.6099
  C  C570  1  0.109200  0.874700  0.559600  1.0  -0.1242
  C  C571  1  0.083900  0.842200  0.575100  1.0  -0.1316
  C  C572  1  0.084500  0.806100  0.550000  1.0  0.6099
  C  C573  1  0.569400  0.252100  0.748000  1.0  -0.1314
  C  C574  1  0.554400  0.214700  0.766200  1.0  -0.15
  C  C575  1  0.537600  0.218800  0.807200  1.0  0.6104
  C  C576  1  0.625700  0.189900  0.863700  1.0  -0.1246
  C  C577  1  0.648000  0.170500  0.894600  1.0  -0.1272
  C  C578  1  0.649900  0.193300  0.931600  1.0  0.6278
  C  C579  1  0.495400  0.317500  0.990300  1.0  -0.1283
  C  C580  1  0.455900  0.306100  0.971200  1.0  -0.1297
  C  C581  1  0.461800  0.283700  0.934700  1.0  0.6099
  C  C582  1  0.609200  0.374700  0.059600  1.0  -0.1242
  C  C583  1  0.583900  0.342200  0.075100  1.0  -0.1316
  C  C584  1  0.584500  0.306100  0.050000  1.0  0.6099
  C  C585  1  0.930600  0.252100  0.252000  1.0  -0.1347
  C  C586  1  0.945600  0.214700  0.233800  1.0  -0.1567
  C  C587  1  0.962400  0.218800  0.192800  1.0  0.6098
  C  C588  1  0.874300  0.189900  0.136300  1.0  -0.126
  C  C589  1  0.852000  0.170500  0.105400  1.0  -0.1281
  C  C590  1  0.850100  0.193300  0.068400  1.0  0.6268
  C  C591  1  0.004600  0.317500  0.009700  1.0  -0.1288
  C  C592  1  0.044100  0.306100  0.028800  1.0  -0.1256
  C  C593  1  0.038200  0.283700  0.065300  1.0  0.6096
  C  C594  1  0.890800  0.374700  0.940400  1.0  -0.124
  C  C595  1  0.916100  0.342200  0.924900  1.0  -0.1214
  C  C596  1  0.915500  0.306100  0.950000  1.0  0.6108
  C  C597  1  0.430600  0.752100  0.752000  1.0  -0.1347
  C  C598  1  0.445600  0.714700  0.733800  1.0  -0.1567
  C  C599  1  0.462400  0.718800  0.692800  1.0  0.6098
  C  C600  1  0.374300  0.689900  0.636300  1.0  -0.126
  C  C601  1  0.352000  0.670500  0.605400  1.0  -0.1281
  C  C602  1  0.350100  0.693300  0.568400  1.0  0.6268
  C  C603  1  0.504600  0.817500  0.509700  1.0  -0.1288
  C  C604  1  0.544100  0.806100  0.528800  1.0  -0.1256
  C  C605  1  0.538200  0.783700  0.565300  1.0  0.6096
  C  C606  1  0.390800  0.874700  0.440400  1.0  -0.124
  C  C607  1  0.416100  0.842200  0.424900  1.0  -0.1214
  C  C608  1  0.415500  0.806100  0.450000  1.0  0.6108
  C  C609  1  0.248000  0.430600  0.252100  1.0  -0.1311
  C  C610  1  0.266200  0.445600  0.214700  1.0  -0.149
  C  C611  1  0.307200  0.462400  0.218800  1.0  0.6122
  C  C612  1  0.363700  0.374300  0.189900  1.0  -0.1232
  C  C613  1  0.394600  0.352000  0.170500  1.0  -0.1341
  C  C614  1  0.431600  0.350100  0.193300  1.0  0.6268
  C  C615  1  0.490300  0.504600  0.317500  1.0  -0.1259
  C  C616  1  0.471200  0.544100  0.306100  1.0  -0.1297
  C  C617  1  0.434700  0.538200  0.283700  1.0  0.608
  C  C618  1  0.559600  0.390800  0.374700  1.0  -0.1217
  C  C619  1  0.575100  0.416100  0.342200  1.0  -0.1214
  C  C620  1  0.550000  0.415500  0.306100  1.0  0.6139
  C  C621  1  0.748000  0.930600  0.752100  1.0  -0.1311
  C  C622  1  0.766200  0.945600  0.714700  1.0  -0.149
  C  C623  1  0.807200  0.962400  0.718800  1.0  0.6122
  C  C624  1  0.863700  0.874300  0.689900  1.0  -0.1232
  C  C625  1  0.894600  0.852000  0.670500  1.0  -0.1341
  C  C626  1  0.931600  0.850100  0.693300  1.0  0.6268
  C  C627  1  0.990300  0.004600  0.817500  1.0  -0.1259
  C  C628  1  0.971200  0.044100  0.806100  1.0  -0.1297
  C  C629  1  0.934700  0.038200  0.783700  1.0  0.608
  C  C630  1  0.059600  0.890800  0.874700  1.0  -0.1217
  C  C631  1  0.075100  0.916100  0.842200  1.0  -0.1214
  C  C632  1  0.050000  0.915500  0.806100  1.0  0.6139
  C  C633  1  0.252000  0.569400  0.752100  1.0  -0.13
  C  C634  1  0.233800  0.554400  0.714700  1.0  -0.1494
  C  C635  1  0.192800  0.537600  0.718800  1.0  0.6099
  C  C636  1  0.136300  0.625700  0.689900  1.0  -0.124
  C  C637  1  0.105400  0.648000  0.670500  1.0  -0.1342
  C  C638  1  0.068400  0.649900  0.693300  1.0  0.6266
  C  C639  1  0.009700  0.495400  0.817500  1.0  -0.127
  C  C640  1  0.028800  0.455900  0.806100  1.0  -0.1299
  C  C641  1  0.065300  0.461800  0.783700  1.0  0.6086
  C  C642  1  0.940400  0.609200  0.874700  1.0  -0.1226
  C  C643  1  0.924900  0.583900  0.842200  1.0  -0.1215
  C  C644  1  0.950000  0.584500  0.806100  1.0  0.6126
  C  C645  1  0.752000  0.069400  0.252100  1.0  -0.13
  C  C646  1  0.733800  0.054400  0.214700  1.0  -0.1494
  C  C647  1  0.692800  0.037600  0.218800  1.0  0.6099
  C  C648  1  0.636300  0.125700  0.189900  1.0  -0.124
  C  C649  1  0.605400  0.148000  0.170500  1.0  -0.1342
  C  C650  1  0.568400  0.149900  0.193300  1.0  0.6266
  C  C651  1  0.509700  0.995400  0.317500  1.0  -0.127
  C  C652  1  0.528800  0.955900  0.306100  1.0  -0.1299
  C  C653  1  0.565300  0.961800  0.283700  1.0  0.6086
  C  C654  1  0.440400  0.109200  0.374700  1.0  -0.1226
  C  C655  1  0.424900  0.083900  0.342200  1.0  -0.1215
  C  C656  1  0.450000  0.084500  0.306100  1.0  0.6126
  C  C657  1  0.752000  0.930600  0.247900  1.0  -0.1316
  C  C658  1  0.733800  0.945600  0.285300  1.0  -0.1486
  C  C659  1  0.692800  0.962400  0.281200  1.0  0.6099
  C  C660  1  0.636300  0.874300  0.310100  1.0  -0.1232
  C  C661  1  0.605400  0.852000  0.329500  1.0  -0.137
  C  C662  1  0.568400  0.850100  0.306700  1.0  0.6237
  C  C663  1  0.509700  0.004600  0.182500  1.0  -0.1282
  C  C664  1  0.528800  0.044100  0.193900  1.0  -0.1276
  C  C665  1  0.565300  0.038200  0.216300  1.0  0.6086
  C  C666  1  0.440400  0.890800  0.125300  1.0  -0.1222
  C  C667  1  0.424900  0.916100  0.157800  1.0  -0.1205
  C  C668  1  0.450000  0.915500  0.193900  1.0  0.6135
  C  C669  1  0.252000  0.430600  0.747900  1.0  -0.1316
  C  C670  1  0.233800  0.445600  0.785300  1.0  -0.1486
  C  C671  1  0.192800  0.462400  0.781200  1.0  0.6099
  C  C672  1  0.136300  0.374300  0.810100  1.0  -0.1232
  C  C673  1  0.105400  0.352000  0.829500  1.0  -0.137
  C  C674  1  0.068400  0.350100  0.806700  1.0  0.6237
  C  C675  1  0.009700  0.504600  0.682500  1.0  -0.1282
  C  C676  1  0.028800  0.544100  0.693900  1.0  -0.1276
  C  C677  1  0.065300  0.538200  0.716300  1.0  0.6086
  C  C678  1  0.940400  0.390800  0.625300  1.0  -0.1222
  C  C679  1  0.924900  0.416100  0.657800  1.0  -0.1205
  C  C680  1  0.950000  0.415500  0.693900  1.0  0.6135
  C  C681  1  0.748000  0.069400  0.747900  1.0  -0.1324
  C  C682  1  0.766200  0.054400  0.785300  1.0  -0.1472
  C  C683  1  0.807200  0.037600  0.781200  1.0  0.611
  C  C684  1  0.863700  0.125700  0.810100  1.0  -0.1239
  C  C685  1  0.894600  0.148000  0.829500  1.0  -0.137
  C  C686  1  0.931600  0.149900  0.806700  1.0  0.6251
  C  C687  1  0.990300  0.995400  0.682500  1.0  -0.1252
  C  C688  1  0.971200  0.955900  0.693900  1.0  -0.1281
  C  C689  1  0.934700  0.961800  0.716300  1.0  0.608
  C  C690  1  0.059600  0.109200  0.625300  1.0  -0.1193
  C  C691  1  0.075100  0.083900  0.657800  1.0  -0.1207
  C  C692  1  0.050000  0.084500  0.693900  1.0  0.614
  C  C693  1  0.248000  0.569400  0.247900  1.0  -0.1324
  C  C694  1  0.266200  0.554400  0.285300  1.0  -0.1472
  C  C695  1  0.307200  0.537600  0.281200  1.0  0.611
  C  C696  1  0.363700  0.625700  0.310100  1.0  -0.1239
  C  C697  1  0.394600  0.648000  0.329500  1.0  -0.137
  C  C698  1  0.431600  0.649900  0.306700  1.0  0.6251
  C  C699  1  0.490300  0.495400  0.182500  1.0  -0.1252
  C  C700  1  0.471200  0.455900  0.193900  1.0  -0.1281
  C  C701  1  0.434700  0.461800  0.216300  1.0  0.608
  C  C702  1  0.559600  0.609200  0.125300  1.0  -0.1193
  C  C703  1  0.575100  0.583900  0.157800  1.0  -0.1207
  C  C704  1  0.550000  0.584500  0.193900  1.0  0.614
  C  C705  1  0.252100  0.248000  0.430600  1.0  -0.1359
  C  C706  1  0.214700  0.266200  0.445600  1.0  -0.1489
  C  C707  1  0.218800  0.307200  0.462400  1.0  0.6119
  C  C708  1  0.189900  0.363700  0.374300  1.0  -0.1281
  C  C709  1  0.170500  0.394600  0.352000  1.0  -0.1275
  C  C710  1  0.193300  0.431600  0.350100  1.0  0.6305
  C  C711  1  0.317500  0.490300  0.504600  1.0  -0.1279
  C  C712  1  0.306100  0.471200  0.544100  1.0  -0.1305
  C  C713  1  0.283700  0.434700  0.538200  1.0  0.6087
  C  C714  1  0.374700  0.559600  0.390800  1.0  -0.1227
  C  C715  1  0.342200  0.575100  0.416100  1.0  -0.119
  C  C716  1  0.306100  0.550000  0.415500  1.0  0.6096
  C  C717  1  0.752100  0.748000  0.930600  1.0  -0.1359
  C  C718  1  0.714700  0.766200  0.945600  1.0  -0.1489
  C  C719  1  0.718800  0.807200  0.962400  1.0  0.6119
  C  C720  1  0.689900  0.863700  0.874300  1.0  -0.1281
  C  C721  1  0.670500  0.894600  0.852000  1.0  -0.1275
  C  C722  1  0.693300  0.931600  0.850100  1.0  0.6305
  C  C723  1  0.817500  0.990300  0.004600  1.0  -0.1279
  C  C724  1  0.806100  0.971200  0.044100  1.0  -0.1305
  C  C725  1  0.783700  0.934700  0.038200  1.0  0.6087
  C  C726  1  0.874700  0.059600  0.890800  1.0  -0.1227
  C  C727  1  0.842200  0.075100  0.916100  1.0  -0.119
  C  C728  1  0.806100  0.050000  0.915500  1.0  0.6096
  C  C729  1  0.752100  0.252000  0.569400  1.0  -0.1346
  C  C730  1  0.714700  0.233800  0.554400  1.0  -0.1495
  C  C731  1  0.718800  0.192800  0.537600  1.0  0.6121
  C  C732  1  0.689900  0.136300  0.625700  1.0  -0.1272
  C  C733  1  0.670500  0.105400  0.648000  1.0  -0.1275
  C  C734  1  0.693300  0.068400  0.649900  1.0  0.6308
  C  C735  1  0.817500  0.009700  0.495400  1.0  -0.1284
  C  C736  1  0.806100  0.028800  0.455900  1.0  -0.1263
  C  C737  1  0.783700  0.065300  0.461800  1.0  0.6085
  C  C738  1  0.874700  0.940400  0.609200  1.0  -0.1224
  C  C739  1  0.842200  0.924900  0.583900  1.0  -0.1171
  C  C740  1  0.806100  0.950000  0.584500  1.0  0.6088
  C  C741  1  0.252100  0.752000  0.069400  1.0  -0.1346
  C  C742  1  0.214700  0.733800  0.054400  1.0  -0.1495
  C  C743  1  0.218800  0.692800  0.037600  1.0  0.6121
  C  C744  1  0.189900  0.636300  0.125700  1.0  -0.1272
  C  C745  1  0.170500  0.605400  0.148000  1.0  -0.1275
  C  C746  1  0.193300  0.568400  0.149900  1.0  0.6308
  C  C747  1  0.317500  0.509700  0.995400  1.0  -0.1284
  C  C748  1  0.306100  0.528800  0.955900  1.0  -0.1263
  C  C749  1  0.283700  0.565300  0.961800  1.0  0.6085
  C  C750  1  0.374700  0.440400  0.109200  1.0  -0.1224
  C  C751  1  0.342200  0.424900  0.083900  1.0  -0.1171
  C  C752  1  0.306100  0.450000  0.084500  1.0  0.6088
  C  C753  1  0.247900  0.752000  0.930600  1.0  -0.1325
  C  C754  1  0.285300  0.733800  0.945600  1.0  -0.1513
  C  C755  1  0.281200  0.692800  0.962400  1.0  0.6122
  C  C756  1  0.310100  0.636300  0.874300  1.0  -0.1263
  C  C757  1  0.329500  0.605400  0.852000  1.0  -0.1256
  C  C758  1  0.306700  0.568400  0.850100  1.0  0.6301
  C  C759  1  0.182500  0.509700  0.004600  1.0  -0.1291
  C  C760  1  0.193900  0.528800  0.044100  1.0  -0.1301
  C  C761  1  0.216300  0.565300  0.038200  1.0  0.6091
  C  C762  1  0.125300  0.440400  0.890800  1.0  -0.1227
  C  C763  1  0.157800  0.424900  0.916100  1.0  -0.1198
  C  C764  1  0.193900  0.450000  0.915500  1.0  0.6097
  C  C765  1  0.747900  0.252000  0.430600  1.0  -0.1325
  C  C766  1  0.785300  0.233800  0.445600  1.0  -0.1513
  C  C767  1  0.781200  0.192800  0.462400  1.0  0.6122
  C  C768  1  0.810100  0.136300  0.374300  1.0  -0.1263
  C  C769  1  0.829500  0.105400  0.352000  1.0  -0.1256
  C  C770  1  0.806700  0.068400  0.350100  1.0  0.6301
  C  C771  1  0.682500  0.009700  0.504600  1.0  -0.1291
  C  C772  1  0.693900  0.028800  0.544100  1.0  -0.1301
  C  C773  1  0.716300  0.065300  0.538200  1.0  0.6091
  C  C774  1  0.625300  0.940400  0.390800  1.0  -0.1227
  C  C775  1  0.657800  0.924900  0.416100  1.0  -0.1198
  C  C776  1  0.693900  0.950000  0.415500  1.0  0.6097
  C  C777  1  0.747900  0.748000  0.069400  1.0  -0.1338
  C  C778  1  0.785300  0.766200  0.054400  1.0  -0.1481
  C  C779  1  0.781200  0.807200  0.037600  1.0  0.6112
  C  C780  1  0.810100  0.863700  0.125700  1.0  -0.1267
  C  C781  1  0.829500  0.894600  0.148000  1.0  -0.1266
  C  C782  1  0.806700  0.931600  0.149900  1.0  0.6291
  C  C783  1  0.682500  0.990300  0.995400  1.0  -0.1292
  C  C784  1  0.693900  0.971200  0.955900  1.0  -0.129
  C  C785  1  0.716300  0.934700  0.961800  1.0  0.6088
  C  C786  1  0.625300  0.059600  0.109200  1.0  -0.1233
  C  C787  1  0.657800  0.075100  0.083900  1.0  -0.1188
  C  C788  1  0.693900  0.050000  0.084500  1.0  0.6099
  C  C789  1  0.247900  0.248000  0.569400  1.0  -0.1338
  C  C790  1  0.285300  0.266200  0.554400  1.0  -0.1481
  C  C791  1  0.281200  0.307200  0.537600  1.0  0.6112
  C  C792  1  0.310100  0.363700  0.625700  1.0  -0.1267
  C  C793  1  0.329500  0.394600  0.648000  1.0  -0.1266
  C  C794  1  0.306700  0.431600  0.649900  1.0  0.6291
  C  C795  1  0.182500  0.490300  0.495400  1.0  -0.1292
  C  C796  1  0.193900  0.471200  0.455900  1.0  -0.129
  C  C797  1  0.216300  0.434700  0.461800  1.0  0.6088
  C  C798  1  0.125300  0.559600  0.609200  1.0  -0.1233
  C  C799  1  0.157800  0.575100  0.583900  1.0  -0.1188
  C  C800  1  0.193900  0.550000  0.584500  1.0  0.6099
  C  C801  1  0.430600  0.252100  0.248000  1.0  -0.1319
  C  C802  1  0.445600  0.214700  0.266200  1.0  -0.1492
  C  C803  1  0.462400  0.218800  0.307200  1.0  0.6096
  C  C804  1  0.374300  0.189900  0.363700  1.0  -0.1251
  C  C805  1  0.352000  0.170500  0.394600  1.0  -0.1271
  C  C806  1  0.350100  0.193300  0.431600  1.0  0.6281
  C  C807  1  0.504600  0.317500  0.490300  1.0  -0.1292
  C  C808  1  0.544100  0.306100  0.471200  1.0  -0.1287
  C  C809  1  0.538200  0.283700  0.434700  1.0  0.6099
  C  C810  1  0.390800  0.374700  0.559600  1.0  -0.123
  C  C811  1  0.416100  0.342200  0.575100  1.0  -0.1298
  C  C812  1  0.415500  0.306100  0.550000  1.0  0.6097
  C  C813  1  0.930600  0.752100  0.748000  1.0  -0.1319
  C  C814  1  0.945600  0.714700  0.766200  1.0  -0.1492
  C  C815  1  0.962400  0.718800  0.807200  1.0  0.6096
  C  C816  1  0.874300  0.689900  0.863700  1.0  -0.1251
  C  C817  1  0.852000  0.670500  0.894600  1.0  -0.1271
  C  C818  1  0.850100  0.693300  0.931600  1.0  0.6281
  C  C819  1  0.004600  0.817500  0.990300  1.0  -0.1292
  C  C820  1  0.044100  0.806100  0.971200  1.0  -0.1287
  C  C821  1  0.038200  0.783700  0.934700  1.0  0.6099
  C  C822  1  0.890800  0.874700  0.059600  1.0  -0.123
  C  C823  1  0.916100  0.842200  0.075100  1.0  -0.1298
  C  C824  1  0.915500  0.806100  0.050000  1.0  0.6097
  C  C825  1  0.569400  0.752100  0.252000  1.0  -0.134
  C  C826  1  0.554400  0.714700  0.233800  1.0  -0.1546
  C  C827  1  0.537600  0.718800  0.192800  1.0  0.6111
  C  C828  1  0.625700  0.689900  0.136300  1.0  -0.1251
  C  C829  1  0.648000  0.670500  0.105400  1.0  -0.1283
  C  C830  1  0.649900  0.693300  0.068400  1.0  0.6278
  C  C831  1  0.495400  0.817500  0.009700  1.0  -0.1276
  C  C832  1  0.455900  0.806100  0.028800  1.0  -0.1253
  C  C833  1  0.461800  0.783700  0.065300  1.0  0.6097
  C  C834  1  0.609200  0.874700  0.940400  1.0  -0.1247
  C  C835  1  0.583900  0.842200  0.924900  1.0  -0.1208
  C  C836  1  0.584500  0.806100  0.950000  1.0  0.6114
  C  C837  1  0.069400  0.252100  0.752000  1.0  -0.134
  C  C838  1  0.054400  0.214700  0.733800  1.0  -0.1546
  C  C839  1  0.037600  0.218800  0.692800  1.0  0.6111
  C  C840  1  0.125700  0.189900  0.636300  1.0  -0.1251
  C  C841  1  0.148000  0.170500  0.605400  1.0  -0.1283
  C  C842  1  0.149900  0.193300  0.568400  1.0  0.6278
  C  C843  1  0.995400  0.317500  0.509700  1.0  -0.1276
  C  C844  1  0.955900  0.306100  0.528800  1.0  -0.1253
  C  C845  1  0.961800  0.283700  0.565300  1.0  0.6097
  C  C846  1  0.109200  0.374700  0.440400  1.0  -0.1247
  C  C847  1  0.083900  0.342200  0.424900  1.0  -0.1208
  C  C848  1  0.084500  0.306100  0.450000  1.0  0.6114
  C  C849  1  0.930600  0.247900  0.752000  1.0  -0.1333
  C  C850  1  0.945600  0.285300  0.733800  1.0  -0.1556
  C  C851  1  0.962400  0.281200  0.692800  1.0  0.6096
  C  C852  1  0.874300  0.310100  0.636300  1.0  -0.1266
  C  C853  1  0.852000  0.329500  0.605400  1.0  -0.1273
  C  C854  1  0.850100  0.306700  0.568400  1.0  0.6267
  C  C855  1  0.004600  0.182500  0.509700  1.0  -0.1281
  C  C856  1  0.044100  0.193900  0.528800  1.0  -0.1253
  C  C857  1  0.038200  0.216300  0.565300  1.0  0.6098
  C  C858  1  0.890800  0.125300  0.440400  1.0  -0.1227
  C  C859  1  0.916100  0.157800  0.424900  1.0  -0.122
  C  C860  1  0.915500  0.193900  0.450000  1.0  0.6104
  C  C861  1  0.430600  0.747900  0.252000  1.0  -0.1333
  C  C862  1  0.445600  0.785300  0.233800  1.0  -0.1556
  C  C863  1  0.462400  0.781200  0.192800  1.0  0.6096
  C  C864  1  0.374300  0.810100  0.136300  1.0  -0.1266
  C  C865  1  0.352000  0.829500  0.105400  1.0  -0.1273
  C  C866  1  0.350100  0.806700  0.068400  1.0  0.6267
  C  C867  1  0.504600  0.682500  0.009700  1.0  -0.1281
  C  C868  1  0.544100  0.693900  0.028800  1.0  -0.1253
  C  C869  1  0.538200  0.716300  0.065300  1.0  0.6098
  C  C870  1  0.390800  0.625300  0.940400  1.0  -0.1227
  C  C871  1  0.416100  0.657800  0.924900  1.0  -0.122
  C  C872  1  0.415500  0.693900  0.950000  1.0  0.6104
  C  C873  1  0.069400  0.747900  0.748000  1.0  -0.1302
  C  C874  1  0.054400  0.785300  0.766200  1.0  -0.1532
  C  C875  1  0.037600  0.781200  0.807200  1.0  0.6098
  C  C876  1  0.125700  0.810100  0.863700  1.0  -0.1254
  C  C877  1  0.148000  0.829500  0.894600  1.0  -0.1265
  C  C878  1  0.149900  0.806700  0.931600  1.0  0.6267
  C  C879  1  0.995400  0.682500  0.990300  1.0  -0.1283
  C  C880  1  0.955900  0.693900  0.971200  1.0  -0.1311
  C  C881  1  0.961800  0.716300  0.934700  1.0  0.6098
  C  C882  1  0.109200  0.625300  0.059600  1.0  -0.1242
  C  C883  1  0.083900  0.657800  0.075100  1.0  -0.1314
  C  C884  1  0.084500  0.693900  0.050000  1.0  0.6096
  C  C885  1  0.569400  0.247900  0.248000  1.0  -0.1302
  C  C886  1  0.554400  0.285300  0.266200  1.0  -0.1532
  C  C887  1  0.537600  0.281200  0.307200  1.0  0.6098
  C  C888  1  0.625700  0.310100  0.363700  1.0  -0.1254
  C  C889  1  0.648000  0.329500  0.394600  1.0  -0.1265
  C  C890  1  0.649900  0.306700  0.431600  1.0  0.6267
  C  C891  1  0.495400  0.182500  0.490300  1.0  -0.1283
  C  C892  1  0.455900  0.193900  0.471200  1.0  -0.1311
  C  C893  1  0.461800  0.216300  0.434700  1.0  0.6098
  C  C894  1  0.609200  0.125300  0.559600  1.0  -0.1242
  C  C895  1  0.583900  0.157800  0.575100  1.0  -0.1314
  C  C896  1  0.584500  0.193900  0.550000  1.0  0.6096
  O  O897  1  0.690100  0.637400  0.740100  1.0  -0.9015
  O  O898  1  0.566900  0.504100  0.612400  1.0  -0.92
  O  O899  1  0.512200  0.555000  0.614300  1.0  -0.9269
  O  O900  1  0.743100  0.638100  0.690100  1.0  -0.8814
  O  O901  1  0.619000  0.612000  0.715000  1.0  -0.8563
  O  O902  1  0.688900  0.575100  0.679800  1.0  -0.8878
  O  O903  1  0.570600  0.563500  0.672500  1.0  -0.8709
  O  O904  1  0.642000  0.527900  0.634900  1.0  -0.8829
  O  O905  1  0.670500  0.555300  0.757800  1.0  -0.805
  O  O906  1  0.683100  0.509300  0.800100  1.0  -0.7618
  O  O907  1  0.573400  0.648400  0.768800  1.0  -0.7626
  O  O908  1  0.537100  0.654200  0.821100  1.0  -0.523
  O  O909  1  0.591300  0.485300  0.702900  1.0  -0.7997
  O  O910  1  0.572000  0.441500  0.746600  1.0  -0.8488
  O  O911  1  0.486900  0.584300  0.689500  1.0  -0.7923
  O  O912  1  0.436200  0.584100  0.726700  1.0  -0.4981
  O  O913  1  0.190100  0.137400  0.240100  1.0  -0.9015
  O  O914  1  0.066900  0.004100  0.112400  1.0  -0.92
  O  O915  1  0.012200  0.055000  0.114300  1.0  -0.9269
  O  O916  1  0.243100  0.138100  0.190100  1.0  -0.8814
  O  O917  1  0.119000  0.112000  0.215000  1.0  -0.8563
  O  O918  1  0.188900  0.075100  0.179800  1.0  -0.8878
  O  O919  1  0.070600  0.063500  0.172500  1.0  -0.8709
  O  O920  1  0.142000  0.027900  0.134900  1.0  -0.8829
  O  O921  1  0.170500  0.055300  0.257800  1.0  -0.805
  O  O922  1  0.183100  0.009300  0.300100  1.0  -0.7618
  O  O923  1  0.073400  0.148400  0.268800  1.0  -0.7626
  O  O924  1  0.037100  0.154200  0.321100  1.0  -0.523
  O  O925  1  0.091300  0.985300  0.202900  1.0  -0.7997
  O  O926  1  0.072000  0.941500  0.246600  1.0  -0.8488
  O  O927  1  0.986900  0.084300  0.189500  1.0  -0.7923
  O  O928  1  0.936200  0.084100  0.226700  1.0  -0.4981
  O  O929  1  0.809900  0.362600  0.240100  1.0  -0.9011
  O  O930  1  0.933100  0.495900  0.112400  1.0  -0.9178
  O  O931  1  0.987800  0.445000  0.114300  1.0  -0.9269
  O  O932  1  0.756900  0.361900  0.190100  1.0  -0.8842
  O  O933  1  0.881000  0.388000  0.215000  1.0  -0.8557
  O  O934  1  0.811100  0.424900  0.179800  1.0  -0.889
  O  O935  1  0.929400  0.436500  0.172500  1.0  -0.8713
  O  O936  1  0.858000  0.472100  0.134900  1.0  -0.8843
  O  O937  1  0.829500  0.444700  0.257800  1.0  -0.8078
  O  O938  1  0.816900  0.490700  0.300100  1.0  -0.7606
  O  O939  1  0.926600  0.351600  0.268800  1.0  -0.7618
  O  O940  1  0.962900  0.345800  0.321100  1.0  -0.5232
  O  O941  1  0.908700  0.514700  0.202900  1.0  -0.7981
  O  O942  1  0.928000  0.558500  0.246600  1.0  -0.8498
  O  O943  1  0.013100  0.415700  0.189500  1.0  -0.7891
  O  O944  1  0.063800  0.415900  0.226700  1.0  -0.5019
  O  O945  1  0.309900  0.862600  0.740100  1.0  -0.9011
  O  O946  1  0.433100  0.995900  0.612400  1.0  -0.9178
  O  O947  1  0.487800  0.945000  0.614300  1.0  -0.9269
  O  O948  1  0.256900  0.861900  0.690100  1.0  -0.8842
  O  O949  1  0.381000  0.888000  0.715000  1.0  -0.8557
  O  O950  1  0.311100  0.924900  0.679800  1.0  -0.889
  O  O951  1  0.429400  0.936500  0.672500  1.0  -0.8713
  O  O952  1  0.358000  0.972100  0.634900  1.0  -0.8843
  O  O953  1  0.329500  0.944700  0.757800  1.0  -0.8078
  O  O954  1  0.316900  0.990700  0.800100  1.0  -0.7606
  O  O955  1  0.426600  0.851600  0.768800  1.0  -0.7618
  O  O956  1  0.462900  0.845800  0.821100  1.0  -0.5232
  O  O957  1  0.408700  0.014700  0.702900  1.0  -0.7981
  O  O958  1  0.428000  0.058500  0.746600  1.0  -0.8498
  O  O959  1  0.513100  0.915700  0.689500  1.0  -0.7891
  O  O960  1  0.563800  0.915900  0.726700  1.0  -0.5019
  O  O961  1  0.309900  0.137400  0.759900  1.0  -0.9042
  O  O962  1  0.433100  0.004100  0.887600  1.0  -0.9186
  O  O963  1  0.487800  0.055000  0.885700  1.0  -0.9261
  O  O964  1  0.256900  0.138100  0.809900  1.0  -0.8845
  O  O965  1  0.381000  0.112000  0.785000  1.0  -0.856
  O  O966  1  0.311100  0.075100  0.820200  1.0  -0.8884
  O  O967  1  0.429400  0.063500  0.827500  1.0  -0.8707
  O  O968  1  0.358000  0.027900  0.865100  1.0  -0.8828
  O  O969  1  0.329500  0.055300  0.742200  1.0  -0.8068
  O  O970  1  0.316900  0.009300  0.699900  1.0  -0.763
  O  O971  1  0.426600  0.148400  0.731200  1.0  -0.7609
  O  O972  1  0.462900  0.154200  0.678900  1.0  -0.5236
  O  O973  1  0.408700  0.985300  0.797100  1.0  -0.7968
  O  O974  1  0.428000  0.941500  0.753400  1.0  -0.8489
  O  O975  1  0.513100  0.084300  0.810500  1.0  -0.7891
  O  O976  1  0.563800  0.084100  0.773300  1.0  -0.4986
  O  O977  1  0.809900  0.637400  0.259900  1.0  -0.9042
  O  O978  1  0.933100  0.504100  0.387600  1.0  -0.9186
  O  O979  1  0.987800  0.555000  0.385700  1.0  -0.9261
  O  O980  1  0.756900  0.638100  0.309900  1.0  -0.8845
  O  O981  1  0.881000  0.612000  0.285000  1.0  -0.856
  O  O982  1  0.811100  0.575100  0.320200  1.0  -0.8884
  O  O983  1  0.929400  0.563500  0.327500  1.0  -0.8707
  O  O984  1  0.858000  0.527900  0.365100  1.0  -0.8828
  O  O985  1  0.829500  0.555300  0.242200  1.0  -0.8068
  O  O986  1  0.816900  0.509300  0.199900  1.0  -0.763
  O  O987  1  0.926600  0.648400  0.231200  1.0  -0.7609
  O  O988  1  0.962900  0.654200  0.178900  1.0  -0.5236
  O  O989  1  0.908700  0.485300  0.297100  1.0  -0.7968
  O  O990  1  0.928000  0.441500  0.253400  1.0  -0.8489
  O  O991  1  0.013100  0.584300  0.310500  1.0  -0.7891
  O  O992  1  0.063800  0.584100  0.273300  1.0  -0.4986
  O  O993  1  0.190100  0.862600  0.259900  1.0  -0.9026
  O  O994  1  0.066900  0.995900  0.387600  1.0  -0.918
  O  O995  1  0.012200  0.945000  0.385700  1.0  -0.9271
  O  O996  1  0.243100  0.861900  0.309900  1.0  -0.8841
  O  O997  1  0.119000  0.888000  0.285000  1.0  -0.8556
  O  O998  1  0.188900  0.924900  0.320200  1.0  -0.8872
  O  O999  1  0.070600  0.936500  0.327500  1.0  -0.8718
  O  O1000  1  0.142000  0.972100  0.365100  1.0  -0.8833
  O  O1001  1  0.170500  0.944700  0.242200  1.0  -0.8049
  O  O1002  1  0.183100  0.990700  0.199900  1.0  -0.7627
  O  O1003  1  0.073400  0.851600  0.231200  1.0  -0.7628
  O  O1004  1  0.037100  0.845800  0.178900  1.0  -0.5249
  O  O1005  1  0.091300  0.014700  0.297100  1.0  -0.801
  O  O1006  1  0.072000  0.058500  0.253400  1.0  -0.8491
  O  O1007  1  0.986900  0.915700  0.310500  1.0  -0.7933
  O  O1008  1  0.936200  0.915900  0.273300  1.0  -0.4988
  O  O1009  1  0.690100  0.362600  0.759900  1.0  -0.9026
  O  O1010  1  0.566900  0.495900  0.887600  1.0  -0.918
  O  O1011  1  0.512200  0.445000  0.885700  1.0  -0.9271
  O  O1012  1  0.743100  0.361900  0.809900  1.0  -0.8841
  O  O1013  1  0.619000  0.388000  0.785000  1.0  -0.8556
  O  O1014  1  0.688900  0.424900  0.820200  1.0  -0.8872
  O  O1015  1  0.570600  0.436500  0.827500  1.0  -0.8718
  O  O1016  1  0.642000  0.472100  0.865100  1.0  -0.8833
  O  O1017  1  0.670500  0.444700  0.742200  1.0  -0.8049
  O  O1018  1  0.683100  0.490700  0.699900  1.0  -0.7627
  O  O1019  1  0.573400  0.351600  0.731200  1.0  -0.7628
  O  O1020  1  0.537100  0.345800  0.678900  1.0  -0.5249
  O  O1021  1  0.591300  0.514700  0.797100  1.0  -0.801
  O  O1022  1  0.572000  0.558500  0.753400  1.0  -0.8491
  O  O1023  1  0.486900  0.415700  0.810500  1.0  -0.7933
  O  O1024  1  0.436200  0.415900  0.773300  1.0  -0.4988
  O  O1025  1  0.740100  0.690100  0.637400  1.0  -0.9016
  O  O1026  1  0.612400  0.566900  0.504100  1.0  -0.9196
  O  O1027  1  0.614300  0.512200  0.555000  1.0  -0.9273
  O  O1028  1  0.690100  0.743100  0.638100  1.0  -0.8813
  O  O1029  1  0.715000  0.619000  0.612000  1.0  -0.8557
  O  O1030  1  0.679800  0.688900  0.575100  1.0  -0.8882
  O  O1031  1  0.672500  0.570600  0.563500  1.0  -0.8713
  O  O1032  1  0.634900  0.642000  0.527900  1.0  -0.8833
  O  O1033  1  0.757800  0.670500  0.555300  1.0  -0.8068
  O  O1034  1  0.800100  0.683100  0.509300  1.0  -0.7585
  O  O1035  1  0.768800  0.573400  0.648400  1.0  -0.7555
  O  O1036  1  0.821100  0.537100  0.654200  1.0  -0.5181
  O  O1037  1  0.702900  0.591300  0.485300  1.0  -0.8019
  O  O1038  1  0.746600  0.572000  0.441500  1.0  -0.8488
  O  O1039  1  0.689500  0.486900  0.584300  1.0  -0.7913
  O  O1040  1  0.726700  0.436200  0.584100  1.0  -0.4962
  O  O1041  1  0.240100  0.190100  0.137400  1.0  -0.9016
  O  O1042  1  0.112400  0.066900  0.004100  1.0  -0.9196
  O  O1043  1  0.114300  0.012200  0.055000  1.0  -0.9273
  O  O1044  1  0.190100  0.243100  0.138100  1.0  -0.8813
  O  O1045  1  0.215000  0.119000  0.112000  1.0  -0.8557
  O  O1046  1  0.179800  0.188900  0.075100  1.0  -0.8882
  O  O1047  1  0.172500  0.070600  0.063500  1.0  -0.8713
  O  O1048  1  0.134900  0.142000  0.027900  1.0  -0.8833
  O  O1049  1  0.257800  0.170500  0.055300  1.0  -0.8068
  O  O1050  1  0.300100  0.183100  0.009300  1.0  -0.7585
  O  O1051  1  0.268800  0.073400  0.148400  1.0  -0.7555
  O  O1052  1  0.321100  0.037100  0.154200  1.0  -0.5181
  O  O1053  1  0.202900  0.091300  0.985300  1.0  -0.8019
  O  O1054  1  0.246600  0.072000  0.941500  1.0  -0.8488
  O  O1055  1  0.189500  0.986900  0.084300  1.0  -0.7913
  O  O1056  1  0.226700  0.936200  0.084100  1.0  -0.4962
  O  O1057  1  0.240100  0.809900  0.362600  1.0  -0.9035
  O  O1058  1  0.112400  0.933100  0.495900  1.0  -0.918
  O  O1059  1  0.114300  0.987800  0.445000  1.0  -0.9267
  O  O1060  1  0.190100  0.756900  0.361900  1.0  -0.8848
  O  O1061  1  0.215000  0.881000  0.388000  1.0  -0.8557
  O  O1062  1  0.179800  0.811100  0.424900  1.0  -0.8875
  O  O1063  1  0.172500  0.929400  0.436500  1.0  -0.8721
  O  O1064  1  0.134900  0.858000  0.472100  1.0  -0.8838
  O  O1065  1  0.257800  0.829500  0.444700  1.0  -0.8071
  O  O1066  1  0.300100  0.816900  0.490700  1.0  -0.7596
  O  O1067  1  0.268800  0.926600  0.351600  1.0  -0.7557
  O  O1068  1  0.321100  0.962900  0.345800  1.0  -0.5175
  O  O1069  1  0.202900  0.908700  0.514700  1.0  -0.8007
  O  O1070  1  0.246600  0.928000  0.558500  1.0  -0.8492
  O  O1071  1  0.189500  0.013100  0.415700  1.0  -0.7932
  O  O1072  1  0.226700  0.063800  0.415900  1.0  -0.4976
  O  O1073  1  0.740100  0.309900  0.862600  1.0  -0.9035
  O  O1074  1  0.612400  0.433100  0.995900  1.0  -0.918
  O  O1075  1  0.614300  0.487800  0.945000  1.0  -0.9267
  O  O1076  1  0.690100  0.256900  0.861900  1.0  -0.8848
  O  O1077  1  0.715000  0.381000  0.888000  1.0  -0.8557
  O  O1078  1  0.679800  0.311100  0.924900  1.0  -0.8875
  O  O1079  1  0.672500  0.429400  0.936500  1.0  -0.8721
  O  O1080  1  0.634900  0.358000  0.972100  1.0  -0.8838
  O  O1081  1  0.757800  0.329500  0.944700  1.0  -0.8071
  O  O1082  1  0.800100  0.316900  0.990700  1.0  -0.7596
  O  O1083  1  0.768800  0.426600  0.851600  1.0  -0.7557
  O  O1084  1  0.821100  0.462900  0.845800  1.0  -0.5175
  O  O1085  1  0.702900  0.408700  0.014700  1.0  -0.8007
  O  O1086  1  0.746600  0.428000  0.058500  1.0  -0.8492
  O  O1087  1  0.689500  0.513100  0.915700  1.0  -0.7932
  O  O1088  1  0.726700  0.563800  0.915900  1.0  -0.4976
  O  O1089  1  0.759900  0.309900  0.137400  1.0  -0.9015
  O  O1090  1  0.887600  0.433100  0.004100  1.0  -0.9175
  O  O1091  1  0.885700  0.487800  0.055000  1.0  -0.9279
  O  O1092  1  0.809900  0.256900  0.138100  1.0  -0.8848
  O  O1093  1  0.785000  0.381000  0.112000  1.0  -0.8558
  O  O1094  1  0.820200  0.311100  0.075100  1.0  -0.8878
  O  O1095  1  0.827500  0.429400  0.063500  1.0  -0.8727
  O  O1096  1  0.865100  0.358000  0.027900  1.0  -0.884
  O  O1097  1  0.742200  0.329500  0.055300  1.0  -0.8074
  O  O1098  1  0.699900  0.316900  0.009300  1.0  -0.7586
  O  O1099  1  0.731200  0.426600  0.148400  1.0  -0.7551
  O  O1100  1  0.678900  0.462900  0.154200  1.0  -0.5193
  O  O1101  1  0.797100  0.408700  0.985300  1.0  -0.8015
  O  O1102  1  0.753400  0.428000  0.941500  1.0  -0.8465
  O  O1103  1  0.810500  0.513100  0.084300  1.0  -0.7929
  O  O1104  1  0.773300  0.563800  0.084100  1.0  -0.497
  O  O1105  1  0.259900  0.809900  0.637400  1.0  -0.9015
  O  O1106  1  0.387600  0.933100  0.504100  1.0  -0.9175
  O  O1107  1  0.385700  0.987800  0.555000  1.0  -0.9279
  O  O1108  1  0.309900  0.756900  0.638100  1.0  -0.8848
  O  O1109  1  0.285000  0.881000  0.612000  1.0  -0.8558
  O  O1110  1  0.320200  0.811100  0.575100  1.0  -0.8878
  O  O1111  1  0.327500  0.929400  0.563500  1.0  -0.8727
  O  O1112  1  0.365100  0.858000  0.527900  1.0  -0.884
  O  O1113  1  0.242200  0.829500  0.555300  1.0  -0.8074
  O  O1114  1  0.199900  0.816900  0.509300  1.0  -0.7586
  O  O1115  1  0.231200  0.926600  0.648400  1.0  -0.7551
  O  O1116  1  0.178900  0.962900  0.654200  1.0  -0.5193
  O  O1117  1  0.297100  0.908700  0.485300  1.0  -0.8015
  O  O1118  1  0.253400  0.928000  0.441500  1.0  -0.8465
  O  O1119  1  0.310500  0.013100  0.584300  1.0  -0.7929
  O  O1120  1  0.273300  0.063800  0.584100  1.0  -0.497
  O  O1121  1  0.259900  0.190100  0.862600  1.0  -0.904
  O  O1122  1  0.387600  0.066900  0.995900  1.0  -0.9184
  O  O1123  1  0.385700  0.012200  0.945000  1.0  -0.9265
  O  O1124  1  0.309900  0.243100  0.861900  1.0  -0.8854
  O  O1125  1  0.285000  0.119000  0.888000  1.0  -0.8561
  O  O1126  1  0.320200  0.188900  0.924900  1.0  -0.8885
  O  O1127  1  0.327500  0.070600  0.936500  1.0  -0.8715
  O  O1128  1  0.365100  0.142000  0.972100  1.0  -0.883
  O  O1129  1  0.242200  0.170500  0.944700  1.0  -0.8067
  O  O1130  1  0.199900  0.183100  0.990700  1.0  -0.7574
  O  O1131  1  0.231200  0.073400  0.851600  1.0  -0.7546
  O  O1132  1  0.178900  0.037100  0.845800  1.0  -0.5184
  O  O1133  1  0.297100  0.091300  0.014700  1.0  -0.8011
  O  O1134  1  0.253400  0.072000  0.058500  1.0  -0.8467
  O  O1135  1  0.310500  0.986900  0.915700  1.0  -0.7918
  O  O1136  1  0.273300  0.936200  0.915900  1.0  -0.4973
  O  O1137  1  0.759900  0.690100  0.362600  1.0  -0.904
  O  O1138  1  0.887600  0.566900  0.495900  1.0  -0.9184
  O  O1139  1  0.885700  0.512200  0.445000  1.0  -0.9265
  O  O1140  1  0.809900  0.743100  0.361900  1.0  -0.8854
  O  O1141  1  0.785000  0.619000  0.388000  1.0  -0.8561
  O  O1142  1  0.820200  0.688900  0.424900  1.0  -0.8885
  O  O1143  1  0.827500  0.570600  0.436500  1.0  -0.8715
  O  O1144  1  0.865100  0.642000  0.472100  1.0  -0.883
  O  O1145  1  0.742200  0.670500  0.444700  1.0  -0.8067
  O  O1146  1  0.699900  0.683100  0.490700  1.0  -0.7574
  O  O1147  1  0.731200  0.573400  0.351600  1.0  -0.7546
  O  O1148  1  0.678900  0.537100  0.345800  1.0  -0.5184
  O  O1149  1  0.797100  0.591300  0.514700  1.0  -0.8011
  O  O1150  1  0.753400  0.572000  0.558500  1.0  -0.8467
  O  O1151  1  0.810500  0.486900  0.415700  1.0  -0.7918
  O  O1152  1  0.773300  0.436200  0.415900  1.0  -0.4973
  O  O1153  1  0.637400  0.740100  0.690100  1.0  -0.902
  O  O1154  1  0.504100  0.612400  0.566900  1.0  -0.9195
  O  O1155  1  0.555000  0.614300  0.512200  1.0  -0.9258
  O  O1156  1  0.638100  0.690100  0.743100  1.0  -0.881
  O  O1157  1  0.612000  0.715000  0.619000  1.0  -0.8571
  O  O1158  1  0.575100  0.679800  0.688900  1.0  -0.8878
  O  O1159  1  0.563500  0.672500  0.570600  1.0  -0.8713
  O  O1160  1  0.527900  0.634900  0.642000  1.0  -0.8826
  O  O1161  1  0.555300  0.757800  0.670500  1.0  -0.8077
  O  O1162  1  0.509300  0.800100  0.683100  1.0  -0.7604
  O  O1163  1  0.648400  0.768800  0.573400  1.0  -0.7565
  O  O1164  1  0.654200  0.821100  0.537100  1.0  -0.5169
  O  O1165  1  0.485300  0.702900  0.591300  1.0  -0.8025
  O  O1166  1  0.441500  0.746600  0.572000  1.0  -0.8486
  O  O1167  1  0.584300  0.689500  0.486900  1.0  -0.7956
  O  O1168  1  0.584100  0.726700  0.436200  1.0  -0.497
  O  O1169  1  0.137400  0.240100  0.190100  1.0  -0.902
  O  O1170  1  0.004100  0.112400  0.066900  1.0  -0.9195
  O  O1171  1  0.055000  0.114300  0.012200  1.0  -0.9258
  O  O1172  1  0.138100  0.190100  0.243100  1.0  -0.881
  O  O1173  1  0.112000  0.215000  0.119000  1.0  -0.8571
  O  O1174  1  0.075100  0.179800  0.188900  1.0  -0.8878
  O  O1175  1  0.063500  0.172500  0.070600  1.0  -0.8713
  O  O1176  1  0.027900  0.134900  0.142000  1.0  -0.8826
  O  O1177  1  0.055300  0.257800  0.170500  1.0  -0.8077
  O  O1178  1  0.009300  0.300100  0.183100  1.0  -0.7604
  O  O1179  1  0.148400  0.268800  0.073400  1.0  -0.7565
  O  O1180  1  0.154200  0.321100  0.037100  1.0  -0.5169
  O  O1181  1  0.985300  0.202900  0.091300  1.0  -0.8025
  O  O1182  1  0.941500  0.246600  0.072000  1.0  -0.8486
  O  O1183  1  0.084300  0.189500  0.986900  1.0  -0.7956
  O  O1184  1  0.084100  0.226700  0.936200  1.0  -0.497
  O  O1185  1  0.362600  0.240100  0.809900  1.0  -0.9052
  O  O1186  1  0.495900  0.112400  0.933100  1.0  -0.9187
  O  O1187  1  0.445000  0.114300  0.987800  1.0  -0.9258
  O  O1188  1  0.361900  0.190100  0.756900  1.0  -0.8832
  O  O1189  1  0.388000  0.215000  0.881000  1.0  -0.8571
  O  O1190  1  0.424900  0.179800  0.811100  1.0  -0.8873
  O  O1191  1  0.436500  0.172500  0.929400  1.0  -0.8714
  O  O1192  1  0.472100  0.134900  0.858000  1.0  -0.8826
  O  O1193  1  0.444700  0.257800  0.829500  1.0  -0.8084
  O  O1194  1  0.490700  0.300100  0.816900  1.0  -0.7628
  O  O1195  1  0.351600  0.268800  0.926600  1.0  -0.757
  O  O1196  1  0.345800  0.321100  0.962900  1.0  -0.5214
  O  O1197  1  0.514700  0.202900  0.908700  1.0  -0.8007
  O  O1198  1  0.558500  0.246600  0.928000  1.0  -0.848
  O  O1199  1  0.415700  0.189500  0.013100  1.0  -0.7969
  O  O1200  1  0.415900  0.226700  0.063800  1.0  -0.4968
  O  O1201  1  0.862600  0.740100  0.309900  1.0  -0.9052
  O  O1202  1  0.995900  0.612400  0.433100  1.0  -0.9187
  O  O1203  1  0.945000  0.614300  0.487800  1.0  -0.9258
  O  O1204  1  0.861900  0.690100  0.256900  1.0  -0.8832
  O  O1205  1  0.888000  0.715000  0.381000  1.0  -0.8571
  O  O1206  1  0.924900  0.679800  0.311100  1.0  -0.8873
  O  O1207  1  0.936500  0.672500  0.429400  1.0  -0.8714
  O  O1208  1  0.972100  0.634900  0.358000  1.0  -0.8826
  O  O1209  1  0.944700  0.757800  0.329500  1.0  -0.8084
  O  O1210  1  0.990700  0.800100  0.316900  1.0  -0.7628
  O  O1211  1  0.851600  0.768800  0.426600  1.0  -0.757
  O  O1212  1  0.845800  0.821100  0.462900  1.0  -0.5214
  O  O1213  1  0.014700  0.702900  0.408700  1.0  -0.8007
  O  O1214  1  0.058500  0.746600  0.428000  1.0  -0.848
  O  O1215  1  0.915700  0.689500  0.513100  1.0  -0.7969
  O  O1216  1  0.915900  0.726700  0.563800  1.0  -0.4968
  O  O1217  1  0.137400  0.759900  0.309900  1.0  -0.9028
  O  O1218  1  0.004100  0.887600  0.433100  1.0  -0.9177
  O  O1219  1  0.055000  0.885700  0.487800  1.0  -0.9258
  O  O1220  1  0.138100  0.809900  0.256900  1.0  -0.8845
  O  O1221  1  0.112000  0.785000  0.381000  1.0  -0.8576
  O  O1222  1  0.075100  0.820200  0.311100  1.0  -0.8869
  O  O1223  1  0.063500  0.827500  0.429400  1.0  -0.8724
  O  O1224  1  0.027900  0.865100  0.358000  1.0  -0.8835
  O  O1225  1  0.055300  0.742200  0.329500  1.0  -0.8075
  O  O1226  1  0.009300  0.699900  0.316900  1.0  -0.7609
  O  O1227  1  0.148400  0.731200  0.426600  1.0  -0.7558
  O  O1228  1  0.154200  0.678900  0.462900  1.0  -0.5184
  O  O1229  1  0.985300  0.797100  0.408700  1.0  -0.8034
  O  O1230  1  0.941500  0.753400  0.428000  1.0  -0.8473
  O  O1231  1  0.084300  0.810500  0.513100  1.0  -0.7969
  O  O1232  1  0.084100  0.773300  0.563800  1.0  -0.4948
  O  O1233  1  0.637400  0.259900  0.809900  1.0  -0.9028
  O  O1234  1  0.504100  0.387600  0.933100  1.0  -0.9177
  O  O1235  1  0.555000  0.385700  0.987800  1.0  -0.9258
  O  O1236  1  0.638100  0.309900  0.756900  1.0  -0.8845
  O  O1237  1  0.612000  0.285000  0.881000  1.0  -0.8576
  O  O1238  1  0.575100  0.320200  0.811100  1.0  -0.8869
  O  O1239  1  0.563500  0.327500  0.929400  1.0  -0.8724
  O  O1240  1  0.527900  0.365100  0.858000  1.0  -0.8835
  O  O1241  1  0.555300  0.242200  0.829500  1.0  -0.8075
  O  O1242  1  0.509300  0.199900  0.816900  1.0  -0.7609
  O  O1243  1  0.648400  0.231200  0.926600  1.0  -0.7558
  O  O1244  1  0.654200  0.178900  0.962900  1.0  -0.5184
  O  O1245  1  0.485300  0.297100  0.908700  1.0  -0.8034
  O  O1246  1  0.441500  0.253400  0.928000  1.0  -0.8473
  O  O1247  1  0.584300  0.310500  0.013100  1.0  -0.7969
  O  O1248  1  0.584100  0.273300  0.063800  1.0  -0.4948
  O  O1249  1  0.862600  0.259900  0.190100  1.0  -0.902
  O  O1250  1  0.995900  0.387600  0.066900  1.0  -0.9172
  O  O1251  1  0.945000  0.385700  0.012200  1.0  -0.9254
  O  O1252  1  0.861900  0.309900  0.243100  1.0  -0.8847
  O  O1253  1  0.888000  0.285000  0.119000  1.0  -0.8572
  O  O1254  1  0.924900  0.320200  0.188900  1.0  -0.8873
  O  O1255  1  0.936500  0.327500  0.070600  1.0  -0.8707
  O  O1256  1  0.972100  0.365100  0.142000  1.0  -0.8839
  O  O1257  1  0.944700  0.242200  0.170500  1.0  -0.8085
  O  O1258  1  0.990700  0.199900  0.183100  1.0  -0.7616
  O  O1259  1  0.851600  0.231200  0.073400  1.0  -0.756
  O  O1260  1  0.845800  0.178900  0.037100  1.0  -0.5177
  O  O1261  1  0.014700  0.297100  0.091300  1.0  -0.802
  O  O1262  1  0.058500  0.253400  0.072000  1.0  -0.8473
  O  O1263  1  0.915700  0.310500  0.986900  1.0  -0.7966
  O  O1264  1  0.915900  0.273300  0.936200  1.0  -0.4951
  O  O1265  1  0.362600  0.759900  0.690100  1.0  -0.902
  O  O1266  1  0.495900  0.887600  0.566900  1.0  -0.9172
  O  O1267  1  0.445000  0.885700  0.512200  1.0  -0.9254
  O  O1268  1  0.361900  0.809900  0.743100  1.0  -0.8847
  O  O1269  1  0.388000  0.785000  0.619000  1.0  -0.8572
  O  O1270  1  0.424900  0.820200  0.688900  1.0  -0.8873
  O  O1271  1  0.436500  0.827500  0.570600  1.0  -0.8707
  O  O1272  1  0.472100  0.865100  0.642000  1.0  -0.8839
  O  O1273  1  0.444700  0.742200  0.670500  1.0  -0.8085
  O  O1274  1  0.490700  0.699900  0.683100  1.0  -0.7616
  O  O1275  1  0.351600  0.731200  0.573400  1.0  -0.756
  O  O1276  1  0.345800  0.678900  0.537100  1.0  -0.5177
  O  O1277  1  0.514700  0.797100  0.591300  1.0  -0.802
  O  O1278  1  0.558500  0.753400  0.572000  1.0  -0.8473
  O  O1279  1  0.415700  0.810500  0.486900  1.0  -0.7966
  O  O1280  1  0.415900  0.773300  0.436200  1.0  -0.4951
  O  O1281  1  0.309900  0.362600  0.259900  1.0  -0.903
  O  O1282  1  0.433100  0.495900  0.387600  1.0  -0.9166
  O  O1283  1  0.487800  0.445000  0.385700  1.0  -0.9263
  O  O1284  1  0.256900  0.361900  0.309900  1.0  -0.8851
  O  O1285  1  0.381000  0.388000  0.285000  1.0  -0.8555
  O  O1286  1  0.311100  0.424900  0.320200  1.0  -0.8883
  O  O1287  1  0.429400  0.436500  0.327500  1.0  -0.8715
  O  O1288  1  0.358000  0.472100  0.365100  1.0  -0.8839
  O  O1289  1  0.329500  0.444700  0.242200  1.0  -0.8069
  O  O1290  1  0.316900  0.490700  0.199900  1.0  -0.7635
  O  O1291  1  0.426600  0.351600  0.231200  1.0  -0.7612
  O  O1292  1  0.462900  0.345800  0.178900  1.0  -0.5243
  O  O1293  1  0.408700  0.514700  0.297100  1.0  -0.7983
  O  O1294  1  0.428000  0.558500  0.253400  1.0  -0.8487
  O  O1295  1  0.513100  0.415700  0.310500  1.0  -0.7888
  O  O1296  1  0.563800  0.415900  0.273300  1.0  -0.4986
  O  O1297  1  0.809900  0.862600  0.759900  1.0  -0.903
  O  O1298  1  0.933100  0.995900  0.887600  1.0  -0.9166
  O  O1299  1  0.987800  0.945000  0.885700  1.0  -0.9263
  O  O1300  1  0.756900  0.861900  0.809900  1.0  -0.8851
  O  O1301  1  0.881000  0.888000  0.785000  1.0  -0.8555
  O  O1302  1  0.811100  0.924900  0.820200  1.0  -0.8883
  O  O1303  1  0.929400  0.936500  0.827500  1.0  -0.8715
  O  O1304  1  0.858000  0.972100  0.865100  1.0  -0.8839
  O  O1305  1  0.829500  0.944700  0.742200  1.0  -0.8069
  O  O1306  1  0.816900  0.990700  0.699900  1.0  -0.7635
  O  O1307  1  0.926600  0.851600  0.731200  1.0  -0.7612
  O  O1308  1  0.962900  0.845800  0.678900  1.0  -0.5243
  O  O1309  1  0.908700  0.014700  0.797100  1.0  -0.7983
  O  O1310  1  0.928000  0.058500  0.753400  1.0  -0.8487
  O  O1311  1  0.013100  0.915700  0.810500  1.0  -0.7888
  O  O1312  1  0.063800  0.915900  0.773300  1.0  -0.4986
  O  O1313  1  0.190100  0.637400  0.759900  1.0  -0.9036
  O  O1314  1  0.066900  0.504100  0.887600  1.0  -0.9192
  O  O1315  1  0.012200  0.555000  0.885700  1.0  -0.9262
  O  O1316  1  0.243100  0.638100  0.809900  1.0  -0.8836
  O  O1317  1  0.119000  0.612000  0.785000  1.0  -0.8562
  O  O1318  1  0.188900  0.575100  0.820200  1.0  -0.8873
  O  O1319  1  0.070600  0.563500  0.827500  1.0  -0.8711
  O  O1320  1  0.142000  0.527900  0.865100  1.0  -0.8824
  O  O1321  1  0.170500  0.555300  0.742200  1.0  -0.8043
  O  O1322  1  0.183100  0.509300  0.699900  1.0  -0.7633
  O  O1323  1  0.073400  0.648400  0.731200  1.0  -0.7623
  O  O1324  1  0.037100  0.654200  0.678900  1.0  -0.5248
  O  O1325  1  0.091300  0.485300  0.797100  1.0  -0.7994
  O  O1326  1  0.072000  0.441500  0.753400  1.0  -0.849
  O  O1327  1  0.986900  0.584300  0.810500  1.0  -0.7931
  O  O1328  1  0.936200  0.584100  0.773300  1.0  -0.4987
  O  O1329  1  0.690100  0.137400  0.259900  1.0  -0.9036
  O  O1330  1  0.566900  0.004100  0.387600  1.0  -0.9192
  O  O1331  1  0.512200  0.055000  0.385700  1.0  -0.9262
  O  O1332  1  0.743100  0.138100  0.309900  1.0  -0.8836
  O  O1333  1  0.619000  0.112000  0.285000  1.0  -0.8562
  O  O1334  1  0.688900  0.075100  0.320200  1.0  -0.8873
  O  O1335  1  0.570600  0.063500  0.327500  1.0  -0.8711
  O  O1336  1  0.642000  0.027900  0.365100  1.0  -0.8824
  O  O1337  1  0.670500  0.055300  0.242200  1.0  -0.8043
  O  O1338  1  0.683100  0.009300  0.199900  1.0  -0.7633
  O  O1339  1  0.573400  0.148400  0.231200  1.0  -0.7623
  O  O1340  1  0.537100  0.154200  0.178900  1.0  -0.5248
  O  O1341  1  0.591300  0.985300  0.297100  1.0  -0.7994
  O  O1342  1  0.572000  0.941500  0.253400  1.0  -0.849
  O  O1343  1  0.486900  0.084300  0.310500  1.0  -0.7931
  O  O1344  1  0.436200  0.084100  0.273300  1.0  -0.4987
  O  O1345  1  0.690100  0.862600  0.240100  1.0  -0.9016
  O  O1346  1  0.566900  0.995900  0.112400  1.0  -0.9196
  O  O1347  1  0.512200  0.945000  0.114300  1.0  -0.9273
  O  O1348  1  0.743100  0.861900  0.190100  1.0  -0.8836
  O  O1349  1  0.619000  0.888000  0.215000  1.0  -0.8558
  O  O1350  1  0.688900  0.924900  0.179800  1.0  -0.888
  O  O1351  1  0.570600  0.936500  0.172500  1.0  -0.8716
  O  O1352  1  0.642000  0.972100  0.134900  1.0  -0.8838
  O  O1353  1  0.670500  0.944700  0.257800  1.0  -0.8054
  O  O1354  1  0.683100  0.990700  0.300100  1.0  -0.7605
  O  O1355  1  0.573400  0.851600  0.268800  1.0  -0.763
  O  O1356  1  0.537100  0.845800  0.321100  1.0  -0.523
  O  O1357  1  0.591300  0.014700  0.202900  1.0  -0.8003
  O  O1358  1  0.572000  0.058500  0.246600  1.0  -0.85
  O  O1359  1  0.486900  0.915700  0.189500  1.0  -0.7931
  O  O1360  1  0.436200  0.915900  0.226700  1.0  -0.4986
  O  O1361  1  0.190100  0.362600  0.740100  1.0  -0.9016
  O  O1362  1  0.066900  0.495900  0.612400  1.0  -0.9196
  O  O1363  1  0.012200  0.445000  0.614300  1.0  -0.9273
  O  O1364  1  0.243100  0.361900  0.690100  1.0  -0.8836
  O  O1365  1  0.119000  0.388000  0.715000  1.0  -0.8558
  O  O1366  1  0.188900  0.424900  0.679800  1.0  -0.888
  O  O1367  1  0.070600  0.436500  0.672500  1.0  -0.8716
  O  O1368  1  0.142000  0.472100  0.634900  1.0  -0.8838
  O  O1369  1  0.170500  0.444700  0.757800  1.0  -0.8054
  O  O1370  1  0.183100  0.490700  0.800100  1.0  -0.7605
  O  O1371  1  0.073400  0.351600  0.768800  1.0  -0.763
  O  O1372  1  0.037100  0.345800  0.821100  1.0  -0.523
  O  O1373  1  0.091300  0.514700  0.702900  1.0  -0.8003
  O  O1374  1  0.072000  0.558500  0.746600  1.0  -0.85
  O  O1375  1  0.986900  0.415700  0.689500  1.0  -0.7931
  O  O1376  1  0.936200  0.415900  0.726700  1.0  -0.4986
  O  O1377  1  0.809900  0.137400  0.740100  1.0  -0.9021
  O  O1378  1  0.933100  0.004100  0.612400  1.0  -0.9187
  O  O1379  1  0.987800  0.055000  0.614300  1.0  -0.9269
  O  O1380  1  0.756900  0.138100  0.690100  1.0  -0.8829
  O  O1381  1  0.881000  0.112000  0.715000  1.0  -0.8561
  O  O1382  1  0.811100  0.075100  0.679800  1.0  -0.8889
  O  O1383  1  0.929400  0.063500  0.672500  1.0  -0.8704
  O  O1384  1  0.858000  0.027900  0.634900  1.0  -0.8832
  O  O1385  1  0.829500  0.055300  0.757800  1.0  -0.8077
  O  O1386  1  0.816900  0.009300  0.800100  1.0  -0.7608
  O  O1387  1  0.926600  0.148400  0.768800  1.0  -0.7615
  O  O1388  1  0.962900  0.154200  0.821100  1.0  -0.5227
  O  O1389  1  0.908700  0.985300  0.702900  1.0  -0.7977
  O  O1390  1  0.928000  0.941500  0.746600  1.0  -0.849
  O  O1391  1  0.013100  0.084300  0.689500  1.0  -0.7888
  O  O1392  1  0.063800  0.084100  0.726700  1.0  -0.5017
  O  O1393  1  0.309900  0.637400  0.240100  1.0  -0.9021
  O  O1394  1  0.433100  0.504100  0.112400  1.0  -0.9187
  O  O1395  1  0.487800  0.555000  0.114300  1.0  -0.9269
  O  O1396  1  0.256900  0.638100  0.190100  1.0  -0.8829
  O  O1397  1  0.381000  0.612000  0.215000  1.0  -0.8561
  O  O1398  1  0.311100  0.575100  0.179800  1.0  -0.8889
  O  O1399  1  0.429400  0.563500  0.172500  1.0  -0.8704
  O  O1400  1  0.358000  0.527900  0.134900  1.0  -0.8832
  O  O1401  1  0.329500  0.555300  0.257800  1.0  -0.8077
  O  O1402  1  0.316900  0.509300  0.300100  1.0  -0.7608
  O  O1403  1  0.426600  0.648400  0.268800  1.0  -0.7615
  O  O1404  1  0.462900  0.654200  0.321100  1.0  -0.5227
  O  O1405  1  0.408700  0.485300  0.202900  1.0  -0.7977
  O  O1406  1  0.428000  0.441500  0.246600  1.0  -0.849
  O  O1407  1  0.513100  0.584300  0.189500  1.0  -0.7888
  O  O1408  1  0.563800  0.584100  0.226700  1.0  -0.5017
  O  O1409  1  0.259900  0.309900  0.362600  1.0  -0.903
  O  O1410  1  0.387600  0.433100  0.495900  1.0  -0.9166
  O  O1411  1  0.385700  0.487800  0.445000  1.0  -0.9262
  O  O1412  1  0.309900  0.256900  0.361900  1.0  -0.8859
  O  O1413  1  0.285000  0.381000  0.388000  1.0  -0.8559
  O  O1414  1  0.320200  0.311100  0.424900  1.0  -0.8878
  O  O1415  1  0.327500  0.429400  0.436500  1.0  -0.8725
  O  O1416  1  0.365100  0.358000  0.472100  1.0  -0.8837
  O  O1417  1  0.242200  0.329500  0.444700  1.0  -0.8077
  O  O1418  1  0.199900  0.316900  0.490700  1.0  -0.7584
  O  O1419  1  0.231200  0.426600  0.351600  1.0  -0.7546
  O  O1420  1  0.178900  0.462900  0.345800  1.0  -0.5197
  O  O1421  1  0.297100  0.408700  0.514700  1.0  -0.8009
  O  O1422  1  0.253400  0.428000  0.558500  1.0  -0.847
  O  O1423  1  0.310500  0.513100  0.415700  1.0  -0.7933
  O  O1424  1  0.273300  0.563800  0.415900  1.0  -0.4981
  O  O1425  1  0.759900  0.809900  0.862600  1.0  -0.903
  O  O1426  1  0.887600  0.933100  0.995900  1.0  -0.9166
  O  O1427  1  0.885700  0.987800  0.945000  1.0  -0.9262
  O  O1428  1  0.809900  0.756900  0.861900  1.0  -0.8859
  O  O1429  1  0.785000  0.881000  0.888000  1.0  -0.8559
  O  O1430  1  0.820200  0.811100  0.924900  1.0  -0.8878
  O  O1431  1  0.827500  0.929400  0.936500  1.0  -0.8725
  O  O1432  1  0.865100  0.858000  0.972100  1.0  -0.8837
  O  O1433  1  0.742200  0.829500  0.944700  1.0  -0.8077
  O  O1434  1  0.699900  0.816900  0.990700  1.0  -0.7584
  O  O1435  1  0.731200  0.926600  0.851600  1.0  -0.7546
  O  O1436  1  0.678900  0.962900  0.845800  1.0  -0.5197
  O  O1437  1  0.797100  0.908700  0.014700  1.0  -0.8009
  O  O1438  1  0.753400  0.928000  0.058500  1.0  -0.847
  O  O1439  1  0.810500  0.013100  0.915700  1.0  -0.7933
  O  O1440  1  0.773300  0.063800  0.915900  1.0  -0.4981
  O  O1441  1  0.759900  0.190100  0.637400  1.0  -0.9021
  O  O1442  1  0.887600  0.066900  0.504100  1.0  -0.918
  O  O1443  1  0.885700  0.012200  0.555000  1.0  -0.928
  O  O1444  1  0.809900  0.243100  0.638100  1.0  -0.8835
  O  O1445  1  0.785000  0.119000  0.612000  1.0  -0.8559
  O  O1446  1  0.820200  0.188900  0.575100  1.0  -0.8884
  O  O1447  1  0.827500  0.070600  0.563500  1.0  -0.8718
  O  O1448  1  0.865100  0.142000  0.527900  1.0  -0.8833
  O  O1449  1  0.742200  0.170500  0.555300  1.0  -0.8072
  O  O1450  1  0.699900  0.183100  0.509300  1.0  -0.7582
  O  O1451  1  0.731200  0.073400  0.648400  1.0  -0.7554
  O  O1452  1  0.678900  0.037100  0.654200  1.0  -0.5176
  O  O1453  1  0.797100  0.091300  0.485300  1.0  -0.8018
  O  O1454  1  0.753400  0.072000  0.441500  1.0  -0.8471
  O  O1455  1  0.810500  0.986900  0.584300  1.0  -0.7919
  O  O1456  1  0.773300  0.936200  0.584100  1.0  -0.4963
  O  O1457  1  0.259900  0.690100  0.137400  1.0  -0.9021
  O  O1458  1  0.387600  0.566900  0.004100  1.0  -0.918
  O  O1459  1  0.385700  0.512200  0.055000  1.0  -0.928
  O  O1460  1  0.309900  0.743100  0.138100  1.0  -0.8835
  O  O1461  1  0.285000  0.619000  0.112000  1.0  -0.8559
  O  O1462  1  0.320200  0.688900  0.075100  1.0  -0.8884
  O  O1463  1  0.327500  0.570600  0.063500  1.0  -0.8718
  O  O1464  1  0.365100  0.642000  0.027900  1.0  -0.8833
  O  O1465  1  0.242200  0.670500  0.055300  1.0  -0.8072
  O  O1466  1  0.199900  0.683100  0.009300  1.0  -0.7582
  O  O1467  1  0.231200  0.573400  0.148400  1.0  -0.7554
  O  O1468  1  0.178900  0.537100  0.154200  1.0  -0.5176
  O  O1469  1  0.297100  0.591300  0.985300  1.0  -0.8018
  O  O1470  1  0.253400  0.572000  0.941500  1.0  -0.8471
  O  O1471  1  0.310500  0.486900  0.084300  1.0  -0.7919
  O  O1472  1  0.273300  0.436200  0.084100  1.0  -0.4963
  O  O1473  1  0.240100  0.690100  0.862600  1.0  -0.9038
  O  O1474  1  0.112400  0.566900  0.995900  1.0  -0.9192
  O  O1475  1  0.114300  0.512200  0.945000  1.0  -0.9264
  O  O1476  1  0.190100  0.743100  0.861900  1.0  -0.884
  O  O1477  1  0.215000  0.619000  0.888000  1.0  -0.856
  O  O1478  1  0.179800  0.688900  0.924900  1.0  -0.8882
  O  O1479  1  0.172500  0.570600  0.936500  1.0  -0.8709
  O  O1480  1  0.134900  0.642000  0.972100  1.0  -0.8832
  O  O1481  1  0.257800  0.670500  0.944700  1.0  -0.8061
  O  O1482  1  0.300100  0.683100  0.990700  1.0  -0.7581
  O  O1483  1  0.268800  0.573400  0.851600  1.0  -0.7556
  O  O1484  1  0.321100  0.537100  0.845800  1.0  -0.5171
  O  O1485  1  0.202900  0.591300  0.014700  1.0  -0.8016
  O  O1486  1  0.246600  0.572000  0.058500  1.0  -0.8486
  O  O1487  1  0.189500  0.486900  0.915700  1.0  -0.7913
  O  O1488  1  0.226700  0.436200  0.915900  1.0  -0.4973
  O  O1489  1  0.740100  0.190100  0.362600  1.0  -0.9038
  O  O1490  1  0.612400  0.066900  0.495900  1.0  -0.9192
  O  O1491  1  0.614300  0.012200  0.445000  1.0  -0.9264
  O  O1492  1  0.690100  0.243100  0.361900  1.0  -0.884
  O  O1493  1  0.715000  0.119000  0.388000  1.0  -0.856
  O  O1494  1  0.679800  0.188900  0.424900  1.0  -0.8882
  O  O1495  1  0.672500  0.070600  0.436500  1.0  -0.8709
  O  O1496  1  0.634900  0.142000  0.472100  1.0  -0.8832
  O  O1497  1  0.757800  0.170500  0.444700  1.0  -0.8061
  O  O1498  1  0.800100  0.183100  0.490700  1.0  -0.7581
  O  O1499  1  0.768800  0.073400  0.351600  1.0  -0.7556
  O  O1500  1  0.821100  0.037100  0.345800  1.0  -0.5171
  O  O1501  1  0.702900  0.091300  0.514700  1.0  -0.8016
  O  O1502  1  0.746600  0.072000  0.558500  1.0  -0.8486
  O  O1503  1  0.689500  0.986900  0.415700  1.0  -0.7913
  O  O1504  1  0.726700  0.936200  0.415900  1.0  -0.4973
  O  O1505  1  0.740100  0.809900  0.137400  1.0  -0.9026
  O  O1506  1  0.612400  0.933100  0.004100  1.0  -0.9193
  O  O1507  1  0.614300  0.987800  0.055000  1.0  -0.9275
  O  O1508  1  0.690100  0.756900  0.138100  1.0  -0.884
  O  O1509  1  0.715000  0.881000  0.112000  1.0  -0.8555
  O  O1510  1  0.679800  0.811100  0.075100  1.0  -0.8875
  O  O1511  1  0.672500  0.929400  0.063500  1.0  -0.8722
  O  O1512  1  0.634900  0.858000  0.027900  1.0  -0.884
  O  O1513  1  0.757800  0.829500  0.055300  1.0  -0.8068
  O  O1514  1  0.800100  0.816900  0.009300  1.0  -0.7593
  O  O1515  1  0.768800  0.926600  0.148400  1.0  -0.7556
  O  O1516  1  0.821100  0.962900  0.154200  1.0  -0.5186
  O  O1517  1  0.702900  0.908700  0.985300  1.0  -0.8012
  O  O1518  1  0.746600  0.928000  0.941500  1.0  -0.8486
  O  O1519  1  0.689500  0.013100  0.084300  1.0  -0.7927
  O  O1520  1  0.726700  0.063800  0.084100  1.0  -0.4963
  O  O1521  1  0.240100  0.309900  0.637400  1.0  -0.9026
  O  O1522  1  0.112400  0.433100  0.504100  1.0  -0.9193
  O  O1523  1  0.114300  0.487800  0.555000  1.0  -0.9275
  O  O1524  1  0.190100  0.256900  0.638100  1.0  -0.884
  O  O1525  1  0.215000  0.381000  0.612000  1.0  -0.8555
  O  O1526  1  0.179800  0.311100  0.575100  1.0  -0.8875
  O  O1527  1  0.172500  0.429400  0.563500  1.0  -0.8722
  O  O1528  1  0.134900  0.358000  0.527900  1.0  -0.884
  O  O1529  1  0.257800  0.329500  0.555300  1.0  -0.8068
  O  O1530  1  0.300100  0.316900  0.509300  1.0  -0.7593
  O  O1531  1  0.268800  0.426600  0.648400  1.0  -0.7556
  O  O1532  1  0.321100  0.462900  0.654200  1.0  -0.5186
  O  O1533  1  0.202900  0.408700  0.485300  1.0  -0.8012
  O  O1534  1  0.246600  0.428000  0.441500  1.0  -0.8486
  O  O1535  1  0.189500  0.513100  0.584300  1.0  -0.7927
  O  O1536  1  0.226700  0.563800  0.584100  1.0  -0.4963
  O  O1537  1  0.362600  0.259900  0.309900  1.0  -0.903
  O  O1538  1  0.495900  0.387600  0.433100  1.0  -0.9165
  O  O1539  1  0.445000  0.385700  0.487800  1.0  -0.9251
  O  O1540  1  0.361900  0.309900  0.256900  1.0  -0.8846
  O  O1541  1  0.388000  0.285000  0.381000  1.0  -0.8574
  O  O1542  1  0.424900  0.320200  0.311100  1.0  -0.8869
  O  O1543  1  0.436500  0.327500  0.429400  1.0  -0.8717
  O  O1544  1  0.472100  0.365100  0.358000  1.0  -0.8837
  O  O1545  1  0.444700  0.242200  0.329500  1.0  -0.8083
  O  O1546  1  0.490700  0.199900  0.316900  1.0  -0.7624
  O  O1547  1  0.351600  0.231200  0.426600  1.0  -0.7555
  O  O1548  1  0.345800  0.178900  0.462900  1.0  -0.5197
  O  O1549  1  0.514700  0.297100  0.408700  1.0  -0.801
  O  O1550  1  0.558500  0.253400  0.428000  1.0  -0.8473
  O  O1551  1  0.415700  0.310500  0.513100  1.0  -0.7969
  O  O1552  1  0.415900  0.273300  0.563800  1.0  -0.495
  O  O1553  1  0.862600  0.759900  0.809900  1.0  -0.903
  O  O1554  1  0.995900  0.887600  0.933100  1.0  -0.9165
  O  O1555  1  0.945000  0.885700  0.987800  1.0  -0.9251
  O  O1556  1  0.861900  0.809900  0.756900  1.0  -0.8846
  O  O1557  1  0.888000  0.785000  0.881000  1.0  -0.8574
  O  O1558  1  0.924900  0.820200  0.811100  1.0  -0.8869
  O  O1559  1  0.936500  0.827500  0.929400  1.0  -0.8717
  O  O1560  1  0.972100  0.865100  0.858000  1.0  -0.8837
  O  O1561  1  0.944700  0.742200  0.829500  1.0  -0.8083
  O  O1562  1  0.990700  0.699900  0.816900  1.0  -0.7624
  O  O1563  1  0.851600  0.731200  0.926600  1.0  -0.7555
  O  O1564  1  0.845800  0.678900  0.962900  1.0  -0.5197
  O  O1565  1  0.014700  0.797100  0.908700  1.0  -0.801
  O  O1566  1  0.058500  0.753400  0.928000  1.0  -0.8473
  O  O1567  1  0.915700  0.810500  0.013100  1.0  -0.7969
  O  O1568  1  0.915900  0.773300  0.063800  1.0  -0.495
  O  O1569  1  0.637400  0.759900  0.190100  1.0  -0.9026
  O  O1570  1  0.504100  0.887600  0.066900  1.0  -0.9187
  O  O1571  1  0.555000  0.885700  0.012200  1.0  -0.9258
  O  O1572  1  0.638100  0.809900  0.243100  1.0  -0.8844
  O  O1573  1  0.612000  0.785000  0.119000  1.0  -0.8573
  O  O1574  1  0.575100  0.820200  0.188900  1.0  -0.8874
  O  O1575  1  0.563500  0.827500  0.070600  1.0  -0.8714
  O  O1576  1  0.527900  0.865100  0.142000  1.0  -0.8837
  O  O1577  1  0.555300  0.742200  0.170500  1.0  -0.8081
  O  O1578  1  0.509300  0.699900  0.183100  1.0  -0.7605
  O  O1579  1  0.648400  0.731200  0.073400  1.0  -0.7561
  O  O1580  1  0.654200  0.678900  0.037100  1.0  -0.5159
  O  O1581  1  0.485300  0.797100  0.091300  1.0  -0.804
  O  O1582  1  0.441500  0.753400  0.072000  1.0  -0.8474
  O  O1583  1  0.584300  0.810500  0.986900  1.0  -0.7966
  O  O1584  1  0.584100  0.773300  0.936200  1.0  -0.4954
  O  O1585  1  0.137400  0.259900  0.690100  1.0  -0.9026
  O  O1586  1  0.004100  0.387600  0.566900  1.0  -0.9187
  O  O1587  1  0.055000  0.385700  0.512200  1.0  -0.9258
  O  O1588  1  0.138100  0.309900  0.743100  1.0  -0.8844
  O  O1589  1  0.112000  0.285000  0.619000  1.0  -0.8573
  O  O1590  1  0.075100  0.320200  0.688900  1.0  -0.8874
  O  O1591  1  0.063500  0.327500  0.570600  1.0  -0.8714
  O  O1592  1  0.027900  0.365100  0.642000  1.0  -0.8837
  O  O1593  1  0.055300  0.242200  0.670500  1.0  -0.8081
  O  O1594  1  0.009300  0.199900  0.683100  1.0  -0.7605
  O  O1595  1  0.148400  0.231200  0.573400  1.0  -0.7561
  O  O1596  1  0.154200  0.178900  0.537100  1.0  -0.5159
  O  O1597  1  0.985300  0.297100  0.591300  1.0  -0.804
  O  O1598  1  0.941500  0.253400  0.572000  1.0  -0.8474
  O  O1599  1  0.084300  0.310500  0.486900  1.0  -0.7966
  O  O1600  1  0.084100  0.273300  0.436200  1.0  -0.4954
  O  O1601  1  0.862600  0.240100  0.690100  1.0  -0.903
  O  O1602  1  0.995900  0.112400  0.566900  1.0  -0.9186
  O  O1603  1  0.945000  0.114300  0.512200  1.0  -0.9258
  O  O1604  1  0.861900  0.190100  0.743100  1.0  -0.8825
  O  O1605  1  0.888000  0.215000  0.619000  1.0  -0.8567
  O  O1606  1  0.924900  0.179800  0.688900  1.0  -0.8877
  O  O1607  1  0.936500  0.172500  0.570600  1.0  -0.8705
  O  O1608  1  0.972100  0.134900  0.642000  1.0  -0.8828
  O  O1609  1  0.944700  0.257800  0.670500  1.0  -0.8079
  O  O1610  1  0.990700  0.300100  0.683100  1.0  -0.7623
  O  O1611  1  0.851600  0.268800  0.573400  1.0  -0.7563
  O  O1612  1  0.845800  0.321100  0.537100  1.0  -0.5189
  O  O1613  1  0.014700  0.202900  0.591300  1.0  -0.8009
  O  O1614  1  0.058500  0.246600  0.572000  1.0  -0.8485
  O  O1615  1  0.915700  0.189500  0.486900  1.0  -0.7955
  O  O1616  1  0.915900  0.226700  0.436200  1.0  -0.4963
  O  O1617  1  0.362600  0.740100  0.190100  1.0  -0.903
  O  O1618  1  0.495900  0.612400  0.066900  1.0  -0.9186
  O  O1619  1  0.445000  0.614300  0.012200  1.0  -0.9258
  O  O1620  1  0.361900  0.690100  0.243100  1.0  -0.8825
  O  O1621  1  0.388000  0.715000  0.119000  1.0  -0.8567
  O  O1622  1  0.424900  0.679800  0.188900  1.0  -0.8877
  O  O1623  1  0.436500  0.672500  0.070600  1.0  -0.8705
  O  O1624  1  0.472100  0.634900  0.142000  1.0  -0.8828
  O  O1625  1  0.444700  0.757800  0.170500  1.0  -0.8079
  O  O1626  1  0.490700  0.800100  0.183100  1.0  -0.7623
  O  O1627  1  0.351600  0.768800  0.073400  1.0  -0.7563
  O  O1628  1  0.345800  0.821100  0.037100  1.0  -0.5189
  O  O1629  1  0.514700  0.702900  0.091300  1.0  -0.8009
  O  O1630  1  0.558500  0.746600  0.072000  1.0  -0.8485
  O  O1631  1  0.415700  0.689500  0.986900  1.0  -0.7955
  O  O1632  1  0.415900  0.726700  0.936200  1.0  -0.4963
  O  O1633  1  0.137400  0.740100  0.809900  1.0  -0.9044
  O  O1634  1  0.004100  0.612400  0.933100  1.0  -0.9189
  O  O1635  1  0.055000  0.614300  0.987800  1.0  -0.9257
  O  O1636  1  0.138100  0.690100  0.756900  1.0  -0.8829
  O  O1637  1  0.112000  0.715000  0.881000  1.0  -0.8574
  O  O1638  1  0.075100  0.679800  0.811100  1.0  -0.8874
  O  O1639  1  0.063500  0.672500  0.929400  1.0  -0.8721
  O  O1640  1  0.027900  0.634900  0.858000  1.0  -0.8824
  O  O1641  1  0.055300  0.757800  0.829500  1.0  -0.808
  O  O1642  1  0.009300  0.800100  0.816900  1.0  -0.7604
  O  O1643  1  0.148400  0.768800  0.926600  1.0  -0.7576
  O  O1644  1  0.154200  0.821100  0.962900  1.0  -0.52
  O  O1645  1  0.985300  0.702900  0.908700  1.0  -0.8025
  O  O1646  1  0.941500  0.746600  0.928000  1.0  -0.8481
  O  O1647  1  0.084300  0.689500  0.013100  1.0  -0.7972
  O  O1648  1  0.084100  0.726700  0.063800  1.0  -0.4971
  O  O1649  1  0.637400  0.240100  0.309900  1.0  -0.9044
  O  O1650  1  0.504100  0.112400  0.433100  1.0  -0.9189
  O  O1651  1  0.555000  0.114300  0.487800  1.0  -0.9257
  O  O1652  1  0.638100  0.190100  0.256900  1.0  -0.8829
  O  O1653  1  0.612000  0.215000  0.381000  1.0  -0.8574
  O  O1654  1  0.575100  0.179800  0.311100  1.0  -0.8874
  O  O1655  1  0.563500  0.172500  0.429400  1.0  -0.8721
  O  O1656  1  0.527900  0.134900  0.358000  1.0  -0.8824
  O  O1657  1  0.555300  0.257800  0.329500  1.0  -0.808
  O  O1658  1  0.509300  0.300100  0.316900  1.0  -0.7604
  O  O1659  1  0.648400  0.268800  0.426600  1.0  -0.7576
  O  O1660  1  0.654200  0.321100  0.462900  1.0  -0.52
  O  O1661  1  0.485300  0.202900  0.408700  1.0  -0.8025
  O  O1662  1  0.441500  0.246600  0.428000  1.0  -0.8481
  O  O1663  1  0.584300  0.189500  0.513100  1.0  -0.7972
  O  O1664  1  0.584100  0.226700  0.563800  1.0  -0.4971
