# generated using pymatgen
data_CoH18C26N4O5
_symmetry_space_group_name_H-M   'P 1'
_cell_length_a   18.49050000
_cell_length_b   18.49050000
_cell_length_c   33.54080000
_cell_angle_alpha   106.00000000
_cell_angle_beta   106.00000000
_cell_angle_gamma   90.00000000
_symmetry_Int_Tables_number   1
_chemical_formula_structural   CoH18C26N4O5
_chemical_formula_sum   'Co16 H288 C416 N64 O80'
_cell_volume   10560.41459908
_cell_formula_units_Z   16
loop_
 _symmetry_equiv_pos_site_id
 _symmetry_equiv_pos_as_xyz
  1  'x, y, z'
loop_
 _atom_site_type_symbol
 _atom_site_label
 _atom_site_symmetry_multiplicity
 _atom_site_fract_x
 _atom_site_fract_y
 _atom_site_fract_z
 _atom_site_occupancy
 _atom_site_charge
  Co  Co1  1  0.278180  0.790150  0.866500  1.0  0.9296
  Co  Co2  1  0.088320  0.076350  0.866500  1.0  0.928
  Co  Co3  1  0.790150  0.088320  0.366500  1.0  0.9299
  Co  Co4  1  0.076350  0.278180  0.366500  1.0  0.9272
  Co  Co5  1  0.588320  0.290150  0.866500  1.0  0.9304
  Co  Co6  1  0.778180  0.576350  0.866500  1.0  0.9271
  Co  Co7  1  0.576350  0.588320  0.366500  1.0  0.9287
  Co  Co8  1  0.290150  0.778180  0.366500  1.0  0.9292
  Co  Co9  1  0.411680  0.709850  0.133500  1.0  0.9288
  Co  Co10  1  0.221820  0.423650  0.133500  1.0  0.9281
  Co  Co11  1  0.423650  0.411680  0.633500  1.0  0.9272
  Co  Co12  1  0.709850  0.221820  0.633500  1.0  0.9279
  Co  Co13  1  0.721820  0.209850  0.133500  1.0  0.9286
  Co  Co14  1  0.911680  0.923650  0.133500  1.0  0.9274
  Co  Co15  1  0.209850  0.911680  0.633500  1.0  0.9281
  Co  Co16  1  0.923650  0.721820  0.633500  1.0  0.928
  H  H17  1  0.476700  0.997400  0.923800  1.0  0.1058
  H  H18  1  0.531800  0.106300  0.918000  1.0  0.098
  H  H19  1  0.379400  0.081600  0.803000  1.0  0.0998
  H  H20  1  0.322200  0.974500  0.808400  1.0  0.0965
  H  H21  1  0.312900  0.842900  0.969200  1.0  0.0939
  H  H22  1  0.316600  0.840300  0.037600  1.0  0.1212
  H  H23  1  0.347200  0.885000  0.112800  1.0  0.1038
  H  H24  1  0.159100  0.986200  0.028800  1.0  0.0922
  H  H25  1  0.182000  0.024400  0.103000  1.0  0.1036
  H  H26  1  0.284700  0.122300  0.197400  1.0  0.1035
  H  H27  1  0.180700  0.918400  0.171000  1.0  0.1185
  H  H28  1  0.178000  0.193500  0.308000  1.0  0.0964
  H  H29  1  0.970500  0.128400  0.297800  1.0  0.1035
  H  H30  1  0.005800  0.042100  0.237800  1.0  0.1192
  H  H31  1  0.105200  0.969000  0.216400  1.0  0.1184
  H  H32  1  0.209100  0.174400  0.241400  1.0  0.1143
  H  H33  1  0.130200  0.949200  0.958400  1.0  0.1171
  H  H34  1  0.140900  0.884000  0.885800  1.0  0.0913
  H  H35  1  0.947100  0.926400  0.923800  1.0  0.1065
  H  H36  1  0.886200  0.811700  0.918000  1.0  0.0978
  H  H37  1  0.923600  0.721400  0.803000  1.0  0.0994
  H  H38  1  0.986200  0.833900  0.808400  1.0  0.0986
  H  H39  1  0.156300  0.126300  0.969200  1.0  0.094
  H  H40  1  0.221000  0.197300  0.037600  1.0  0.121
  H  H41  1  0.265600  0.227800  0.112800  1.0  0.1032
  H  H42  1  0.369700  0.042600  0.028800  1.0  0.0948
  H  H43  1  0.421000  0.078600  0.103000  1.0  0.1036
  H  H44  1  0.412700  0.075100  0.197400  1.0  0.1044
  H  H45  1  0.490300  0.252600  0.171000  1.0  0.1164
  H  H46  1  0.630000  0.114500  0.308000  1.0  0.0961
  H  H47  1  0.827300  0.169400  0.297800  1.0  0.1033
  H  H48  1  0.732000  0.195700  0.237800  1.0  0.1192
  H  H49  1  0.611200  0.247400  0.216400  1.0  0.1189
  H  H50  1  0.532300  0.067000  0.241400  1.0  0.1117
  H  H51  1  0.328200  0.009200  0.958400  1.0  0.1175
  H  H52  1  0.244900  0.001800  0.885800  1.0  0.0911
  H  H53  1  0.997400  0.947100  0.423800  1.0  0.1057
  H  H54  1  0.106300  0.886200  0.418000  1.0  0.0985
  H  H55  1  0.081600  0.923600  0.303000  1.0  0.1
  H  H56  1  0.974500  0.986200  0.308400  1.0  0.0965
  H  H57  1  0.842900  0.156300  0.469200  1.0  0.094
  H  H58  1  0.840300  0.221000  0.537600  1.0  0.1202
  H  H59  1  0.885000  0.265600  0.612800  1.0  0.1051
  H  H60  1  0.986200  0.369700  0.528800  1.0  0.0959
  H  H61  1  0.024400  0.421000  0.603000  1.0  0.1034
  H  H62  1  0.122300  0.412700  0.697400  1.0  0.104
  H  H63  1  0.918400  0.490300  0.671000  1.0  0.1172
  H  H64  1  0.193500  0.630000  0.808000  1.0  0.0962
  H  H65  1  0.128400  0.827300  0.797800  1.0  0.104
  H  H66  1  0.042100  0.732000  0.737800  1.0  0.1195
  H  H67  1  0.969000  0.611200  0.716400  1.0  0.118
  H  H68  1  0.174400  0.532300  0.741400  1.0  0.1162
  H  H69  1  0.949200  0.328200  0.458400  1.0  0.1178
  H  H70  1  0.884000  0.244900  0.385800  1.0  0.0911
  H  H71  1  0.926400  0.476700  0.423800  1.0  0.1069
  H  H72  1  0.811700  0.531800  0.418000  1.0  0.0992
  H  H73  1  0.721400  0.379400  0.303000  1.0  0.0994
  H  H74  1  0.833900  0.322200  0.308400  1.0  0.0963
  H  H75  1  0.126300  0.312900  0.469200  1.0  0.0941
  H  H76  1  0.197300  0.316600  0.537600  1.0  0.1209
  H  H77  1  0.227800  0.347200  0.612800  1.0  0.1034
  H  H78  1  0.042600  0.159100  0.528800  1.0  0.0932
  H  H79  1  0.078600  0.182000  0.603000  1.0  0.1035
  H  H80  1  0.075100  0.284700  0.697400  1.0  0.1041
  H  H81  1  0.252600  0.180700  0.671000  1.0  0.1167
  H  H82  1  0.114500  0.178000  0.808000  1.0  0.0966
  H  H83  1  0.169400  0.970500  0.797800  1.0  0.1032
  H  H84  1  0.195700  0.005800  0.737800  1.0  0.1192
  H  H85  1  0.247400  0.105200  0.716400  1.0  0.1178
  H  H86  1  0.067000  0.209100  0.741400  1.0  0.1131
  H  H87  1  0.009200  0.130200  0.458400  1.0  0.1182
  H  H88  1  0.001800  0.140900  0.385800  1.0  0.091
  H  H89  1  0.447100  0.497400  0.923800  1.0  0.1052
  H  H90  1  0.386200  0.606300  0.918000  1.0  0.0989
  H  H91  1  0.423600  0.581600  0.803000  1.0  0.0997
  H  H92  1  0.486200  0.474500  0.808400  1.0  0.096
  H  H93  1  0.656300  0.342900  0.969200  1.0  0.0943
  H  H94  1  0.721000  0.340300  0.037600  1.0  0.1208
  H  H95  1  0.765600  0.385000  0.112800  1.0  0.1045
  H  H96  1  0.869700  0.486200  0.028800  1.0  0.095
  H  H97  1  0.921000  0.524400  0.103000  1.0  0.104
  H  H98  1  0.912700  0.622300  0.197400  1.0  0.1035
  H  H99  1  0.990300  0.418400  0.171000  1.0  0.1184
  H  H100  1  0.130000  0.693500  0.308000  1.0  0.0956
  H  H101  1  0.327300  0.628400  0.297800  1.0  0.1041
  H  H102  1  0.232000  0.542100  0.237800  1.0  0.1189
  H  H103  1  0.111200  0.469000  0.216400  1.0  0.1181
  H  H104  1  0.032300  0.674400  0.241400  1.0  0.1142
  H  H105  1  0.828200  0.449200  0.958400  1.0  0.1174
  H  H106  1  0.744900  0.384000  0.885800  1.0  0.092
  H  H107  1  0.976700  0.426400  0.923800  1.0  0.1065
  H  H108  1  0.031800  0.311700  0.918000  1.0  0.0996
  H  H109  1  0.879400  0.221400  0.803000  1.0  0.0993
  H  H110  1  0.822200  0.333900  0.808400  1.0  0.0962
  H  H111  1  0.812900  0.626300  0.969200  1.0  0.0948
  H  H112  1  0.816600  0.697300  0.037600  1.0  0.1211
  H  H113  1  0.847200  0.727800  0.112800  1.0  0.1034
  H  H114  1  0.659100  0.542600  0.028800  1.0  0.0922
  H  H115  1  0.682000  0.578600  0.103000  1.0  0.1036
  H  H116  1  0.784700  0.575100  0.197400  1.0  0.1044
  H  H117  1  0.680700  0.752600  0.171000  1.0  0.1161
  H  H118  1  0.678000  0.614500  0.308000  1.0  0.0967
  H  H119  1  0.470500  0.669400  0.297800  1.0  0.103
  H  H120  1  0.505800  0.695700  0.237800  1.0  0.1195
  H  H121  1  0.605200  0.747400  0.216400  1.0  0.1181
  H  H122  1  0.709100  0.567000  0.241400  1.0  0.1131
  H  H123  1  0.630200  0.509200  0.958400  1.0  0.1179
  H  H124  1  0.640900  0.501800  0.885800  1.0  0.0911
  H  H125  1  0.426400  0.447100  0.423800  1.0  0.1071
  H  H126  1  0.311700  0.386200  0.418000  1.0  0.0975
  H  H127  1  0.221400  0.423600  0.303000  1.0  0.0994
  H  H128  1  0.333900  0.486200  0.308400  1.0  0.0989
  H  H129  1  0.626300  0.656300  0.469200  1.0  0.0929
  H  H130  1  0.697300  0.721000  0.537600  1.0  0.1208
  H  H131  1  0.727800  0.765600  0.612800  1.0  0.1039
  H  H132  1  0.542600  0.869700  0.528800  1.0  0.0947
  H  H133  1  0.578600  0.921000  0.603000  1.0  0.1039
  H  H134  1  0.575100  0.912700  0.697400  1.0  0.1035
  H  H135  1  0.752600  0.990300  0.671000  1.0  0.117
  H  H136  1  0.614500  0.130000  0.808000  1.0  0.0966
  H  H137  1  0.669400  0.327300  0.797800  1.0  0.1044
  H  H138  1  0.695700  0.232000  0.737800  1.0  0.1186
  H  H139  1  0.747400  0.111200  0.716400  1.0  0.1182
  H  H140  1  0.567000  0.032300  0.741400  1.0  0.1117
  H  H141  1  0.509200  0.828200  0.458400  1.0  0.1181
  H  H142  1  0.501800  0.744900  0.385800  1.0  0.0897
  H  H143  1  0.497400  0.976700  0.423800  1.0  0.1062
  H  H144  1  0.606300  0.031800  0.418000  1.0  0.098
  H  H145  1  0.581600  0.879400  0.303000  1.0  0.0999
  H  H146  1  0.474500  0.822200  0.308400  1.0  0.0967
  H  H147  1  0.342900  0.812900  0.469200  1.0  0.0944
  H  H148  1  0.340300  0.816600  0.537600  1.0  0.1217
  H  H149  1  0.385000  0.847200  0.612800  1.0  0.1036
  H  H150  1  0.486200  0.659100  0.528800  1.0  0.0943
  H  H151  1  0.524400  0.682000  0.603000  1.0  0.1028
  H  H152  1  0.622300  0.784700  0.697400  1.0  0.1037
  H  H153  1  0.418400  0.680700  0.671000  1.0  0.1173
  H  H154  1  0.693500  0.678000  0.808000  1.0  0.0966
  H  H155  1  0.628400  0.470500  0.797800  1.0  0.1036
  H  H156  1  0.542100  0.505800  0.737800  1.0  0.1201
  H  H157  1  0.469000  0.605200  0.716400  1.0  0.1183
  H  H158  1  0.674400  0.709100  0.741400  1.0  0.1156
  H  H159  1  0.449200  0.630200  0.458400  1.0  0.1188
  H  H160  1  0.384000  0.640900  0.385800  1.0  0.0904
  H  H161  1  0.552900  0.502600  0.076200  1.0  0.1058
  H  H162  1  0.613800  0.393700  0.082000  1.0  0.0995
  H  H163  1  0.576400  0.418400  0.197000  1.0  0.0997
  H  H164  1  0.513800  0.525500  0.191600  1.0  0.0962
  H  H165  1  0.343700  0.657100  0.030800  1.0  0.0941
  H  H166  1  0.279000  0.659700  0.962400  1.0  0.1213
  H  H167  1  0.234400  0.615000  0.887200  1.0  0.1046
  H  H168  1  0.130300  0.513800  0.971200  1.0  0.0942
  H  H169  1  0.079000  0.475600  0.897000  1.0  0.1039
  H  H170  1  0.087300  0.377700  0.802600  1.0  0.1033
  H  H171  1  0.009700  0.581600  0.829000  1.0  0.1178
  H  H172  1  0.870000  0.306500  0.692000  1.0  0.0957
  H  H173  1  0.672700  0.371600  0.702200  1.0  0.1039
  H  H174  1  0.768000  0.457900  0.762200  1.0  0.1193
  H  H175  1  0.888800  0.531000  0.783600  1.0  0.1182
  H  H176  1  0.967700  0.325600  0.758600  1.0  0.114
  H  H177  1  0.171800  0.550800  0.041600  1.0  0.1181
  H  H178  1  0.255100  0.616000  0.114200  1.0  0.0917
  H  H179  1  0.023300  0.573600  0.076200  1.0  0.1071
  H  H180  1  0.968200  0.688300  0.082000  1.0  0.0996
  H  H181  1  0.120600  0.778600  0.197000  1.0  0.0991
  H  H182  1  0.177800  0.666100  0.191600  1.0  0.0963
  H  H183  1  0.187100  0.373700  0.030800  1.0  0.0958
  H  H184  1  0.183400  0.302700  0.962400  1.0  0.1212
  H  H185  1  0.152800  0.272200  0.887200  1.0  0.1035
  H  H186  1  0.340900  0.457400  0.971200  1.0  0.0935
  H  H187  1  0.318000  0.421400  0.897000  1.0  0.1034
  H  H188  1  0.215300  0.424900  0.802600  1.0  0.1039
  H  H189  1  0.319300  0.247400  0.829000  1.0  0.1158
  H  H190  1  0.322000  0.385500  0.692000  1.0  0.0961
  H  H191  1  0.529500  0.330600  0.702200  1.0  0.1023
  H  H192  1  0.494200  0.304300  0.762200  1.0  0.1195
  H  H193  1  0.394800  0.252600  0.783600  1.0  0.1183
  H  H194  1  0.290900  0.433000  0.758600  1.0  0.1132
  H  H195  1  0.369800  0.490800  0.041600  1.0  0.1172
  H  H196  1  0.359100  0.498200  0.114200  1.0  0.0911
  H  H197  1  0.573600  0.552900  0.576200  1.0  0.1072
  H  H198  1  0.688300  0.613800  0.582000  1.0  0.0986
  H  H199  1  0.778600  0.576400  0.697000  1.0  0.0997
  H  H200  1  0.666100  0.513800  0.691600  1.0  0.0986
  H  H201  1  0.373700  0.343700  0.530800  1.0  0.0939
  H  H202  1  0.302700  0.279000  0.462400  1.0  0.1204
  H  H203  1  0.272200  0.234400  0.387200  1.0  0.1038
  H  H204  1  0.457400  0.130300  0.471200  1.0  0.0954
  H  H205  1  0.421400  0.079000  0.397000  1.0  0.1039
  H  H206  1  0.424900  0.087300  0.302600  1.0  0.1035
  H  H207  1  0.247400  0.009700  0.329000  1.0  0.1161
  H  H208  1  0.385500  0.870000  0.192000  1.0  0.0958
  H  H209  1  0.330600  0.672700  0.202200  1.0  0.1047
  H  H210  1  0.304300  0.768000  0.262200  1.0  0.1196
  H  H211  1  0.252600  0.888800  0.283600  1.0  0.118
  H  H212  1  0.433000  0.967700  0.258600  1.0  0.1134
  H  H213  1  0.490800  0.171800  0.541600  1.0  0.1179
  H  H214  1  0.498200  0.255100  0.614200  1.0  0.0899
  H  H215  1  0.502600  0.023300  0.576200  1.0  0.1075
  H  H216  1  0.393700  0.968200  0.582000  1.0  0.0986
  H  H217  1  0.418400  0.120600  0.697000  1.0  0.1003
  H  H218  1  0.525500  0.177800  0.691600  1.0  0.0969
  H  H219  1  0.657100  0.187100  0.530800  1.0  0.0941
  H  H220  1  0.659700  0.183400  0.462400  1.0  0.1218
  H  H221  1  0.615000  0.152800  0.387200  1.0  0.1034
  H  H222  1  0.513800  0.340900  0.471200  1.0  0.0959
  H  H223  1  0.475600  0.318000  0.397000  1.0  0.1033
  H  H224  1  0.377700  0.215300  0.302600  1.0  0.1042
  H  H225  1  0.581600  0.319300  0.329000  1.0  0.1175
  H  H226  1  0.306500  0.322000  0.192000  1.0  0.0966
  H  H227  1  0.371600  0.529500  0.202200  1.0  0.1033
  H  H228  1  0.457900  0.494200  0.262200  1.0  0.12
  H  H229  1  0.531000  0.394800  0.283600  1.0  0.1185
  H  H230  1  0.325600  0.290900  0.258600  1.0  0.1143
  H  H231  1  0.550800  0.369800  0.541600  1.0  0.1186
  H  H232  1  0.616000  0.359100  0.614200  1.0  0.0909
  H  H233  1  0.523300  0.002600  0.076200  1.0  0.1066
  H  H234  1  0.468200  0.893700  0.082000  1.0  0.0984
  H  H235  1  0.620600  0.918400  0.197000  1.0  0.0998
  H  H236  1  0.677800  0.025500  0.191600  1.0  0.0967
  H  H237  1  0.687100  0.157100  0.030800  1.0  0.094
  H  H238  1  0.683400  0.159700  0.962400  1.0  0.121
  H  H239  1  0.652800  0.115000  0.887200  1.0  0.1032
  H  H240  1  0.840900  0.013800  0.971200  1.0  0.0939
  H  H241  1  0.818000  0.975600  0.897000  1.0  0.1041
  H  H242  1  0.715300  0.877700  0.802600  1.0  0.1038
  H  H243  1  0.819300  0.081600  0.829000  1.0  0.1183
  H  H244  1  0.822000  0.806500  0.692000  1.0  0.0964
  H  H245  1  0.029500  0.871600  0.702200  1.0  0.1026
  H  H246  1  0.994200  0.957900  0.762200  1.0  0.1196
  H  H247  1  0.894800  0.031000  0.783600  1.0  0.1187
  H  H248  1  0.790900  0.825600  0.758600  1.0  0.1139
  H  H249  1  0.869800  0.050800  0.041600  1.0  0.1176
  H  H250  1  0.859100  0.116000  0.114200  1.0  0.0901
  H  H251  1  0.052900  0.073600  0.076200  1.0  0.1064
  H  H252  1  0.113800  0.188300  0.082000  1.0  0.0984
  H  H253  1  0.076400  0.278600  0.197000  1.0  0.0996
  H  H254  1  0.013800  0.166100  0.191600  1.0  0.0977
  H  H255  1  0.843700  0.873700  0.030800  1.0  0.0938
  H  H256  1  0.779000  0.802700  0.962400  1.0  0.121
  H  H257  1  0.734400  0.772200  0.887200  1.0  0.1032
  H  H258  1  0.630300  0.957400  0.971200  1.0  0.0938
  H  H259  1  0.579000  0.921400  0.897000  1.0  0.1035
  H  H260  1  0.587300  0.924900  0.802600  1.0  0.1045
  H  H261  1  0.509700  0.747400  0.829000  1.0  0.1161
  H  H262  1  0.370000  0.885500  0.692000  1.0  0.0957
  H  H263  1  0.172700  0.830600  0.702200  1.0  0.1035
  H  H264  1  0.268000  0.804300  0.762200  1.0  0.1193
  H  H265  1  0.388800  0.752600  0.783600  1.0  0.1181
  H  H266  1  0.467700  0.933000  0.758600  1.0  0.1128
  H  H267  1  0.671800  0.990800  0.041600  1.0  0.1175
  H  H268  1  0.755100  0.998200  0.114200  1.0  0.0912
  H  H269  1  0.002600  0.052900  0.576200  1.0  0.1064
  H  H270  1  0.893700  0.113800  0.582000  1.0  0.0992
  H  H271  1  0.918400  0.076400  0.697000  1.0  0.1002
  H  H272  1  0.025500  0.013800  0.691600  1.0  0.0965
  H  H273  1  0.157100  0.843700  0.530800  1.0  0.094
  H  H274  1  0.159700  0.779000  0.462400  1.0  0.1204
  H  H275  1  0.115000  0.734400  0.387200  1.0  0.1048
  H  H276  1  0.013800  0.630300  0.471200  1.0  0.0953
  H  H277  1  0.975600  0.579000  0.397000  1.0  0.1034
  H  H278  1  0.877700  0.587300  0.302600  1.0  0.1034
  H  H279  1  0.081600  0.509700  0.329000  1.0  0.1171
  H  H280  1  0.806500  0.370000  0.192000  1.0  0.0961
  H  H281  1  0.871600  0.172700  0.202200  1.0  0.1042
  H  H282  1  0.957900  0.268000  0.262200  1.0  0.1192
  H  H283  1  0.031000  0.388800  0.283600  1.0  0.1179
  H  H284  1  0.825600  0.467700  0.258600  1.0  0.1134
  H  H285  1  0.050800  0.671800  0.541600  1.0  0.1182
  H  H286  1  0.116000  0.755100  0.614200  1.0  0.0906
  H  H287  1  0.073600  0.523300  0.576200  1.0  0.1077
  H  H288  1  0.188300  0.468200  0.582000  1.0  0.1007
  H  H289  1  0.278600  0.620600  0.697000  1.0  0.0996
  H  H290  1  0.166100  0.677800  0.691600  1.0  0.097
  H  H291  1  0.873700  0.687100  0.530800  1.0  0.0942
  H  H292  1  0.802700  0.683400  0.462400  1.0  0.121
  H  H293  1  0.772200  0.652800  0.387200  1.0  0.1031
  H  H294  1  0.957400  0.840900  0.471200  1.0  0.0948
  H  H295  1  0.921400  0.818000  0.397000  1.0  0.1031
  H  H296  1  0.924900  0.715300  0.302600  1.0  0.104
  H  H297  1  0.747400  0.819300  0.329000  1.0  0.1162
  H  H298  1  0.885500  0.822000  0.192000  1.0  0.0966
  H  H299  1  0.830600  0.029500  0.202200  1.0  0.103
  H  H300  1  0.804300  0.994200  0.262200  1.0  0.1196
  H  H301  1  0.752600  0.894800  0.283600  1.0  0.118
  H  H302  1  0.933000  0.790900  0.258600  1.0  0.1143
  H  H303  1  0.990800  0.869800  0.541600  1.0  0.1178
  H  H304  1  0.998200  0.859100  0.614200  1.0  0.0913
  C  C305  1  0.357070  0.906470  0.870740  1.0  0.6569
  C  C306  1  0.393450  0.975350  0.866900  1.0  -0.1623
  C  C307  1  0.456180  0.014580  0.899160  1.0  -0.0895
  C  C308  1  0.489300  0.079100  0.895400  1.0  -0.0471
  C  C309  1  0.462040  0.103740  0.860280  1.0  -0.149
  C  C310  1  0.399040  0.064340  0.827680  1.0  -0.0429
  C  C311  1  0.365150  0.000850  0.830900  1.0  -0.0726
  C  C312  1  0.499310  0.171410  0.855220  1.0  0.6684
  C  C313  1  0.262710  0.853210  0.956820  1.0  0.2206
  C  C314  1  0.234700  0.910400  0.026200  1.0  0.1365
  C  C315  1  0.290140  0.879340  0.050880  1.0  -0.1587
  C  C316  1  0.307380  0.904980  0.095360  1.0  -0.201
  C  C317  1  0.197140  0.964040  0.046080  1.0  -0.104
  C  C318  1  0.211210  0.988110  0.090020  1.0  -0.1926
  C  C319  1  0.267600  0.958900  0.114400  1.0  0.3126
  C  C320  1  0.240790  0.015690  0.181780  1.0  0.277
  C  C321  1  0.248590  0.090790  0.201580  1.0  -0.1655
  C  C322  1  0.187390  0.970590  0.186180  1.0  -0.1213
  C  C323  1  0.129620  0.166620  0.297840  1.0  0.1518
  C  C324  1  0.017930  0.131130  0.292260  1.0  0.0333
  C  C325  1  0.036420  0.083720  0.259240  1.0  -0.0993
  C  C326  1  0.153390  0.075990  0.234180  1.0  0.1604
  C  C327  1  0.142450  0.000250  0.212900  1.0  -0.2048
  C  C328  1  0.204180  0.121580  0.227760  1.0  -0.1503
  C  C329  1  0.165100  0.913400  0.951600  1.0  -0.1372
  C  C330  1  0.172800  0.878900  0.912200  1.0  0.0295
  C  C331  1  0.013670  0.964270  0.870740  1.0  0.6576
  C  C332  1  0.973450  0.891550  0.866900  1.0  -0.1635
  C  C333  1  0.942980  0.884580  0.899160  1.0  -0.0892
  C  C334  1  0.906100  0.816300  0.895400  1.0  -0.0479
  C  C335  1  0.898240  0.756540  0.860280  1.0  -0.1496
  C  C336  1  0.928640  0.763340  0.827680  1.0  -0.041
  C  C337  1  0.965750  0.830050  0.830900  1.0  -0.0722
  C  C338  1  0.855910  0.683810  0.855220  1.0  0.6588
  C  C339  1  0.194110  0.103610  0.956820  1.0  0.2199
  C  C340  1  0.291500  0.115800  0.026200  1.0  0.1365
  C  C341  1  0.260740  0.171540  0.050880  1.0  -0.1568
  C  C342  1  0.287980  0.190380  0.095360  1.0  -0.2004
  C  C343  1  0.348940  0.082040  0.046080  1.0  -0.1081
  C  C344  1  0.378810  0.101910  0.090020  1.0  -0.1922
  C  C345  1  0.346800  0.155500  0.114400  1.0  0.3127
  C  C346  1  0.440990  0.166090  0.181780  1.0  0.2765
  C  C347  1  0.452990  0.110790  0.201580  1.0  -0.1673
  C  C348  1  0.498790  0.215590  0.186180  1.0  -0.1182
  C  C349  1  0.668220  0.131220  0.297840  1.0  0.1548
  C  C350  1  0.774330  0.161130  0.292260  1.0  0.0346
  C  C351  1  0.722820  0.175520  0.259240  1.0  -0.0974
  C  C352  1  0.580790  0.158190  0.234180  1.0  0.1596
  C  C353  1  0.570450  0.212650  0.212900  1.0  -0.2043
  C  C354  1  0.523580  0.106180  0.227760  1.0  -0.1499
  C  C355  1  0.286500  0.038200  0.951600  1.0  -0.136
  C  C356  1  0.239400  0.033300  0.912200  1.0  0.0293
  C  C357  1  0.906470  0.013670  0.370740  1.0  0.6533
  C  C358  1  0.975350  0.973450  0.366900  1.0  -0.1631
  C  C359  1  0.014580  0.942980  0.399160  1.0  -0.0921
  C  C360  1  0.079100  0.906100  0.395400  1.0  -0.048
  C  C361  1  0.103740  0.898240  0.360280  1.0  -0.1507
  C  C362  1  0.064340  0.928640  0.327680  1.0  -0.0472
  C  C363  1  0.000850  0.965750  0.330900  1.0  -0.0737
  C  C364  1  0.171410  0.855910  0.355220  1.0  0.6662
  C  C365  1  0.853210  0.194110  0.456820  1.0  0.2191
  C  C366  1  0.910400  0.291500  0.526200  1.0  0.1388
  C  C367  1  0.879340  0.260740  0.550880  1.0  -0.1585
  C  C368  1  0.904980  0.287980  0.595360  1.0  -0.1983
  C  C369  1  0.964040  0.348940  0.546080  1.0  -0.11
  C  C370  1  0.988110  0.378810  0.590020  1.0  -0.1916
  C  C371  1  0.958900  0.346800  0.614400  1.0  0.3129
  C  C372  1  0.015690  0.440990  0.681780  1.0  0.2746
  C  C373  1  0.090790  0.452990  0.701580  1.0  -0.1667
  C  C374  1  0.970590  0.498790  0.686180  1.0  -0.1167
  C  C375  1  0.166620  0.668220  0.797840  1.0  0.1528
  C  C376  1  0.131130  0.774330  0.792260  1.0  0.0349
  C  C377  1  0.083720  0.722820  0.759240  1.0  -0.0985
  C  C378  1  0.075990  0.580790  0.734180  1.0  0.161
  C  C379  1  0.000250  0.570450  0.712900  1.0  -0.2052
  C  C380  1  0.121580  0.523580  0.727760  1.0  -0.1534
  C  C381  1  0.913400  0.286500  0.451600  1.0  -0.1327
  C  C382  1  0.878900  0.239400  0.412200  1.0  0.0285
  C  C383  1  0.964270  0.357070  0.370740  1.0  0.6541
  C  C384  1  0.891550  0.393450  0.366900  1.0  -0.1603
  C  C385  1  0.884580  0.456180  0.399160  1.0  -0.0882
  C  C386  1  0.816300  0.489300  0.395400  1.0  -0.0492
  C  C387  1  0.756540  0.462040  0.360280  1.0  -0.1524
  C  C388  1  0.763340  0.399040  0.327680  1.0  -0.0432
  C  C389  1  0.830050  0.365150  0.330900  1.0  -0.0724
  C  C390  1  0.683810  0.499310  0.355220  1.0  0.6656
  C  C391  1  0.103610  0.262710  0.456820  1.0  0.2194
  C  C392  1  0.115800  0.234700  0.526200  1.0  0.139
  C  C393  1  0.171540  0.290140  0.550880  1.0  -0.1604
  C  C394  1  0.190380  0.307380  0.595360  1.0  -0.205
  C  C395  1  0.082040  0.197140  0.546080  1.0  -0.1084
  C  C396  1  0.101910  0.211210  0.590020  1.0  -0.1922
  C  C397  1  0.155500  0.267600  0.614400  1.0  0.3119
  C  C398  1  0.166090  0.240790  0.681780  1.0  0.2755
  C  C399  1  0.110790  0.248590  0.701580  1.0  -0.1679
  C  C400  1  0.215590  0.187390  0.686180  1.0  -0.1158
  C  C401  1  0.131220  0.129620  0.797840  1.0  0.155
  C  C402  1  0.161130  0.017930  0.792260  1.0  0.035
  C  C403  1  0.175520  0.036420  0.759240  1.0  -0.0993
  C  C404  1  0.158190  0.153390  0.734180  1.0  0.1602
  C  C405  1  0.212650  0.142450  0.712900  1.0  -0.2051
  C  C406  1  0.106180  0.204180  0.727760  1.0  -0.1516
  C  C407  1  0.038200  0.165100  0.451600  1.0  -0.1322
  C  C408  1  0.033300  0.172800  0.412200  1.0  0.0278
  C  C409  1  0.513670  0.406470  0.870740  1.0  0.6569
  C  C410  1  0.473450  0.475350  0.866900  1.0  -0.161
  C  C411  1  0.442980  0.514580  0.899160  1.0  -0.092
  C  C412  1  0.406100  0.579100  0.895400  1.0  -0.0484
  C  C413  1  0.398240  0.603740  0.860280  1.0  -0.1489
  C  C414  1  0.428640  0.564340  0.827680  1.0  -0.0462
  C  C415  1  0.465750  0.500850  0.830900  1.0  -0.073
  C  C416  1  0.355910  0.671410  0.855220  1.0  0.6696
  C  C417  1  0.694110  0.353210  0.956820  1.0  0.22
  C  C418  1  0.791500  0.410400  0.026200  1.0  0.1368
  C  C419  1  0.760740  0.379340  0.050880  1.0  -0.1575
  C  C420  1  0.787980  0.404980  0.095360  1.0  -0.197
  C  C421  1  0.848940  0.464040  0.046080  1.0  -0.1066
  C  C422  1  0.878810  0.488110  0.090020  1.0  -0.1924
  C  C423  1  0.846800  0.458900  0.114400  1.0  0.3127
  C  C424  1  0.940990  0.515690  0.181780  1.0  0.2761
  C  C425  1  0.952990  0.590790  0.201580  1.0  -0.1654
  C  C426  1  0.998790  0.470590  0.186180  1.0  -0.1197
  C  C427  1  0.168220  0.666667  0.297840  1.0  0.1554
  C  C428  1  0.274330  0.631130  0.292260  1.0  0.0348
  C  C429  1  0.222820  0.583720  0.259240  1.0  -0.0975
  C  C430  1  0.080790  0.575990  0.234180  1.0  0.1599
  C  C431  1  0.070450  0.500250  0.212900  1.0  -0.206
  C  C432  1  0.023580  0.621580  0.227760  1.0  -0.15
  C  C433  1  0.786500  0.413400  0.951600  1.0  -0.1347
  C  C434  1  0.739400  0.378900  0.912200  1.0  0.0266
  C  C435  1  0.857070  0.464270  0.870740  1.0  0.6565
  C  C436  1  0.893450  0.391550  0.866900  1.0  -0.1638
  C  C437  1  0.956180  0.384580  0.899160  1.0  -0.0883
  C  C438  1  0.989300  0.316300  0.895400  1.0  -0.0475
  C  C439  1  0.962040  0.256540  0.860280  1.0  -0.1483
  C  C440  1  0.899040  0.263340  0.827680  1.0  -0.0415
  C  C441  1  0.865150  0.330050  0.830900  1.0  -0.0713
  C  C442  1  0.999310  0.183810  0.855220  1.0  0.6678
  C  C443  1  0.762710  0.603610  0.956820  1.0  0.2205
  C  C444  1  0.734700  0.615800  0.026200  1.0  0.1361
  C  C445  1  0.790140  0.671540  0.050880  1.0  -0.1589
  C  C446  1  0.807380  0.690380  0.095360  1.0  -0.2024
  C  C447  1  0.697140  0.582040  0.046080  1.0  -0.1051
  C  C448  1  0.711210  0.601910  0.090020  1.0  -0.1929
  C  C449  1  0.767600  0.655500  0.114400  1.0  0.3124
  C  C450  1  0.740790  0.666090  0.181780  1.0  0.2773
  C  C451  1  0.748590  0.610790  0.201580  1.0  -0.1677
  C  C452  1  0.687390  0.715590  0.186180  1.0  -0.1174
  C  C453  1  0.629620  0.631220  0.297840  1.0  0.1528
  C  C454  1  0.517930  0.661130  0.292260  1.0  0.0335
  C  C455  1  0.536420  0.675520  0.259240  1.0  -0.098
  C  C456  1  0.653390  0.658190  0.234180  1.0  0.1602
  C  C457  1  0.642450  0.712650  0.212900  1.0  -0.2059
  C  C458  1  0.704180  0.606180  0.227760  1.0  -0.1492
  C  C459  1  0.665100  0.538200  0.951600  1.0  -0.135
  C  C460  1  0.672800  0.533300  0.912200  1.0  0.0274
  C  C461  1  0.464270  0.513670  0.370740  1.0  0.6543
  C  C462  1  0.391550  0.473450  0.366900  1.0  -0.1609
  C  C463  1  0.384580  0.442980  0.399160  1.0  -0.0878
  C  C464  1  0.316300  0.406100  0.395400  1.0  -0.0479
  C  C465  1  0.256540  0.398240  0.360280  1.0  -0.1528
  C  C466  1  0.263340  0.428640  0.327680  1.0  -0.0426
  C  C467  1  0.330050  0.465750  0.330900  1.0  -0.0725
  C  C468  1  0.183810  0.355910  0.355220  1.0  0.6564
  C  C469  1  0.603610  0.694110  0.456820  1.0  0.2213
  C  C470  1  0.615800  0.791500  0.526200  1.0  0.1371
  C  C471  1  0.671540  0.760740  0.550880  1.0  -0.161
  C  C472  1  0.690380  0.787980  0.595360  1.0  -0.2038
  C  C473  1  0.582040  0.848940  0.546080  1.0  -0.11
  C  C474  1  0.601910  0.878810  0.590020  1.0  -0.1915
  C  C475  1  0.655500  0.846800  0.614400  1.0  0.3114
  C  C476  1  0.666090  0.940990  0.681780  1.0  0.2752
  C  C477  1  0.610790  0.952990  0.701580  1.0  -0.1665
  C  C478  1  0.715590  0.998790  0.686180  1.0  -0.1165
  C  C479  1  0.631220  0.168220  0.797840  1.0  0.1552
  C  C480  1  0.661130  0.274330  0.792260  1.0  0.0352
  C  C481  1  0.675520  0.222820  0.759240  1.0  -0.1003
  C  C482  1  0.658190  0.080790  0.734180  1.0  0.1607
  C  C483  1  0.712650  0.070450  0.712900  1.0  -0.2042
  C  C484  1  0.606180  0.023580  0.727760  1.0  -0.1511
  C  C485  1  0.538200  0.786500  0.451600  1.0  -0.1359
  C  C486  1  0.533300  0.739400  0.412200  1.0  0.0288
  C  C487  1  0.406470  0.857070  0.370740  1.0  0.6535
  C  C488  1  0.475350  0.893450  0.366900  1.0  -0.163
  C  C489  1  0.514580  0.956180  0.399160  1.0  -0.091
  C  C490  1  0.579100  0.989300  0.395400  1.0  -0.0477
  C  C491  1  0.603740  0.962040  0.360280  1.0  -0.15
  C  C492  1  0.564340  0.899040  0.327680  1.0  -0.0451
  C  C493  1  0.500850  0.865150  0.330900  1.0  -0.0739
  C  C494  1  0.671410  0.999310  0.355220  1.0  0.6663
  C  C495  1  0.353210  0.762710  0.456820  1.0  0.2178
  C  C496  1  0.410400  0.734700  0.526200  1.0  0.1378
  C  C497  1  0.379340  0.790140  0.550880  1.0  -0.1587
  C  C498  1  0.404980  0.807380  0.595360  1.0  -0.2003
  C  C499  1  0.464040  0.697140  0.546080  1.0  -0.1102
  C  C500  1  0.488110  0.711210  0.590020  1.0  -0.1934
  C  C501  1  0.458900  0.767600  0.614400  1.0  0.3125
  C  C502  1  0.515690  0.740790  0.681780  1.0  0.2747
  C  C503  1  0.590790  0.748590  0.701580  1.0  -0.1666
  C  C504  1  0.470590  0.687390  0.686180  1.0  -0.1172
  C  C505  1  0.666667  0.629620  0.797840  1.0  0.152
  C  C506  1  0.631130  0.517930  0.792260  1.0  0.0346
  C  C507  1  0.583720  0.536420  0.759240  1.0  -0.0985
  C  C508  1  0.575990  0.653390  0.734180  1.0  0.1604
  C  C509  1  0.500250  0.642450  0.712900  1.0  -0.2047
  C  C510  1  0.621580  0.704180  0.727760  1.0  -0.1532
  C  C511  1  0.413400  0.665100  0.451600  1.0  -0.1349
  C  C512  1  0.378900  0.672800  0.412200  1.0  0.0305
  C  C513  1  0.486330  0.593530  0.129260  1.0  0.6565
  C  C514  1  0.526550  0.524650  0.133100  1.0  -0.1618
  C  C515  1  0.557020  0.485420  0.100840  1.0  -0.0902
  C  C516  1  0.593900  0.420900  0.104600  1.0  -0.0492
  C  C517  1  0.601760  0.396260  0.139720  1.0  -0.1493
  C  C518  1  0.571360  0.435660  0.172320  1.0  -0.0457
  C  C519  1  0.534250  0.499150  0.169100  1.0  -0.0746
  C  C520  1  0.644090  0.328590  0.144780  1.0  0.668
  C  C521  1  0.305890  0.646790  0.043180  1.0  0.2216
  C  C522  1  0.208500  0.589600  0.973800  1.0  0.1361
  C  C523  1  0.239260  0.620660  0.949120  1.0  -0.1558
  C  C524  1  0.212020  0.595020  0.904640  1.0  -0.2005
  C  C525  1  0.151060  0.535960  0.953920  1.0  -0.1069
  C  C526  1  0.121190  0.511890  0.909980  1.0  -0.1932
  C  C527  1  0.153200  0.541100  0.885600  1.0  0.3144
  C  C528  1  0.059010  0.484310  0.818220  1.0  0.2763
  C  C529  1  0.047010  0.409210  0.798420  1.0  -0.1664
  C  C530  1  0.001210  0.529410  0.813820  1.0  -0.1169
  C  C531  1  0.831780  0.333380  0.702160  1.0  0.1539
  C  C532  1  0.725670  0.368870  0.707740  1.0  0.0334
  C  C533  1  0.777180  0.416280  0.740760  1.0  -0.0987
  C  C534  1  0.919210  0.424010  0.765820  1.0  0.1607
  C  C535  1  0.929550  0.499750  0.787100  1.0  -0.2046
  C  C536  1  0.976420  0.378420  0.772240  1.0  -0.1501
  C  C537  1  0.213500  0.586600  0.048400  1.0  -0.1359
  C  C538  1  0.260600  0.621100  0.087800  1.0  0.029
  C  C539  1  0.142930  0.535730  0.129260  1.0  0.6569
  C  C540  1  0.106550  0.608450  0.133100  1.0  -0.1644
  C  C541  1  0.043820  0.615420  0.100840  1.0  -0.0887
  C  C542  1  0.010700  0.683700  0.104600  1.0  -0.0476
  C  C543  1  0.037960  0.743460  0.139720  1.0  -0.1476
  C  C544  1  0.100960  0.736660  0.172320  1.0  -0.0406
  C  C545  1  0.134850  0.669950  0.169100  1.0  -0.0721
  C  C546  1  0.000690  0.816190  0.144780  1.0  0.6664
  C  C547  1  0.237290  0.396390  0.043180  1.0  0.2191
  C  C548  1  0.265300  0.384200  0.973800  1.0  0.1368
  C  C549  1  0.209860  0.328460  0.949120  1.0  -0.1594
  C  C550  1  0.192620  0.309620  0.904640  1.0  -0.2014
  C  C551  1  0.302860  0.417960  0.953920  1.0  -0.1049
  C  C552  1  0.288790  0.398090  0.909980  1.0  -0.1918
  C  C553  1  0.232400  0.344500  0.885600  1.0  0.3143
  C  C554  1  0.259210  0.333910  0.818220  1.0  0.2764
  C  C555  1  0.251410  0.389210  0.798420  1.0  -0.1661
  C  C556  1  0.312610  0.284410  0.813820  1.0  -0.1172
  C  C557  1  0.370380  0.368780  0.702160  1.0  0.1539
  C  C558  1  0.482070  0.338870  0.707740  1.0  0.0345
  C  C559  1  0.463580  0.324480  0.740760  1.0  -0.0979
  C  C560  1  0.346610  0.341810  0.765820  1.0  0.16
  C  C561  1  0.357550  0.287350  0.787100  1.0  -0.2066
  C  C562  1  0.295820  0.393820  0.772240  1.0  -0.1501
  C  C563  1  0.334900  0.461800  0.048400  1.0  -0.1354
  C  C564  1  0.327200  0.466700  0.087800  1.0  0.0278
  C  C565  1  0.535730  0.486330  0.629260  1.0  0.6521
  C  C566  1  0.608450  0.526550  0.633100  1.0  -0.1617
  C  C567  1  0.615420  0.557020  0.600840  1.0  -0.0883
  C  C568  1  0.683700  0.593900  0.604600  1.0  -0.049
  C  C569  1  0.743460  0.601760  0.639720  1.0  -0.1509
  C  C570  1  0.736660  0.571360  0.672320  1.0  -0.042
  C  C571  1  0.669950  0.534250  0.669100  1.0  -0.0732
  C  C572  1  0.816190  0.644090  0.644780  1.0  0.6567
  C  C573  1  0.396390  0.305890  0.543180  1.0  0.2189
  C  C574  1  0.384200  0.208500  0.473800  1.0  0.1356
  C  C575  1  0.328460  0.239260  0.449120  1.0  -0.1592
  C  C576  1  0.309620  0.212020  0.404640  1.0  -0.203
  C  C577  1  0.417960  0.151060  0.453920  1.0  -0.1087
  C  C578  1  0.398090  0.121190  0.409980  1.0  -0.1909
  C  C579  1  0.344500  0.153200  0.385600  1.0  0.3139
  C  C580  1  0.333910  0.059010  0.318220  1.0  0.2743
  C  C581  1  0.389210  0.047010  0.298420  1.0  -0.1667
  C  C582  1  0.284410  0.001210  0.313820  1.0  -0.1167
  C  C583  1  0.368780  0.831780  0.202160  1.0  0.1548
  C  C584  1  0.338870  0.725670  0.207740  1.0  0.0341
  C  C585  1  0.324480  0.777180  0.240760  1.0  -0.1008
  C  C586  1  0.341810  0.919210  0.265820  1.0  0.1605
  C  C587  1  0.287350  0.929550  0.287100  1.0  -0.2053
  C  C588  1  0.393820  0.976420  0.272240  1.0  -0.1496
  C  C589  1  0.461800  0.213500  0.548400  1.0  -0.136
  C  C590  1  0.466700  0.260600  0.587800  1.0  0.0309
  C  C591  1  0.593530  0.142930  0.629260  1.0  0.6548
  C  C592  1  0.524650  0.106550  0.633100  1.0  -0.1643
  C  C593  1  0.485420  0.043820  0.600840  1.0  -0.0899
  C  C594  1  0.420900  0.010700  0.604600  1.0  -0.0482
  C  C595  1  0.396260  0.037960  0.639720  1.0  -0.1509
  C  C596  1  0.435660  0.100960  0.672320  1.0  -0.0448
  C  C597  1  0.499150  0.134850  0.669100  1.0  -0.0738
  C  C598  1  0.328590  0.000690  0.644780  1.0  0.6647
  C  C599  1  0.646790  0.237290  0.543180  1.0  0.2213
  C  C600  1  0.589600  0.265300  0.473800  1.0  0.1385
  C  C601  1  0.620660  0.209860  0.449120  1.0  -0.1598
  C  C602  1  0.595020  0.192620  0.404640  1.0  -0.203
  C  C603  1  0.535960  0.302860  0.453920  1.0  -0.1098
  C  C604  1  0.511890  0.288790  0.409980  1.0  -0.1935
  C  C605  1  0.541100  0.232400  0.385600  1.0  0.3126
  C  C606  1  0.484310  0.259210  0.318220  1.0  0.2753
  C  C607  1  0.409210  0.251410  0.298420  1.0  -0.1663
  C  C608  1  0.529410  0.312610  0.313820  1.0  -0.1187
  C  C609  1  0.333380  0.370380  0.202160  1.0  0.1511
  C  C610  1  0.368870  0.482070  0.207740  1.0  0.0345
  C  C611  1  0.416280  0.463580  0.240760  1.0  -0.0995
  C  C612  1  0.424010  0.346610  0.265820  1.0  0.161
  C  C613  1  0.499750  0.357550  0.287100  1.0  -0.2049
  C  C614  1  0.378420  0.295820  0.272240  1.0  -0.1536
  C  C615  1  0.586600  0.334900  0.548400  1.0  -0.1345
  C  C616  1  0.621100  0.327200  0.587800  1.0  0.03
  C  C617  1  0.642930  0.093530  0.129260  1.0  0.6569
  C  C618  1  0.606550  0.024650  0.133100  1.0  -0.1635
  C  C619  1  0.543820  0.985420  0.100840  1.0  -0.0894
  C  C620  1  0.510700  0.920900  0.104600  1.0  -0.0485
  C  C621  1  0.537960  0.896260  0.139720  1.0  -0.1489
  C  C622  1  0.600960  0.935660  0.172320  1.0  -0.0426
  C  C623  1  0.634850  0.999150  0.169100  1.0  -0.0736
  C  C624  1  0.500690  0.828590  0.144780  1.0  0.6689
  C  C625  1  0.737290  0.146790  0.043180  1.0  0.2209
  C  C626  1  0.765300  0.089600  0.973800  1.0  0.1371
  C  C627  1  0.709860  0.120660  0.949120  1.0  -0.1568
  C  C628  1  0.692620  0.095020  0.904640  1.0  -0.2002
  C  C629  1  0.802860  0.035960  0.953920  1.0  -0.104
  C  C630  1  0.788790  0.011890  0.909980  1.0  -0.1942
  C  C631  1  0.732400  0.041100  0.885600  1.0  0.3132
  C  C632  1  0.759210  0.984310  0.818220  1.0  0.2756
  C  C633  1  0.751410  0.909210  0.798420  1.0  -0.1664
  C  C634  1  0.812610  0.029410  0.813820  1.0  -0.1187
  C  C635  1  0.870380  0.833380  0.702160  1.0  0.1512
  C  C636  1  0.982070  0.868870  0.707740  1.0  0.034
  C  C637  1  0.963580  0.916280  0.740760  1.0  -0.0992
  C  C638  1  0.846610  0.924010  0.765820  1.0  0.1609
  C  C639  1  0.857550  0.999750  0.787100  1.0  -0.2048
  C  C640  1  0.795820  0.878420  0.772240  1.0  -0.1506
  C  C641  1  0.834900  0.086600  0.048400  1.0  -0.1335
  C  C642  1  0.827200  0.121100  0.087800  1.0  0.0283
  C  C643  1  0.986330  0.035730  0.129260  1.0  0.6563
  C  C644  1  0.026550  0.108450  0.133100  1.0  -0.164
  C  C645  1  0.057020  0.115420  0.100840  1.0  -0.0895
  C  C646  1  0.093900  0.183700  0.104600  1.0  -0.0475
  C  C647  1  0.101760  0.243460  0.139720  1.0  -0.1506
  C  C648  1  0.071360  0.236660  0.172320  1.0  -0.0412
  C  C649  1  0.034250  0.169950  0.169100  1.0  -0.0735
  C  C650  1  0.144090  0.316190  0.144780  1.0  0.6582
  C  C651  1  0.805890  0.896390  0.043180  1.0  0.2197
  C  C652  1  0.708500  0.884200  0.973800  1.0  0.1365
  C  C653  1  0.739260  0.828460  0.949120  1.0  -0.1587
  C  C654  1  0.712020  0.809620  0.904640  1.0  -0.2013
  C  C655  1  0.651060  0.917960  0.953920  1.0  -0.1067
  C  C656  1  0.621190  0.898090  0.909980  1.0  -0.1928
  C  C657  1  0.653200  0.844500  0.885600  1.0  0.3158
  C  C658  1  0.559010  0.833910  0.818220  1.0  0.2771
  C  C659  1  0.547010  0.889210  0.798420  1.0  -0.1653
  C  C660  1  0.501210  0.784410  0.813820  1.0  -0.1177
  C  C661  1  0.331780  0.868780  0.702160  1.0  0.1547
  C  C662  1  0.225670  0.838870  0.707740  1.0  0.0334
  C  C663  1  0.277180  0.824480  0.740760  1.0  -0.097
  C  C664  1  0.419210  0.841810  0.765820  1.0  0.1604
  C  C665  1  0.429550  0.787350  0.787100  1.0  -0.2061
  C  C666  1  0.476420  0.893820  0.772240  1.0  -0.151
  C  C667  1  0.713500  0.961800  0.048400  1.0  -0.1391
  C  C668  1  0.760600  0.966700  0.087800  1.0  0.0306
  C  C669  1  0.093530  0.986330  0.629260  1.0  0.6552
  C  C670  1  0.024650  0.026550  0.633100  1.0  -0.164
  C  C671  1  0.985420  0.057020  0.600840  1.0  -0.0913
  C  C672  1  0.920900  0.093900  0.604600  1.0  -0.0493
  C  C673  1  0.896260  0.101760  0.639720  1.0  -0.1526
  C  C674  1  0.935660  0.071360  0.672320  1.0  -0.0464
  C  C675  1  0.999150  0.034250  0.669100  1.0  -0.0749
  C  C676  1  0.828590  0.144090  0.644780  1.0  0.6659
  C  C677  1  0.146790  0.805890  0.543180  1.0  0.2213
  C  C678  1  0.089600  0.708500  0.473800  1.0  0.138
  C  C679  1  0.120660  0.739260  0.449120  1.0  -0.1595
  C  C680  1  0.095020  0.712020  0.404640  1.0  -0.2019
  C  C681  1  0.035960  0.651060  0.453920  1.0  -0.1091
  C  C682  1  0.011890  0.621190  0.409980  1.0  -0.1903
  C  C683  1  0.041100  0.653200  0.385600  1.0  0.3148
  C  C684  1  0.984310  0.559010  0.318220  1.0  0.2744
  C  C685  1  0.909210  0.547010  0.298420  1.0  -0.1669
  C  C686  1  0.029410  0.501210  0.313820  1.0  -0.1173
  C  C687  1  0.833380  0.331780  0.202160  1.0  0.1528
  C  C688  1  0.868870  0.225670  0.207740  1.0  0.0341
  C  C689  1  0.916280  0.277180  0.240760  1.0  -0.0992
  C  C690  1  0.924010  0.419210  0.265820  1.0  0.1601
  C  C691  1  0.999750  0.429550  0.287100  1.0  -0.2053
  C  C692  1  0.878420  0.476420  0.272240  1.0  -0.1532
  C  C693  1  0.086600  0.713500  0.548400  1.0  -0.1351
  C  C694  1  0.121100  0.760600  0.587800  1.0  0.0305
  C  C695  1  0.035730  0.642930  0.629260  1.0  0.6536
  C  C696  1  0.108450  0.606550  0.633100  1.0  -0.161
  C  C697  1  0.115420  0.543820  0.600840  1.0  -0.0865
  C  C698  1  0.183700  0.510700  0.604600  1.0  -0.05
  C  C699  1  0.243460  0.537960  0.639720  1.0  -0.1497
  C  C700  1  0.236660  0.600960  0.672320  1.0  -0.043
  C  C701  1  0.169950  0.634850  0.669100  1.0  -0.0719
  C  C702  1  0.316190  0.500690  0.644780  1.0  0.6651
  C  C703  1  0.896390  0.737290  0.543180  1.0  0.2185
  C  C704  1  0.884200  0.765300  0.473800  1.0  0.1377
  C  C705  1  0.828460  0.709860  0.449120  1.0  -0.1588
  C  C706  1  0.809620  0.692620  0.404640  1.0  -0.2037
  C  C707  1  0.917960  0.802860  0.453920  1.0  -0.109
  C  C708  1  0.898090  0.788790  0.409980  1.0  -0.1926
  C  C709  1  0.844500  0.732400  0.385600  1.0  0.3127
  C  C710  1  0.833910  0.759210  0.318220  1.0  0.2756
  C  C711  1  0.889210  0.751410  0.298420  1.0  -0.1678
  C  C712  1  0.784410  0.812610  0.313820  1.0  -0.117
  C  C713  1  0.868780  0.870380  0.202160  1.0  0.1549
  C  C714  1  0.838870  0.982070  0.207740  1.0  0.0341
  C  C715  1  0.824480  0.963580  0.240760  1.0  -0.1005
  C  C716  1  0.841810  0.846610  0.265820  1.0  0.1611
  C  C717  1  0.787350  0.857550  0.287100  1.0  -0.2045
  C  C718  1  0.893820  0.795820  0.272240  1.0  -0.151
  C  C719  1  0.961800  0.834900  0.548400  1.0  -0.1322
  C  C720  1  0.966700  0.827200  0.587800  1.0  0.0287
  N  N721  1  0.231860  0.836260  0.915320  1.0  -0.3804
  N  N722  1  0.218950  0.885650  0.980100  1.0  0.0059
  N  N723  1  0.075950  0.183750  0.316700  1.0  -0.3858
  N  N724  1  0.108560  0.107260  0.262720  1.0  0.0368
  N  N725  1  0.183460  0.079060  0.915320  1.0  -0.3833
  N  N726  1  0.261150  0.094450  0.980100  1.0  0.0071
  N  N727  1  0.740750  0.132950  0.316700  1.0  -0.3864
  N  N728  1  0.654160  0.155460  0.262720  1.0  0.0366
  N  N729  1  0.836260  0.183460  0.415320  1.0  -0.3808
  N  N730  1  0.885650  0.261150  0.480100  1.0  0.0076
  N  N731  1  0.183750  0.740750  0.816700  1.0  -0.3866
  N  N732  1  0.107260  0.654160  0.762720  1.0  0.037
  N  N733  1  0.079060  0.231860  0.415320  1.0  -0.3796
  N  N734  1  0.094450  0.218950  0.480100  1.0  0.0086
  N  N735  1  0.132950  0.075950  0.816700  1.0  -0.3845
  N  N736  1  0.155460  0.108560  0.762720  1.0  0.0361
  N  N737  1  0.683460  0.336260  0.915320  1.0  -0.38
  N  N738  1  0.761150  0.385650  0.980100  1.0  0.0072
  N  N739  1  0.240750  0.683750  0.316700  1.0  -0.386
  N  N740  1  0.154160  0.607260  0.262720  1.0  0.037
  N  N741  1  0.731860  0.579060  0.915320  1.0  -0.382
  N  N742  1  0.718950  0.594450  0.980100  1.0  0.0076
  N  N743  1  0.575950  0.632950  0.316700  1.0  -0.3849
  N  N744  1  0.608560  0.655460  0.262720  1.0  0.0364
  N  N745  1  0.579060  0.683460  0.415320  1.0  -0.3821
  N  N746  1  0.594450  0.761150  0.480100  1.0  0.0083
  N  N747  1  0.632950  0.240750  0.816700  1.0  -0.386
  N  N748  1  0.655460  0.154160  0.762720  1.0  0.0367
  N  N749  1  0.336260  0.731860  0.415320  1.0  -0.3801
  N  N750  1  0.385650  0.718950  0.480100  1.0  0.0048
  N  N751  1  0.683750  0.575950  0.816700  1.0  -0.3855
  N  N752  1  0.607260  0.608560  0.762720  1.0  0.036
  N  N753  1  0.316540  0.663740  0.084680  1.0  -0.3815
  N  N754  1  0.238850  0.614350  0.019900  1.0  0.0055
  N  N755  1  0.759250  0.316250  0.683300  1.0  -0.3864
  N  N756  1  0.845840  0.392740  0.737280  1.0  0.0372
  N  N757  1  0.268140  0.420940  0.084680  1.0  -0.3817
  N  N758  1  0.281050  0.405550  0.019900  1.0  0.0077
  N  N759  1  0.424050  0.367050  0.683300  1.0  -0.385
  N  N760  1  0.391440  0.344540  0.737280  1.0  0.0361
  N  N761  1  0.420940  0.316540  0.584680  1.0  -0.3822
  N  N762  1  0.405550  0.238850  0.519900  1.0  0.0064
  N  N763  1  0.367050  0.759250  0.183300  1.0  -0.3873
  N  N764  1  0.344540  0.845840  0.237280  1.0  0.0362
  N  N765  1  0.663740  0.268140  0.584680  1.0  -0.3783
  N  N766  1  0.614350  0.281050  0.519900  1.0  0.0056
  N  N767  1  0.316250  0.424050  0.183300  1.0  -0.3866
  N  N768  1  0.392740  0.391440  0.237280  1.0  0.0363
  N  N769  1  0.768140  0.163740  0.084680  1.0  -0.3829
  N  N770  1  0.781050  0.114350  0.019900  1.0  0.0051
  N  N771  1  0.924050  0.816250  0.683300  1.0  -0.3869
  N  N772  1  0.891440  0.892740  0.737280  1.0  0.0365
  N  N773  1  0.816540  0.920940  0.084680  1.0  -0.3812
  N  N774  1  0.738850  0.905550  0.019900  1.0  0.0071
  N  N775  1  0.259250  0.867050  0.683300  1.0  -0.3868
  N  N776  1  0.345840  0.844540  0.737280  1.0  0.0372
  N  N777  1  0.163740  0.816540  0.584680  1.0  -0.3797
  N  N778  1  0.114350  0.738850  0.519900  1.0  0.0065
  N  N779  1  0.816250  0.259250  0.183300  1.0  -0.3876
  N  N780  1  0.892740  0.345840  0.237280  1.0  0.0369
  N  N781  1  0.920940  0.768140  0.584680  1.0  -0.3811
  N  N782  1  0.905550  0.781050  0.519900  1.0  0.0107
  N  N783  1  0.867050  0.924050  0.183300  1.0  -0.3842
  N  N784  1  0.844540  0.891440  0.237280  1.0  0.0358
  O  O785  1  0.296480  0.876280  0.842760  1.0  -0.5901
  O  O786  1  0.385810  0.879510  0.901020  1.0  -0.5994
  O  O787  1  0.476890  0.190390  0.821780  1.0  -0.6147
  O  O788  1  0.555160  0.206960  0.886120  1.0  -0.5842
  O  O789  1  0.291550  0.982850  0.159500  1.0  -0.2589
  O  O790  1  0.046280  0.966480  0.842760  1.0  -0.5914
  O  O791  1  0.015210  0.021510  0.901020  1.0  -0.599
  O  O792  1  0.844890  0.631390  0.821780  1.0  -0.6156
  O  O793  1  0.830960  0.679160  0.886120  1.0  -0.5819
  O  O794  1  0.367950  0.176650  0.159500  1.0  -0.2588
  O  O795  1  0.876280  0.046280  0.342760  1.0  -0.591
  O  O796  1  0.879510  0.015210  0.401020  1.0  -0.5975
  O  O797  1  0.190390  0.844890  0.321780  1.0  -0.6139
  O  O798  1  0.206960  0.830960  0.386120  1.0  -0.5824
  O  O799  1  0.982850  0.367950  0.659500  1.0  -0.2604
  O  O800  1  0.966480  0.296480  0.342760  1.0  -0.5906
  O  O801  1  0.021510  0.385810  0.401020  1.0  -0.5968
  O  O802  1  0.631390  0.476890  0.321780  1.0  -0.6149
  O  O803  1  0.679160  0.555160  0.386120  1.0  -0.5843
  O  O804  1  0.176650  0.291550  0.659500  1.0  -0.2589
  O  O805  1  0.546280  0.376280  0.842760  1.0  -0.5916
  O  O806  1  0.515210  0.379510  0.901020  1.0  -0.5976
  O  O807  1  0.344890  0.690390  0.821780  1.0  -0.6152
  O  O808  1  0.330960  0.706960  0.886120  1.0  -0.5835
  O  O809  1  0.867950  0.482850  0.159500  1.0  -0.259
  O  O810  1  0.796480  0.466480  0.842760  1.0  -0.5896
  O  O811  1  0.885810  0.521510  0.901020  1.0  -0.5964
  O  O812  1  0.976890  0.131390  0.821780  1.0  -0.6145
  O  O813  1  0.055160  0.179160  0.886120  1.0  -0.5841
  O  O814  1  0.791550  0.676650  0.159500  1.0  -0.2577
  O  O815  1  0.466480  0.546280  0.342760  1.0  -0.5918
  O  O816  1  0.521510  0.515210  0.401020  1.0  -0.598
  O  O817  1  0.131390  0.344890  0.321780  1.0  -0.6141
  O  O818  1  0.179160  0.330960  0.386120  1.0  -0.5811
  O  O819  1  0.676650  0.867950  0.659500  1.0  -0.2595
  O  O820  1  0.376280  0.796480  0.342760  1.0  -0.5905
  O  O821  1  0.379510  0.885810  0.401020  1.0  -0.5998
  O  O822  1  0.690390  0.976890  0.321780  1.0  -0.6145
  O  O823  1  0.706960  0.055160  0.386120  1.0  -0.5833
  O  O824  1  0.482850  0.791550  0.659500  1.0  -0.2602
  O  O825  1  0.453720  0.623720  0.157240  1.0  -0.5906
  O  O826  1  0.484790  0.620490  0.098980  1.0  -0.5958
  O  O827  1  0.655110  0.309610  0.178220  1.0  -0.6156
  O  O828  1  0.669040  0.293040  0.113880  1.0  -0.5843
  O  O829  1  0.132050  0.517150  0.840500  1.0  -0.2578
  O  O830  1  0.203520  0.533520  0.157240  1.0  -0.5906
  O  O831  1  0.114190  0.478490  0.098980  1.0  -0.596
  O  O832  1  0.023110  0.868610  0.178220  1.0  -0.6147
  O  O833  1  0.944840  0.820840  0.113880  1.0  -0.5845
  O  O834  1  0.208450  0.323350  0.840500  1.0  -0.2596
  O  O835  1  0.533520  0.453720  0.657240  1.0  -0.5918
  O  O836  1  0.478490  0.484790  0.598980  1.0  -0.5969
  O  O837  1  0.868610  0.655110  0.678220  1.0  -0.6138
  O  O838  1  0.820840  0.669040  0.613880  1.0  -0.5817
  O  O839  1  0.323350  0.132050  0.340500  1.0  -0.2595
  O  O840  1  0.623720  0.203520  0.657240  1.0  -0.5912
  O  O841  1  0.620490  0.114190  0.598980  1.0  -0.5993
  O  O842  1  0.309610  0.023110  0.678220  1.0  -0.6146
  O  O843  1  0.293040  0.944840  0.613880  1.0  -0.584
  O  O844  1  0.517150  0.208450  0.340500  1.0  -0.2607
  O  O845  1  0.703520  0.123720  0.157240  1.0  -0.5922
  O  O846  1  0.614190  0.120490  0.098980  1.0  -0.597
  O  O847  1  0.523110  0.809610  0.178220  1.0  -0.6149
  O  O848  1  0.444840  0.793040  0.113880  1.0  -0.5847
  O  O849  1  0.708450  0.017150  0.840500  1.0  -0.2595
  O  O850  1  0.953720  0.033520  0.157240  1.0  -0.5896
  O  O851  1  0.984790  0.978490  0.098980  1.0  -0.5992
  O  O852  1  0.155110  0.368610  0.178220  1.0  -0.6163
  O  O853  1  0.169040  0.320840  0.113880  1.0  -0.583
  O  O854  1  0.632050  0.823350  0.840500  1.0  -0.259
  O  O855  1  0.123720  0.953720  0.657240  1.0  -0.5918
  O  O856  1  0.120490  0.984790  0.598980  1.0  -0.5945
  O  O857  1  0.809610  0.155110  0.678220  1.0  -0.6132
  O  O858  1  0.793040  0.169040  0.613880  1.0  -0.5826
  O  O859  1  0.017150  0.632050  0.340500  1.0  -0.2598
  O  O860  1  0.033520  0.703520  0.657240  1.0  -0.592
  O  O861  1  0.978490  0.614190  0.598980  1.0  -0.597
  O  O862  1  0.368610  0.523110  0.678220  1.0  -0.6146
  O  O863  1  0.320840  0.444840  0.613880  1.0  -0.5839
  O  O864  1  0.823350  0.708450  0.340500  1.0  -0.2599
