# generated using pymatgen
data_CdH18C26N4O5
_symmetry_space_group_name_H-M   'P 1'
_cell_length_a   18.90310000
_cell_length_b   18.90310000
_cell_length_c   33.89350000
_cell_angle_alpha   73.80770000
_cell_angle_beta   73.80770000
_cell_angle_gamma   89.99980000
_symmetry_Int_Tables_number   1
_chemical_formula_structural   CdH18C26N4O5
_chemical_formula_sum   'Cd16 H288 C416 N64 O80'
_cell_volume   11129.48906047
_cell_formula_units_Z   16
loop_
 _symmetry_equiv_pos_site_id
 _symmetry_equiv_pos_as_xyz
  1  'x, y, z'
loop_
 _atom_site_type_symbol
 _atom_site_label
 _atom_site_symmetry_multiplicity
 _atom_site_fract_x
 _atom_site_fract_y
 _atom_site_fract_z
 _atom_site_occupancy
 _atom_site_charge
  Cd  Cd1  1  0.428470  0.908490  0.369400  1.0  0.9413
  Cd  Cd2  1  0.702130  0.722110  0.369400  1.0  0.9426
  Cd  Cd3  1  0.408490  0.202130  0.869400  1.0  0.9425
  Cd  Cd4  1  0.222110  0.928470  0.869400  1.0  0.9432
  Cd  Cd5  1  0.202130  0.408490  0.369400  1.0  0.9428
  Cd  Cd6  1  0.928470  0.222110  0.369400  1.0  0.9429
  Cd  Cd7  1  0.722110  0.702130  0.869400  1.0  0.9414
  Cd  Cd8  1  0.908490  0.428470  0.869400  1.0  0.9427
  Cd  Cd9  1  0.797870  0.591510  0.630600  1.0  0.9414
  Cd  Cd10  1  0.071530  0.777890  0.630600  1.0  0.9412
  Cd  Cd11  1  0.277890  0.297870  0.130600  1.0  0.9417
  Cd  Cd12  1  0.091510  0.571530  0.130600  1.0  0.9419
  Cd  Cd13  1  0.571530  0.091510  0.630600  1.0  0.9409
  Cd  Cd14  1  0.297870  0.277890  0.630600  1.0  0.943
  Cd  Cd15  1  0.591510  0.797870  0.130600  1.0  0.9416
  Cd  Cd16  1  0.777890  0.071530  0.130600  1.0  0.9411
  H  H17  1  0.532700  0.820600  0.295600  1.0  0.0949
  H  H18  1  0.496500  0.802100  0.236400  1.0  0.1154
  H  H19  1  0.334200  0.883900  0.306400  1.0  0.0924
  H  H20  1  0.398900  0.757200  0.213600  1.0  0.1055
  H  H21  1  0.320100  0.751100  0.172000  1.0  0.1117
  H  H22  1  0.218500  0.920700  0.203200  1.0  0.109
  H  H23  1  0.293600  0.923400  0.247200  1.0  0.1133
  H  H24  1  0.382600  0.954800  0.892400  1.0  0.0952
  H  H25  1  0.396500  0.937100  0.963600  1.0  0.1057
  H  H26  1  0.192100  0.878900  0.974800  1.0  0.082
  H  H27  1  0.345500  0.953300  0.034600  1.0  0.1
  H  H28  1  0.317500  0.918700  0.108800  1.0  0.0941
  H  H29  1  0.153300  0.779800  0.117200  1.0  0.0934
  H  H30  1  0.181900  0.810900  0.044000  1.0  0.1128
  H  H31  1  0.282100  0.106400  0.306800  1.0  0.0879
  H  H32  1  0.183300  0.967300  0.421800  1.0  0.0936
  H  H33  1  0.076700  0.026900  0.423400  1.0  0.0941
  H  H34  1  0.176300  0.168700  0.309000  1.0  0.0885
  H  H35  1  0.671700  0.883800  0.295600  1.0  0.101
  H  H36  1  0.767100  0.961500  0.236400  1.0  0.1167
  H  H37  1  0.859400  0.809700  0.306400  1.0  0.0921
  H  H38  1  0.887500  0.029200  0.213600  1.0  0.1061
  H  H39  1  0.007900  0.076900  0.172000  1.0  0.1113
  H  H40  1  0.078300  0.876100  0.203200  1.0  0.1092
  H  H41  1  0.959200  0.829400  0.247200  1.0  0.1149
  H  H42  1  0.225000  0.152800  0.892400  1.0  0.0966
  H  H43  1  0.139900  0.099300  0.963600  1.0  0.1058
  H  H44  1  0.333100  0.146300  0.974800  1.0  0.0802
  H  H45  1  0.119900  0.012100  0.034600  1.0  0.1003
  H  H46  1  0.073700  0.972500  0.108800  1.0  0.0946
  H  H47  1  0.229500  0.103000  0.117200  1.0  0.0945
  H  H48  1  0.274100  0.145100  0.044000  1.0  0.1131
  H  H49  1  0.911100  0.586800  0.306800  1.0  0.0875
  H  H50  1  0.894900  0.610900  0.421800  1.0  0.0937
  H  H51  1  0.999900  0.549700  0.423400  1.0  0.0936
  H  H52  1  0.014700  0.522300  0.309000  1.0  0.0891
  H  H53  1  0.320600  0.171700  0.795600  1.0  0.0994
  H  H54  1  0.302100  0.267100  0.736400  1.0  0.1167
  H  H55  1  0.383900  0.359400  0.806400  1.0  0.0923
  H  H56  1  0.257200  0.387500  0.713600  1.0  0.1052
  H  H57  1  0.251100  0.507900  0.672000  1.0  0.1114
  H  H58  1  0.420700  0.578300  0.703200  1.0  0.109
  H  H59  1  0.423400  0.459200  0.747200  1.0  0.1137
  H  H60  1  0.454800  0.725000  0.392400  1.0  0.0956
  H  H61  1  0.437100  0.639900  0.463600  1.0  0.1061
  H  H62  1  0.378900  0.833100  0.474800  1.0  0.0818
  H  H63  1  0.453300  0.619900  0.534600  1.0  0.0985
  H  H64  1  0.418700  0.573700  0.608800  1.0  0.0943
  H  H65  1  0.279800  0.729500  0.617200  1.0  0.0932
  H  H66  1  0.310900  0.774100  0.544000  1.0  0.1125
  H  H67  1  0.606400  0.411100  0.806800  1.0  0.0885
  H  H68  1  0.467300  0.394900  0.921800  1.0  0.0928
  H  H69  1  0.526900  0.499900  0.923400  1.0  0.0939
  H  H70  1  0.668700  0.514700  0.809000  1.0  0.0876
  H  H71  1  0.383800  0.032700  0.795600  1.0  0.096
  H  H72  1  0.461500  0.996500  0.736400  1.0  0.1165
  H  H73  1  0.309700  0.834200  0.806400  1.0  0.0926
  H  H74  1  0.529200  0.898900  0.713600  1.0  0.1062
  H  H75  1  0.576900  0.820100  0.672000  1.0  0.1131
  H  H76  1  0.376100  0.718500  0.703200  1.0  0.1088
  H  H77  1  0.329400  0.793600  0.747200  1.0  0.116
  H  H78  1  0.652800  0.882600  0.392400  1.0  0.0954
  H  H79  1  0.599300  0.896500  0.463600  1.0  0.1058
  H  H80  1  0.646300  0.692100  0.474800  1.0  0.0844
  H  H81  1  0.512100  0.845500  0.534600  1.0  0.0995
  H  H82  1  0.472500  0.817500  0.608800  1.0  0.0921
  H  H83  1  0.603000  0.653300  0.617200  1.0  0.0937
  H  H84  1  0.645100  0.681900  0.544000  1.0  0.1134
  H  H85  1  0.086800  0.782100  0.806800  1.0  0.0883
  H  H86  1  0.110900  0.683300  0.921800  1.0  0.0927
  H  H87  1  0.049700  0.576700  0.923400  1.0  0.0946
  H  H88  1  0.022300  0.676300  0.809000  1.0  0.0894
  H  H89  1  0.171700  0.320600  0.295600  1.0  0.1008
  H  H90  1  0.267100  0.302100  0.236400  1.0  0.1169
  H  H91  1  0.359400  0.383900  0.306400  1.0  0.0928
  H  H92  1  0.387500  0.257200  0.213600  1.0  0.1054
  H  H93  1  0.507900  0.251100  0.172000  1.0  0.1115
  H  H94  1  0.578300  0.420700  0.203200  1.0  0.1096
  H  H95  1  0.459200  0.423400  0.247200  1.0  0.1136
  H  H96  1  0.725000  0.454800  0.892400  1.0  0.096
  H  H97  1  0.639900  0.437100  0.963600  1.0  0.1053
  H  H98  1  0.833100  0.378900  0.974800  1.0  0.0811
  H  H99  1  0.619900  0.453300  0.034600  1.0  0.0986
  H  H100  1  0.573700  0.418700  0.108800  1.0  0.0941
  H  H101  1  0.729500  0.279800  0.117200  1.0  0.0934
  H  H102  1  0.774100  0.310900  0.044000  1.0  0.1133
  H  H103  1  0.411100  0.606400  0.306800  1.0  0.0884
  H  H104  1  0.394900  0.467300  0.421800  1.0  0.0927
  H  H105  1  0.499900  0.526900  0.423400  1.0  0.0939
  H  H106  1  0.514700  0.668700  0.309000  1.0  0.0878
  H  H107  1  0.032700  0.383800  0.295600  1.0  0.0954
  H  H108  1  0.996500  0.461500  0.236400  1.0  0.117
  H  H109  1  0.834200  0.309700  0.306400  1.0  0.092
  H  H110  1  0.898900  0.529200  0.213600  1.0  0.1072
  H  H111  1  0.820100  0.576900  0.172000  1.0  0.112
  H  H112  1  0.718500  0.376100  0.203200  1.0  0.1088
  H  H113  1  0.793600  0.329400  0.247200  1.0  0.1146
  H  H114  1  0.882600  0.652800  0.892400  1.0  0.0953
  H  H115  1  0.896500  0.599300  0.963600  1.0  0.1064
  H  H116  1  0.692100  0.646300  0.974800  1.0  0.0828
  H  H117  1  0.845500  0.512100  0.034600  1.0  0.1004
  H  H118  1  0.817500  0.472500  0.108800  1.0  0.0947
  H  H119  1  0.653300  0.603000  0.117200  1.0  0.0936
  H  H120  1  0.681900  0.645100  0.044000  1.0  0.113
  H  H121  1  0.782100  0.086800  0.306800  1.0  0.088
  H  H122  1  0.683300  0.110900  0.421800  1.0  0.0921
  H  H123  1  0.576700  0.049700  0.423400  1.0  0.0943
  H  H124  1  0.676300  0.022300  0.309000  1.0  0.0896
  H  H125  1  0.883800  0.671700  0.795600  1.0  0.0987
  H  H126  1  0.961500  0.767100  0.736400  1.0  0.1162
  H  H127  1  0.809700  0.859400  0.806400  1.0  0.0919
  H  H128  1  0.029200  0.887500  0.713600  1.0  0.1063
  H  H129  1  0.076900  0.007900  0.672000  1.0  0.113
  H  H130  1  0.876100  0.078300  0.703200  1.0  0.109
  H  H131  1  0.829400  0.959200  0.747200  1.0  0.1158
  H  H132  1  0.152800  0.225000  0.392400  1.0  0.0961
  H  H133  1  0.099300  0.139900  0.463600  1.0  0.106
  H  H134  1  0.146300  0.333100  0.474800  1.0  0.0811
  H  H135  1  0.012100  0.119900  0.534600  1.0  0.0996
  H  H136  1  0.972500  0.073700  0.608800  1.0  0.0941
  H  H137  1  0.103000  0.229500  0.617200  1.0  0.0947
  H  H138  1  0.145100  0.274100  0.544000  1.0  0.1132
  H  H139  1  0.586800  0.911100  0.806800  1.0  0.0876
  H  H140  1  0.610900  0.894900  0.921800  1.0  0.0947
  H  H141  1  0.549700  0.999900  0.923400  1.0  0.0936
  H  H142  1  0.522300  0.014700  0.809000  1.0  0.0888
  H  H143  1  0.820600  0.532700  0.795600  1.0  0.0959
  H  H144  1  0.802100  0.496500  0.736400  1.0  0.1156
  H  H145  1  0.883900  0.334200  0.806400  1.0  0.0931
  H  H146  1  0.757200  0.398900  0.713600  1.0  0.106
  H  H147  1  0.751100  0.320100  0.672000  1.0  0.1112
  H  H148  1  0.920700  0.218500  0.703200  1.0  0.1095
  H  H149  1  0.923400  0.293600  0.747200  1.0  0.1142
  H  H150  1  0.954800  0.382600  0.392400  1.0  0.0948
  H  H151  1  0.937100  0.396500  0.463600  1.0  0.1041
  H  H152  1  0.878900  0.192100  0.474800  1.0  0.0843
  H  H153  1  0.953300  0.345500  0.534600  1.0  0.0991
  H  H154  1  0.918700  0.317500  0.608800  1.0  0.0935
  H  H155  1  0.779800  0.153300  0.617200  1.0  0.0935
  H  H156  1  0.810900  0.181900  0.544000  1.0  0.1121
  H  H157  1  0.106400  0.282100  0.806800  1.0  0.0882
  H  H158  1  0.967300  0.183300  0.921800  1.0  0.0934
  H  H159  1  0.026900  0.076700  0.923400  1.0  0.0946
  H  H160  1  0.168700  0.176300  0.809000  1.0  0.0878
  H  H161  1  0.828300  0.679400  0.704400  1.0  0.0969
  H  H162  1  0.732900  0.697900  0.763600  1.0  0.1164
  H  H163  1  0.640600  0.616100  0.693600  1.0  0.0923
  H  H164  1  0.612500  0.742800  0.786400  1.0  0.107
  H  H165  1  0.492100  0.748900  0.828000  1.0  0.1109
  H  H166  1  0.421700  0.579300  0.796800  1.0  0.1093
  H  H167  1  0.540800  0.576600  0.752800  1.0  0.1127
  H  H168  1  0.275000  0.545200  0.107600  1.0  0.0958
  H  H169  1  0.360100  0.562900  0.036400  1.0  0.1049
  H  H170  1  0.166900  0.621100  0.025200  1.0  0.0815
  H  H171  1  0.380100  0.546700  0.965400  1.0  0.0994
  H  H172  1  0.426300  0.581300  0.891200  1.0  0.0946
  H  H173  1  0.270500  0.720200  0.882800  1.0  0.094
  H  H174  1  0.225900  0.689100  0.956000  1.0  0.1112
  H  H175  1  0.588900  0.393600  0.693200  1.0  0.0888
  H  H176  1  0.605100  0.532700  0.578200  1.0  0.0929
  H  H177  1  0.500100  0.473100  0.576600  1.0  0.0943
  H  H178  1  0.485300  0.331300  0.691000  1.0  0.0878
  H  H179  1  0.967300  0.616200  0.704400  1.0  0.0981
  H  H180  1  0.003500  0.538500  0.763600  1.0  0.1165
  H  H181  1  0.165800  0.690300  0.693600  1.0  0.0922
  H  H182  1  0.101100  0.470800  0.786400  1.0  0.105
  H  H183  1  0.179900  0.423100  0.828000  1.0  0.1134
  H  H184  1  0.281500  0.623900  0.796800  1.0  0.1095
  H  H185  1  0.206400  0.670600  0.752800  1.0  0.1146
  H  H186  1  0.117400  0.347200  0.107600  1.0  0.0952
  H  H187  1  0.103500  0.400700  0.036400  1.0  0.1048
  H  H188  1  0.307900  0.353700  0.025200  1.0  0.0803
  H  H189  1  0.154500  0.487900  0.965400  1.0  0.1001
  H  H190  1  0.182500  0.527500  0.891200  1.0  0.094
  H  H191  1  0.346700  0.397000  0.882800  1.0  0.094
  H  H192  1  0.318100  0.354900  0.956000  1.0  0.112
  H  H193  1  0.217900  0.913200  0.693200  1.0  0.0878
  H  H194  1  0.316700  0.889100  0.578200  1.0  0.0918
  H  H195  1  0.423300  0.950300  0.576600  1.0  0.0941
  H  H196  1  0.323700  0.977700  0.691000  1.0  0.089
  H  H197  1  0.116200  0.328300  0.204400  1.0  0.0972
  H  H198  1  0.038500  0.232900  0.263600  1.0  0.1151
  H  H199  1  0.190300  0.140600  0.193600  1.0  0.0916
  H  H200  1  0.970800  0.112500  0.286400  1.0  0.1058
  H  H201  1  0.923100  0.992100  0.328000  1.0  0.1132
  H  H202  1  0.123900  0.921700  0.296800  1.0  0.1095
  H  H203  1  0.170600  0.040800  0.252800  1.0  0.1152
  H  H204  1  0.847200  0.775000  0.607600  1.0  0.0962
  H  H205  1  0.900700  0.860100  0.536400  1.0  0.105
  H  H206  1  0.853700  0.666900  0.525200  1.0  0.083
  H  H207  1  0.987900  0.880100  0.465400  1.0  0.1004
  H  H208  1  0.027500  0.926300  0.391200  1.0  0.0945
  H  H209  1  0.897000  0.770500  0.382800  1.0  0.0953
  H  H210  1  0.854900  0.725900  0.456000  1.0  0.1111
  H  H211  1  0.413200  0.088900  0.193200  1.0  0.088
  H  H212  1  0.389100  0.105100  0.078200  1.0  0.0947
  H  H213  1  0.450300  0.000100  0.076600  1.0  0.0934
  H  H214  1  0.477700  0.985300  0.191000  1.0  0.0883
  H  H215  1  0.179400  0.467300  0.204400  1.0  0.0978
  H  H216  1  0.197900  0.503500  0.263600  1.0  0.1167
  H  H217  1  0.116100  0.665800  0.193600  1.0  0.093
  H  H218  1  0.242800  0.601100  0.286400  1.0  0.1059
  H  H219  1  0.248900  0.679900  0.328000  1.0  0.1116
  H  H220  1  0.079300  0.781500  0.296800  1.0  0.1091
  H  H221  1  0.076600  0.706400  0.252800  1.0  0.1135
  H  H222  1  0.045200  0.617400  0.607600  1.0  0.0949
  H  H223  1  0.062900  0.603500  0.536400  1.0  0.1047
  H  H224  1  0.121100  0.807900  0.525200  1.0  0.082
  H  H225  1  0.046700  0.654500  0.465400  1.0  0.0991
  H  H226  1  0.081300  0.682500  0.391200  1.0  0.093
  H  H227  1  0.220200  0.846700  0.382800  1.0  0.0935
  H  H228  1  0.189100  0.818100  0.456000  1.0  0.1139
  H  H229  1  0.893600  0.717900  0.193200  1.0  0.0885
  H  H230  1  0.032700  0.816700  0.078200  1.0  0.0931
  H  H231  1  0.973100  0.923300  0.076600  1.0  0.0947
  H  H232  1  0.831300  0.823700  0.191000  1.0  0.0885
  H  H233  1  0.467300  0.179400  0.704400  1.0  0.0977
  H  H234  1  0.503500  0.197900  0.763600  1.0  0.1161
  H  H235  1  0.665800  0.116100  0.693600  1.0  0.0921
  H  H236  1  0.601100  0.242800  0.786400  1.0  0.1059
  H  H237  1  0.679900  0.248900  0.828000  1.0  0.1111
  H  H238  1  0.781500  0.079300  0.796800  1.0  0.1092
  H  H239  1  0.706400  0.076600  0.752800  1.0  0.1124
  H  H240  1  0.617400  0.045200  0.107600  1.0  0.0952
  H  H241  1  0.603500  0.062900  0.036400  1.0  0.1054
  H  H242  1  0.807900  0.121100  0.025200  1.0  0.0793
  H  H243  1  0.654500  0.046700  0.965400  1.0  0.0996
  H  H244  1  0.682500  0.081300  0.891200  1.0  0.0935
  H  H245  1  0.846700  0.220200  0.882800  1.0  0.0936
  H  H246  1  0.818100  0.189100  0.956000  1.0  0.1144
  H  H247  1  0.717900  0.893600  0.693200  1.0  0.0876
  H  H248  1  0.816700  0.032700  0.578200  1.0  0.0931
  H  H249  1  0.923300  0.973100  0.576600  1.0  0.0939
  H  H250  1  0.823700  0.831300  0.691000  1.0  0.0885
  H  H251  1  0.328300  0.116200  0.704400  1.0  0.0972
  H  H252  1  0.232900  0.038500  0.763600  1.0  0.1155
  H  H253  1  0.140600  0.190300  0.693600  1.0  0.0922
  H  H254  1  0.112500  0.970800  0.786400  1.0  0.1059
  H  H255  1  0.992100  0.923100  0.828000  1.0  0.1127
  H  H256  1  0.921700  0.123900  0.796800  1.0  0.1093
  H  H257  1  0.040800  0.170600  0.752800  1.0  0.1146
  H  H258  1  0.775000  0.847200  0.107600  1.0  0.0964
  H  H259  1  0.860100  0.900700  0.036400  1.0  0.1049
  H  H260  1  0.666900  0.853700  0.025200  1.0  0.0821
  H  H261  1  0.880100  0.987900  0.965400  1.0  0.1005
  H  H262  1  0.926300  0.027500  0.891200  1.0  0.0942
  H  H263  1  0.770500  0.897000  0.882800  1.0  0.0946
  H  H264  1  0.725900  0.854900  0.956000  1.0  0.111
  H  H265  1  0.088900  0.413200  0.693200  1.0  0.0886
  H  H266  1  0.105100  0.389100  0.578200  1.0  0.0936
  H  H267  1  0.000100  0.450300  0.576600  1.0  0.0938
  H  H268  1  0.985300  0.477700  0.691000  1.0  0.0878
  H  H269  1  0.679400  0.828300  0.204400  1.0  0.0973
  H  H270  1  0.697900  0.732900  0.263600  1.0  0.1172
  H  H271  1  0.616100  0.640600  0.193600  1.0  0.0924
  H  H272  1  0.742800  0.612500  0.286400  1.0  0.1068
  H  H273  1  0.748900  0.492100  0.328000  1.0  0.1115
  H  H274  1  0.579300  0.421700  0.296800  1.0  0.1093
  H  H275  1  0.576600  0.540800  0.252800  1.0  0.1131
  H  H276  1  0.545200  0.275000  0.607600  1.0  0.0956
  H  H277  1  0.562900  0.360100  0.536400  1.0  0.1059
  H  H278  1  0.621100  0.166900  0.525200  1.0  0.0814
  H  H279  1  0.546700  0.380100  0.465400  1.0  0.0991
  H  H280  1  0.581300  0.426300  0.391200  1.0  0.0944
  H  H281  1  0.720200  0.270500  0.382800  1.0  0.0939
  H  H282  1  0.689100  0.225900  0.456000  1.0  0.1112
  H  H283  1  0.393600  0.588900  0.193200  1.0  0.0883
  H  H284  1  0.532700  0.605100  0.078200  1.0  0.0928
  H  H285  1  0.473100  0.500100  0.076600  1.0  0.094
  H  H286  1  0.331300  0.485300  0.191000  1.0  0.0878
  H  H287  1  0.616200  0.967300  0.204400  1.0  0.0979
  H  H288  1  0.538500  0.003500  0.263600  1.0  0.1156
  H  H289  1  0.690300  0.165800  0.193600  1.0  0.0926
  H  H290  1  0.470800  0.101100  0.286400  1.0  0.1051
  H  H291  1  0.423100  0.179900  0.328000  1.0  0.1133
  H  H292  1  0.623900  0.281500  0.296800  1.0  0.109
  H  H293  1  0.670600  0.206400  0.252800  1.0  0.1153
  H  H294  1  0.347200  0.117400  0.607600  1.0  0.095
  H  H295  1  0.400700  0.103500  0.536400  1.0  0.1059
  H  H296  1  0.353700  0.307900  0.525200  1.0  0.0817
  H  H297  1  0.487900  0.154500  0.465400  1.0  0.0998
  H  H298  1  0.527500  0.182500  0.391200  1.0  0.0937
  H  H299  1  0.397000  0.346700  0.382800  1.0  0.0939
  H  H300  1  0.354900  0.318100  0.456000  1.0  0.1117
  H  H301  1  0.913200  0.217900  0.193200  1.0  0.0886
  H  H302  1  0.889100  0.316700  0.078200  1.0  0.0923
  H  H303  1  0.950300  0.423300  0.076600  1.0  0.0945
  H  H304  1  0.977700  0.323700  0.191000  1.0  0.0891
  C  C305  1  0.487360  0.830560  0.290480  1.0  0.0387
  C  C306  1  0.467780  0.820180  0.258040  1.0  -0.1018
  C  C307  1  0.378890  0.864790  0.296820  1.0  0.1455
  C  C308  1  0.351010  0.839210  0.234780  1.0  0.1769
  C  C309  1  0.361430  0.788830  0.212340  1.0  -0.1195
  C  C310  1  0.314200  0.785500  0.187400  1.0  -0.1797
  C  C311  1  0.260360  0.831860  0.185680  1.0  0.2677
  C  C312  1  0.253180  0.886280  0.206440  1.0  -0.1927
  C  C313  1  0.298770  0.888570  0.232060  1.0  -0.1434
  C  C314  1  0.345020  0.938620  0.918160  1.0  -0.0241
  C  C315  1  0.352820  0.929320  0.957360  1.0  -0.1048
  C  C316  1  0.241070  0.898370  0.963060  1.0  0.1764
  C  C317  1  0.267120  0.885320  0.031760  1.0  0.1701
  C  C318  1  0.306920  0.917620  0.051160  1.0  -0.1578
  C  C319  1  0.289880  0.897180  0.095640  1.0  -0.1892
  C  C320  1  0.232520  0.845420  0.119960  1.0  0.2902
  C  C321  1  0.192740  0.814440  0.100520  1.0  -0.1851
  C  C322  1  0.209430  0.833230  0.056740  1.0  -0.1378
  C  C323  1  0.311970  0.990770  0.363460  1.0  0.6578
  C  C324  1  0.243990  0.030390  0.364220  1.0  -0.1524
  C  C325  1  0.240900  0.090700  0.330600  1.0  -0.0443
  C  C326  1  0.182310  0.007710  0.398780  1.0  -0.0267
  C  C327  1  0.047790  0.145090  0.368420  1.0  0.6408
  C  C328  1  0.115960  0.105160  0.366880  1.0  -0.1213
  C  C329  1  0.118420  0.044020  0.399960  1.0  -0.0532
  C  C330  1  0.177320  0.128190  0.331820  1.0  -0.0558
  C  C331  1  0.722160  0.878960  0.290480  1.0  0.0391
  C  C332  1  0.774180  0.921780  0.258040  1.0  -0.1003
  C  C333  1  0.824290  0.838390  0.296820  1.0  0.147
  C  C334  1  0.914210  0.926010  0.234780  1.0  0.1787
  C  C335  1  0.926230  0.998830  0.212340  1.0  -0.1196
  C  C336  1  0.998400  0.027100  0.187400  1.0  -0.1774
  C  C337  1  0.053960  0.982460  0.185680  1.0  0.2685
  C  C338  1  0.040380  0.907280  0.206440  1.0  -0.1923
  C  C339  1  0.969170  0.879370  0.232060  1.0  -0.1436
  C  C340  1  0.236820  0.143220  0.918160  1.0  -0.0217
  C  C341  1  0.189820  0.113320  0.957360  1.0  -0.1058
  C  C342  1  0.295870  0.138570  0.963060  1.0  0.177
  C  C343  1  0.201120  0.082920  0.031760  1.0  0.1699
  C  C344  1  0.141920  0.031220  0.051160  1.0  -0.1655
  C  C345  1  0.114480  0.007180  0.095640  1.0  -0.1849
  C  C346  1  0.147520  0.034620  0.119960  1.0  0.2999
  C  C347  1  0.206740  0.085040  0.100520  1.0  -0.1825
  C  C348  1  0.233830  0.110030  0.056740  1.0  -0.1395
  C  C349  1  0.824570  0.645770  0.363460  1.0  0.6558
  C  C350  1  0.891790  0.605390  0.364220  1.0  -0.1532
  C  C351  1  0.928500  0.578700  0.330600  1.0  -0.045
  C  C352  1  0.918910  0.593510  0.398780  1.0  -0.0298
  C  C353  1  0.083790  0.486490  0.368420  1.0  0.6429
  C  C354  1  0.017160  0.527960  0.366880  1.0  -0.1231
  C  C355  1  0.981620  0.556020  0.399960  1.0  -0.0515
  C  C356  1  0.990860  0.539990  0.331820  1.0  -0.0562
  C  C357  1  0.330560  0.222160  0.790480  1.0  0.0375
  C  C358  1  0.320180  0.274180  0.758040  1.0  -0.1002
  C  C359  1  0.364790  0.324290  0.796820  1.0  0.1458
  C  C360  1  0.339210  0.414210  0.734780  1.0  0.1792
  C  C361  1  0.288830  0.426230  0.712340  1.0  -0.1174
  C  C362  1  0.285500  0.498400  0.687400  1.0  -0.1743
  C  C363  1  0.331860  0.553960  0.685680  1.0  0.2666
  C  C364  1  0.386280  0.540380  0.706440  1.0  -0.191
  C  C365  1  0.388570  0.469170  0.732060  1.0  -0.1437
  C  C366  1  0.438620  0.736820  0.418160  1.0  -0.0233
  C  C367  1  0.429320  0.689820  0.457360  1.0  -0.1056
  C  C368  1  0.398370  0.795870  0.463060  1.0  0.1763
  C  C369  1  0.385320  0.701120  0.531760  1.0  0.1688
  C  C370  1  0.417620  0.641920  0.551160  1.0  -0.1602
  C  C371  1  0.397180  0.614480  0.595640  1.0  -0.1843
  C  C372  1  0.345420  0.647520  0.619960  1.0  0.2981
  C  C373  1  0.314440  0.706740  0.600520  1.0  -0.1818
  C  C374  1  0.333230  0.733830  0.556740  1.0  -0.1373
  C  C375  1  0.490770  0.324570  0.863460  1.0  0.6578
  C  C376  1  0.530390  0.391790  0.864220  1.0  -0.1501
  C  C377  1  0.590700  0.428500  0.830600  1.0  -0.0467
  C  C378  1  0.507710  0.418910  0.898780  1.0  -0.0292
  C  C379  1  0.645090  0.583790  0.868420  1.0  0.6508
  C  C380  1  0.605160  0.517160  0.866880  1.0  -0.1203
  C  C381  1  0.544020  0.481620  0.899960  1.0  -0.0505
  C  C382  1  0.628190  0.490860  0.831820  1.0  -0.0549
  C  C383  1  0.378960  0.987360  0.790480  1.0  0.0388
  C  C384  1  0.421780  0.967780  0.758040  1.0  -0.1031
  C  C385  1  0.338390  0.878890  0.796820  1.0  0.145
  C  C386  1  0.426010  0.851010  0.734780  1.0  0.1778
  C  C387  1  0.498830  0.861430  0.712340  1.0  -0.1182
  C  C388  1  0.527100  0.814200  0.687400  1.0  -0.1771
  C  C389  1  0.482460  0.760360  0.685680  1.0  0.2676
  C  C390  1  0.407280  0.753180  0.706440  1.0  -0.1904
  C  C391  1  0.379370  0.798770  0.732060  1.0  -0.1454
  C  C392  1  0.643220  0.845020  0.418160  1.0  -0.0212
  C  C393  1  0.613320  0.852820  0.457360  1.0  -0.1044
  C  C394  1  0.638570  0.741070  0.463060  1.0  0.1727
  C  C395  1  0.582920  0.767120  0.531760  1.0  0.1706
  C  C396  1  0.531220  0.806920  0.551160  1.0  -0.1577
  C  C397  1  0.507180  0.789880  0.595640  1.0  -0.186
  C  C398  1  0.534620  0.732520  0.619960  1.0  0.2989
  C  C399  1  0.585040  0.692740  0.600520  1.0  -0.1816
  C  C400  1  0.610030  0.709430  0.556740  1.0  -0.1381
  C  C401  1  0.145770  0.811970  0.863460  1.0  0.6573
  C  C402  1  0.105390  0.743990  0.864220  1.0  -0.1512
  C  C403  1  0.078700  0.740900  0.830600  1.0  -0.0415
  C  C404  1  0.093510  0.682310  0.898780  1.0  -0.0325
  C  C405  1  0.986490  0.547790  0.868420  1.0  0.6445
  C  C406  1  0.027960  0.615960  0.866880  1.0  -0.1284
  C  C407  1  0.056020  0.618420  0.899960  1.0  -0.0499
  C  C408  1  0.039990  0.677320  0.831820  1.0  -0.0571
  C  C409  1  0.222160  0.330560  0.290480  1.0  0.0409
  C  C410  1  0.274180  0.320180  0.258040  1.0  -0.0982
  C  C411  1  0.324290  0.364790  0.296820  1.0  0.146
  C  C412  1  0.414210  0.339210  0.234780  1.0  0.1776
  C  C413  1  0.426230  0.288830  0.212340  1.0  -0.1167
  C  C414  1  0.498400  0.285500  0.187400  1.0  -0.176
  C  C415  1  0.553960  0.331860  0.185680  1.0  0.2688
  C  C416  1  0.540380  0.386280  0.206440  1.0  -0.1923
  C  C417  1  0.469170  0.388570  0.232060  1.0  -0.1457
  C  C418  1  0.736820  0.438620  0.918160  1.0  -0.0236
  C  C419  1  0.689820  0.429320  0.957360  1.0  -0.1057
  C  C420  1  0.795870  0.398370  0.963060  1.0  0.1773
  C  C421  1  0.701120  0.385320  0.031760  1.0  0.1676
  C  C422  1  0.641920  0.417620  0.051160  1.0  -0.1646
  C  C423  1  0.614480  0.397180  0.095640  1.0  -0.1837
  C  C424  1  0.647520  0.345420  0.119960  1.0  0.2985
  C  C425  1  0.706740  0.314440  0.100520  1.0  -0.1822
  C  C426  1  0.733830  0.333230  0.056740  1.0  -0.1381
  C  C427  1  0.324570  0.490770  0.363460  1.0  0.6528
  C  C428  1  0.391790  0.530390  0.364220  1.0  -0.152
  C  C429  1  0.428500  0.590700  0.330600  1.0  -0.0463
  C  C430  1  0.418910  0.507710  0.398780  1.0  -0.0297
  C  C431  1  0.583790  0.645090  0.368420  1.0  0.6472
  C  C432  1  0.517160  0.605160  0.366880  1.0  -0.1255
  C  C433  1  0.481620  0.544020  0.399960  1.0  -0.0536
  C  C434  1  0.490860  0.628190  0.331820  1.0  -0.057
  C  C435  1  0.987360  0.378960  0.290480  1.0  0.0384
  C  C436  1  0.967780  0.421780  0.258040  1.0  -0.1032
  C  C437  1  0.878890  0.338390  0.296820  1.0  0.1458
  C  C438  1  0.851010  0.426010  0.234780  1.0  0.1771
  C  C439  1  0.861430  0.498830  0.212340  1.0  -0.1202
  C  C440  1  0.814200  0.527100  0.187400  1.0  -0.1791
  C  C441  1  0.760360  0.482460  0.185680  1.0  0.2691
  C  C442  1  0.753180  0.407280  0.206440  1.0  -0.1912
  C  C443  1  0.798770  0.379370  0.232060  1.0  -0.1441
  C  C444  1  0.845020  0.643220  0.918160  1.0  -0.0201
  C  C445  1  0.852820  0.613320  0.957360  1.0  -0.1052
  C  C446  1  0.741070  0.638570  0.963060  1.0  0.1734
  C  C447  1  0.767120  0.582920  0.031760  1.0  0.1708
  C  C448  1  0.806920  0.531220  0.051160  1.0  -0.158
  C  C449  1  0.789880  0.507180  0.095640  1.0  -0.1868
  C  C450  1  0.732520  0.534620  0.119960  1.0  0.2917
  C  C451  1  0.692740  0.585040  0.100520  1.0  -0.1819
  C  C452  1  0.709430  0.610030  0.056740  1.0  -0.1385
  C  C453  1  0.811970  0.145770  0.363460  1.0  0.6566
  C  C454  1  0.743990  0.105390  0.364220  1.0  -0.1538
  C  C455  1  0.740900  0.078700  0.330600  1.0  -0.0423
  C  C456  1  0.682310  0.093510  0.398780  1.0  -0.0323
  C  C457  1  0.547790  0.986490  0.368420  1.0  0.6399
  C  C458  1  0.615960  0.027960  0.366880  1.0  -0.1212
  C  C459  1  0.618420  0.056020  0.399960  1.0  -0.0482
  C  C460  1  0.677320  0.039990  0.331820  1.0  -0.056
  C  C461  1  0.878960  0.722160  0.790480  1.0  0.0356
  C  C462  1  0.921780  0.774180  0.758040  1.0  -0.1006
  C  C463  1  0.838390  0.824290  0.796820  1.0  0.1453
  C  C464  1  0.926010  0.914210  0.734780  1.0  0.178
  C  C465  1  0.998830  0.926230  0.712340  1.0  -0.1181
  C  C466  1  0.027100  0.998400  0.687400  1.0  -0.1771
  C  C467  1  0.982460  0.053960  0.685680  1.0  0.2673
  C  C468  1  0.907280  0.040380  0.706440  1.0  -0.1911
  C  C469  1  0.879370  0.969170  0.732060  1.0  -0.1445
  C  C470  1  0.143220  0.236820  0.418160  1.0  -0.0228
  C  C471  1  0.113320  0.189820  0.457360  1.0  -0.1041
  C  C472  1  0.138570  0.295870  0.463060  1.0  0.1767
  C  C473  1  0.082920  0.201120  0.531760  1.0  0.1697
  C  C474  1  0.031220  0.141920  0.551160  1.0  -0.1583
  C  C475  1  0.007180  0.114480  0.595640  1.0  -0.1837
  C  C476  1  0.034620  0.147520  0.619960  1.0  0.3007
  C  C477  1  0.085040  0.206740  0.600520  1.0  -0.1825
  C  C478  1  0.110030  0.233830  0.556740  1.0  -0.1374
  C  C479  1  0.645770  0.824570  0.863460  1.0  0.6592
  C  C480  1  0.605390  0.891790  0.864220  1.0  -0.1513
  C  C481  1  0.578700  0.928500  0.830600  1.0  -0.047
  C  C482  1  0.593510  0.918910  0.898780  1.0  -0.032
  C  C483  1  0.486490  0.083790  0.868420  1.0  0.6445
  C  C484  1  0.527960  0.017160  0.866880  1.0  -0.126
  C  C485  1  0.556020  0.981620  0.899960  1.0  -0.0518
  C  C486  1  0.539990  0.990860  0.831820  1.0  -0.0554
  C  C487  1  0.830560  0.487360  0.790480  1.0  0.0378
  C  C488  1  0.820180  0.467780  0.758040  1.0  -0.1037
  C  C489  1  0.864790  0.378890  0.796820  1.0  0.1469
  C  C490  1  0.839210  0.351010  0.734780  1.0  0.1777
  C  C491  1  0.788830  0.361430  0.712340  1.0  -0.1171
  C  C492  1  0.785500  0.314200  0.687400  1.0  -0.1766
  C  C493  1  0.831860  0.260360  0.685680  1.0  0.2671
  C  C494  1  0.886280  0.253180  0.706440  1.0  -0.1912
  C  C495  1  0.888570  0.298770  0.732060  1.0  -0.1447
  C  C496  1  0.938620  0.345020  0.418160  1.0  -0.0242
  C  C497  1  0.929320  0.352820  0.457360  1.0  -0.1092
  C  C498  1  0.898370  0.241070  0.463060  1.0  0.1741
  C  C499  1  0.885320  0.267120  0.531760  1.0  0.1701
  C  C500  1  0.917620  0.306920  0.551160  1.0  -0.1581
  C  C501  1  0.897180  0.289880  0.595640  1.0  -0.1888
  C  C502  1  0.845420  0.232520  0.619960  1.0  0.2904
  C  C503  1  0.814440  0.192740  0.600520  1.0  -0.1831
  C  C504  1  0.833230  0.209430  0.556740  1.0  -0.1387
  C  C505  1  0.990770  0.311970  0.863460  1.0  0.658
  C  C506  1  0.030390  0.243990  0.864220  1.0  -0.1458
  C  C507  1  0.090700  0.240900  0.830600  1.0  -0.0412
  C  C508  1  0.007710  0.182310  0.898780  1.0  -0.0259
  C  C509  1  0.145090  0.047790  0.868420  1.0  0.6453
  C  C510  1  0.105160  0.115960  0.866880  1.0  -0.1222
  C  C511  1  0.044020  0.118420  0.899960  1.0  -0.0523
  C  C512  1  0.128190  0.177320  0.831820  1.0  -0.0552
  C  C513  1  0.777840  0.669440  0.709520  1.0  0.0387
  C  C514  1  0.725820  0.679820  0.741960  1.0  -0.101
  C  C515  1  0.675710  0.635210  0.703180  1.0  0.1482
  C  C516  1  0.585790  0.660790  0.765220  1.0  0.1783
  C  C517  1  0.573770  0.711170  0.787660  1.0  -0.1169
  C  C518  1  0.501600  0.714500  0.812600  1.0  -0.1808
  C  C519  1  0.446040  0.668140  0.814320  1.0  0.2749
  C  C520  1  0.459620  0.613720  0.793560  1.0  -0.1914
  C  C521  1  0.530830  0.611430  0.767940  1.0  -0.1449
  C  C522  1  0.263180  0.561380  0.081840  1.0  -0.0286
  C  C523  1  0.310180  0.570680  0.042640  1.0  -0.1045
  C  C524  1  0.204130  0.601630  0.036940  1.0  0.1748
  C  C525  1  0.298880  0.614680  0.968240  1.0  0.1702
  C  C526  1  0.358080  0.582380  0.948840  1.0  -0.1615
  C  C527  1  0.385520  0.602820  0.904360  1.0  -0.1854
  C  C528  1  0.352480  0.654580  0.880040  1.0  0.2934
  C  C529  1  0.293260  0.685560  0.899480  1.0  -0.1833
  C  C530  1  0.266170  0.666770  0.943260  1.0  -0.1372
  C  C531  1  0.675430  0.509230  0.636540  1.0  0.6579
  C  C532  1  0.608210  0.469610  0.635780  1.0  -0.1519
  C  C533  1  0.571500  0.409300  0.669400  1.0  -0.0512
  C  C534  1  0.581090  0.492290  0.601220  1.0  -0.0298
  C  C535  1  0.416210  0.354910  0.631580  1.0  0.6409
  C  C536  1  0.482840  0.394840  0.633120  1.0  -0.1224
  C  C537  1  0.518380  0.455980  0.600040  1.0  -0.0501
  C  C538  1  0.509140  0.371810  0.668180  1.0  -0.0565
  C  C539  1  0.012640  0.621040  0.709520  1.0  0.0391
  C  C540  1  0.032220  0.578220  0.741960  1.0  -0.1007
  C  C541  1  0.121110  0.661610  0.703180  1.0  0.1453
  C  C542  1  0.148990  0.573990  0.765220  1.0  0.1793
  C  C543  1  0.138570  0.501170  0.787660  1.0  -0.1179
  C  C544  1  0.185800  0.472900  0.812600  1.0  -0.1772
  C  C545  1  0.239640  0.517540  0.814320  1.0  0.2694
  C  C546  1  0.246820  0.592720  0.793560  1.0  -0.1916
  C  C547  1  0.201230  0.620630  0.767940  1.0  -0.144
  C  C548  1  0.154980  0.356780  0.081840  1.0  -0.0184
  C  C549  1  0.147180  0.386680  0.042640  1.0  -0.1055
  C  C550  1  0.258930  0.361430  0.036940  1.0  0.1774
  C  C551  1  0.232880  0.417080  0.968240  1.0  0.1699
  C  C552  1  0.193080  0.468780  0.948840  1.0  -0.1595
  C  C553  1  0.210120  0.492820  0.904360  1.0  -0.1853
  C  C554  1  0.267480  0.465380  0.880040  1.0  0.2987
  C  C555  1  0.307260  0.414960  0.899480  1.0  -0.1842
  C  C556  1  0.290570  0.389970  0.943260  1.0  -0.139
  C  C557  1  0.188030  0.854230  0.636540  1.0  0.6537
  C  C558  1  0.256010  0.894610  0.635780  1.0  -0.1543
  C  C559  1  0.259100  0.921300  0.669400  1.0  -0.0417
  C  C560  1  0.317690  0.906490  0.601220  1.0  -0.0312
  C  C561  1  0.452210  0.013510  0.631580  1.0  0.6411
  C  C562  1  0.384040  0.972040  0.633120  1.0  -0.1211
  C  C563  1  0.381580  0.943980  0.600040  1.0  -0.0505
  C  C564  1  0.322680  0.960010  0.668180  1.0  -0.0577
  C  C565  1  0.121040  0.277840  0.209520  1.0  0.0375
  C  C566  1  0.078220  0.225820  0.241960  1.0  -0.1
  C  C567  1  0.161610  0.175710  0.203180  1.0  0.1459
  C  C568  1  0.073990  0.085790  0.265220  1.0  0.1787
  C  C569  1  0.001170  0.073770  0.287660  1.0  -0.1157
  C  C570  1  0.972900  0.001600  0.312600  1.0  -0.1743
  C  C571  1  0.017540  0.946040  0.314320  1.0  0.274
  C  C572  1  0.092720  0.959620  0.293560  1.0  -0.1908
  C  C573  1  0.120630  0.030830  0.267940  1.0  -0.1456
  C  C574  1  0.856780  0.763180  0.581840  1.0  -0.0223
  C  C575  1  0.886680  0.810180  0.542640  1.0  -0.1041
  C  C576  1  0.861430  0.704130  0.536940  1.0  0.1769
  C  C577  1  0.917080  0.798880  0.468240  1.0  0.1699
  C  C578  1  0.968780  0.858080  0.448840  1.0  -0.1622
  C  C579  1  0.992820  0.885520  0.404360  1.0  -0.1852
  C  C580  1  0.965380  0.852480  0.380040  1.0  0.2921
  C  C581  1  0.914960  0.793260  0.399480  1.0  -0.1836
  C  C582  1  0.889970  0.766170  0.443260  1.0  -0.1386
  C  C583  1  0.354230  0.175430  0.136540  1.0  0.6602
  C  C584  1  0.394610  0.108210  0.135780  1.0  -0.1506
  C  C585  1  0.421300  0.071500  0.169400  1.0  -0.0445
  C  C586  1  0.406490  0.081090  0.101220  1.0  -0.0318
  C  C587  1  0.513510  0.916210  0.131580  1.0  0.6449
  C  C588  1  0.472040  0.982840  0.133120  1.0  -0.1242
  C  C589  1  0.443980  0.018380  0.100040  1.0  -0.0505
  C  C590  1  0.460010  0.009140  0.168180  1.0  -0.0554
  C  C591  1  0.169440  0.512640  0.209520  1.0  0.0371
  C  C592  1  0.179820  0.532220  0.241960  1.0  -0.1017
  C  C593  1  0.135210  0.621110  0.203180  1.0  0.148
  C  C594  1  0.160790  0.648990  0.265220  1.0  0.1794
  C  C595  1  0.211170  0.638570  0.287660  1.0  -0.1169
  C  C596  1  0.214500  0.685800  0.312600  1.0  -0.1763
  C  C597  1  0.168140  0.739640  0.314320  1.0  0.267
  C  C598  1  0.113720  0.746820  0.293560  1.0  -0.1912
  C  C599  1  0.111430  0.701230  0.267940  1.0  -0.1436
  C  C600  1  0.061380  0.654980  0.581840  1.0  -0.0226
  C  C601  1  0.070680  0.647180  0.542640  1.0  -0.101
  C  C602  1  0.101630  0.758930  0.536940  1.0  0.1754
  C  C603  1  0.114680  0.732880  0.468240  1.0  0.1707
  C  C604  1  0.082380  0.693080  0.448840  1.0  -0.1579
  C  C605  1  0.102820  0.710120  0.404360  1.0  -0.1851
  C  C606  1  0.154580  0.767480  0.380040  1.0  0.2995
  C  C607  1  0.185560  0.807260  0.399480  1.0  -0.1822
  C  C608  1  0.166770  0.790570  0.443260  1.0  -0.1402
  C  C609  1  0.009230  0.688030  0.136540  1.0  0.6603
  C  C610  1  0.969610  0.756010  0.135780  1.0  -0.1469
  C  C611  1  0.909300  0.759100  0.169400  1.0  -0.0494
  C  C612  1  0.992290  0.817690  0.101220  1.0  -0.0269
  C  C613  1  0.854910  0.952210  0.131580  1.0  0.6444
  C  C614  1  0.894840  0.884040  0.133120  1.0  -0.1221
  C  C615  1  0.955980  0.881580  0.100040  1.0  -0.0494
  C  C616  1  0.871810  0.822680  0.168180  1.0  -0.0557
  C  C617  1  0.512640  0.169440  0.709520  1.0  0.0389
  C  C618  1  0.532220  0.179820  0.741960  1.0  -0.0994
  C  C619  1  0.621110  0.135210  0.703180  1.0  0.1453
  C  C620  1  0.648990  0.160790  0.765220  1.0  0.1797
  C  C621  1  0.638570  0.211170  0.787660  1.0  -0.1188
  C  C622  1  0.685800  0.214500  0.812600  1.0  -0.1765
  C  C623  1  0.739640  0.168140  0.814320  1.0  0.2697
  C  C624  1  0.746820  0.113720  0.793560  1.0  -0.1919
  C  C625  1  0.701230  0.111430  0.767940  1.0  -0.1433
  C  C626  1  0.654980  0.061380  0.081840  1.0  -0.023
  C  C627  1  0.647180  0.070680  0.042640  1.0  -0.1041
  C  C628  1  0.758930  0.101630  0.036940  1.0  0.1776
  C  C629  1  0.732880  0.114680  0.968240  1.0  0.1709
  C  C630  1  0.693080  0.082380  0.948840  1.0  -0.16
  C  C631  1  0.710120  0.102820  0.904360  1.0  -0.1847
  C  C632  1  0.767480  0.154580  0.880040  1.0  0.2994
  C  C633  1  0.807260  0.185560  0.899480  1.0  -0.1851
  C  C634  1  0.790570  0.166770  0.943260  1.0  -0.1396
  C  C635  1  0.688030  0.009230  0.636540  1.0  0.6553
  C  C636  1  0.756010  0.969610  0.635780  1.0  -0.1538
  C  C637  1  0.759100  0.909300  0.669400  1.0  -0.0503
  C  C638  1  0.817690  0.992290  0.601220  1.0  -0.0271
  C  C639  1  0.952210  0.854910  0.631580  1.0  0.6421
  C  C640  1  0.884040  0.894840  0.633120  1.0  -0.1224
  C  C641  1  0.881580  0.955980  0.600040  1.0  -0.052
  C  C642  1  0.822680  0.871810  0.668180  1.0  -0.0555
  C  C643  1  0.277840  0.121040  0.709520  1.0  0.0385
  C  C644  1  0.225820  0.078220  0.741960  1.0  -0.102
  C  C645  1  0.175710  0.161610  0.703180  1.0  0.1481
  C  C646  1  0.085790  0.073990  0.765220  1.0  0.1785
  C  C647  1  0.073770  0.001170  0.787660  1.0  -0.1192
  C  C648  1  0.001600  0.972900  0.812600  1.0  -0.1791
  C  C649  1  0.946040  0.017540  0.814320  1.0  0.2741
  C  C650  1  0.959620  0.092720  0.793560  1.0  -0.1923
  C  C651  1  0.030830  0.120630  0.767940  1.0  -0.1443
  C  C652  1  0.763180  0.856780  0.081840  1.0  -0.0261
  C  C653  1  0.810180  0.886680  0.042640  1.0  -0.1055
  C  C654  1  0.704130  0.861430  0.036940  1.0  0.1757
  C  C655  1  0.798880  0.917080  0.968240  1.0  0.1703
  C  C656  1  0.858080  0.968780  0.948840  1.0  -0.1616
  C  C657  1  0.885520  0.992820  0.904360  1.0  -0.1859
  C  C658  1  0.852480  0.965380  0.880040  1.0  0.2904
  C  C659  1  0.793260  0.914960  0.899480  1.0  -0.1832
  C  C660  1  0.766170  0.889970  0.943260  1.0  -0.1383
  C  C661  1  0.175430  0.354230  0.636540  1.0  0.6578
  C  C662  1  0.108210  0.394610  0.635780  1.0  -0.1527
  C  C663  1  0.071500  0.421300  0.669400  1.0  -0.0444
  C  C664  1  0.081090  0.406490  0.601220  1.0  -0.0304
  C  C665  1  0.916210  0.513510  0.631580  1.0  0.6414
  C  C666  1  0.982840  0.472040  0.633120  1.0  -0.1218
  C  C667  1  0.018380  0.443980  0.600040  1.0  -0.0507
  C  C668  1  0.009140  0.460010  0.668180  1.0  -0.0568
  C  C669  1  0.669440  0.777840  0.209520  1.0  0.0366
  C  C670  1  0.679820  0.725820  0.241960  1.0  -0.1034
  C  C671  1  0.635210  0.675710  0.203180  1.0  0.1482
  C  C672  1  0.660790  0.585790  0.265220  1.0  0.1786
  C  C673  1  0.711170  0.573770  0.287660  1.0  -0.1149
  C  C674  1  0.714500  0.501600  0.312600  1.0  -0.1756
  C  C675  1  0.668140  0.446040  0.314320  1.0  0.2741
  C  C676  1  0.613720  0.459620  0.293560  1.0  -0.1908
  C  C677  1  0.611430  0.530830  0.267940  1.0  -0.1435
  C  C678  1  0.561380  0.263180  0.581840  1.0  -0.0224
  C  C679  1  0.570680  0.310180  0.542640  1.0  -0.1046
  C  C680  1  0.601630  0.204130  0.536940  1.0  0.1765
  C  C681  1  0.614680  0.298880  0.468240  1.0  0.1706
  C  C682  1  0.582380  0.358080  0.448840  1.0  -0.16
  C  C683  1  0.602820  0.385520  0.404360  1.0  -0.1842
  C  C684  1  0.654580  0.352480  0.380040  1.0  0.2997
  C  C685  1  0.685560  0.293260  0.399480  1.0  -0.1845
  C  C686  1  0.666770  0.266170  0.443260  1.0  -0.1372
  C  C687  1  0.509230  0.675430  0.136540  1.0  0.6604
  C  C688  1  0.469610  0.608210  0.135780  1.0  -0.1484
  C  C689  1  0.409300  0.571500  0.169400  1.0  -0.05
  C  C690  1  0.492290  0.581090  0.101220  1.0  -0.0299
  C  C691  1  0.354910  0.416210  0.131580  1.0  0.6454
  C  C692  1  0.394840  0.482840  0.133120  1.0  -0.1205
  C  C693  1  0.455980  0.518380  0.100040  1.0  -0.0493
  C  C694  1  0.371810  0.509140  0.168180  1.0  -0.0554
  C  C695  1  0.621040  0.012640  0.209520  1.0  0.0383
  C  C696  1  0.578220  0.032220  0.241960  1.0  -0.1006
  C  C697  1  0.661610  0.121110  0.203180  1.0  0.1441
  C  C698  1  0.573990  0.148990  0.265220  1.0  0.1791
  C  C699  1  0.501170  0.138570  0.287660  1.0  -0.117
  C  C700  1  0.472900  0.185800  0.312600  1.0  -0.1776
  C  C701  1  0.517540  0.239640  0.314320  1.0  0.2679
  C  C702  1  0.592720  0.246820  0.293560  1.0  -0.1908
  C  C703  1  0.620630  0.201230  0.267940  1.0  -0.1455
  C  C704  1  0.356780  0.154980  0.581840  1.0  -0.0189
  C  C705  1  0.386680  0.147180  0.542640  1.0  -0.1034
  C  C706  1  0.361430  0.258930  0.536940  1.0  0.1745
  C  C707  1  0.417080  0.232880  0.468240  1.0  0.1702
  C  C708  1  0.468780  0.193080  0.448840  1.0  -0.1593
  C  C709  1  0.492820  0.210120  0.404360  1.0  -0.187
  C  C710  1  0.465380  0.267480  0.380040  1.0  0.2909
  C  C711  1  0.414960  0.307260  0.399480  1.0  -0.1819
  C  C712  1  0.389970  0.290570  0.443260  1.0  -0.1394
  C  C713  1  0.854230  0.188030  0.136540  1.0  0.6585
  C  C714  1  0.894610  0.256010  0.135780  1.0  -0.1526
  C  C715  1  0.921300  0.259100  0.169400  1.0  -0.0431
  C  C716  1  0.906490  0.317690  0.101220  1.0  -0.0315
  C  C717  1  0.013510  0.452210  0.131580  1.0  0.6453
  C  C718  1  0.972040  0.384040  0.133120  1.0  -0.1258
  C  C719  1  0.943980  0.381580  0.100040  1.0  -0.0495
  C  C720  1  0.960010  0.322680  0.168180  1.0  -0.0581
  N  N721  1  0.431150  0.858150  0.315500  1.0  -0.3953
  N  N722  1  0.397560  0.840810  0.262020  1.0  0.0382
  N  N723  1  0.273450  0.920750  0.922300  1.0  -0.3542
  N  N724  1  0.284960  0.906160  0.986680  1.0  0.0357
  N  N725  1  0.753350  0.826350  0.315500  1.0  -0.3977
  N  N726  1  0.840420  0.897170  0.262020  1.0  0.0388
  N  N727  1  0.304250  0.156950  0.922300  1.0  -0.3616
  N  N728  1  0.228360  0.107160  0.986680  1.0  0.0338
  N  N729  1  0.358150  0.253350  0.815500  1.0  -0.3962
  N  N730  1  0.340810  0.340420  0.762020  1.0  0.0385
  N  N731  1  0.420750  0.804250  0.422300  1.0  -0.3612
  N  N732  1  0.406160  0.728360  0.486680  1.0  0.0334
  N  N733  1  0.326350  0.931150  0.815500  1.0  -0.398
  N  N734  1  0.397170  0.897560  0.762020  1.0  0.0386
  N  N735  1  0.656950  0.773450  0.422300  1.0  -0.3568
  N  N736  1  0.607160  0.784960  0.486680  1.0  0.0357
  N  N737  1  0.253350  0.358150  0.315500  1.0  -0.3984
  N  N738  1  0.340420  0.340810  0.262020  1.0  0.0391
  N  N739  1  0.804250  0.420750  0.922300  1.0  -0.3604
  N  N740  1  0.728360  0.406160  0.986680  1.0  0.0342
  N  N741  1  0.931150  0.326350  0.315500  1.0  -0.3962
  N  N742  1  0.897560  0.397170  0.262020  1.0  0.0387
  N  N743  1  0.773450  0.656950  0.922300  1.0  -0.3568
  N  N744  1  0.784960  0.607160  0.986680  1.0  0.0347
  N  N745  1  0.826350  0.753350  0.815500  1.0  -0.3994
  N  N746  1  0.897170  0.840420  0.762020  1.0  0.039
  N  N747  1  0.156950  0.304250  0.422300  1.0  -0.3601
  N  N748  1  0.107160  0.228360  0.486680  1.0  0.0352
  N  N749  1  0.858150  0.431150  0.815500  1.0  -0.3932
  N  N750  1  0.840810  0.397560  0.762020  1.0  0.038
  N  N751  1  0.920750  0.273450  0.422300  1.0  -0.3555
  N  N752  1  0.906160  0.284960  0.486680  1.0  0.0333
  N  N753  1  0.746650  0.641850  0.684500  1.0  -0.396
  N  N754  1  0.659580  0.659190  0.737980  1.0  0.039
  N  N755  1  0.195750  0.579250  0.077700  1.0  -0.3594
  N  N756  1  0.271640  0.593840  0.013320  1.0  0.0335
  N  N757  1  0.068850  0.673650  0.684500  1.0  -0.3956
  N  N758  1  0.102440  0.602830  0.737980  1.0  0.0389
  N  N759  1  0.226550  0.343050  0.077700  1.0  -0.3577
  N  N760  1  0.215040  0.392840  0.013320  1.0  0.0343
  N  N761  1  0.173650  0.246650  0.184500  1.0  -0.398
  N  N762  1  0.102830  0.159580  0.237980  1.0  0.0385
  N  N763  1  0.843050  0.695750  0.577700  1.0  -0.3608
  N  N764  1  0.892840  0.771640  0.513320  1.0  0.0337
  N  N765  1  0.141850  0.568850  0.184500  1.0  -0.3955
  N  N766  1  0.159190  0.602440  0.237980  1.0  0.0375
  N  N767  1  0.079250  0.726550  0.577700  1.0  -0.3559
  N  N768  1  0.093840  0.715040  0.513320  1.0  0.0351
  N  N769  1  0.568850  0.141850  0.684500  1.0  -0.3967
  N  N770  1  0.602440  0.159190  0.737980  1.0  0.0383
  N  N771  1  0.726550  0.079250  0.077700  1.0  -0.3559
  N  N772  1  0.715040  0.093840  0.013320  1.0  0.0325
  N  N773  1  0.246650  0.173650  0.684500  1.0  -0.3982
  N  N774  1  0.159580  0.102830  0.737980  1.0  0.039
  N  N775  1  0.695750  0.843050  0.077700  1.0  -0.3617
  N  N776  1  0.771640  0.892840  0.013320  1.0  0.0363
  N  N777  1  0.641850  0.746650  0.184500  1.0  -0.3941
  N  N778  1  0.659190  0.659580  0.237980  1.0  0.0381
  N  N779  1  0.579250  0.195750  0.577700  1.0  -0.3616
  N  N780  1  0.593840  0.271640  0.513320  1.0  0.0344
  N  N781  1  0.673650  0.068850  0.184500  1.0  -0.3963
  N  N782  1  0.602830  0.102440  0.237980  1.0  0.0384
  N  N783  1  0.343050  0.226550  0.577700  1.0  -0.3567
  N  N784  1  0.392840  0.215040  0.513320  1.0  0.034
  O  O785  1  0.366480  0.010170  0.331320  1.0  -0.6246
  O  O786  1  0.312150  0.937020  0.395300  1.0  -0.5926
  O  O787  1  0.050760  0.205260  0.340440  1.0  -0.5834
  O  O788  1  0.990690  0.119450  0.397660  1.0  -0.5772
  O  O789  1  0.209380  0.825930  0.164140  1.0  -0.2737
  O  O790  1  0.802200  0.658510  0.331320  1.0  -0.624
  O  O791  1  0.792550  0.667680  0.395300  1.0  -0.5915
  O  O792  1  0.108800  0.454300  0.340440  1.0  -0.5822
  O  O793  1  0.111650  0.482890  0.397660  1.0  -0.5761
  O  O794  1  0.126480  0.009930  0.164140  1.0  -0.2719
  O  O795  1  0.510170  0.302200  0.831320  1.0  -0.624
  O  O796  1  0.437020  0.292550  0.895300  1.0  -0.5887
  O  O797  1  0.705260  0.608800  0.840440  1.0  -0.583
  O  O798  1  0.619450  0.611650  0.897660  1.0  -0.579
  O  O799  1  0.325930  0.626480  0.664140  1.0  -0.27
  O  O800  1  0.158510  0.866480  0.831320  1.0  -0.6275
  O  O801  1  0.167680  0.812150  0.895300  1.0  -0.5932
  O  O802  1  0.954300  0.550760  0.840440  1.0  -0.5814
  O  O803  1  0.982890  0.490690  0.897660  1.0  -0.571
  O  O804  1  0.509930  0.709380  0.664140  1.0  -0.2736
  O  O805  1  0.302200  0.510170  0.331320  1.0  -0.6246
  O  O806  1  0.292550  0.437020  0.395300  1.0  -0.5907
  O  O807  1  0.608800  0.705260  0.340440  1.0  -0.5825
  O  O808  1  0.611650  0.619450  0.397660  1.0  -0.5779
  O  O809  1  0.626480  0.325930  0.164140  1.0  -0.2714
  O  O810  1  0.866480  0.158510  0.331320  1.0  -0.6246
  O  O811  1  0.812150  0.167680  0.395300  1.0  -0.5898
  O  O812  1  0.550760  0.954300  0.340440  1.0  -0.5825
  O  O813  1  0.490690  0.982890  0.397660  1.0  -0.5787
  O  O814  1  0.709380  0.509930  0.164140  1.0  -0.273
  O  O815  1  0.658510  0.802200  0.831320  1.0  -0.6268
  O  O816  1  0.667680  0.792550  0.895300  1.0  -0.5938
  O  O817  1  0.454300  0.108800  0.840440  1.0  -0.5825
  O  O818  1  0.482890  0.111650  0.897660  1.0  -0.5759
  O  O819  1  0.009930  0.126480  0.664140  1.0  -0.2716
  O  O820  1  0.010170  0.366480  0.831320  1.0  -0.6253
  O  O821  1  0.937020  0.312150  0.895300  1.0  -0.5931
  O  O822  1  0.205260  0.050760  0.840440  1.0  -0.5816
  O  O823  1  0.119450  0.990690  0.897660  1.0  -0.5696
  O  O824  1  0.825930  0.209380  0.664140  1.0  -0.274
  O  O825  1  0.697800  0.489830  0.668680  1.0  -0.6244
  O  O826  1  0.707450  0.562980  0.604700  1.0  -0.59
  O  O827  1  0.391200  0.294740  0.659560  1.0  -0.5812
  O  O828  1  0.388350  0.380550  0.602340  1.0  -0.576
  O  O829  1  0.373520  0.674070  0.835860  1.0  -0.2717
  O  O830  1  0.133520  0.841490  0.668680  1.0  -0.623
  O  O831  1  0.187850  0.832320  0.604700  1.0  -0.5851
  O  O832  1  0.449240  0.045700  0.659560  1.0  -0.5843
  O  O833  1  0.509310  0.017110  0.602340  1.0  -0.5762
  O  O834  1  0.290620  0.490070  0.835860  1.0  -0.2727
  O  O835  1  0.341490  0.197800  0.168680  1.0  -0.6266
  O  O836  1  0.332320  0.207450  0.104700  1.0  -0.5913
  O  O837  1  0.545700  0.891200  0.159560  1.0  -0.583
  O  O838  1  0.517110  0.888350  0.102340  1.0  -0.5751
  O  O839  1  0.990070  0.873520  0.335860  1.0  -0.2741
  O  O840  1  0.989830  0.633520  0.168680  1.0  -0.626
  O  O841  1  0.062980  0.687850  0.104700  1.0  -0.5922
  O  O842  1  0.794740  0.949240  0.159560  1.0  -0.5827
  O  O843  1  0.880550  0.009310  0.102340  1.0  -0.5728
  O  O844  1  0.174070  0.790620  0.335860  1.0  -0.2716
  O  O845  1  0.633520  0.989830  0.668680  1.0  -0.6237
  O  O846  1  0.687850  0.062980  0.604700  1.0  -0.5907
  O  O847  1  0.949240  0.794740  0.659560  1.0  -0.5813
  O  O848  1  0.009310  0.880550  0.602340  1.0  -0.5744
  O  O849  1  0.790620  0.174070  0.835860  1.0  -0.2708
  O  O850  1  0.197800  0.341490  0.668680  1.0  -0.623
  O  O851  1  0.207450  0.332320  0.604700  1.0  -0.5895
  O  O852  1  0.891200  0.545700  0.659560  1.0  -0.5828
  O  O853  1  0.888350  0.517110  0.602340  1.0  -0.5758
  O  O854  1  0.873520  0.990070  0.835860  1.0  -0.2736
  O  O855  1  0.489830  0.697800  0.168680  1.0  -0.6265
  O  O856  1  0.562980  0.707450  0.104700  1.0  -0.5905
  O  O857  1  0.294740  0.391200  0.159560  1.0  -0.5825
  O  O858  1  0.380550  0.388350  0.102340  1.0  -0.5776
  O  O859  1  0.674070  0.373520  0.335860  1.0  -0.2715
  O  O860  1  0.841490  0.133520  0.168680  1.0  -0.6259
  O  O861  1  0.832320  0.187850  0.104700  1.0  -0.5891
  O  O862  1  0.045700  0.449240  0.159560  1.0  -0.5839
  O  O863  1  0.017110  0.509310  0.102340  1.0  -0.5741
  O  O864  1  0.490070  0.290620  0.335860  1.0  -0.2734
