# generated using pymatgen
data_ZnH18C26N4O5
_symmetry_space_group_name_H-M   'P 1'
_cell_length_a   18.38630000
_cell_length_b   18.38630000
_cell_length_c   33.58590000
_cell_angle_alpha   105.88600000
_cell_angle_beta   105.88600000
_cell_angle_gamma   90.00010000
_symmetry_Int_Tables_number   1
_chemical_formula_structural   ZnH18C26N4O5
_chemical_formula_sum   'Zn16 H288 C416 N64 O80'
_cell_volume   10468.71593687
_cell_formula_units_Z   16
loop_
 _symmetry_equiv_pos_site_id
 _symmetry_equiv_pos_as_xyz
  1  'x, y, z'
loop_
 _atom_site_type_symbol
 _atom_site_label
 _atom_site_symmetry_multiplicity
 _atom_site_fract_x
 _atom_site_fract_y
 _atom_site_fract_z
 _atom_site_occupancy
 _atom_site_charge
  Zn  Zn1  1  0.229190  0.422440  0.134600  1.0  0.9039
  Zn  Zn2  1  0.405410  0.712160  0.134600  1.0  0.9074
  Zn  Zn3  1  0.422440  0.405410  0.634600  1.0  0.9044
  Zn  Zn4  1  0.712160  0.229190  0.634600  1.0  0.9064
  Zn  Zn5  1  0.905410  0.922440  0.134600  1.0  0.9061
  Zn  Zn6  1  0.729190  0.212160  0.134600  1.0  0.9042
  Zn  Zn7  1  0.212160  0.905410  0.634600  1.0  0.9073
  Zn  Zn8  1  0.922440  0.729190  0.634600  1.0  0.9035
  Zn  Zn9  1  0.094590  0.077560  0.865400  1.0  0.9079
  Zn  Zn10  1  0.270810  0.787840  0.865400  1.0  0.9049
  Zn  Zn11  1  0.787840  0.094590  0.365400  1.0  0.908
  Zn  Zn12  1  0.077560  0.270810  0.365400  1.0  0.9042
  Zn  Zn13  1  0.770810  0.577560  0.865400  1.0  0.9042
  Zn  Zn14  1  0.594590  0.287840  0.865400  1.0  0.9082
  Zn  Zn15  1  0.577560  0.594590  0.365400  1.0  0.9065
  Zn  Zn16  1  0.287840  0.770810  0.365400  1.0  0.9061
  H  H17  1  0.379600  0.531500  0.203600  1.0  0.1041
  H  H18  1  0.461500  0.496000  0.264800  1.0  0.1235
  H  H19  1  0.313500  0.322800  0.192200  1.0  0.0922
  H  H20  1  0.537000  0.392500  0.284800  1.0  0.1108
  H  H21  1  0.585800  0.317900  0.330600  1.0  0.1231
  H  H22  1  0.329900  0.291000  0.259600  1.0  0.0991
  H  H23  1  0.379600  0.212500  0.302000  1.0  0.1063
  H  H24  1  0.656800  0.380500  0.614000  1.0  0.0947
  H  H25  1  0.587300  0.389800  0.541200  1.0  0.1195
  H  H26  1  0.662200  0.189800  0.531400  1.0  0.0837
  H  H27  1  0.662000  0.182700  0.463200  1.0  0.1198
  H  H28  1  0.618500  0.151500  0.388800  1.0  0.1036
  H  H29  1  0.514600  0.344900  0.471400  1.0  0.1149
  H  H30  1  0.476400  0.318000  0.397400  1.0  0.0952
  H  H31  1  0.080300  0.273100  0.202000  1.0  0.1122
  H  H32  1  0.014000  0.159500  0.191400  1.0  0.0843
  H  H33  1  0.116600  0.193800  0.085800  1.0  0.105
  H  H34  1  0.054200  0.077300  0.076200  1.0  0.1057
  H  H35  1  0.324000  0.672100  0.203600  1.0  0.1059
  H  H36  1  0.303300  0.768800  0.264800  1.0  0.1237
  H  H37  1  0.378700  0.869400  0.192200  1.0  0.0918
  H  H38  1  0.247800  0.892300  0.284800  1.0  0.1113
  H  H39  1  0.244800  0.012700  0.330600  1.0  0.1232
  H  H40  1  0.429700  0.968600  0.259600  1.0  0.098
  H  H41  1  0.422400  0.089500  0.302000  1.0  0.1071
  H  H42  1  0.457200  0.233500  0.614000  1.0  0.095
  H  H43  1  0.453900  0.151400  0.541200  1.0  0.1191
  H  H44  1  0.369200  0.341600  0.531400  1.0  0.0842
  H  H45  1  0.301200  0.280500  0.463200  1.0  0.1192
  H  H46  1  0.270300  0.237300  0.388800  1.0  0.1038
  H  H47  1  0.456800  0.126500  0.471400  1.0  0.115
  H  H48  1  0.421000  0.079400  0.397400  1.0  0.0956
  H  H49  1  0.621700  0.928900  0.202000  1.0  0.1126
  H  H50  1  0.677400  0.031900  0.191400  1.0  0.0829
  H  H51  1  0.469200  0.892000  0.085800  1.0  0.105
  H  H52  1  0.522000  0.998900  0.076200  1.0  0.1056
  H  H53  1  0.531500  0.324000  0.703600  1.0  0.1033
  H  H54  1  0.496000  0.303300  0.764800  1.0  0.123
  H  H55  1  0.322800  0.378700  0.692200  1.0  0.0917
  H  H56  1  0.392500  0.247800  0.784800  1.0  0.1115
  H  H57  1  0.317900  0.244800  0.830600  1.0  0.1229
  H  H58  1  0.291000  0.429700  0.759600  1.0  0.0985
  H  H59  1  0.212500  0.422400  0.802000  1.0  0.1059
  H  H60  1  0.380500  0.457200  0.114000  1.0  0.0946
  H  H61  1  0.389800  0.453900  0.041200  1.0  0.1189
  H  H62  1  0.189800  0.369200  0.031400  1.0  0.0831
  H  H63  1  0.182700  0.301200  0.963200  1.0  0.12
  H  H64  1  0.151500  0.270300  0.888800  1.0  0.1042
  H  H65  1  0.344900  0.456800  0.971400  1.0  0.1145
  H  H66  1  0.318000  0.421000  0.897400  1.0  0.0951
  H  H67  1  0.273100  0.621700  0.702000  1.0  0.1122
  H  H68  1  0.159500  0.677400  0.691400  1.0  0.0834
  H  H69  1  0.193800  0.469200  0.585800  1.0  0.1061
  H  H70  1  0.077300  0.522000  0.576200  1.0  0.1065
  H  H71  1  0.672100  0.379600  0.703600  1.0  0.1054
  H  H72  1  0.768800  0.461500  0.764800  1.0  0.1228
  H  H73  1  0.869400  0.313500  0.692200  1.0  0.0914
  H  H74  1  0.892300  0.537000  0.784800  1.0  0.1117
  H  H75  1  0.012700  0.585800  0.830600  1.0  0.1243
  H  H76  1  0.968600  0.329900  0.759600  1.0  0.0999
  H  H77  1  0.089500  0.379600  0.802000  1.0  0.106
  H  H78  1  0.233500  0.656800  0.114000  1.0  0.0953
  H  H79  1  0.151400  0.587300  0.041200  1.0  0.1195
  H  H80  1  0.341600  0.662200  0.031400  1.0  0.0833
  H  H81  1  0.280500  0.662000  0.963200  1.0  0.1197
  H  H82  1  0.237300  0.618500  0.888800  1.0  0.105
  H  H83  1  0.126500  0.514600  0.971400  1.0  0.1153
  H  H84  1  0.079400  0.476400  0.897400  1.0  0.0962
  H  H85  1  0.928900  0.080300  0.702000  1.0  0.1122
  H  H86  1  0.031900  0.014000  0.691400  1.0  0.083
  H  H87  1  0.892000  0.116600  0.585800  1.0  0.1054
  H  H88  1  0.998900  0.054200  0.576200  1.0  0.1053
  H  H89  1  0.824000  0.031500  0.203600  1.0  0.104
  H  H90  1  0.803300  0.996000  0.264800  1.0  0.1229
  H  H91  1  0.878700  0.822800  0.192200  1.0  0.0923
  H  H92  1  0.747800  0.892500  0.284800  1.0  0.1109
  H  H93  1  0.744800  0.817900  0.330600  1.0  0.1232
  H  H94  1  0.929700  0.791000  0.259600  1.0  0.0983
  H  H95  1  0.922400  0.712500  0.302000  1.0  0.1067
  H  H96  1  0.957200  0.880500  0.614000  1.0  0.0945
  H  H97  1  0.953900  0.889800  0.541200  1.0  0.118
  H  H98  1  0.869200  0.689800  0.531400  1.0  0.0839
  H  H99  1  0.801200  0.682700  0.463200  1.0  0.1197
  H  H100  1  0.770300  0.651500  0.388800  1.0  0.1035
  H  H101  1  0.956800  0.844900  0.471400  1.0  0.115
  H  H102  1  0.921000  0.818000  0.397400  1.0  0.0948
  H  H103  1  0.121700  0.773100  0.202000  1.0  0.112
  H  H104  1  0.177400  0.659500  0.191400  1.0  0.0832
  H  H105  1  0.969200  0.693800  0.085800  1.0  0.1059
  H  H106  1  0.022000  0.577300  0.076200  1.0  0.1063
  H  H107  1  0.879600  0.172100  0.203600  1.0  0.1052
  H  H108  1  0.961500  0.268800  0.264800  1.0  0.1222
  H  H109  1  0.813500  0.369400  0.192200  1.0  0.0918
  H  H110  1  0.037000  0.392300  0.284800  1.0  0.1113
  H  H111  1  0.085800  0.512700  0.330600  1.0  0.1233
  H  H112  1  0.829900  0.468600  0.259600  1.0  0.0986
  H  H113  1  0.879600  0.589500  0.302000  1.0  0.1067
  H  H114  1  0.156800  0.733500  0.614000  1.0  0.0943
  H  H115  1  0.087300  0.651400  0.541200  1.0  0.1194
  H  H116  1  0.162200  0.841600  0.531400  1.0  0.0836
  H  H117  1  0.162000  0.780500  0.463200  1.0  0.1192
  H  H118  1  0.118500  0.737300  0.388800  1.0  0.105
  H  H119  1  0.014600  0.626500  0.471400  1.0  0.1151
  H  H120  1  0.976400  0.579400  0.397400  1.0  0.0956
  H  H121  1  0.580300  0.428900  0.202000  1.0  0.1122
  H  H122  1  0.514000  0.531900  0.191400  1.0  0.0827
  H  H123  1  0.616600  0.392000  0.085800  1.0  0.1058
  H  H124  1  0.554200  0.498900  0.076200  1.0  0.1047
  H  H125  1  0.172100  0.824000  0.703600  1.0  0.1062
  H  H126  1  0.268800  0.803300  0.764800  1.0  0.1241
  H  H127  1  0.369400  0.878700  0.692200  1.0  0.0919
  H  H128  1  0.392300  0.747800  0.784800  1.0  0.1115
  H  H129  1  0.512700  0.744800  0.830600  1.0  0.1234
  H  H130  1  0.468600  0.929700  0.759600  1.0  0.0984
  H  H131  1  0.589500  0.922400  0.802000  1.0  0.1068
  H  H132  1  0.733500  0.957200  0.114000  1.0  0.095
  H  H133  1  0.651400  0.953900  0.041200  1.0  0.1188
  H  H134  1  0.841600  0.869200  0.031400  1.0  0.0828
  H  H135  1  0.780500  0.801200  0.963200  1.0  0.1196
  H  H136  1  0.737300  0.770300  0.888800  1.0  0.1036
  H  H137  1  0.626500  0.956800  0.971400  1.0  0.1145
  H  H138  1  0.579400  0.921000  0.897400  1.0  0.0957
  H  H139  1  0.428900  0.121700  0.702000  1.0  0.1123
  H  H140  1  0.531900  0.177400  0.691400  1.0  0.0835
  H  H141  1  0.392000  0.969200  0.585800  1.0  0.1048
  H  H142  1  0.498900  0.022000  0.576200  1.0  0.1064
  H  H143  1  0.031500  0.879600  0.703600  1.0  0.1031
  H  H144  1  0.996000  0.961500  0.764800  1.0  0.1232
  H  H145  1  0.822800  0.813500  0.692200  1.0  0.0918
  H  H146  1  0.892500  0.037000  0.784800  1.0  0.1106
  H  H147  1  0.817900  0.085800  0.830600  1.0  0.1244
  H  H148  1  0.791000  0.829900  0.759600  1.0  0.0999
  H  H149  1  0.712500  0.879600  0.802000  1.0  0.1064
  H  H150  1  0.880500  0.156800  0.114000  1.0  0.0944
  H  H151  1  0.889800  0.087300  0.041200  1.0  0.1202
  H  H152  1  0.689800  0.162200  0.031400  1.0  0.0827
  H  H153  1  0.682700  0.162000  0.963200  1.0  0.1194
  H  H154  1  0.651500  0.118500  0.888800  1.0  0.1039
  H  H155  1  0.844900  0.014600  0.971400  1.0  0.1146
  H  H156  1  0.818000  0.976400  0.897400  1.0  0.0959
  H  H157  1  0.773100  0.580300  0.702000  1.0  0.112
  H  H158  1  0.659500  0.514000  0.691400  1.0  0.0854
  H  H159  1  0.693800  0.616600  0.585800  1.0  0.105
  H  H160  1  0.577300  0.554200  0.576200  1.0  0.1062
  H  H161  1  0.176000  0.968500  0.796400  1.0  0.1046
  H  H162  1  0.196700  0.004000  0.735200  1.0  0.1221
  H  H163  1  0.121300  0.177200  0.807800  1.0  0.0925
  H  H164  1  0.252200  0.107500  0.715200  1.0  0.1111
  H  H165  1  0.255200  0.182100  0.669400  1.0  0.1237
  H  H166  1  0.070300  0.209000  0.740400  1.0  0.098
  H  H167  1  0.077600  0.287500  0.698000  1.0  0.1065
  H  H168  1  0.042800  0.119500  0.386000  1.0  0.0941
  H  H169  1  0.046100  0.110200  0.458800  1.0  0.1189
  H  H170  1  0.130800  0.310200  0.468600  1.0  0.0832
  H  H171  1  0.198800  0.317300  0.536800  1.0  0.1198
  H  H172  1  0.229700  0.348500  0.611200  1.0  0.104
  H  H173  1  0.043200  0.155100  0.528600  1.0  0.1149
  H  H174  1  0.079000  0.182000  0.602600  1.0  0.0951
  H  H175  1  0.878300  0.226900  0.798000  1.0  0.1116
  H  H176  1  0.822600  0.340500  0.808600  1.0  0.0825
  H  H177  1  0.030800  0.306200  0.914200  1.0  0.1073
  H  H178  1  0.978000  0.422700  0.923800  1.0  0.1062
  H  H179  1  0.120400  0.827900  0.796400  1.0  0.1056
  H  H180  1  0.038500  0.731200  0.735200  1.0  0.1224
  H  H181  1  0.186500  0.630600  0.807800  1.0  0.0915
  H  H182  1  0.963000  0.607700  0.715200  1.0  0.1111
  H  H183  1  0.914200  0.487300  0.669400  1.0  0.1228
  H  H184  1  0.170100  0.531400  0.740400  1.0  0.0996
  H  H185  1  0.120400  0.410500  0.698000  1.0  0.107
  H  H186  1  0.843200  0.266500  0.386000  1.0  0.095
  H  H187  1  0.912700  0.348600  0.458800  1.0  0.1188
  H  H188  1  0.837800  0.158400  0.468600  1.0  0.0842
  H  H189  1  0.838000  0.219500  0.536800  1.0  0.1193
  H  H190  1  0.881500  0.262700  0.611200  1.0  0.1053
  H  H191  1  0.985400  0.373500  0.528600  1.0  0.1146
  H  H192  1  0.023600  0.420600  0.602600  1.0  0.0953
  H  H193  1  0.419700  0.571100  0.798000  1.0  0.1122
  H  H194  1  0.486000  0.468100  0.808600  1.0  0.0825
  H  H195  1  0.383400  0.608000  0.914200  1.0  0.1065
  H  H196  1  0.445800  0.501100  0.923800  1.0  0.1048
  H  H197  1  0.827900  0.176000  0.296400  1.0  0.1052
  H  H198  1  0.731200  0.196700  0.235200  1.0  0.1243
  H  H199  1  0.630600  0.121300  0.307800  1.0  0.0915
  H  H200  1  0.607700  0.252200  0.215200  1.0  0.1118
  H  H201  1  0.487300  0.255200  0.169400  1.0  0.1228
  H  H202  1  0.531400  0.070300  0.240400  1.0  0.0981
  H  H203  1  0.410500  0.077600  0.198000  1.0  0.1062
  H  H204  1  0.266500  0.042800  0.886000  1.0  0.0949
  H  H205  1  0.348600  0.046100  0.958800  1.0  0.1197
  H  H206  1  0.158400  0.130800  0.968600  1.0  0.0832
  H  H207  1  0.219500  0.198800  0.036800  1.0  0.1193
  H  H208  1  0.262700  0.229700  0.111200  1.0  0.1035
  H  H209  1  0.373500  0.043200  0.028600  1.0  0.1146
  H  H210  1  0.420600  0.079000  0.102600  1.0  0.0956
  H  H211  1  0.571100  0.878300  0.298000  1.0  0.1126
  H  H212  1  0.468100  0.822600  0.308600  1.0  0.0832
  H  H213  1  0.608000  0.030800  0.414200  1.0  0.1051
  H  H214  1  0.501100  0.978000  0.423800  1.0  0.1054
  H  H215  1  0.968500  0.120400  0.296400  1.0  0.1042
  H  H216  1  0.004000  0.038500  0.235200  1.0  0.1229
  H  H217  1  0.177200  0.186500  0.307800  1.0  0.0919
  H  H218  1  0.107500  0.963000  0.215200  1.0  0.1106
  H  H219  1  0.182100  0.914200  0.169400  1.0  0.1247
  H  H220  1  0.209000  0.170100  0.240400  1.0  0.1
  H  H221  1  0.287500  0.120400  0.198000  1.0  0.1064
  H  H222  1  0.119500  0.843200  0.886000  1.0  0.0943
  H  H223  1  0.110200  0.912700  0.958800  1.0  0.1192
  H  H224  1  0.310200  0.837800  0.968600  1.0  0.0827
  H  H225  1  0.317300  0.838000  0.036800  1.0  0.1194
  H  H226  1  0.348500  0.881500  0.111200  1.0  0.1043
  H  H227  1  0.155100  0.985400  0.028600  1.0  0.114
  H  H228  1  0.182000  0.023600  0.102600  1.0  0.096
  H  H229  1  0.226900  0.419700  0.298000  1.0  0.1113
  H  H230  1  0.340500  0.486000  0.308600  1.0  0.0845
  H  H231  1  0.306200  0.383400  0.414200  1.0  0.1047
  H  H232  1  0.422700  0.445800  0.423800  1.0  0.106
  H  H233  1  0.620400  0.468500  0.796400  1.0  0.1046
  H  H234  1  0.538500  0.504000  0.735200  1.0  0.1234
  H  H235  1  0.686500  0.677200  0.807800  1.0  0.0922
  H  H236  1  0.463000  0.607500  0.715200  1.0  0.1104
  H  H237  1  0.414200  0.682100  0.669400  1.0  0.1228
  H  H238  1  0.670100  0.709000  0.740400  1.0  0.1002
  H  H239  1  0.620400  0.787500  0.698000  1.0  0.106
  H  H240  1  0.343200  0.619500  0.386000  1.0  0.0941
  H  H241  1  0.412700  0.610200  0.458800  1.0  0.1197
  H  H242  1  0.337800  0.810200  0.468600  1.0  0.0839
  H  H243  1  0.338000  0.817300  0.536800  1.0  0.1196
  H  H244  1  0.381500  0.848500  0.611200  1.0  0.1037
  H  H245  1  0.485400  0.655100  0.528600  1.0  0.1152
  H  H246  1  0.523600  0.682000  0.602600  1.0  0.0948
  H  H247  1  0.919700  0.726900  0.798000  1.0  0.1118
  H  H248  1  0.986000  0.840500  0.808600  1.0  0.0838
  H  H249  1  0.883400  0.806200  0.914200  1.0  0.1056
  H  H250  1  0.945800  0.922700  0.923800  1.0  0.1053
  H  H251  1  0.676000  0.327900  0.796400  1.0  0.1057
  H  H252  1  0.696700  0.231200  0.735200  1.0  0.1237
  H  H253  1  0.621300  0.130600  0.807800  1.0  0.092
  H  H254  1  0.752200  0.107700  0.715200  1.0  0.1111
  H  H255  1  0.755200  0.987300  0.669400  1.0  0.1235
  H  H256  1  0.570300  0.031400  0.740400  1.0  0.0977
  H  H257  1  0.577600  0.910500  0.698000  1.0  0.1069
  H  H258  1  0.542800  0.766500  0.386000  1.0  0.0945
  H  H259  1  0.546100  0.848600  0.458800  1.0  0.1191
  H  H260  1  0.630800  0.658400  0.468600  1.0  0.0833
  H  H261  1  0.698800  0.719500  0.536800  1.0  0.1193
  H  H262  1  0.729700  0.762700  0.611200  1.0  0.1046
  H  H263  1  0.543200  0.873500  0.528600  1.0  0.115
  H  H264  1  0.579000  0.920600  0.602600  1.0  0.0959
  H  H265  1  0.378300  0.071100  0.798000  1.0  0.1125
  H  H266  1  0.322600  0.968100  0.808600  1.0  0.0828
  H  H267  1  0.530800  0.108000  0.914200  1.0  0.1051
  H  H268  1  0.478000  0.001100  0.923800  1.0  0.1059
  H  H269  1  0.468500  0.676000  0.296400  1.0  0.1039
  H  H270  1  0.504000  0.696700  0.235200  1.0  0.1228
  H  H271  1  0.677200  0.621300  0.307800  1.0  0.0922
  H  H272  1  0.607500  0.752200  0.215200  1.0  0.1119
  H  H273  1  0.682100  0.755200  0.169400  1.0  0.1231
  H  H274  1  0.709000  0.570300  0.240400  1.0  0.0986
  H  H275  1  0.787500  0.577600  0.198000  1.0  0.1064
  H  H276  1  0.619500  0.542800  0.886000  1.0  0.0952
  H  H277  1  0.610200  0.546100  0.958800  1.0  0.1187
  H  H278  1  0.810200  0.630800  0.968600  1.0  0.083
  H  H279  1  0.817300  0.698800  0.036800  1.0  0.1199
  H  H280  1  0.848500  0.729700  0.111200  1.0  0.1045
  H  H281  1  0.655100  0.543200  0.028600  1.0  0.1141
  H  H282  1  0.682000  0.579000  0.102600  1.0  0.0955
  H  H283  1  0.726900  0.378300  0.298000  1.0  0.1115
  H  H284  1  0.840500  0.322600  0.308600  1.0  0.0823
  H  H285  1  0.806200  0.530800  0.414200  1.0  0.1061
  H  H286  1  0.922700  0.478000  0.423800  1.0  0.1062
  H  H287  1  0.327900  0.620400  0.296400  1.0  0.1046
  H  H288  1  0.231200  0.538500  0.235200  1.0  0.122
  H  H289  1  0.130600  0.686500  0.307800  1.0  0.091
  H  H290  1  0.107700  0.463000  0.215200  1.0  0.111
  H  H291  1  0.987300  0.414200  0.169400  1.0  0.1244
  H  H292  1  0.031400  0.670100  0.240400  1.0  0.0998
  H  H293  1  0.910500  0.620400  0.198000  1.0  0.1064
  H  H294  1  0.766500  0.343200  0.886000  1.0  0.095
  H  H295  1  0.848600  0.412700  0.958800  1.0  0.1199
  H  H296  1  0.658400  0.337800  0.968600  1.0  0.0835
  H  H297  1  0.719500  0.338000  0.036800  1.0  0.1193
  H  H298  1  0.762700  0.381500  0.111200  1.0  0.1049
  H  H299  1  0.873500  0.485400  0.028600  1.0  0.1147
  H  H300  1  0.920600  0.523600  0.102600  1.0  0.0961
  H  H301  1  0.071100  0.919700  0.298000  1.0  0.1126
  H  H302  1  0.968100  0.986000  0.308600  1.0  0.083
  H  H303  1  0.108000  0.883400  0.414200  1.0  0.1054
  H  H304  1  0.001100  0.945800  0.423800  1.0  0.1048
  C  C305  1  0.375990  0.483890  0.209180  1.0  0.0255
  C  C306  1  0.421180  0.464680  0.242360  1.0  -0.099
  C  C307  1  0.340300  0.371500  0.202800  1.0  0.16
  C  C308  1  0.428920  0.347320  0.266840  1.0  0.1222
  C  C309  1  0.504580  0.356080  0.288360  1.0  -0.1743
  C  C310  1  0.533450  0.311650  0.315100  1.0  -0.1488
  C  C311  1  0.382900  0.295300  0.273200  1.0  -0.1249
  C  C312  1  0.411430  0.249730  0.298660  1.0  -0.2043
  C  C313  1  0.486410  0.259110  0.319020  1.0  0.331
  C  C314  1  0.543040  0.232440  0.386080  1.0  0.3156
  C  C315  1  0.648020  0.340920  0.587840  1.0  0.0105
  C  C316  1  0.611550  0.347150  0.547700  1.0  -0.1209
  C  C317  1  0.650980  0.240080  0.543360  1.0  0.168
  C  C318  1  0.592440  0.266140  0.474080  1.0  0.1719
  C  C319  1  0.623250  0.209550  0.449700  1.0  -0.1522
  C  C320  1  0.598280  0.191780  0.405960  1.0  -0.2229
  C  C321  1  0.536560  0.306060  0.454320  1.0  -0.177
  C  C322  1  0.513490  0.289590  0.410780  1.0  -0.1232
  C  C323  1  0.149730  0.316930  0.152060  1.0  0.6766
  C  C324  1  0.104700  0.243800  0.144800  1.0  -0.1312
  C  C325  1  0.074460  0.233460  0.176120  1.0  -0.1031
  C  C326  1  0.035730  0.165730  0.169860  1.0  -0.0597
  C  C327  1  0.096430  0.186330  0.107660  1.0  -0.0465
  C  C328  1  0.058630  0.117330  0.101860  1.0  -0.0902
  C  C329  1  0.027440  0.106240  0.133080  1.0  -0.1563
  C  C330  1  0.987610  0.031810  0.127020  1.0  0.6577
  C  C331  1  0.333190  0.725290  0.209180  1.0  0.0258
  C  C332  1  0.321180  0.777680  0.242360  1.0  -0.0991
  C  C333  1  0.362500  0.831300  0.202800  1.0  0.161
  C  C334  1  0.337920  0.919520  0.266840  1.0  0.1223
  C  C335  1  0.283780  0.932280  0.288360  1.0  -0.1726
  C  C336  1  0.281650  0.003450  0.315100  1.0  -0.1489
  C  C337  1  0.390300  0.977900  0.273200  1.0  -0.1222
  C  C338  1  0.387230  0.048930  0.298660  1.0  -0.2048
  C  C339  1  0.332610  0.059910  0.319020  1.0  0.3304
  C  C340  1  0.343040  0.153640  0.386080  1.0  0.3167
  C  C341  1  0.439820  0.246920  0.587840  1.0  0.0067
  C  C342  1  0.436150  0.200550  0.547700  1.0  -0.1207
  C  C343  1  0.392380  0.303280  0.543360  1.0  0.1688
  C  C344  1  0.381640  0.207940  0.474080  1.0  0.1706
  C  C345  1  0.326450  0.240150  0.449700  1.0  -0.1528
  C  C346  1  0.307680  0.214180  0.405960  1.0  -0.2255
  C  C347  1  0.417760  0.148260  0.454320  1.0  -0.1818
  C  C348  1  0.397290  0.121190  0.410780  1.0  -0.1233
  C  C349  1  0.502330  0.835130  0.152060  1.0  0.6774
  C  C350  1  0.540100  0.901000  0.144800  1.0  -0.1291
  C  C351  1  0.601660  0.942660  0.176120  1.0  -0.1011
  C  C352  1  0.634130  0.004130  0.169860  1.0  -0.0582
  C  C353  1  0.511230  0.921330  0.107660  1.0  -0.0479
  C  C354  1  0.543230  0.984530  0.101860  1.0  -0.0889
  C  C355  1  0.605640  0.026840  0.133080  1.0  -0.1522
  C  C356  1  0.639410  0.095210  0.127020  1.0  0.6586
  C  C357  1  0.483890  0.333190  0.709180  1.0  0.027
  C  C358  1  0.464680  0.321180  0.742360  1.0  -0.0977
  C  C359  1  0.371500  0.362500  0.702800  1.0  0.1612
  C  C360  1  0.347320  0.337920  0.766840  1.0  0.1222
  C  C361  1  0.356080  0.283780  0.788360  1.0  -0.1759
  C  C362  1  0.311650  0.281650  0.815100  1.0  -0.1474
  C  C363  1  0.295300  0.390300  0.773200  1.0  -0.1224
  C  C364  1  0.249730  0.387230  0.798660  1.0  -0.2047
  C  C365  1  0.259110  0.332610  0.819020  1.0  0.3301
  C  C366  1  0.232440  0.343040  0.886080  1.0  0.3143
  C  C367  1  0.340920  0.439820  0.087840  1.0  0.0087
  C  C368  1  0.347150  0.436150  0.047700  1.0  -0.1211
  C  C369  1  0.240080  0.392380  0.043360  1.0  0.1697
  C  C370  1  0.266140  0.381640  0.974080  1.0  0.1716
  C  C371  1  0.209550  0.326450  0.949700  1.0  -0.1518
  C  C372  1  0.191780  0.307680  0.905960  1.0  -0.2247
  C  C373  1  0.306060  0.417760  0.954320  1.0  -0.1758
  C  C374  1  0.289590  0.397290  0.910780  1.0  -0.1226
  C  C375  1  0.316930  0.502330  0.652060  1.0  0.6749
  C  C376  1  0.243800  0.540100  0.644800  1.0  -0.132
  C  C377  1  0.233460  0.601660  0.676120  1.0  -0.1055
  C  C378  1  0.165730  0.634130  0.669860  1.0  -0.0576
  C  C379  1  0.186330  0.511230  0.607660  1.0  -0.0483
  C  C380  1  0.117330  0.543230  0.601860  1.0  -0.0865
  C  C381  1  0.106240  0.605640  0.633080  1.0  -0.1534
  C  C382  1  0.031810  0.639410  0.627020  1.0  0.6535
  C  C383  1  0.725290  0.375990  0.709180  1.0  0.0254
  C  C384  1  0.777680  0.421180  0.742360  1.0  -0.0981
  C  C385  1  0.831300  0.340300  0.702800  1.0  0.1609
  C  C386  1  0.919520  0.428920  0.766840  1.0  0.1219
  C  C387  1  0.932280  0.504580  0.788360  1.0  -0.1743
  C  C388  1  0.003450  0.533450  0.815100  1.0  -0.1425
  C  C389  1  0.977900  0.382900  0.773200  1.0  -0.1217
  C  C390  1  0.048930  0.411430  0.798660  1.0  -0.205
  C  C391  1  0.059910  0.486410  0.819020  1.0  0.3314
  C  C392  1  0.153640  0.543040  0.886080  1.0  0.3163
  C  C393  1  0.246920  0.648020  0.087840  1.0  0.008
  C  C394  1  0.200550  0.611550  0.047700  1.0  -0.1232
  C  C395  1  0.303280  0.650980  0.043360  1.0  0.1728
  C  C396  1  0.207940  0.592440  0.974080  1.0  0.1708
  C  C397  1  0.240150  0.623250  0.949700  1.0  -0.1506
  C  C398  1  0.214180  0.598280  0.905960  1.0  -0.2192
  C  C399  1  0.148260  0.536560  0.954320  1.0  -0.1777
  C  C400  1  0.121190  0.513490  0.910780  1.0  -0.1238
  C  C401  1  0.835130  0.149730  0.652060  1.0  0.6751
  C  C402  1  0.901000  0.104700  0.644800  1.0  -0.131
  C  C403  1  0.942660  0.074460  0.676120  1.0  -0.1068
  C  C404  1  0.004130  0.035730  0.669860  1.0  -0.0596
  C  C405  1  0.921330  0.096430  0.607660  1.0  -0.0467
  C  C406  1  0.984530  0.058630  0.601860  1.0  -0.0919
  C  C407  1  0.026840  0.027440  0.633080  1.0  -0.1541
  C  C408  1  0.095210  0.987610  0.627020  1.0  0.6544
  C  C409  1  0.833190  0.983890  0.209180  1.0  0.0255
  C  C410  1  0.821180  0.964680  0.242360  1.0  -0.0994
  C  C411  1  0.862500  0.871500  0.202800  1.0  0.1617
  C  C412  1  0.837920  0.847320  0.266840  1.0  0.1225
  C  C413  1  0.783780  0.856080  0.288360  1.0  -0.1735
  C  C414  1  0.781650  0.811650  0.315100  1.0  -0.1479
  C  C415  1  0.890300  0.795300  0.273200  1.0  -0.1238
  C  C416  1  0.887230  0.749730  0.298660  1.0  -0.2048
  C  C417  1  0.832610  0.759110  0.319020  1.0  0.3303
  C  C418  1  0.843040  0.732440  0.386080  1.0  0.3136
  C  C419  1  0.939820  0.840920  0.587840  1.0  0.0086
  C  C420  1  0.936150  0.847150  0.547700  1.0  -0.1179
  C  C421  1  0.892380  0.740080  0.543360  1.0  0.167
  C  C422  1  0.881640  0.766140  0.474080  1.0  0.1711
  C  C423  1  0.826450  0.709550  0.449700  1.0  -0.1531
  C  C424  1  0.807680  0.691780  0.405960  1.0  -0.2258
  C  C425  1  0.917760  0.806060  0.454320  1.0  -0.1773
  C  C426  1  0.897290  0.789590  0.410780  1.0  -0.1227
  C  C427  1  0.002330  0.816930  0.152060  1.0  0.6769
  C  C428  1  0.040100  0.743800  0.144800  1.0  -0.1283
  C  C429  1  0.101660  0.733460  0.176120  1.0  -0.1027
  C  C430  1  0.134130  0.665730  0.169860  1.0  -0.0579
  C  C431  1  0.011230  0.686330  0.107660  1.0  -0.0458
  C  C432  1  0.043230  0.617330  0.101860  1.0  -0.0887
  C  C433  1  0.105640  0.606240  0.133080  1.0  -0.1537
  C  C434  1  0.139410  0.531810  0.127020  1.0  0.6572
  C  C435  1  0.875990  0.225290  0.209180  1.0  0.0261
  C  C436  1  0.921180  0.277680  0.242360  1.0  -0.0976
  C  C437  1  0.840300  0.331300  0.202800  1.0  0.1589
  C  C438  1  0.928920  0.419520  0.266840  1.0  0.122
  C  C439  1  0.004580  0.432280  0.288360  1.0  -0.175
  C  C440  1  0.033450  0.503450  0.315100  1.0  -0.1488
  C  C441  1  0.882900  0.477900  0.273200  1.0  -0.1251
  C  C442  1  0.911430  0.548930  0.298660  1.0  -0.2048
  C  C443  1  0.986410  0.559910  0.319020  1.0  0.33
  C  C444  1  0.043040  0.653640  0.386080  1.0  0.3173
  C  C445  1  0.148020  0.746920  0.587840  1.0  0.0091
  C  C446  1  0.111550  0.700550  0.547700  1.0  -0.1218
  C  C447  1  0.150980  0.803280  0.543360  1.0  0.171
  C  C448  1  0.092440  0.707940  0.474080  1.0  0.1717
  C  C449  1  0.123250  0.740150  0.449700  1.0  -0.1526
  C  C450  1  0.098280  0.714180  0.405960  1.0  -0.2226
  C  C451  1  0.036560  0.648260  0.454320  1.0  -0.1783
  C  C452  1  0.013490  0.621190  0.410780  1.0  -0.1222
  C  C453  1  0.649730  0.335130  0.152060  1.0  0.6761
  C  C454  1  0.604700  0.401000  0.144800  1.0  -0.1295
  C  C455  1  0.574460  0.442660  0.176120  1.0  -0.1028
  C  C456  1  0.535730  0.504130  0.169860  1.0  -0.0583
  C  C457  1  0.596430  0.421330  0.107660  1.0  -0.0496
  C  C458  1  0.558630  0.484530  0.101860  1.0  -0.0915
  C  C459  1  0.527440  0.526840  0.133080  1.0  -0.1537
  C  C460  1  0.487610  0.595210  0.127020  1.0  0.6581
  C  C461  1  0.225290  0.833190  0.709180  1.0  0.0259
  C  C462  1  0.277680  0.821180  0.742360  1.0  -0.0968
  C  C463  1  0.331300  0.862500  0.702800  1.0  0.1613
  C  C464  1  0.419520  0.837920  0.766840  1.0  0.1219
  C  C465  1  0.432280  0.783780  0.788360  1.0  -0.1746
  C  C466  1  0.503450  0.781650  0.815100  1.0  -0.1471
  C  C467  1  0.477900  0.890300  0.773200  1.0  -0.123
  C  C468  1  0.548930  0.887230  0.798660  1.0  -0.2042
  C  C469  1  0.559910  0.832610  0.819020  1.0  0.3314
  C  C470  1  0.653640  0.843040  0.886080  1.0  0.3158
  C  C471  1  0.746920  0.939820  0.087840  1.0  0.0057
  C  C472  1  0.700550  0.936150  0.047700  1.0  -0.1241
  C  C473  1  0.803280  0.892380  0.043360  1.0  0.1718
  C  C474  1  0.707940  0.881640  0.974080  1.0  0.1708
  C  C475  1  0.740150  0.826450  0.949700  1.0  -0.1505
  C  C476  1  0.714180  0.807680  0.905960  1.0  -0.2209
  C  C477  1  0.648260  0.917760  0.954320  1.0  -0.1768
  C  C478  1  0.621190  0.897290  0.910780  1.0  -0.1234
  C  C479  1  0.335130  0.002330  0.652060  1.0  0.6752
  C  C480  1  0.401000  0.040100  0.644800  1.0  -0.1309
  C  C481  1  0.442660  0.101660  0.676120  1.0  -0.1059
  C  C482  1  0.504130  0.134130  0.669860  1.0  -0.0584
  C  C483  1  0.421330  0.011230  0.607660  1.0  -0.0475
  C  C484  1  0.484530  0.043230  0.601860  1.0  -0.0908
  C  C485  1  0.526840  0.105640  0.633080  1.0  -0.154
  C  C486  1  0.595210  0.139410  0.627020  1.0  0.6549
  C  C487  1  0.983890  0.875990  0.709180  1.0  0.0267
  C  C488  1  0.964680  0.921180  0.742360  1.0  -0.0988
  C  C489  1  0.871500  0.840300  0.702800  1.0  0.1607
  C  C490  1  0.847320  0.928920  0.766840  1.0  0.1222
  C  C491  1  0.856080  0.004580  0.788360  1.0  -0.1751
  C  C492  1  0.811650  0.033450  0.815100  1.0  -0.144
  C  C493  1  0.795300  0.882900  0.773200  1.0  -0.122
  C  C494  1  0.749730  0.911430  0.798660  1.0  -0.2046
  C  C495  1  0.759110  0.986410  0.819020  1.0  0.3299
  C  C496  1  0.732440  0.043040  0.886080  1.0  0.3155
  C  C497  1  0.840920  0.148020  0.087840  1.0  0.0105
  C  C498  1  0.847150  0.111550  0.047700  1.0  -0.1209
  C  C499  1  0.740080  0.150980  0.043360  1.0  0.1701
  C  C500  1  0.766140  0.092440  0.974080  1.0  0.1715
  C  C501  1  0.709550  0.123250  0.949700  1.0  -0.1515
  C  C502  1  0.691780  0.098280  0.905960  1.0  -0.2209
  C  C503  1  0.806060  0.036560  0.954320  1.0  -0.1762
  C  C504  1  0.789590  0.013490  0.910780  1.0  -0.1235
  C  C505  1  0.816930  0.649730  0.652060  1.0  0.675
  C  C506  1  0.743800  0.604700  0.644800  1.0  -0.1327
  C  C507  1  0.733460  0.574460  0.676120  1.0  -0.1054
  C  C508  1  0.665730  0.535730  0.669860  1.0  -0.0594
  C  C509  1  0.686330  0.596430  0.607660  1.0  -0.0468
  C  C510  1  0.617330  0.558630  0.601860  1.0  -0.0874
  C  C511  1  0.606240  0.527440  0.633080  1.0  -0.153
  C  C512  1  0.531810  0.487610  0.627020  1.0  0.6524
  C  C513  1  0.166810  0.016110  0.790820  1.0  0.026
  C  C514  1  0.178820  0.035320  0.757640  1.0  -0.0987
  C  C515  1  0.137500  0.128500  0.797200  1.0  0.1626
  C  C516  1  0.162080  0.152680  0.733160  1.0  0.122
  C  C517  1  0.216220  0.143920  0.711640  1.0  -0.1737
  C  C518  1  0.218350  0.188350  0.684900  1.0  -0.1478
  C  C519  1  0.109700  0.204700  0.726800  1.0  -0.1238
  C  C520  1  0.112770  0.250270  0.701340  1.0  -0.205
  C  C521  1  0.167390  0.240890  0.680980  1.0  0.3303
  C  C522  1  0.156960  0.267560  0.613920  1.0  0.3129
  C  C523  1  0.060180  0.159080  0.412160  1.0  0.008
  C  C524  1  0.063850  0.152850  0.452300  1.0  -0.1211
  C  C525  1  0.107620  0.259920  0.456640  1.0  0.1676
  C  C526  1  0.118360  0.233860  0.525920  1.0  0.1721
  C  C527  1  0.173550  0.290450  0.550300  1.0  -0.1528
  C  C528  1  0.192320  0.308220  0.594040  1.0  -0.2257
  C  C529  1  0.082240  0.193940  0.545680  1.0  -0.1784
  C  C530  1  0.102710  0.210410  0.589220  1.0  -0.1241
  C  C531  1  0.997670  0.183070  0.847940  1.0  0.6767
  C  C532  1  0.959900  0.256200  0.855200  1.0  -0.1278
  C  C533  1  0.898340  0.266540  0.823880  1.0  -0.1024
  C  C534  1  0.865870  0.334270  0.830140  1.0  -0.0549
  C  C535  1  0.988770  0.313670  0.892340  1.0  -0.0467
  C  C536  1  0.956770  0.382670  0.898140  1.0  -0.0904
  C  C537  1  0.894360  0.393760  0.866920  1.0  -0.1536
  C  C538  1  0.860590  0.468190  0.872980  1.0  0.6582
  C  C539  1  0.124010  0.774710  0.790820  1.0  0.025
  C  C540  1  0.078820  0.722320  0.757640  1.0  -0.0977
  C  C541  1  0.159700  0.668700  0.797200  1.0  0.1621
  C  C542  1  0.071080  0.580480  0.733160  1.0  0.1224
  C  C543  1  0.995420  0.567720  0.711640  1.0  -0.1737
  C  C544  1  0.966550  0.496550  0.684900  1.0  -0.148
  C  C545  1  0.117100  0.522100  0.726800  1.0  -0.1264
  C  C546  1  0.088570  0.451070  0.701340  1.0  -0.2047
  C  C547  1  0.013590  0.440090  0.680980  1.0  0.3303
  C  C548  1  0.956960  0.346360  0.613920  1.0  0.3172
  C  C549  1  0.851980  0.253080  0.412160  1.0  0.0088
  C  C550  1  0.888450  0.299450  0.452300  1.0  -0.1184
  C  C551  1  0.849020  0.196720  0.456640  1.0  0.1681
  C  C552  1  0.907560  0.292060  0.525920  1.0  0.1707
  C  C553  1  0.876750  0.259850  0.550300  1.0  -0.1528
  C  C554  1  0.901720  0.285820  0.594040  1.0  -0.2226
  C  C555  1  0.963440  0.351740  0.545680  1.0  -0.1777
  C  C556  1  0.986510  0.378810  0.589220  1.0  -0.1233
  C  C557  1  0.350270  0.664870  0.847940  1.0  0.6781
  C  C558  1  0.395300  0.599000  0.855200  1.0  -0.129
  C  C559  1  0.425540  0.557340  0.823880  1.0  -0.1029
  C  C560  1  0.464270  0.495870  0.830140  1.0  -0.0589
  C  C561  1  0.403570  0.578670  0.892340  1.0  -0.0482
  C  C562  1  0.441370  0.515470  0.898140  1.0  -0.0924
  C  C563  1  0.472560  0.473160  0.866920  1.0  -0.1541
  C  C564  1  0.512390  0.404790  0.872980  1.0  0.6576
  C  C565  1  0.774710  0.166810  0.290820  1.0  0.0256
  C  C566  1  0.722320  0.178820  0.257640  1.0  -0.0973
  C  C567  1  0.668700  0.137500  0.297200  1.0  0.1631
  C  C568  1  0.580480  0.162080  0.233160  1.0  0.1215
  C  C569  1  0.567720  0.216220  0.211640  1.0  -0.1745
  C  C570  1  0.496550  0.218350  0.184900  1.0  -0.1466
  C  C571  1  0.522100  0.109700  0.226800  1.0  -0.1217
  C  C572  1  0.451070  0.112770  0.201340  1.0  -0.2052
  C  C573  1  0.440090  0.167390  0.180980  1.0  0.3305
  C  C574  1  0.346360  0.156960  0.113920  1.0  0.3137
  C  C575  1  0.253080  0.060180  0.912160  1.0  0.0078
  C  C576  1  0.299450  0.063850  0.952300  1.0  -0.1218
  C  C577  1  0.196720  0.107620  0.956640  1.0  0.1686
  C  C578  1  0.292060  0.118360  0.025920  1.0  0.1704
  C  C579  1  0.259850  0.173550  0.050300  1.0  -0.1503
  C  C580  1  0.285820  0.192320  0.094040  1.0  -0.2218
  C  C581  1  0.351740  0.082240  0.045680  1.0  -0.1773
  C  C582  1  0.378810  0.102710  0.089220  1.0  -0.1219
  C  C583  1  0.664870  0.997670  0.347940  1.0  0.6751
  C  C584  1  0.599000  0.959900  0.355200  1.0  -0.1322
  C  C585  1  0.557340  0.898340  0.323880  1.0  -0.105
  C  C586  1  0.495870  0.865870  0.330140  1.0  -0.0594
  C  C587  1  0.578670  0.988770  0.392340  1.0  -0.0497
  C  C588  1  0.515470  0.956770  0.398140  1.0  -0.0936
  C  C589  1  0.473160  0.894360  0.366920  1.0  -0.153
  C  C590  1  0.404790  0.860590  0.372980  1.0  0.6547
  C  C591  1  0.016110  0.124010  0.290820  1.0  0.026
  C  C592  1  0.035320  0.078820  0.257640  1.0  -0.0992
  C  C593  1  0.128500  0.159700  0.297200  1.0  0.1615
  C  C594  1  0.152680  0.071080  0.233160  1.0  0.1221
  C  C595  1  0.143920  0.995420  0.211640  1.0  -0.1752
  C  C596  1  0.188350  0.966550  0.184900  1.0  -0.1479
  C  C597  1  0.204700  0.117100  0.226800  1.0  -0.1231
  C  C598  1  0.250270  0.088570  0.201340  1.0  -0.2039
  C  C599  1  0.240890  0.013590  0.180980  1.0  0.3312
  C  C600  1  0.267560  0.956960  0.113920  1.0  0.3154
  C  C601  1  0.159080  0.851980  0.912160  1.0  0.0091
  C  C602  1  0.152850  0.888450  0.952300  1.0  -0.1231
  C  C603  1  0.259920  0.849020  0.956640  1.0  0.1719
  C  C604  1  0.233860  0.907560  0.025920  1.0  0.1707
  C  C605  1  0.290450  0.876750  0.050300  1.0  -0.1516
  C  C606  1  0.308220  0.901720  0.094040  1.0  -0.2203
  C  C607  1  0.193940  0.963440  0.045680  1.0  -0.1749
  C  C608  1  0.210410  0.986510  0.089220  1.0  -0.1238
  C  C609  1  0.183070  0.350270  0.347940  1.0  0.6752
  C  C610  1  0.256200  0.395300  0.355200  1.0  -0.1324
  C  C611  1  0.266540  0.425540  0.323880  1.0  -0.1055
  C  C612  1  0.334270  0.464270  0.330140  1.0  -0.0578
  C  C613  1  0.313670  0.403570  0.392340  1.0  -0.0475
  C  C614  1  0.382670  0.441370  0.398140  1.0  -0.0898
  C  C615  1  0.393760  0.472560  0.366920  1.0  -0.1534
  C  C616  1  0.468190  0.512390  0.372980  1.0  0.6532
  C  C617  1  0.624010  0.516110  0.790820  1.0  0.0267
  C  C618  1  0.578820  0.535320  0.757640  1.0  -0.0991
  C  C619  1  0.659700  0.628500  0.797200  1.0  0.1601
  C  C620  1  0.571080  0.652680  0.733160  1.0  0.1222
  C  C621  1  0.495420  0.643920  0.711640  1.0  -0.1719
  C  C622  1  0.466550  0.688350  0.684900  1.0  -0.1471
  C  C623  1  0.617100  0.704700  0.726800  1.0  -0.1256
  C  C624  1  0.588570  0.750270  0.701340  1.0  -0.2054
  C  C625  1  0.513590  0.740890  0.680980  1.0  0.3303
  C  C626  1  0.456960  0.767560  0.613920  1.0  0.3156
  C  C627  1  0.351980  0.659080  0.412160  1.0  0.0085
  C  C628  1  0.388450  0.652850  0.452300  1.0  -0.1198
  C  C629  1  0.349020  0.759920  0.456640  1.0  0.1673
  C  C630  1  0.407560  0.733860  0.525920  1.0  0.1709
  C  C631  1  0.376750  0.790450  0.550300  1.0  -0.1528
  C  C632  1  0.401720  0.808220  0.594040  1.0  -0.2229
  C  C633  1  0.463440  0.693940  0.545680  1.0  -0.1798
  C  C634  1  0.486510  0.710410  0.589220  1.0  -0.125
  C  C635  1  0.850270  0.683070  0.847940  1.0  0.6773
  C  C636  1  0.895300  0.756200  0.855200  1.0  -0.1299
  C  C637  1  0.925540  0.766540  0.823880  1.0  -0.1033
  C  C638  1  0.964270  0.834270  0.830140  1.0  -0.0572
  C  C639  1  0.903570  0.813670  0.892340  1.0  -0.0464
  C  C640  1  0.941370  0.882670  0.898140  1.0  -0.091
  C  C641  1  0.972560  0.893760  0.866920  1.0  -0.1556
  C  C642  1  0.012390  0.968190  0.872980  1.0  0.6589
  C  C643  1  0.666810  0.274710  0.790820  1.0  0.0257
  C  C644  1  0.678820  0.222320  0.757640  1.0  -0.0983
  C  C645  1  0.637500  0.168700  0.797200  1.0  0.1634
  C  C646  1  0.662080  0.080480  0.733160  1.0  0.122
  C  C647  1  0.716220  0.067720  0.711640  1.0  -0.1741
  C  C648  1  0.718350  0.996550  0.684900  1.0  -0.1496
  C  C649  1  0.609700  0.022100  0.726800  1.0  -0.1228
  C  C650  1  0.612770  0.951070  0.701340  1.0  -0.2054
  C  C651  1  0.667390  0.940090  0.680980  1.0  0.3312
  C  C652  1  0.656960  0.846360  0.613920  1.0  0.3137
  C  C653  1  0.560180  0.753080  0.412160  1.0  0.008
  C  C654  1  0.563850  0.799450  0.452300  1.0  -0.1216
  C  C655  1  0.607620  0.696720  0.456640  1.0  0.1686
  C  C656  1  0.618360  0.792060  0.525920  1.0  0.1707
  C  C657  1  0.673550  0.759850  0.550300  1.0  -0.1533
  C  C658  1  0.692320  0.785820  0.594040  1.0  -0.2249
  C  C659  1  0.582240  0.851740  0.545680  1.0  -0.1769
  C  C660  1  0.602710  0.878810  0.589220  1.0  -0.1211
  C  C661  1  0.497670  0.164870  0.847940  1.0  0.6766
  C  C662  1  0.459900  0.099000  0.855200  1.0  -0.1297
  C  C663  1  0.398340  0.057340  0.823880  1.0  -0.1014
  C  C664  1  0.365870  0.995870  0.830140  1.0  -0.0569
  C  C665  1  0.488770  0.078670  0.892340  1.0  -0.0473
  C  C666  1  0.456770  0.015470  0.898140  1.0  -0.0899
  C  C667  1  0.394360  0.973160  0.866920  1.0  -0.1532
  C  C668  1  0.360590  0.904790  0.872980  1.0  0.6593
  C  C669  1  0.516110  0.666810  0.290820  1.0  0.0264
  C  C670  1  0.535320  0.678820  0.257640  1.0  -0.0978
  C  C671  1  0.628500  0.637500  0.297200  1.0  0.1624
  C  C672  1  0.652680  0.662080  0.233160  1.0  0.122
  C  C673  1  0.643920  0.716220  0.211640  1.0  -0.1744
  C  C674  1  0.688350  0.718350  0.184900  1.0  -0.1455
  C  C675  1  0.704700  0.609700  0.226800  1.0  -0.1209
  C  C676  1  0.750270  0.612770  0.201340  1.0  -0.2055
  C  C677  1  0.740890  0.667390  0.180980  1.0  0.3301
  C  C678  1  0.767560  0.656960  0.113920  1.0  0.3138
  C  C679  1  0.659080  0.560180  0.912160  1.0  0.0085
  C  C680  1  0.652850  0.563850  0.952300  1.0  -0.1224
  C  C681  1  0.759920  0.607620  0.956640  1.0  0.1694
  C  C682  1  0.733860  0.618360  0.025920  1.0  0.1706
  C  C683  1  0.790450  0.673550  0.050300  1.0  -0.1529
  C  C684  1  0.808220  0.692320  0.094040  1.0  -0.2244
  C  C685  1  0.693940  0.582240  0.045680  1.0  -0.1757
  C  C686  1  0.710410  0.602710  0.089220  1.0  -0.123
  C  C687  1  0.683070  0.497670  0.347940  1.0  0.6756
  C  C688  1  0.756200  0.459900  0.355200  1.0  -0.1322
  C  C689  1  0.766540  0.398340  0.323880  1.0  -0.1046
  C  C690  1  0.834270  0.365870  0.330140  1.0  -0.0578
  C  C691  1  0.813670  0.488770  0.392340  1.0  -0.0478
  C  C692  1  0.882670  0.456770  0.398140  1.0  -0.0902
  C  C693  1  0.893760  0.394360  0.366920  1.0  -0.1535
  C  C694  1  0.968190  0.360590  0.372980  1.0  0.6533
  C  C695  1  0.274710  0.624010  0.290820  1.0  0.0258
  C  C696  1  0.222320  0.578820  0.257640  1.0  -0.0979
  C  C697  1  0.168700  0.659700  0.297200  1.0  0.1625
  C  C698  1  0.080480  0.571080  0.233160  1.0  0.1216
  C  C699  1  0.067720  0.495420  0.211640  1.0  -0.1748
  C  C700  1  0.996550  0.466550  0.184900  1.0  -0.148
  C  C701  1  0.022100  0.617100  0.226800  1.0  -0.1233
  C  C702  1  0.951070  0.588570  0.201340  1.0  -0.2038
  C  C703  1  0.940090  0.513590  0.180980  1.0  0.3305
  C  C704  1  0.846360  0.456960  0.113920  1.0  0.3156
  C  C705  1  0.753080  0.351980  0.912160  1.0  0.0091
  C  C706  1  0.799450  0.388450  0.952300  1.0  -0.1216
  C  C707  1  0.696720  0.349020  0.956640  1.0  0.1699
  C  C708  1  0.792060  0.407560  0.025920  1.0  0.1715
  C  C709  1  0.759850  0.376750  0.050300  1.0  -0.1504
  C  C710  1  0.785820  0.401720  0.094040  1.0  -0.2196
  C  C711  1  0.851740  0.463440  0.045680  1.0  -0.1777
  C  C712  1  0.878810  0.486510  0.089220  1.0  -0.1233
  C  C713  1  0.164870  0.850270  0.347940  1.0  0.676
  C  C714  1  0.099000  0.895300  0.355200  1.0  -0.1313
  C  C715  1  0.057340  0.925540  0.323880  1.0  -0.1069
  C  C716  1  0.995870  0.964270  0.330140  1.0  -0.0585
  C  C717  1  0.078670  0.903570  0.392340  1.0  -0.0482
  C  C718  1  0.015470  0.941370  0.398140  1.0  -0.0941
  C  C719  1  0.973160  0.972560  0.366920  1.0  -0.1529
  C  C720  1  0.904790  0.012390  0.372980  1.0  0.654
  N  N721  1  0.323980  0.425280  0.184360  1.0  -0.3954
  N  N722  1  0.398890  0.392190  0.238180  1.0  0.0392
  N  N723  1  0.669170  0.271870  0.584740  1.0  -0.3809
  N  N724  1  0.616550  0.281950  0.519500  1.0  0.0441
  N  N725  1  0.360380  0.759080  0.184360  1.0  -0.3945
  N  N726  1  0.339290  0.845990  0.238180  1.0  0.0388
  N  N727  1  0.415570  0.312870  0.584740  1.0  -0.3844
  N  N728  1  0.402950  0.237550  0.519500  1.0  0.0439
  N  N729  1  0.425280  0.360380  0.684360  1.0  -0.3923
  N  N730  1  0.392190  0.339290  0.738180  1.0  0.0389
  N  N731  1  0.271870  0.415570  0.084740  1.0  -0.3818
  N  N732  1  0.281950  0.402950  0.019500  1.0  0.044
  N  N733  1  0.759080  0.323980  0.684360  1.0  -0.3947
  N  N734  1  0.845990  0.398890  0.738180  1.0  0.0397
  N  N735  1  0.312870  0.669170  0.084740  1.0  -0.3836
  N  N736  1  0.237550  0.616550  0.019500  1.0  0.0454
  N  N737  1  0.860380  0.925280  0.184360  1.0  -0.3919
  N  N738  1  0.839290  0.892190  0.238180  1.0  0.0387
  N  N739  1  0.915570  0.771870  0.584740  1.0  -0.3815
  N  N740  1  0.902950  0.781950  0.519500  1.0  0.0447
  N  N741  1  0.823980  0.259080  0.184360  1.0  -0.396
  N  N742  1  0.898890  0.345990  0.238180  1.0  0.0394
  N  N743  1  0.169170  0.812870  0.584740  1.0  -0.3825
  N  N744  1  0.116550  0.737550  0.519500  1.0  0.0445
  N  N745  1  0.259080  0.860380  0.684360  1.0  -0.3953
  N  N746  1  0.345990  0.839290  0.738180  1.0  0.0394
  N  N747  1  0.812870  0.915570  0.084740  1.0  -0.383
  N  N748  1  0.737550  0.902950  0.019500  1.0  0.044
  N  N749  1  0.925280  0.823980  0.684360  1.0  -0.3936
  N  N750  1  0.892190  0.898890  0.738180  1.0  0.0399
  N  N751  1  0.771870  0.169170  0.084740  1.0  -0.382
  N  N752  1  0.781950  0.116550  0.019500  1.0  0.0442
  N  N753  1  0.139620  0.074720  0.815640  1.0  -0.3925
  N  N754  1  0.160710  0.107810  0.761820  1.0  0.0388
  N  N755  1  0.084430  0.228130  0.415260  1.0  -0.3829
  N  N756  1  0.097050  0.218050  0.480500  1.0  0.0445
  N  N757  1  0.176020  0.740920  0.815640  1.0  -0.3935
  N  N758  1  0.101110  0.654010  0.761820  1.0  0.0393
  N  N759  1  0.830830  0.187130  0.415260  1.0  -0.383
  N  N760  1  0.883450  0.262450  0.480500  1.0  0.0445
  N  N761  1  0.740920  0.139620  0.315640  1.0  -0.3938
  N  N762  1  0.654010  0.160710  0.261820  1.0  0.0401
  N  N763  1  0.187130  0.084430  0.915260  1.0  -0.3839
  N  N764  1  0.262450  0.097050  0.980500  1.0  0.0442
  N  N765  1  0.074720  0.176020  0.315640  1.0  -0.3948
  N  N766  1  0.107810  0.101110  0.261820  1.0  0.0395
  N  N767  1  0.228130  0.830830  0.915260  1.0  -0.3828
  N  N768  1  0.218050  0.883450  0.980500  1.0  0.0436
  N  N769  1  0.676020  0.574720  0.815640  1.0  -0.3937
  N  N770  1  0.601110  0.607810  0.761820  1.0  0.0395
  N  N771  1  0.330830  0.728130  0.415260  1.0  -0.3839
  N  N772  1  0.383450  0.718050  0.480500  1.0  0.0442
  N  N773  1  0.639620  0.240920  0.815640  1.0  -0.3939
  N  N774  1  0.660710  0.154010  0.761820  1.0  0.0387
  N  N775  1  0.584430  0.687130  0.415260  1.0  -0.3838
  N  N776  1  0.597050  0.762450  0.480500  1.0  0.0439
  N  N777  1  0.574720  0.639620  0.315640  1.0  -0.3926
  N  N778  1  0.607810  0.660710  0.261820  1.0  0.0391
  N  N779  1  0.728130  0.584430  0.915260  1.0  -0.3818
  N  N780  1  0.718050  0.597050  0.980500  1.0  0.0441
  N  N781  1  0.240920  0.676020  0.315640  1.0  -0.3947
  N  N782  1  0.154010  0.601110  0.261820  1.0  0.0403
  N  N783  1  0.687130  0.330830  0.915260  1.0  -0.3846
  N  N784  1  0.762450  0.383450  0.980500  1.0  0.0446
  O  O785  1  0.172210  0.325410  0.121220  1.0  -0.6089
  O  O786  1  0.165290  0.363590  0.188380  1.0  -0.5799
  O  O787  1  0.984850  0.977150  0.095700  1.0  -0.5758
  O  O788  1  0.954740  0.027140  0.155080  1.0  -0.5961
  O  O789  1  0.518810  0.208310  0.341620  1.0  -0.2574
  O  O790  1  0.449010  0.795810  0.121220  1.0  -0.6094
  O  O791  1  0.523090  0.824790  0.188380  1.0  -0.5774
  O  O792  1  0.610850  0.118550  0.095700  1.0  -0.5805
  O  O793  1  0.700340  0.127940  0.155080  1.0  -0.5965
  O  O794  1  0.322810  0.133310  0.341620  1.0  -0.2577
  O  O795  1  0.325410  0.449010  0.621220  1.0  -0.6108
  O  O796  1  0.363590  0.523090  0.688380  1.0  -0.5796
  O  O797  1  0.977150  0.610850  0.595700  1.0  -0.5779
  O  O798  1  0.027140  0.700340  0.655080  1.0  -0.5966
  O  O799  1  0.208310  0.322810  0.841620  1.0  -0.2565
  O  O800  1  0.795810  0.172210  0.621220  1.0  -0.6077
  O  O801  1  0.824790  0.165290  0.688380  1.0  -0.5768
  O  O802  1  0.118550  0.984850  0.595700  1.0  -0.5764
  O  O803  1  0.127940  0.954740  0.655080  1.0  -0.5974
  O  O804  1  0.133310  0.518810  0.841620  1.0  -0.2546
  O  O805  1  0.949010  0.825410  0.121220  1.0  -0.6095
  O  O806  1  0.023090  0.863590  0.188380  1.0  -0.5792
  O  O807  1  0.110850  0.477150  0.095700  1.0  -0.5731
  O  O808  1  0.200340  0.527140  0.155080  1.0  -0.5959
  O  O809  1  0.822810  0.708310  0.341620  1.0  -0.2577
  O  O810  1  0.672210  0.295810  0.121220  1.0  -0.6088
  O  O811  1  0.665290  0.324790  0.188380  1.0  -0.5786
  O  O812  1  0.484850  0.618550  0.095700  1.0  -0.5747
  O  O813  1  0.454740  0.627940  0.155080  1.0  -0.5972
  O  O814  1  0.018810  0.633310  0.341620  1.0  -0.2576
  O  O815  1  0.295810  0.949010  0.621220  1.0  -0.6085
  O  O816  1  0.324790  0.023090  0.688380  1.0  -0.578
  O  O817  1  0.618550  0.110850  0.595700  1.0  -0.5794
  O  O818  1  0.627940  0.200340  0.655080  1.0  -0.597
  O  O819  1  0.633310  0.822810  0.841620  1.0  -0.2562
  O  O820  1  0.825410  0.672210  0.621220  1.0  -0.6097
  O  O821  1  0.863590  0.665290  0.688380  1.0  -0.5781
  O  O822  1  0.477150  0.484850  0.595700  1.0  -0.5814
  O  O823  1  0.527140  0.454740  0.655080  1.0  -0.5968
  O  O824  1  0.708310  0.018810  0.841620  1.0  -0.2562
  O  O825  1  0.050990  0.174590  0.878780  1.0  -0.6101
  O  O826  1  0.976910  0.136410  0.811620  1.0  -0.5798
  O  O827  1  0.889150  0.522850  0.904300  1.0  -0.5715
  O  O828  1  0.799660  0.472860  0.844920  1.0  -0.5963
  O  O829  1  0.177190  0.291690  0.658380  1.0  -0.2569
  O  O830  1  0.327790  0.704190  0.878780  1.0  -0.6077
  O  O831  1  0.334710  0.675210  0.811620  1.0  -0.5801
  O  O832  1  0.515150  0.381450  0.904300  1.0  -0.5736
  O  O833  1  0.545260  0.372060  0.844920  1.0  -0.5979
  O  O834  1  0.981190  0.366690  0.658380  1.0  -0.2581
  O  O835  1  0.704190  0.050990  0.378780  1.0  -0.607
  O  O836  1  0.675210  0.976910  0.311620  1.0  -0.5779
  O  O837  1  0.381450  0.889150  0.404300  1.0  -0.5765
  O  O838  1  0.372060  0.799660  0.344920  1.0  -0.5959
  O  O839  1  0.366690  0.177190  0.158380  1.0  -0.2573
  O  O840  1  0.174590  0.327790  0.378780  1.0  -0.6077
  O  O841  1  0.136410  0.334710  0.311620  1.0  -0.5789
  O  O842  1  0.522850  0.515150  0.404300  1.0  -0.5813
  O  O843  1  0.472860  0.545260  0.344920  1.0  -0.5971
  O  O844  1  0.291690  0.981190  0.158380  1.0  -0.2547
  O  O845  1  0.827790  0.674590  0.878780  1.0  -0.608
  O  O846  1  0.834710  0.636410  0.811620  1.0  -0.5797
  O  O847  1  0.015150  0.022850  0.904300  1.0  -0.574
  O  O848  1  0.045260  0.972860  0.844920  1.0  -0.5967
  O  O849  1  0.481190  0.791690  0.658380  1.0  -0.2577
  O  O850  1  0.550990  0.204190  0.878780  1.0  -0.6093
  O  O851  1  0.476910  0.175210  0.811620  1.0  -0.5793
  O  O852  1  0.389150  0.881450  0.904300  1.0  -0.579
  O  O853  1  0.299660  0.872060  0.844920  1.0  -0.5962
  O  O854  1  0.677190  0.866690  0.658380  1.0  -0.2561
  O  O855  1  0.674590  0.550990  0.378780  1.0  -0.6098
  O  O856  1  0.636410  0.476910  0.311620  1.0  -0.5793
  O  O857  1  0.022850  0.389150  0.404300  1.0  -0.5768
  O  O858  1  0.972860  0.299660  0.344920  1.0  -0.5961
  O  O859  1  0.791690  0.677190  0.158380  1.0  -0.2547
  O  O860  1  0.204190  0.827790  0.378780  1.0  -0.6063
  O  O861  1  0.175210  0.834710  0.311620  1.0  -0.5784
  O  O862  1  0.881450  0.015150  0.404300  1.0  -0.5759
  O  O863  1  0.872060  0.045260  0.344920  1.0  -0.5975
  O  O864  1  0.866690  0.481190  0.158380  1.0  -0.2571
