# generated using pymatgen
data_Zn8B4H64C114Br4N12O31
_symmetry_space_group_name_H-M   'P 1'
_cell_length_a   40.84500000
_cell_length_b   42.36700000
_cell_length_c   34.54700000
_cell_angle_alpha   90.00000000
_cell_angle_beta   115.81600000
_cell_angle_gamma   90.00000000
_symmetry_Int_Tables_number   1
_chemical_formula_structural   Zn8B4H64C114Br4N12O31
_chemical_formula_sum   'Zn64 B32 H512 C912 Br32 N96 O248'
_cell_volume   53816.39587840
_cell_formula_units_Z   8
loop_
 _symmetry_equiv_pos_site_id
 _symmetry_equiv_pos_as_xyz
  1  'x, y, z'
loop_
 _atom_site_type_symbol
 _atom_site_label
 _atom_site_symmetry_multiplicity
 _atom_site_fract_x
 _atom_site_fract_y
 _atom_site_fract_z
 _atom_site_occupancy
 _atom_site_charge
  Zn  Zn1  1  0.003740  0.911640  0.130000  1.0  0.8309
  Zn  Zn2  1  0.048900  0.865070  0.111570  1.0  0.8193
  Zn  Zn3  1  0.477400  0.131260  0.578730  1.0  0.8775
  Zn  Zn4  1  0.519790  0.084040  0.555610  1.0  0.8638
  Zn  Zn5  1  0.247340  0.821150  0.554120  1.0  1.0851
  Zn  Zn6  1  0.257010  0.895480  0.563530  1.0  1.0947
  Zn  Zn7  1  0.319380  0.847410  0.626910  1.0  1.1124
  Zn  Zn8  1  0.244280  0.855050  0.633930  1.0  1.0887
  Zn  Zn9  1  0.503740  0.411640  0.130000  1.0  0.8309
  Zn  Zn10  1  0.548900  0.365070  0.111570  1.0  0.8193
  Zn  Zn11  1  0.977400  0.631260  0.578730  1.0  0.8775
  Zn  Zn12  1  0.019790  0.584040  0.555610  1.0  0.8638
  Zn  Zn13  1  0.747340  0.321150  0.554120  1.0  1.0852
  Zn  Zn14  1  0.757010  0.395480  0.563530  1.0  1.0947
  Zn  Zn15  1  0.819380  0.347410  0.626910  1.0  1.1124
  Zn  Zn16  1  0.744280  0.355050  0.633930  1.0  1.0887
  Zn  Zn17  1  0.003740  0.088360  0.630000  1.0  0.8305
  Zn  Zn18  1  0.048900  0.134930  0.611570  1.0  0.8195
  Zn  Zn19  1  0.477400  0.868740  0.078730  1.0  0.8771
  Zn  Zn20  1  0.519790  0.915960  0.055610  1.0  0.8638
  Zn  Zn21  1  0.247340  0.178850  0.054120  1.0  1.0847
  Zn  Zn22  1  0.257010  0.104520  0.063530  1.0  1.0955
  Zn  Zn23  1  0.319380  0.152590  0.126910  1.0  1.1119
  Zn  Zn24  1  0.244280  0.144950  0.133930  1.0  1.0888
  Zn  Zn25  1  0.503740  0.588360  0.630000  1.0  0.8305
  Zn  Zn26  1  0.548900  0.634930  0.611570  1.0  0.8195
  Zn  Zn27  1  0.977400  0.368740  0.078730  1.0  0.8771
  Zn  Zn28  1  0.019790  0.415960  0.055610  1.0  0.8638
  Zn  Zn29  1  0.747340  0.678850  0.054120  1.0  1.0857
  Zn  Zn30  1  0.757010  0.604520  0.063530  1.0  1.0955
  Zn  Zn31  1  0.819380  0.652590  0.126910  1.0  1.1119
  Zn  Zn32  1  0.744280  0.644950  0.133930  1.0  1.0888
  Zn  Zn33  1  0.996260  0.911640  0.370000  1.0  0.8305
  Zn  Zn34  1  0.951100  0.865070  0.388430  1.0  0.8193
  Zn  Zn35  1  0.522600  0.131260  0.921270  1.0  0.879
  Zn  Zn36  1  0.480210  0.084040  0.944390  1.0  0.8696
  Zn  Zn37  1  0.752660  0.821150  0.945880  1.0  1.0859
  Zn  Zn38  1  0.742990  0.895480  0.936470  1.0  1.0947
  Zn  Zn39  1  0.680620  0.847410  0.873090  1.0  1.1127
  Zn  Zn40  1  0.755720  0.855050  0.866070  1.0  1.0894
  Zn  Zn41  1  0.496260  0.411640  0.370000  1.0  0.8305
  Zn  Zn42  1  0.451100  0.365070  0.388430  1.0  0.8193
  Zn  Zn43  1  0.022600  0.631260  0.921270  1.0  0.879
  Zn  Zn44  1  0.980210  0.584040  0.944390  1.0  0.8696
  Zn  Zn45  1  0.252660  0.321150  0.945880  1.0  1.086
  Zn  Zn46  1  0.242990  0.395480  0.936470  1.0  1.0947
  Zn  Zn47  1  0.180620  0.347410  0.873090  1.0  1.1127
  Zn  Zn48  1  0.255720  0.355050  0.866070  1.0  1.0894
  Zn  Zn49  1  0.996260  0.088360  0.870000  1.0  0.8301
  Zn  Zn50  1  0.951100  0.134930  0.888430  1.0  0.8195
  Zn  Zn51  1  0.522600  0.868740  0.421270  1.0  0.8784
  Zn  Zn52  1  0.480210  0.915960  0.444390  1.0  0.8692
  Zn  Zn53  1  0.752660  0.178850  0.445880  1.0  1.0858
  Zn  Zn54  1  0.742990  0.104520  0.436470  1.0  1.096
  Zn  Zn55  1  0.680620  0.152590  0.373090  1.0  1.1125
  Zn  Zn56  1  0.755720  0.144950  0.366070  1.0  1.0892
  Zn  Zn57  1  0.496260  0.588360  0.870000  1.0  0.8301
  Zn  Zn58  1  0.451100  0.634930  0.888430  1.0  0.8195
  Zn  Zn59  1  0.022600  0.368740  0.421270  1.0  0.8784
  Zn  Zn60  1  0.980210  0.415960  0.444390  1.0  0.8692
  Zn  Zn61  1  0.252660  0.678850  0.445880  1.0  1.0868
  Zn  Zn62  1  0.242990  0.604520  0.436470  1.0  1.096
  Zn  Zn63  1  0.180620  0.652590  0.373090  1.0  1.1125
  Zn  Zn64  1  0.255720  0.644950  0.366070  1.0  1.0892
  B  B65  1  0.562400  0.032600  0.531100  1.0  0.7593
  B  B66  1  0.433100  0.180500  0.602200  1.0  0.7975
  B  B67  1  0.954500  0.958600  0.151400  1.0  0.7202
  B  B68  1  0.096000  0.814600  0.093400  1.0  0.7852
  B  B69  1  0.062400  0.532600  0.531100  1.0  0.7593
  B  B70  1  0.933100  0.680500  0.602200  1.0  0.7975
  B  B71  1  0.454500  0.458600  0.151400  1.0  0.7202
  B  B72  1  0.596000  0.314600  0.093400  1.0  0.7852
  B  B73  1  0.562400  0.967400  0.031100  1.0  0.7597
  B  B74  1  0.433100  0.819500  0.102200  1.0  0.798
  B  B75  1  0.954500  0.041400  0.651400  1.0  0.7195
  B  B76  1  0.096000  0.185400  0.593400  1.0  0.7847
  B  B77  1  0.062400  0.467400  0.031100  1.0  0.7597
  B  B78  1  0.933100  0.319500  0.102200  1.0  0.798
  B  B79  1  0.454500  0.541400  0.651400  1.0  0.7195
  B  B80  1  0.596000  0.685400  0.593400  1.0  0.7847
  B  B81  1  0.437600  0.032600  0.968900  1.0  0.7596
  B  B82  1  0.566900  0.180500  0.897800  1.0  0.7946
  B  B83  1  0.045500  0.958600  0.348600  1.0  0.72
  B  B84  1  0.904000  0.814600  0.406600  1.0  0.7875
  B  B85  1  0.937600  0.532600  0.968900  1.0  0.7596
  B  B86  1  0.066900  0.680500  0.897800  1.0  0.7946
  B  B87  1  0.545500  0.458600  0.348600  1.0  0.72
  B  B88  1  0.404000  0.314600  0.406600  1.0  0.7875
  B  B89  1  0.437600  0.967400  0.468900  1.0  0.7599
  B  B90  1  0.566900  0.819500  0.397800  1.0  0.7951
  B  B91  1  0.045500  0.041400  0.848600  1.0  0.719
  B  B92  1  0.904000  0.185400  0.906600  1.0  0.7872
  B  B93  1  0.937600  0.467400  0.468900  1.0  0.7599
  B  B94  1  0.066900  0.319500  0.397800  1.0  0.7951
  B  B95  1  0.545500  0.541400  0.848600  1.0  0.719
  B  B96  1  0.404000  0.685400  0.906600  1.0  0.7872
  H  H97  1  0.627800  0.036500  0.522400  1.0  0.1099
  H  H98  1  0.660600  0.999200  0.504600  1.0  0.122
  H  H99  1  0.583800  0.934700  0.489300  1.0  0.1077
  H  H100  1  0.551800  0.971100  0.508300  1.0  0.0947
  H  H101  1  0.620200  0.109100  0.577300  1.0  0.1168
  H  H102  1  0.575900  0.225700  0.616500  1.0  0.1207
  H  H103  1  0.633800  0.161400  0.586200  1.0  0.126
  H  H104  1  0.521200  0.214800  0.617600  1.0  0.0972
  H  H105  1  0.487000  0.066400  0.432400  1.0  0.1014
  H  H106  1  0.375300  0.151700  0.413400  1.0  0.1125
  H  H107  1  0.436700  0.091400  0.382200  1.0  0.1207
  H  H108  1  0.389400  0.166400  0.483500  1.0  0.0903
  H  H109  1  0.514100  0.996200  0.586600  1.0  0.0926
  H  H110  1  0.410300  0.048000  0.635500  1.0  0.1238
  H  H111  1  0.468000  0.983400  0.605400  1.0  0.1125
  H  H112  1  0.422700  0.100900  0.639800  1.0  0.0923
  H  H113  1  0.428000  0.195000  0.677600  1.0  0.118
  H  H114  1  0.395800  0.232600  0.695200  1.0  0.1178
  H  H115  1  0.357900  0.268400  0.575800  1.0  0.1248
  H  H116  1  0.386900  0.228300  0.557300  1.0  0.1036
  H  H117  1  0.636400  0.208500  0.546100  1.0  0.1263
  H  H118  1  0.672400  0.250000  0.542700  1.0  0.1014
  H  H119  1  0.679900  0.283400  0.655900  1.0  0.1176
  H  H120  1  0.640500  0.244500  0.656700  1.0  0.12
  H  H121  1  0.416500  0.117700  0.322800  1.0  0.123
  H  H122  1  0.379700  0.126300  0.250300  1.0  0.119
  H  H123  1  0.294000  0.141600  0.277300  1.0  0.1156
  H  H124  1  0.332100  0.136500  0.350500  1.0  0.1236
  H  H125  1  0.364500  0.014400  0.598000  1.0  0.1256
  H  H126  1  0.323300  0.974200  0.589200  1.0  0.1144
  H  H127  1  0.406000  0.911000  0.637000  1.0  0.1206
  H  H128  1  0.446700  0.951600  0.644100  1.0  0.1247
  H  H129  1  0.970600  0.012300  0.202000  1.0  0.1015
  H  H130  1  0.935200  0.049400  0.214800  1.0  0.129
  H  H131  1  0.845400  0.008000  0.126200  1.0  0.1214
  H  H132  1  0.880800  0.969400  0.116000  1.0  0.1114
  H  H133  1  0.013500  0.000800  0.102000  1.0  0.1105
  H  H134  1  0.132800  0.950300  0.082800  1.0  0.1166
  H  H135  1  0.069300  0.013300  0.103900  1.0  0.1155
  H  H136  1  0.120800  0.896900  0.075400  1.0  0.0954
  H  H137  1  0.033600  0.933600  0.253100  1.0  0.0853
  H  H138  1  0.141400  0.842300  0.278700  1.0  0.1143
  H  H139  1  0.084900  0.910400  0.304000  1.0  0.1126
  H  H140  1  0.128300  0.824300  0.210700  1.0  0.1037
  H  H141  1  0.902100  0.887800  0.098300  1.0  0.0838
  H  H142  1  0.948800  0.773700  0.055000  1.0  0.1238
  H  H143  1  0.886400  0.836100  0.080200  1.0  0.1053
  H  H144  1  0.002500  0.786700  0.053200  1.0  0.1024
  H  H145  1  0.160100  0.783300  0.145200  1.0  0.1125
  H  H146  1  0.089000  0.783500  0.021000  1.0  0.1114
  H  H147  1  0.191200  0.741300  0.133200  1.0  0.1322
  H  H148  1  0.120400  0.742900  0.007800  1.0  0.1247
  H  H149  1  0.115700  0.044400  0.128000  1.0  0.1195
  H  H150  1  0.156900  0.083300  0.132900  1.0  0.1203
  H  H151  1  0.197200  0.027100  0.069700  1.0  0.1141
  H  H152  1  0.155800  0.988200  0.064600  1.0  0.1208
  H  H153  1  0.142900  0.921000  0.359500  1.0  0.1091
  H  H154  1  0.182500  0.917000  0.432100  1.0  0.119
  H  H155  1  0.189200  0.822400  0.417900  1.0  0.1162
  H  H156  1  0.150800  0.826800  0.345000  1.0  0.1284
  H  H157  1  0.923400  0.740200  0.089000  1.0  0.1321
  H  H158  1  0.882300  0.702000  0.087200  1.0  0.1148
  H  H159  1  0.799100  0.763100  0.029800  1.0  0.114
  H  H160  1  0.839900  0.800900  0.029500  1.0  0.1061
  H  H161  1  0.127800  0.536500  0.522400  1.0  0.1099
  H  H162  1  0.160600  0.499200  0.504600  1.0  0.122
  H  H163  1  0.083800  0.434700  0.489300  1.0  0.1077
  H  H164  1  0.051800  0.471100  0.508300  1.0  0.0947
  H  H165  1  0.120200  0.609100  0.577300  1.0  0.1168
  H  H166  1  0.075900  0.725700  0.616500  1.0  0.1207
  H  H167  1  0.133800  0.661400  0.586200  1.0  0.126
  H  H168  1  0.021200  0.714800  0.617600  1.0  0.0972
  H  H169  1  0.987000  0.566400  0.432400  1.0  0.1014
  H  H170  1  0.875300  0.651700  0.413400  1.0  0.1125
  H  H171  1  0.936700  0.591400  0.382200  1.0  0.1207
  H  H172  1  0.889400  0.666400  0.483500  1.0  0.0903
  H  H173  1  0.014100  0.496200  0.586600  1.0  0.0926
  H  H174  1  0.910300  0.548000  0.635500  1.0  0.1238
  H  H175  1  0.968000  0.483400  0.605400  1.0  0.1125
  H  H176  1  0.922700  0.600900  0.639800  1.0  0.0923
  H  H177  1  0.928000  0.695000  0.677600  1.0  0.118
  H  H178  1  0.895800  0.732600  0.695200  1.0  0.1178
  H  H179  1  0.857900  0.768400  0.575800  1.0  0.1248
  H  H180  1  0.886900  0.728300  0.557300  1.0  0.1036
  H  H181  1  0.136400  0.708500  0.546100  1.0  0.1263
  H  H182  1  0.172400  0.750000  0.542700  1.0  0.1014
  H  H183  1  0.179900  0.783400  0.655900  1.0  0.1176
  H  H184  1  0.140500  0.744500  0.656700  1.0  0.12
  H  H185  1  0.916500  0.617700  0.322800  1.0  0.123
  H  H186  1  0.879700  0.626300  0.250300  1.0  0.119
  H  H187  1  0.794000  0.641600  0.277300  1.0  0.1156
  H  H188  1  0.832100  0.636500  0.350500  1.0  0.1236
  H  H189  1  0.864500  0.514400  0.598000  1.0  0.1256
  H  H190  1  0.823300  0.474200  0.589200  1.0  0.1144
  H  H191  1  0.906000  0.411000  0.637000  1.0  0.1206
  H  H192  1  0.946700  0.451600  0.644100  1.0  0.1247
  H  H193  1  0.470600  0.512300  0.202000  1.0  0.1015
  H  H194  1  0.435200  0.549400  0.214800  1.0  0.129
  H  H195  1  0.345400  0.508000  0.126200  1.0  0.1214
  H  H196  1  0.380800  0.469400  0.116000  1.0  0.1114
  H  H197  1  0.513500  0.500800  0.102000  1.0  0.1105
  H  H198  1  0.632800  0.450300  0.082800  1.0  0.1166
  H  H199  1  0.569300  0.513300  0.103900  1.0  0.1155
  H  H200  1  0.620800  0.396900  0.075400  1.0  0.0954
  H  H201  1  0.533600  0.433600  0.253100  1.0  0.0853
  H  H202  1  0.641400  0.342300  0.278700  1.0  0.1143
  H  H203  1  0.584900  0.410400  0.304000  1.0  0.1126
  H  H204  1  0.628300  0.324300  0.210700  1.0  0.1037
  H  H205  1  0.402100  0.387800  0.098300  1.0  0.0838
  H  H206  1  0.448800  0.273700  0.055000  1.0  0.1238
  H  H207  1  0.386400  0.336100  0.080200  1.0  0.1053
  H  H208  1  0.502500  0.286700  0.053200  1.0  0.1024
  H  H209  1  0.660100  0.283300  0.145200  1.0  0.1125
  H  H210  1  0.589000  0.283500  0.021000  1.0  0.1114
  H  H211  1  0.691200  0.241300  0.133200  1.0  0.1322
  H  H212  1  0.620400  0.242900  0.007800  1.0  0.1247
  H  H213  1  0.615700  0.544400  0.128000  1.0  0.1195
  H  H214  1  0.656900  0.583300  0.132900  1.0  0.1203
  H  H215  1  0.697200  0.527100  0.069700  1.0  0.1141
  H  H216  1  0.655800  0.488200  0.064600  1.0  0.1208
  H  H217  1  0.642900  0.421000  0.359500  1.0  0.1091
  H  H218  1  0.682500  0.417000  0.432100  1.0  0.119
  H  H219  1  0.689200  0.322400  0.417900  1.0  0.1162
  H  H220  1  0.650800  0.326800  0.345000  1.0  0.1284
  H  H221  1  0.423400  0.240200  0.089000  1.0  0.1321
  H  H222  1  0.382300  0.202000  0.087200  1.0  0.1148
  H  H223  1  0.299100  0.263100  0.029800  1.0  0.114
  H  H224  1  0.339900  0.300900  0.029500  1.0  0.1061
  H  H225  1  0.627800  0.963500  0.022400  1.0  0.1105
  H  H226  1  0.660600  0.000800  0.004600  1.0  0.1222
  H  H227  1  0.583800  0.065300  0.989300  1.0  0.1082
  H  H228  1  0.551800  0.028900  0.008300  1.0  0.0949
  H  H229  1  0.620200  0.890900  0.077300  1.0  0.1172
  H  H230  1  0.575900  0.774300  0.116500  1.0  0.1204
  H  H231  1  0.633800  0.838600  0.086200  1.0  0.1264
  H  H232  1  0.521200  0.785200  0.117600  1.0  0.0981
  H  H233  1  0.487000  0.933600  0.932400  1.0  0.1014
  H  H234  1  0.375300  0.848300  0.913400  1.0  0.1124
  H  H235  1  0.436700  0.908600  0.882200  1.0  0.1207
  H  H236  1  0.389400  0.833600  0.983500  1.0  0.0901
  H  H237  1  0.514100  0.003800  0.086600  1.0  0.0924
  H  H238  1  0.410300  0.952000  0.135500  1.0  0.1241
  H  H239  1  0.468000  0.016600  0.105400  1.0  0.1127
  H  H240  1  0.422700  0.899100  0.139800  1.0  0.0923
  H  H241  1  0.428000  0.805000  0.177600  1.0  0.118
  H  H242  1  0.395800  0.767400  0.195200  1.0  0.1179
  H  H243  1  0.357900  0.731600  0.075800  1.0  0.1238
  H  H244  1  0.386900  0.771700  0.057300  1.0  0.1036
  H  H245  1  0.636400  0.791500  0.046100  1.0  0.1262
  H  H246  1  0.672400  0.750000  0.042700  1.0  0.1012
  H  H247  1  0.679900  0.716600  0.155900  1.0  0.1177
  H  H248  1  0.640500  0.755500  0.156700  1.0  0.1203
  H  H249  1  0.416500  0.882300  0.822800  1.0  0.1231
  H  H250  1  0.379700  0.873700  0.750300  1.0  0.1189
  H  H251  1  0.294000  0.858400  0.777300  1.0  0.1158
  H  H252  1  0.332100  0.863500  0.850500  1.0  0.1235
  H  H253  1  0.364500  0.985600  0.098000  1.0  0.1248
  H  H254  1  0.323300  0.025800  0.089200  1.0  0.1145
  H  H255  1  0.406000  0.089000  0.137000  1.0  0.1205
  H  H256  1  0.446700  0.048400  0.144100  1.0  0.1252
  H  H257  1  0.970600  0.987700  0.702000  1.0  0.1012
  H  H258  1  0.935200  0.950600  0.714800  1.0  0.1287
  H  H259  1  0.845400  0.992000  0.626200  1.0  0.1213
  H  H260  1  0.880800  0.030600  0.616000  1.0  0.1113
  H  H261  1  0.013500  0.999200  0.602000  1.0  0.11
  H  H262  1  0.132800  0.049700  0.582800  1.0  0.1166
  H  H263  1  0.069300  0.986700  0.603900  1.0  0.1152
  H  H264  1  0.120800  0.103100  0.575400  1.0  0.0955
  H  H265  1  0.033600  0.066400  0.753100  1.0  0.0853
  H  H266  1  0.141400  0.157700  0.778700  1.0  0.1139
  H  H267  1  0.084900  0.089600  0.804000  1.0  0.1135
  H  H268  1  0.128300  0.175700  0.710700  1.0  0.1045
  H  H269  1  0.902100  0.112200  0.598300  1.0  0.0842
  H  H270  1  0.948800  0.226300  0.555000  1.0  0.1236
  H  H271  1  0.886400  0.163900  0.580200  1.0  0.1052
  H  H272  1  0.002500  0.213300  0.553200  1.0  0.1026
  H  H273  1  0.160100  0.216700  0.645200  1.0  0.1124
  H  H274  1  0.089000  0.216500  0.521000  1.0  0.1116
  H  H275  1  0.191200  0.258700  0.633200  1.0  0.1325
  H  H276  1  0.120400  0.257100  0.507800  1.0  0.1249
  H  H277  1  0.115700  0.955600  0.628000  1.0  0.1195
  H  H278  1  0.156900  0.916700  0.632900  1.0  0.1202
  H  H279  1  0.197200  0.972900  0.569700  1.0  0.1143
  H  H280  1  0.155800  0.011800  0.564600  1.0  0.1212
  H  H281  1  0.142900  0.079000  0.859500  1.0  0.1088
  H  H282  1  0.182500  0.083000  0.932100  1.0  0.119
  H  H283  1  0.189200  0.177600  0.917900  1.0  0.1167
  H  H284  1  0.150800  0.173200  0.845000  1.0  0.1294
  H  H285  1  0.923400  0.259800  0.589000  1.0  0.1324
  H  H286  1  0.882300  0.298000  0.587200  1.0  0.1147
  H  H287  1  0.799100  0.236900  0.529800  1.0  0.1139
  H  H288  1  0.839900  0.199100  0.529500  1.0  0.1055
  H  H289  1  0.127800  0.463500  0.022400  1.0  0.1105
  H  H290  1  0.160600  0.500800  0.004600  1.0  0.1222
  H  H291  1  0.083800  0.565300  0.989300  1.0  0.1082
  H  H292  1  0.051800  0.528900  0.008300  1.0  0.0949
  H  H293  1  0.120200  0.390900  0.077300  1.0  0.1172
  H  H294  1  0.075900  0.274300  0.116500  1.0  0.1204
  H  H295  1  0.133800  0.338600  0.086200  1.0  0.1264
  H  H296  1  0.021200  0.285200  0.117600  1.0  0.0981
  H  H297  1  0.987000  0.433600  0.932400  1.0  0.1014
  H  H298  1  0.875300  0.348300  0.913400  1.0  0.1124
  H  H299  1  0.936700  0.408600  0.882200  1.0  0.1207
  H  H300  1  0.889400  0.333600  0.983500  1.0  0.0901
  H  H301  1  0.014100  0.503800  0.086600  1.0  0.0924
  H  H302  1  0.910300  0.452000  0.135500  1.0  0.1241
  H  H303  1  0.968000  0.516600  0.105400  1.0  0.1127
  H  H304  1  0.922700  0.399100  0.139800  1.0  0.0923
  H  H305  1  0.928000  0.305000  0.177600  1.0  0.118
  H  H306  1  0.895800  0.267400  0.195200  1.0  0.1179
  H  H307  1  0.857900  0.231600  0.075800  1.0  0.1238
  H  H308  1  0.886900  0.271700  0.057300  1.0  0.1036
  H  H309  1  0.136400  0.291500  0.046100  1.0  0.1262
  H  H310  1  0.172400  0.250000  0.042700  1.0  0.1012
  H  H311  1  0.179900  0.216600  0.155900  1.0  0.1177
  H  H312  1  0.140500  0.255500  0.156700  1.0  0.1203
  H  H313  1  0.916500  0.382300  0.822800  1.0  0.1231
  H  H314  1  0.879700  0.373700  0.750300  1.0  0.1189
  H  H315  1  0.794000  0.358400  0.777300  1.0  0.1158
  H  H316  1  0.832100  0.363500  0.850500  1.0  0.1235
  H  H317  1  0.864500  0.485600  0.098000  1.0  0.1248
  H  H318  1  0.823300  0.525800  0.089200  1.0  0.1145
  H  H319  1  0.906000  0.589000  0.137000  1.0  0.1205
  H  H320  1  0.946700  0.548400  0.144100  1.0  0.1252
  H  H321  1  0.470600  0.487700  0.702000  1.0  0.1012
  H  H322  1  0.435200  0.450600  0.714800  1.0  0.1287
  H  H323  1  0.345400  0.492000  0.626200  1.0  0.1213
  H  H324  1  0.380800  0.530600  0.616000  1.0  0.1113
  H  H325  1  0.513500  0.499200  0.602000  1.0  0.11
  H  H326  1  0.632800  0.549700  0.582800  1.0  0.1166
  H  H327  1  0.569300  0.486700  0.603900  1.0  0.1152
  H  H328  1  0.620800  0.603100  0.575400  1.0  0.0955
  H  H329  1  0.533600  0.566400  0.753100  1.0  0.0853
  H  H330  1  0.641400  0.657700  0.778700  1.0  0.1139
  H  H331  1  0.584900  0.589600  0.804000  1.0  0.1135
  H  H332  1  0.628300  0.675700  0.710700  1.0  0.1045
  H  H333  1  0.402100  0.612200  0.598300  1.0  0.0842
  H  H334  1  0.448800  0.726300  0.555000  1.0  0.1236
  H  H335  1  0.386400  0.663900  0.580200  1.0  0.1052
  H  H336  1  0.502500  0.713300  0.553200  1.0  0.1026
  H  H337  1  0.660100  0.716700  0.645200  1.0  0.1124
  H  H338  1  0.589000  0.716500  0.521000  1.0  0.1116
  H  H339  1  0.691200  0.758700  0.633200  1.0  0.1325
  H  H340  1  0.620400  0.757100  0.507800  1.0  0.1249
  H  H341  1  0.615700  0.455600  0.628000  1.0  0.1195
  H  H342  1  0.656900  0.416700  0.632900  1.0  0.1202
  H  H343  1  0.697200  0.472900  0.569700  1.0  0.1143
  H  H344  1  0.655800  0.511800  0.564600  1.0  0.1212
  H  H345  1  0.642900  0.579000  0.859500  1.0  0.1088
  H  H346  1  0.682500  0.583000  0.932100  1.0  0.119
  H  H347  1  0.689200  0.677600  0.917900  1.0  0.1167
  H  H348  1  0.650800  0.673200  0.845000  1.0  0.1294
  H  H349  1  0.423400  0.759800  0.589000  1.0  0.1324
  H  H350  1  0.382300  0.798000  0.587200  1.0  0.1147
  H  H351  1  0.299100  0.736900  0.529800  1.0  0.1139
  H  H352  1  0.339900  0.699100  0.529500  1.0  0.1055
  H  H353  1  0.372200  0.036500  0.977600  1.0  0.1101
  H  H354  1  0.339400  0.999200  0.995400  1.0  0.1226
  H  H355  1  0.416200  0.934700  0.010700  1.0  0.1081
  H  H356  1  0.448200  0.971100  0.991700  1.0  0.0948
  H  H357  1  0.379800  0.109100  0.922700  1.0  0.1156
  H  H358  1  0.424100  0.225700  0.883500  1.0  0.1204
  H  H359  1  0.366200  0.161400  0.913800  1.0  0.1263
  H  H360  1  0.478800  0.214800  0.882400  1.0  0.0967
  H  H361  1  0.513000  0.066400  0.067600  1.0  0.1014
  H  H362  1  0.624700  0.151700  0.086600  1.0  0.1129
  H  H363  1  0.563300  0.091400  0.117800  1.0  0.1207
  H  H364  1  0.610600  0.166400  0.016500  1.0  0.0909
  H  H365  1  0.485900  0.996200  0.913400  1.0  0.0918
  H  H366  1  0.589700  0.048000  0.864500  1.0  0.1236
  H  H367  1  0.532000  0.983400  0.894600  1.0  0.1116
  H  H368  1  0.577300  0.100900  0.860200  1.0  0.0903
  H  H369  1  0.572000  0.195000  0.822400  1.0  0.1172
  H  H370  1  0.604200  0.232600  0.804800  1.0  0.118
  H  H371  1  0.642100  0.268400  0.924200  1.0  0.1238
  H  H372  1  0.613100  0.228300  0.942700  1.0  0.1032
  H  H373  1  0.363600  0.208500  0.953900  1.0  0.1271
  H  H374  1  0.327600  0.250000  0.957300  1.0  0.1021
  H  H375  1  0.320100  0.283400  0.844100  1.0  0.1172
  H  H376  1  0.359500  0.244500  0.843300  1.0  0.1194
  H  H377  1  0.583500  0.117700  0.177200  1.0  0.1231
  H  H378  1  0.620300  0.126300  0.249700  1.0  0.1193
  H  H379  1  0.706000  0.141600  0.222700  1.0  0.1155
  H  H380  1  0.667900  0.136500  0.149500  1.0  0.1234
  H  H381  1  0.635500  0.014400  0.902000  1.0  0.1265
  H  H382  1  0.676700  0.974200  0.910800  1.0  0.1149
  H  H383  1  0.594000  0.911000  0.863000  1.0  0.1202
  H  H384  1  0.553300  0.951600  0.855900  1.0  0.1249
  H  H385  1  0.029400  0.012300  0.298000  1.0  0.102
  H  H386  1  0.064800  0.049400  0.285200  1.0  0.1288
  H  H387  1  0.154600  0.008000  0.373800  1.0  0.1214
  H  H388  1  0.119200  0.969400  0.384000  1.0  0.1115
  H  H389  1  0.986500  0.000800  0.398000  1.0  0.1104
  H  H390  1  0.867200  0.950300  0.417200  1.0  0.1158
  H  H391  1  0.930700  0.013300  0.396100  1.0  0.1159
  H  H392  1  0.879200  0.896900  0.424600  1.0  0.096
  H  H393  1  0.966400  0.933600  0.246900  1.0  0.0854
  H  H394  1  0.858600  0.842300  0.221300  1.0  0.1143
  H  H395  1  0.915100  0.910400  0.196000  1.0  0.1128
  H  H396  1  0.871700  0.824300  0.289300  1.0  0.1041
  H  H397  1  0.097900  0.887800  0.401700  1.0  0.0838
  H  H398  1  0.051200  0.773700  0.445000  1.0  0.1249
  H  H399  1  0.113600  0.836100  0.419800  1.0  0.1049
  H  H400  1  0.997500  0.786700  0.446800  1.0  0.1027
  H  H401  1  0.839900  0.783300  0.354800  1.0  0.1118
  H  H402  1  0.911000  0.783500  0.479000  1.0  0.112
  H  H403  1  0.808800  0.741300  0.366800  1.0  0.1318
  H  H404  1  0.879600  0.742900  0.492200  1.0  0.1251
  H  H405  1  0.884300  0.044400  0.372000  1.0  0.1193
  H  H406  1  0.843100  0.083300  0.367100  1.0  0.1204
  H  H407  1  0.802800  0.027100  0.430300  1.0  0.1138
  H  H408  1  0.844200  0.988200  0.435400  1.0  0.121
  H  H409  1  0.857100  0.921000  0.140500  1.0  0.1094
  H  H410  1  0.817500  0.917000  0.067900  1.0  0.1201
  H  H411  1  0.810800  0.822400  0.082100  1.0  0.1166
  H  H412  1  0.849200  0.826800  0.155000  1.0  0.1287
  H  H413  1  0.076600  0.740200  0.411000  1.0  0.1328
  H  H414  1  0.117700  0.702000  0.412800  1.0  0.1143
  H  H415  1  0.200900  0.763100  0.470200  1.0  0.1148
  H  H416  1  0.160100  0.800900  0.470500  1.0  0.1054
  H  H417  1  0.872200  0.536500  0.977600  1.0  0.1101
  H  H418  1  0.839400  0.499200  0.995400  1.0  0.1226
  H  H419  1  0.916200  0.434700  0.010700  1.0  0.1081
  H  H420  1  0.948200  0.471100  0.991700  1.0  0.0948
  H  H421  1  0.879800  0.609100  0.922700  1.0  0.1156
  H  H422  1  0.924100  0.725700  0.883500  1.0  0.1204
  H  H423  1  0.866200  0.661400  0.913800  1.0  0.1263
  H  H424  1  0.978800  0.714800  0.882400  1.0  0.0967
  H  H425  1  0.013000  0.566400  0.067600  1.0  0.1014
  H  H426  1  0.124700  0.651700  0.086600  1.0  0.1129
  H  H427  1  0.063300  0.591400  0.117800  1.0  0.1207
  H  H428  1  0.110600  0.666400  0.016500  1.0  0.0909
  H  H429  1  0.985900  0.496200  0.913400  1.0  0.0918
  H  H430  1  0.089700  0.548000  0.864500  1.0  0.1236
  H  H431  1  0.032000  0.483400  0.894600  1.0  0.1116
  H  H432  1  0.077300  0.600900  0.860200  1.0  0.0903
  H  H433  1  0.072000  0.695000  0.822400  1.0  0.1172
  H  H434  1  0.104200  0.732600  0.804800  1.0  0.118
  H  H435  1  0.142100  0.768400  0.924200  1.0  0.1238
  H  H436  1  0.113100  0.728300  0.942700  1.0  0.1032
  H  H437  1  0.863600  0.708500  0.953900  1.0  0.1271
  H  H438  1  0.827600  0.750000  0.957300  1.0  0.1021
  H  H439  1  0.820100  0.783400  0.844100  1.0  0.1172
  H  H440  1  0.859500  0.744500  0.843300  1.0  0.1194
  H  H441  1  0.083500  0.617700  0.177200  1.0  0.1231
  H  H442  1  0.120300  0.626300  0.249700  1.0  0.1193
  H  H443  1  0.206000  0.641600  0.222700  1.0  0.1155
  H  H444  1  0.167900  0.636500  0.149500  1.0  0.1234
  H  H445  1  0.135500  0.514400  0.902000  1.0  0.1265
  H  H446  1  0.176700  0.474200  0.910800  1.0  0.1149
  H  H447  1  0.094000  0.411000  0.863000  1.0  0.1202
  H  H448  1  0.053300  0.451600  0.855900  1.0  0.1249
  H  H449  1  0.529400  0.512300  0.298000  1.0  0.102
  H  H450  1  0.564800  0.549400  0.285200  1.0  0.1288
  H  H451  1  0.654600  0.508000  0.373800  1.0  0.1214
  H  H452  1  0.619200  0.469400  0.384000  1.0  0.1115
  H  H453  1  0.486500  0.500800  0.398000  1.0  0.1104
  H  H454  1  0.367200  0.450300  0.417200  1.0  0.1158
  H  H455  1  0.430700  0.513300  0.396100  1.0  0.1159
  H  H456  1  0.379200  0.396900  0.424600  1.0  0.096
  H  H457  1  0.466400  0.433600  0.246900  1.0  0.0854
  H  H458  1  0.358600  0.342300  0.221300  1.0  0.1143
  H  H459  1  0.415100  0.410400  0.196000  1.0  0.1128
  H  H460  1  0.371700  0.324300  0.289300  1.0  0.1041
  H  H461  1  0.597900  0.387800  0.401700  1.0  0.0838
  H  H462  1  0.551200  0.273700  0.445000  1.0  0.1249
  H  H463  1  0.613600  0.336100  0.419800  1.0  0.1049
  H  H464  1  0.497500  0.286700  0.446800  1.0  0.1027
  H  H465  1  0.339900  0.283300  0.354800  1.0  0.1118
  H  H466  1  0.411000  0.283500  0.479000  1.0  0.112
  H  H467  1  0.308800  0.241300  0.366800  1.0  0.1318
  H  H468  1  0.379600  0.242900  0.492200  1.0  0.1251
  H  H469  1  0.384300  0.544400  0.372000  1.0  0.1193
  H  H470  1  0.343100  0.583300  0.367100  1.0  0.1204
  H  H471  1  0.302800  0.527100  0.430300  1.0  0.1138
  H  H472  1  0.344200  0.488200  0.435400  1.0  0.121
  H  H473  1  0.357100  0.421000  0.140500  1.0  0.1094
  H  H474  1  0.317500  0.417000  0.067900  1.0  0.1201
  H  H475  1  0.310800  0.322400  0.082100  1.0  0.1166
  H  H476  1  0.349200  0.326800  0.155000  1.0  0.1287
  H  H477  1  0.576600  0.240200  0.411000  1.0  0.1328
  H  H478  1  0.617700  0.202000  0.412800  1.0  0.1143
  H  H479  1  0.700900  0.263100  0.470200  1.0  0.1148
  H  H480  1  0.660100  0.300900  0.470500  1.0  0.1054
  H  H481  1  0.372200  0.963500  0.477600  1.0  0.1106
  H  H482  1  0.339400  0.000800  0.495400  1.0  0.1227
  H  H483  1  0.416200  0.065300  0.510700  1.0  0.1084
  H  H484  1  0.448200  0.028900  0.491700  1.0  0.0946
  H  H485  1  0.379800  0.890900  0.422700  1.0  0.1154
  H  H486  1  0.424100  0.774300  0.383500  1.0  0.1204
  H  H487  1  0.366200  0.838600  0.413800  1.0  0.1262
  H  H488  1  0.478800  0.785200  0.382400  1.0  0.0979
  H  H489  1  0.513000  0.933600  0.567600  1.0  0.1015
  H  H490  1  0.624700  0.848300  0.586600  1.0  0.1128
  H  H491  1  0.563300  0.908600  0.617800  1.0  0.1209
  H  H492  1  0.610600  0.833600  0.516500  1.0  0.0904
  H  H493  1  0.485900  0.003800  0.413400  1.0  0.0921
  H  H494  1  0.589700  0.952000  0.364500  1.0  0.1234
  H  H495  1  0.532000  0.016600  0.394600  1.0  0.1124
  H  H496  1  0.577300  0.899100  0.360200  1.0  0.0906
  H  H497  1  0.572000  0.805000  0.322400  1.0  0.1177
  H  H498  1  0.604200  0.767400  0.304800  1.0  0.118
  H  H499  1  0.642100  0.731600  0.424200  1.0  0.1235
  H  H500  1  0.613100  0.771700  0.442700  1.0  0.1039
  H  H501  1  0.363600  0.791500  0.453900  1.0  0.1268
  H  H502  1  0.327600  0.750000  0.457300  1.0  0.1016
  H  H503  1  0.320100  0.716600  0.344100  1.0  0.1172
  H  H504  1  0.359500  0.755500  0.343300  1.0  0.1193
  H  H505  1  0.583500  0.882300  0.677200  1.0  0.1228
  H  H506  1  0.620300  0.873700  0.749700  1.0  0.1191
  H  H507  1  0.706000  0.858400  0.722700  1.0  0.1153
  H  H508  1  0.667900  0.863500  0.649500  1.0  0.1232
  H  H509  1  0.635500  0.985600  0.402000  1.0  0.1263
  H  H510  1  0.676700  0.025800  0.410800  1.0  0.1145
  H  H511  1  0.594000  0.089000  0.363000  1.0  0.1209
  H  H512  1  0.553300  0.048400  0.355900  1.0  0.1247
  H  H513  1  0.029400  0.987700  0.798000  1.0  0.102
  H  H514  1  0.064800  0.950600  0.785200  1.0  0.1282
  H  H515  1  0.154600  0.992000  0.873800  1.0  0.1212
  H  H516  1  0.119200  0.030600  0.884000  1.0  0.1115
  H  H517  1  0.986500  0.999200  0.898000  1.0  0.1102
  H  H518  1  0.867200  0.049700  0.917200  1.0  0.1158
  H  H519  1  0.930700  0.986700  0.896100  1.0  0.1159
  H  H520  1  0.879200  0.103100  0.924600  1.0  0.0961
  H  H521  1  0.966400  0.066400  0.746900  1.0  0.0853
  H  H522  1  0.858600  0.157700  0.721300  1.0  0.1143
  H  H523  1  0.915100  0.089600  0.696000  1.0  0.1129
  H  H524  1  0.871700  0.175700  0.789300  1.0  0.1046
  H  H525  1  0.097900  0.112200  0.901700  1.0  0.0842
  H  H526  1  0.051200  0.226300  0.945000  1.0  0.1243
  H  H527  1  0.113600  0.163900  0.919800  1.0  0.105
  H  H528  1  0.997500  0.213300  0.946800  1.0  0.1029
  H  H529  1  0.839900  0.216700  0.854800  1.0  0.1118
  H  H530  1  0.911000  0.216500  0.979000  1.0  0.1115
  H  H531  1  0.808800  0.258700  0.866800  1.0  0.1319
  H  H532  1  0.879600  0.257100  0.992200  1.0  0.1255
  H  H533  1  0.884300  0.955600  0.872000  1.0  0.1189
  H  H534  1  0.843100  0.916700  0.867100  1.0  0.12
  H  H535  1  0.802800  0.972900  0.930300  1.0  0.1137
  H  H536  1  0.844200  0.011800  0.935400  1.0  0.1211
  H  H537  1  0.857100  0.079000  0.640500  1.0  0.1097
  H  H538  1  0.817500  0.083000  0.567900  1.0  0.1193
  H  H539  1  0.810800  0.177600  0.582100  1.0  0.117
  H  H540  1  0.849200  0.173200  0.655000  1.0  0.1294
  H  H541  1  0.076600  0.259800  0.911000  1.0  0.1329
  H  H542  1  0.117700  0.298000  0.912800  1.0  0.1149
  H  H543  1  0.200900  0.236900  0.970200  1.0  0.1148
  H  H544  1  0.160100  0.199100  0.970500  1.0  0.1055
  H  H545  1  0.872200  0.463500  0.477600  1.0  0.1106
  H  H546  1  0.839400  0.500800  0.495400  1.0  0.1227
  H  H547  1  0.916200  0.565300  0.510700  1.0  0.1084
  H  H548  1  0.948200  0.528900  0.491700  1.0  0.0946
  H  H549  1  0.879800  0.390900  0.422700  1.0  0.1154
  H  H550  1  0.924100  0.274300  0.383500  1.0  0.1204
  H  H551  1  0.866200  0.338600  0.413800  1.0  0.1262
  H  H552  1  0.978800  0.285200  0.382400  1.0  0.0979
  H  H553  1  0.013000  0.433600  0.567600  1.0  0.1015
  H  H554  1  0.124700  0.348300  0.586600  1.0  0.1128
  H  H555  1  0.063300  0.408600  0.617800  1.0  0.1209
  H  H556  1  0.110600  0.333600  0.516500  1.0  0.0904
  H  H557  1  0.985900  0.503800  0.413400  1.0  0.0921
  H  H558  1  0.089700  0.452000  0.364500  1.0  0.1234
  H  H559  1  0.032000  0.516600  0.394600  1.0  0.1124
  H  H560  1  0.077300  0.399100  0.360200  1.0  0.0906
  H  H561  1  0.072000  0.305000  0.322400  1.0  0.1177
  H  H562  1  0.104200  0.267400  0.304800  1.0  0.118
  H  H563  1  0.142100  0.231600  0.424200  1.0  0.1235
  H  H564  1  0.113100  0.271700  0.442700  1.0  0.1039
  H  H565  1  0.863600  0.291500  0.453900  1.0  0.1268
  H  H566  1  0.827600  0.250000  0.457300  1.0  0.1016
  H  H567  1  0.820100  0.216600  0.344100  1.0  0.1172
  H  H568  1  0.859500  0.255500  0.343300  1.0  0.1193
  H  H569  1  0.083500  0.382300  0.677200  1.0  0.1228
  H  H570  1  0.120300  0.373700  0.749700  1.0  0.1191
  H  H571  1  0.206000  0.358400  0.722700  1.0  0.1153
  H  H572  1  0.167900  0.363500  0.649500  1.0  0.1232
  H  H573  1  0.135500  0.485600  0.402000  1.0  0.1263
  H  H574  1  0.176700  0.525800  0.410800  1.0  0.1145
  H  H575  1  0.094000  0.589000  0.363000  1.0  0.1209
  H  H576  1  0.053300  0.548400  0.355900  1.0  0.1247
  H  H577  1  0.529400  0.487700  0.798000  1.0  0.102
  H  H578  1  0.564800  0.450600  0.785200  1.0  0.1282
  H  H579  1  0.654600  0.492000  0.873800  1.0  0.1212
  H  H580  1  0.619200  0.530600  0.884000  1.0  0.1115
  H  H581  1  0.486500  0.499200  0.898000  1.0  0.1102
  H  H582  1  0.367200  0.549700  0.917200  1.0  0.1158
  H  H583  1  0.430700  0.486700  0.896100  1.0  0.1159
  H  H584  1  0.379200  0.603100  0.924600  1.0  0.0961
  H  H585  1  0.466400  0.566400  0.746900  1.0  0.0853
  H  H586  1  0.358600  0.657700  0.721300  1.0  0.1143
  H  H587  1  0.415100  0.589600  0.696000  1.0  0.1129
  H  H588  1  0.371700  0.675700  0.789300  1.0  0.1046
  H  H589  1  0.597900  0.612200  0.901700  1.0  0.0842
  H  H590  1  0.551200  0.726300  0.945000  1.0  0.1243
  H  H591  1  0.613600  0.663900  0.919800  1.0  0.105
  H  H592  1  0.497500  0.713300  0.946800  1.0  0.1029
  H  H593  1  0.339900  0.716700  0.854800  1.0  0.1118
  H  H594  1  0.411000  0.716500  0.979000  1.0  0.1115
  H  H595  1  0.308800  0.758700  0.866800  1.0  0.1319
  H  H596  1  0.379600  0.757100  0.992200  1.0  0.1255
  H  H597  1  0.384300  0.455600  0.872000  1.0  0.1189
  H  H598  1  0.343100  0.416700  0.867100  1.0  0.12
  H  H599  1  0.302800  0.472900  0.930300  1.0  0.1137
  H  H600  1  0.344200  0.511800  0.935400  1.0  0.1211
  H  H601  1  0.357100  0.579000  0.640500  1.0  0.1097
  H  H602  1  0.317500  0.583000  0.567900  1.0  0.1193
  H  H603  1  0.310800  0.677600  0.582100  1.0  0.117
  H  H604  1  0.349200  0.673200  0.655000  1.0  0.1294
  H  H605  1  0.576600  0.759800  0.911000  1.0  0.1329
  H  H606  1  0.617700  0.798000  0.912800  1.0  0.1149
  H  H607  1  0.700900  0.736900  0.970200  1.0  0.1148
  H  H608  1  0.660100  0.699100  0.970500  1.0  0.1055
  C  C609  1  0.586200  0.008300  0.518500  1.0  0.0316
  C  C610  1  0.618700  0.015500  0.516200  1.0  -0.0849
  C  C611  1  0.638300  0.993400  0.505200  1.0  -0.0694
  C  C612  1  0.625200  0.963000  0.495100  1.0  -0.0575
  C  C613  1  0.593100  0.955500  0.496400  1.0  -0.0276
  C  C614  1  0.574000  0.977300  0.507700  1.0  -0.0947
  C  C615  1  0.596300  0.112000  0.575000  1.0  0.1784
  C  C616  1  0.587500  0.143800  0.586800  1.0  -0.0526
  C  C617  1  0.556500  0.150400  0.593300  1.0  0.2976
  C  C618  1  0.552000  0.182000  0.604200  1.0  -0.0853
  C  C619  1  0.578600  0.204800  0.608500  1.0  -0.0994
  C  C620  1  0.608600  0.197500  0.601300  1.0  0.0228
  C  C621  1  0.613100  0.166800  0.590700  1.0  -0.099
  C  C622  1  0.521200  0.193200  0.610400  1.0  0.1569
  C  C623  1  0.485900  0.075900  0.456700  1.0  0.1905
  C  C624  1  0.456100  0.097600  0.447200  1.0  -0.1091
  C  C625  1  0.450000  0.114200  0.479800  1.0  0.2543
  C  C626  1  0.419300  0.135000  0.466300  1.0  -0.1015
  C  C627  1  0.395900  0.138200  0.422100  1.0  -0.0592
  C  C628  1  0.402100  0.122000  0.391100  1.0  -0.0101
  C  C629  1  0.432200  0.102100  0.403600  1.0  -0.0671
  C  C630  1  0.411000  0.154100  0.495700  1.0  0.1744
  C  C631  1  0.509900  0.018300  0.586100  1.0  0.1629
  C  C632  1  0.483500  0.028600  0.600900  1.0  -0.0398
  C  C633  1  0.476200  0.061300  0.605600  1.0  0.2282
  C  C634  1  0.448700  0.067800  0.619700  1.0  -0.0278
  C  C635  1  0.428500  0.043100  0.626300  1.0  -0.0444
  C  C636  1  0.434800  0.011800  0.619500  1.0  -0.0116
  C  C637  1  0.462800  0.004900  0.608300  1.0  -0.0718
  C  C638  1  0.438900  0.099300  0.626800  1.0  0.1829
  C  C639  1  0.411200  0.206500  0.614800  1.0  0.0736
  C  C640  1  0.413100  0.209400  0.656100  1.0  -0.0966
  C  C641  1  0.394200  0.232100  0.666900  1.0  -0.0914
  C  C642  1  0.373400  0.253900  0.637200  1.0  -0.0416
  C  C643  1  0.371400  0.252900  0.596500  1.0  -0.1047
  C  C644  1  0.389500  0.229200  0.586000  1.0  -0.0674
  C  C645  1  0.634100  0.222500  0.601300  1.0  0.0495
  C  C646  1  0.644400  0.224200  0.567900  1.0  -0.1349
  C  C647  1  0.666400  0.248600  0.566300  1.0  -0.0442
  C  C648  1  0.679700  0.271200  0.598800  1.0  -0.1262
  C  C649  1  0.670300  0.268700  0.632900  1.0  -0.0515
  C  C650  1  0.647400  0.245200  0.633700  1.0  -0.1142
  C  C651  1  0.703000  0.298100  0.596700  1.0  0.7404
  C  C652  1  0.378300  0.126200  0.344400  1.0  0.0722
  C  C653  1  0.391700  0.123100  0.313700  1.0  -0.1422
  C  C654  1  0.369700  0.127700  0.270400  1.0  -0.0458
  C  C655  1  0.332700  0.134600  0.256200  1.0  -0.1168
  C  C656  1  0.319100  0.137300  0.286400  1.0  -0.0551
  C  C657  1  0.341700  0.133700  0.330100  1.0  -0.126
  C  C658  1  0.308300  0.137500  0.208700  1.0  0.7045
  C  C659  1  0.409600  0.986500  0.619600  1.0  0.0467
  C  C660  1  0.372800  0.993300  0.604800  1.0  -0.1546
  C  C661  1  0.348400  0.969300  0.600100  1.0  -0.0428
  C  C662  1  0.359900  0.938200  0.611000  1.0  -0.1338
  C  C663  1  0.397200  0.931800  0.628200  1.0  -0.0505
  C  C664  1  0.421400  0.956000  0.632300  1.0  -0.1279
  C  C665  1  0.332000  0.912300  0.602400  1.0  0.7148
  C  C666  1  0.930300  0.985500  0.158500  1.0  0.0221
  C  C667  1  0.944800  0.010700  0.186900  1.0  -0.1034
  C  C668  1  0.924000  0.033300  0.194100  1.0  -0.1035
  C  C669  1  0.886800  0.032300  0.171400  1.0  -0.0361
  C  C670  1  0.871100  0.008700  0.142300  1.0  -0.059
  C  C671  1  0.892400  0.985700  0.136200  1.0  -0.0635
  C  C672  1  0.019400  0.979000  0.106500  1.0  0.1782
  C  C673  1  0.052000  0.968200  0.101000  1.0  -0.1196
  C  C674  1  0.058900  0.936100  0.095400  1.0  0.2912
  C  C675  1  0.089900  0.929700  0.087900  1.0  -0.0634
  C  C676  1  0.112100  0.955000  0.087600  1.0  -0.1229
  C  C677  1  0.105800  0.986400  0.094000  1.0  0.0082
  C  C678  1  0.075000  0.992100  0.100100  1.0  -0.1085
  C  C679  1  0.100600  0.898300  0.082100  1.0  0.1791
  C  C680  1  0.034400  0.922400  0.229700  1.0  0.1674
  C  C681  1  0.063700  0.899500  0.240100  1.0  -0.0379
  C  C682  1  0.068700  0.879800  0.209300  1.0  0.2866
  C  C683  1  0.099100  0.858500  0.224400  1.0  -0.0523
  C  C684  1  0.121900  0.857000  0.268700  1.0  -0.118
  C  C685  1  0.117000  0.876100  0.298400  1.0  -0.0018
  C  C686  1  0.088200  0.897200  0.283800  1.0  -0.0603
  C  C687  1  0.108300  0.838100  0.196800  1.0  0.1669
  C  C688  1  0.925900  0.885500  0.100100  1.0  0.1839
  C  C689  1  0.934000  0.855600  0.085800  1.0  -0.0828
  C  C690  1  0.967100  0.848900  0.082500  1.0  0.2921
  C  C691  1  0.971300  0.817700  0.069700  1.0  -0.0691
  C  C692  1  0.944900  0.794500  0.062600  1.0  -0.0955
  C  C693  1  0.913000  0.801000  0.066500  1.0  0.0174
  C  C694  1  0.908200  0.831300  0.077700  1.0  -0.0839
  C  C695  1  0.003300  0.807000  0.065000  1.0  0.1766
  C  C696  1  0.120200  0.788300  0.085000  1.0  0.04
  C  C697  1  0.151400  0.774900  0.116900  1.0  -0.065
  C  C698  1  0.110000  0.775200  0.044300  1.0  -0.1146
  C  C699  1  0.170600  0.750100  0.110000  1.0  -0.106
  C  C700  1  0.128600  0.750900  0.036100  1.0  -0.0609
  C  C701  1  0.159100  0.738500  0.069100  1.0  -0.0189
  C  C702  1  0.130900  0.012000  0.095600  1.0  0.0566
  C  C703  1  0.132200  0.040700  0.115800  1.0  -0.1131
  C  C704  1  0.156700  0.064000  0.118800  1.0  -0.0847
  C  C705  1  0.181100  0.059600  0.101100  1.0  -0.1142
  C  C706  1  0.180400  0.030800  0.081400  1.0  -0.0291
  C  C707  1  0.155800  0.007600  0.078500  1.0  -0.1373
  C  C708  1  0.207200  0.084800  0.102000  1.0  0.7323
  C  C709  1  0.142400  0.874400  0.344800  1.0  0.0466
  C  C710  1  0.152300  0.900900  0.371400  1.0  -0.0658
  C  C711  1  0.175700  0.898600  0.414700  1.0  -0.0434
  C  C712  1  0.189200  0.869000  0.432800  1.0  -0.1322
  C  C713  1  0.179700  0.842400  0.406100  1.0  -0.0243
  C  C714  1  0.156800  0.845100  0.362800  1.0  -0.1434
  C  C715  1  0.213100  0.865000  0.480400  1.0  0.7494
  C  C716  1  0.886300  0.775400  0.061000  1.0  0.0695
  C  C717  1  0.898300  0.745100  0.077200  1.0  -0.1359
  C  C718  1  0.873700  0.722400  0.076200  1.0  -0.0363
  C  C719  1  0.836800  0.728700  0.059600  1.0  -0.1184
  C  C720  1  0.824400  0.758400  0.042000  1.0  -0.0493
  C  C721  1  0.848800  0.781000  0.042300  1.0  -0.1173
  C  C722  1  0.810100  0.704200  0.060300  1.0  0.7059
  C  C723  1  0.086200  0.508300  0.518500  1.0  0.0316
  C  C724  1  0.118700  0.515500  0.516200  1.0  -0.0849
  C  C725  1  0.138300  0.493400  0.505200  1.0  -0.0694
  C  C726  1  0.125200  0.463000  0.495100  1.0  -0.0575
  C  C727  1  0.093100  0.455500  0.496400  1.0  -0.0276
  C  C728  1  0.074000  0.477300  0.507700  1.0  -0.0947
  C  C729  1  0.096300  0.612000  0.575000  1.0  0.1784
  C  C730  1  0.087500  0.643800  0.586800  1.0  -0.0526
  C  C731  1  0.056500  0.650400  0.593300  1.0  0.2976
  C  C732  1  0.052000  0.682000  0.604200  1.0  -0.0853
  C  C733  1  0.078600  0.704800  0.608500  1.0  -0.0994
  C  C734  1  0.108600  0.697500  0.601300  1.0  0.0228
  C  C735  1  0.113100  0.666800  0.590700  1.0  -0.099
  C  C736  1  0.021200  0.693200  0.610400  1.0  0.1569
  C  C737  1  0.985900  0.575900  0.456700  1.0  0.1905
  C  C738  1  0.956100  0.597600  0.447200  1.0  -0.1091
  C  C739  1  0.950000  0.614200  0.479800  1.0  0.2543
  C  C740  1  0.919300  0.635000  0.466300  1.0  -0.1015
  C  C741  1  0.895900  0.638200  0.422100  1.0  -0.0592
  C  C742  1  0.902100  0.622000  0.391100  1.0  -0.0101
  C  C743  1  0.932200  0.602100  0.403600  1.0  -0.0671
  C  C744  1  0.911000  0.654100  0.495700  1.0  0.1744
  C  C745  1  0.009900  0.518300  0.586100  1.0  0.1629
  C  C746  1  0.983500  0.528600  0.600900  1.0  -0.0398
  C  C747  1  0.976200  0.561300  0.605600  1.0  0.2282
  C  C748  1  0.948700  0.567800  0.619700  1.0  -0.0278
  C  C749  1  0.928500  0.543100  0.626300  1.0  -0.0444
  C  C750  1  0.934800  0.511800  0.619500  1.0  -0.0116
  C  C751  1  0.962800  0.504900  0.608300  1.0  -0.0718
  C  C752  1  0.938900  0.599300  0.626800  1.0  0.1829
  C  C753  1  0.911200  0.706500  0.614800  1.0  0.0736
  C  C754  1  0.913100  0.709400  0.656100  1.0  -0.0966
  C  C755  1  0.894200  0.732100  0.666900  1.0  -0.0914
  C  C756  1  0.873400  0.753900  0.637200  1.0  -0.0416
  C  C757  1  0.871400  0.752900  0.596500  1.0  -0.1047
  C  C758  1  0.889500  0.729200  0.586000  1.0  -0.0674
  C  C759  1  0.134100  0.722500  0.601300  1.0  0.0495
  C  C760  1  0.144400  0.724200  0.567900  1.0  -0.1349
  C  C761  1  0.166400  0.748600  0.566300  1.0  -0.0442
  C  C762  1  0.179700  0.771200  0.598800  1.0  -0.1262
  C  C763  1  0.170300  0.768700  0.632900  1.0  -0.0515
  C  C764  1  0.147400  0.745200  0.633700  1.0  -0.1142
  C  C765  1  0.203000  0.798100  0.596700  1.0  0.7404
  C  C766  1  0.878300  0.626200  0.344400  1.0  0.0722
  C  C767  1  0.891700  0.623100  0.313700  1.0  -0.1422
  C  C768  1  0.869700  0.627700  0.270400  1.0  -0.0458
  C  C769  1  0.832700  0.634600  0.256200  1.0  -0.1168
  C  C770  1  0.819100  0.637300  0.286400  1.0  -0.0551
  C  C771  1  0.841700  0.633700  0.330100  1.0  -0.126
  C  C772  1  0.808300  0.637500  0.208700  1.0  0.7045
  C  C773  1  0.909600  0.486500  0.619600  1.0  0.0467
  C  C774  1  0.872800  0.493300  0.604800  1.0  -0.1546
  C  C775  1  0.848400  0.469300  0.600100  1.0  -0.0428
  C  C776  1  0.859900  0.438200  0.611000  1.0  -0.1338
  C  C777  1  0.897200  0.431800  0.628200  1.0  -0.0505
  C  C778  1  0.921400  0.456000  0.632300  1.0  -0.1279
  C  C779  1  0.832000  0.412300  0.602400  1.0  0.7148
  C  C780  1  0.430300  0.485500  0.158500  1.0  0.0221
  C  C781  1  0.444800  0.510700  0.186900  1.0  -0.1034
  C  C782  1  0.424000  0.533300  0.194100  1.0  -0.1035
  C  C783  1  0.386800  0.532300  0.171400  1.0  -0.0361
  C  C784  1  0.371100  0.508700  0.142300  1.0  -0.059
  C  C785  1  0.392400  0.485700  0.136200  1.0  -0.0635
  C  C786  1  0.519400  0.479000  0.106500  1.0  0.1782
  C  C787  1  0.552000  0.468200  0.101000  1.0  -0.1196
  C  C788  1  0.558900  0.436100  0.095400  1.0  0.2912
  C  C789  1  0.589900  0.429700  0.087900  1.0  -0.0634
  C  C790  1  0.612100  0.455000  0.087600  1.0  -0.1229
  C  C791  1  0.605800  0.486400  0.094000  1.0  0.0082
  C  C792  1  0.575000  0.492100  0.100100  1.0  -0.1085
  C  C793  1  0.600600  0.398300  0.082100  1.0  0.1791
  C  C794  1  0.534400  0.422400  0.229700  1.0  0.1674
  C  C795  1  0.563700  0.399500  0.240100  1.0  -0.0379
  C  C796  1  0.568700  0.379800  0.209300  1.0  0.2866
  C  C797  1  0.599100  0.358500  0.224400  1.0  -0.0523
  C  C798  1  0.621900  0.357000  0.268700  1.0  -0.118
  C  C799  1  0.617000  0.376100  0.298400  1.0  -0.0018
  C  C800  1  0.588200  0.397200  0.283800  1.0  -0.0603
  C  C801  1  0.608300  0.338100  0.196800  1.0  0.1669
  C  C802  1  0.425900  0.385500  0.100100  1.0  0.1839
  C  C803  1  0.434000  0.355600  0.085800  1.0  -0.0828
  C  C804  1  0.467100  0.348900  0.082500  1.0  0.2921
  C  C805  1  0.471300  0.317700  0.069700  1.0  -0.0691
  C  C806  1  0.444900  0.294500  0.062600  1.0  -0.0955
  C  C807  1  0.413000  0.301000  0.066500  1.0  0.0174
  C  C808  1  0.408200  0.331300  0.077700  1.0  -0.0839
  C  C809  1  0.503300  0.307000  0.065000  1.0  0.1766
  C  C810  1  0.620200  0.288300  0.085000  1.0  0.04
  C  C811  1  0.651400  0.274900  0.116900  1.0  -0.065
  C  C812  1  0.610000  0.275200  0.044300  1.0  -0.1146
  C  C813  1  0.670600  0.250100  0.110000  1.0  -0.106
  C  C814  1  0.628600  0.250900  0.036100  1.0  -0.0609
  C  C815  1  0.659100  0.238500  0.069100  1.0  -0.0189
  C  C816  1  0.630900  0.512000  0.095600  1.0  0.0566
  C  C817  1  0.632200  0.540700  0.115800  1.0  -0.1131
  C  C818  1  0.656700  0.564000  0.118800  1.0  -0.0847
  C  C819  1  0.681100  0.559600  0.101100  1.0  -0.1142
  C  C820  1  0.680400  0.530800  0.081400  1.0  -0.0291
  C  C821  1  0.655800  0.507600  0.078500  1.0  -0.1373
  C  C822  1  0.707200  0.584800  0.102000  1.0  0.7323
  C  C823  1  0.642400  0.374400  0.344800  1.0  0.0466
  C  C824  1  0.652300  0.400900  0.371400  1.0  -0.0658
  C  C825  1  0.675700  0.398600  0.414700  1.0  -0.0434
  C  C826  1  0.689200  0.369000  0.432800  1.0  -0.1322
  C  C827  1  0.679700  0.342400  0.406100  1.0  -0.0243
  C  C828  1  0.656800  0.345100  0.362800  1.0  -0.1434
  C  C829  1  0.713100  0.365000  0.480400  1.0  0.7494
  C  C830  1  0.386300  0.275400  0.061000  1.0  0.0695
  C  C831  1  0.398300  0.245100  0.077200  1.0  -0.1359
  C  C832  1  0.373700  0.222400  0.076200  1.0  -0.0363
  C  C833  1  0.336800  0.228700  0.059600  1.0  -0.1184
  C  C834  1  0.324400  0.258400  0.042000  1.0  -0.0493
  C  C835  1  0.348800  0.281000  0.042300  1.0  -0.1173
  C  C836  1  0.310100  0.204200  0.060300  1.0  0.7059
  C  C837  1  0.586200  0.991700  0.018500  1.0  0.0319
  C  C838  1  0.618700  0.984500  0.016200  1.0  -0.0842
  C  C839  1  0.638300  0.006600  0.005200  1.0  -0.0693
  C  C840  1  0.625200  0.037000  0.995100  1.0  -0.0598
  C  C841  1  0.593100  0.044500  0.996400  1.0  -0.0284
  C  C842  1  0.574000  0.022700  0.007700  1.0  -0.0944
  C  C843  1  0.596300  0.888000  0.075000  1.0  0.1783
  C  C844  1  0.587500  0.856200  0.086800  1.0  -0.0522
  C  C845  1  0.556500  0.849600  0.093300  1.0  0.2977
  C  C846  1  0.552000  0.818000  0.104200  1.0  -0.0858
  C  C847  1  0.578600  0.795200  0.108500  1.0  -0.099
  C  C848  1  0.608600  0.802500  0.101300  1.0  0.0228
  C  C849  1  0.613100  0.833200  0.090700  1.0  -0.0996
  C  C850  1  0.521200  0.806800  0.110400  1.0  0.1561
  C  C851  1  0.485900  0.924100  0.956700  1.0  0.1899
  C  C852  1  0.456100  0.902400  0.947200  1.0  -0.11
  C  C853  1  0.450000  0.885800  0.979800  1.0  0.2547
  C  C854  1  0.419300  0.865000  0.966300  1.0  -0.1029
  C  C855  1  0.395900  0.861800  0.922100  1.0  -0.0596
  C  C856  1  0.402100  0.878000  0.891100  1.0  -0.0103
  C  C857  1  0.432200  0.897900  0.903600  1.0  -0.0668
  C  C858  1  0.411000  0.845900  0.995700  1.0  0.1748
  C  C859  1  0.509900  0.981700  0.086100  1.0  0.1633
  C  C860  1  0.483500  0.971400  0.100900  1.0  -0.0407
  C  C861  1  0.476200  0.938700  0.105600  1.0  0.2293
  C  C862  1  0.448700  0.932200  0.119700  1.0  -0.0275
  C  C863  1  0.428500  0.956900  0.126300  1.0  -0.0441
  C  C864  1  0.434800  0.988200  0.119500  1.0  -0.0134
  C  C865  1  0.462800  0.995100  0.108300  1.0  -0.0708
  C  C866  1  0.438900  0.900700  0.126800  1.0  0.1844
  C  C867  1  0.411200  0.793500  0.114800  1.0  0.0736
  C  C868  1  0.413100  0.790600  0.156100  1.0  -0.0974
  C  C869  1  0.394200  0.767900  0.166900  1.0  -0.0906
  C  C870  1  0.373400  0.746100  0.137200  1.0  -0.041
  C  C871  1  0.371400  0.747100  0.096500  1.0  -0.1025
  C  C872  1  0.389500  0.770800  0.086000  1.0  -0.0666
  C  C873  1  0.634100  0.777500  0.101300  1.0  0.0499
  C  C874  1  0.644400  0.775800  0.067900  1.0  -0.1344
  C  C875  1  0.666400  0.751400  0.066300  1.0  -0.0443
  C  C876  1  0.679700  0.728800  0.098800  1.0  -0.1267
  C  C877  1  0.670300  0.731300  0.132900  1.0  -0.0519
  C  C878  1  0.647400  0.754800  0.133700  1.0  -0.1148
  C  C879  1  0.703000  0.701900  0.096700  1.0  0.7405
  C  C880  1  0.378300  0.873800  0.844400  1.0  0.0723
  C  C881  1  0.391700  0.876900  0.813700  1.0  -0.1426
  C  C882  1  0.369700  0.872300  0.770400  1.0  -0.0458
  C  C883  1  0.332700  0.865400  0.756200  1.0  -0.1172
  C  C884  1  0.319100  0.862700  0.786400  1.0  -0.055
  C  C885  1  0.341700  0.866300  0.830100  1.0  -0.1262
  C  C886  1  0.308300  0.862500  0.708700  1.0  0.7045
  C  C887  1  0.409600  0.013500  0.119600  1.0  0.0469
  C  C888  1  0.372800  0.006700  0.104800  1.0  -0.1543
  C  C889  1  0.348400  0.030700  0.100100  1.0  -0.0424
  C  C890  1  0.359900  0.061800  0.111000  1.0  -0.1325
  C  C891  1  0.397200  0.068200  0.128200  1.0  -0.05
  C  C892  1  0.421400  0.044000  0.132300  1.0  -0.1292
  C  C893  1  0.332000  0.087700  0.102400  1.0  0.7153
  C  C894  1  0.930300  0.014500  0.658500  1.0  0.0212
  C  C895  1  0.944800  0.989300  0.686900  1.0  -0.1034
  C  C896  1  0.924000  0.966700  0.694100  1.0  -0.1034
  C  C897  1  0.886800  0.967700  0.671400  1.0  -0.0347
  C  C898  1  0.871100  0.991300  0.642300  1.0  -0.0585
  C  C899  1  0.892400  0.014300  0.636200  1.0  -0.0629
  C  C900  1  0.019400  0.021000  0.606500  1.0  0.1795
  C  C901  1  0.052000  0.031800  0.601000  1.0  -0.1198
  C  C902  1  0.058900  0.063900  0.595400  1.0  0.2913
  C  C903  1  0.089900  0.070300  0.587900  1.0  -0.0632
  C  C904  1  0.112100  0.045000  0.587600  1.0  -0.1229
  C  C905  1  0.105800  0.013600  0.594000  1.0  0.0079
  C  C906  1  0.075000  0.007900  0.600100  1.0  -0.1071
  C  C907  1  0.100600  0.101700  0.582100  1.0  0.1788
  C  C908  1  0.034400  0.077600  0.729700  1.0  0.167
  C  C909  1  0.063700  0.100500  0.740100  1.0  -0.0379
  C  C910  1  0.068700  0.120200  0.709300  1.0  0.2864
  C  C911  1  0.099100  0.141500  0.724400  1.0  -0.052
  C  C912  1  0.121900  0.143000  0.768700  1.0  -0.1194
  C  C913  1  0.117000  0.123900  0.798400  1.0  -0.0019
  C  C914  1  0.088200  0.102800  0.783800  1.0  -0.0599
  C  C915  1  0.108300  0.161900  0.696800  1.0  0.1661
  C  C916  1  0.925900  0.114500  0.600100  1.0  0.1843
  C  C917  1  0.934000  0.144400  0.585800  1.0  -0.0835
  C  C918  1  0.967100  0.151100  0.582500  1.0  0.292
  C  C919  1  0.971300  0.182300  0.569700  1.0  -0.0692
  C  C920  1  0.944900  0.205500  0.562600  1.0  -0.0969
  C  C921  1  0.913000  0.199000  0.566500  1.0  0.017
  C  C922  1  0.908200  0.168700  0.577700  1.0  -0.0837
  C  C923  1  0.003300  0.193000  0.565000  1.0  0.1758
  C  C924  1  0.120200  0.211700  0.585000  1.0  0.0405
  C  C925  1  0.151400  0.225100  0.616900  1.0  -0.0648
  C  C926  1  0.110000  0.224800  0.544300  1.0  -0.1147
  C  C927  1  0.170600  0.249900  0.610000  1.0  -0.1068
  C  C928  1  0.128600  0.249100  0.536100  1.0  -0.0611
  C  C929  1  0.159100  0.261500  0.569100  1.0  -0.0188
  C  C930  1  0.130900  0.988000  0.595600  1.0  0.0566
  C  C931  1  0.132200  0.959300  0.615800  1.0  -0.1133
  C  C932  1  0.156700  0.936000  0.618800  1.0  -0.0842
  C  C933  1  0.181100  0.940400  0.601100  1.0  -0.115
  C  C934  1  0.180400  0.969200  0.581400  1.0  -0.0292
  C  C935  1  0.155800  0.992400  0.578500  1.0  -0.1377
  C  C936  1  0.207200  0.915200  0.602000  1.0  0.7323
  C  C937  1  0.142400  0.125600  0.844800  1.0  0.0465
  C  C938  1  0.152300  0.099100  0.871400  1.0  -0.0659
  C  C939  1  0.175700  0.101400  0.914700  1.0  -0.0435
  C  C940  1  0.189200  0.131000  0.932800  1.0  -0.1325
  C  C941  1  0.179700  0.157600  0.906100  1.0  -0.0244
  C  C942  1  0.156800  0.154900  0.862800  1.0  -0.1446
  C  C943  1  0.213100  0.135000  0.980400  1.0  0.7503
  C  C944  1  0.886300  0.224600  0.561000  1.0  0.0696
  C  C945  1  0.898300  0.254900  0.577200  1.0  -0.1357
  C  C946  1  0.873700  0.277600  0.576200  1.0  -0.0362
  C  C947  1  0.836800  0.271300  0.559600  1.0  -0.1169
  C  C948  1  0.824400  0.241600  0.542000  1.0  -0.0498
  C  C949  1  0.848800  0.219000  0.542300  1.0  -0.1179
  C  C950  1  0.810100  0.295800  0.560300  1.0  0.7055
  C  C951  1  0.086200  0.491700  0.018500  1.0  0.0319
  C  C952  1  0.118700  0.484500  0.016200  1.0  -0.0842
  C  C953  1  0.138300  0.506600  0.005200  1.0  -0.0693
  C  C954  1  0.125200  0.537000  0.995100  1.0  -0.0598
  C  C955  1  0.093100  0.544500  0.996400  1.0  -0.0284
  C  C956  1  0.074000  0.522700  0.007700  1.0  -0.0944
  C  C957  1  0.096300  0.388000  0.075000  1.0  0.1783
  C  C958  1  0.087500  0.356200  0.086800  1.0  -0.0522
  C  C959  1  0.056500  0.349600  0.093300  1.0  0.2977
  C  C960  1  0.052000  0.318000  0.104200  1.0  -0.0858
  C  C961  1  0.078600  0.295200  0.108500  1.0  -0.099
  C  C962  1  0.108600  0.302500  0.101300  1.0  0.0228
  C  C963  1  0.113100  0.333200  0.090700  1.0  -0.0996
  C  C964  1  0.021200  0.306800  0.110400  1.0  0.1561
  C  C965  1  0.985900  0.424100  0.956700  1.0  0.1899
  C  C966  1  0.956100  0.402400  0.947200  1.0  -0.11
  C  C967  1  0.950000  0.385800  0.979800  1.0  0.2547
  C  C968  1  0.919300  0.365000  0.966300  1.0  -0.1029
  C  C969  1  0.895900  0.361800  0.922100  1.0  -0.0596
  C  C970  1  0.902100  0.378000  0.891100  1.0  -0.0103
  C  C971  1  0.932200  0.397900  0.903600  1.0  -0.0668
  C  C972  1  0.911000  0.345900  0.995700  1.0  0.1748
  C  C973  1  0.009900  0.481700  0.086100  1.0  0.1633
  C  C974  1  0.983500  0.471400  0.100900  1.0  -0.0407
  C  C975  1  0.976200  0.438700  0.105600  1.0  0.2293
  C  C976  1  0.948700  0.432200  0.119700  1.0  -0.0275
  C  C977  1  0.928500  0.456900  0.126300  1.0  -0.0441
  C  C978  1  0.934800  0.488200  0.119500  1.0  -0.0134
  C  C979  1  0.962800  0.495100  0.108300  1.0  -0.0708
  C  C980  1  0.938900  0.400700  0.126800  1.0  0.1844
  C  C981  1  0.911200  0.293500  0.114800  1.0  0.0736
  C  C982  1  0.913100  0.290600  0.156100  1.0  -0.0974
  C  C983  1  0.894200  0.267900  0.166900  1.0  -0.0906
  C  C984  1  0.873400  0.246100  0.137200  1.0  -0.041
  C  C985  1  0.871400  0.247100  0.096500  1.0  -0.1025
  C  C986  1  0.889500  0.270800  0.086000  1.0  -0.0666
  C  C987  1  0.134100  0.277500  0.101300  1.0  0.0499
  C  C988  1  0.144400  0.275800  0.067900  1.0  -0.1344
  C  C989  1  0.166400  0.251400  0.066300  1.0  -0.0443
  C  C990  1  0.179700  0.228800  0.098800  1.0  -0.1267
  C  C991  1  0.170300  0.231300  0.132900  1.0  -0.0519
  C  C992  1  0.147400  0.254800  0.133700  1.0  -0.1148
  C  C993  1  0.203000  0.201900  0.096700  1.0  0.7405
  C  C994  1  0.878300  0.373800  0.844400  1.0  0.0723
  C  C995  1  0.891700  0.376900  0.813700  1.0  -0.1426
  C  C996  1  0.869700  0.372300  0.770400  1.0  -0.0458
  C  C997  1  0.832700  0.365400  0.756200  1.0  -0.1172
  C  C998  1  0.819100  0.362700  0.786400  1.0  -0.055
  C  C999  1  0.841700  0.366300  0.830100  1.0  -0.1262
  C  C1000  1  0.808300  0.362500  0.708700  1.0  0.7045
  C  C1001  1  0.909600  0.513500  0.119600  1.0  0.0469
  C  C1002  1  0.872800  0.506700  0.104800  1.0  -0.1543
  C  C1003  1  0.848400  0.530700  0.100100  1.0  -0.0424
  C  C1004  1  0.859900  0.561800  0.111000  1.0  -0.1325
  C  C1005  1  0.897200  0.568200  0.128200  1.0  -0.05
  C  C1006  1  0.921400  0.544000  0.132300  1.0  -0.1292
  C  C1007  1  0.832000  0.587700  0.102400  1.0  0.7153
  C  C1008  1  0.430300  0.514500  0.658500  1.0  0.0212
  C  C1009  1  0.444800  0.489300  0.686900  1.0  -0.1034
  C  C1010  1  0.424000  0.466700  0.694100  1.0  -0.1034
  C  C1011  1  0.386800  0.467700  0.671400  1.0  -0.0347
  C  C1012  1  0.371100  0.491300  0.642300  1.0  -0.0585
  C  C1013  1  0.392400  0.514300  0.636200  1.0  -0.0629
  C  C1014  1  0.519400  0.521000  0.606500  1.0  0.1795
  C  C1015  1  0.552000  0.531800  0.601000  1.0  -0.1198
  C  C1016  1  0.558900  0.563900  0.595400  1.0  0.2913
  C  C1017  1  0.589900  0.570300  0.587900  1.0  -0.0632
  C  C1018  1  0.612100  0.545000  0.587600  1.0  -0.1229
  C  C1019  1  0.605800  0.513600  0.594000  1.0  0.0079
  C  C1020  1  0.575000  0.507900  0.600100  1.0  -0.1071
  C  C1021  1  0.600600  0.601700  0.582100  1.0  0.1788
  C  C1022  1  0.534400  0.577600  0.729700  1.0  0.167
  C  C1023  1  0.563700  0.600500  0.740100  1.0  -0.0379
  C  C1024  1  0.568700  0.620200  0.709300  1.0  0.2864
  C  C1025  1  0.599100  0.641500  0.724400  1.0  -0.052
  C  C1026  1  0.621900  0.643000  0.768700  1.0  -0.1194
  C  C1027  1  0.617000  0.623900  0.798400  1.0  -0.0019
  C  C1028  1  0.588200  0.602800  0.783800  1.0  -0.0599
  C  C1029  1  0.608300  0.661900  0.696800  1.0  0.1661
  C  C1030  1  0.425900  0.614500  0.600100  1.0  0.1843
  C  C1031  1  0.434000  0.644400  0.585800  1.0  -0.0835
  C  C1032  1  0.467100  0.651100  0.582500  1.0  0.292
  C  C1033  1  0.471300  0.682300  0.569700  1.0  -0.0692
  C  C1034  1  0.444900  0.705500  0.562600  1.0  -0.0969
  C  C1035  1  0.413000  0.699000  0.566500  1.0  0.017
  C  C1036  1  0.408200  0.668700  0.577700  1.0  -0.0837
  C  C1037  1  0.503300  0.693000  0.565000  1.0  0.1758
  C  C1038  1  0.620200  0.711700  0.585000  1.0  0.0405
  C  C1039  1  0.651400  0.725100  0.616900  1.0  -0.0648
  C  C1040  1  0.610000  0.724800  0.544300  1.0  -0.1147
  C  C1041  1  0.670600  0.749900  0.610000  1.0  -0.1068
  C  C1042  1  0.628600  0.749100  0.536100  1.0  -0.0611
  C  C1043  1  0.659100  0.761500  0.569100  1.0  -0.0188
  C  C1044  1  0.630900  0.488000  0.595600  1.0  0.0566
  C  C1045  1  0.632200  0.459300  0.615800  1.0  -0.1133
  C  C1046  1  0.656700  0.436000  0.618800  1.0  -0.0842
  C  C1047  1  0.681100  0.440400  0.601100  1.0  -0.115
  C  C1048  1  0.680400  0.469200  0.581400  1.0  -0.0292
  C  C1049  1  0.655800  0.492400  0.578500  1.0  -0.1377
  C  C1050  1  0.707200  0.415200  0.602000  1.0  0.7323
  C  C1051  1  0.642400  0.625600  0.844800  1.0  0.0465
  C  C1052  1  0.652300  0.599100  0.871400  1.0  -0.0659
  C  C1053  1  0.675700  0.601400  0.914700  1.0  -0.0435
  C  C1054  1  0.689200  0.631000  0.932800  1.0  -0.1325
  C  C1055  1  0.679700  0.657600  0.906100  1.0  -0.0244
  C  C1056  1  0.656800  0.654900  0.862800  1.0  -0.1446
  C  C1057  1  0.713100  0.635000  0.980400  1.0  0.7503
  C  C1058  1  0.386300  0.724600  0.561000  1.0  0.0696
  C  C1059  1  0.398300  0.754900  0.577200  1.0  -0.1357
  C  C1060  1  0.373700  0.777600  0.576200  1.0  -0.0362
  C  C1061  1  0.336800  0.771300  0.559600  1.0  -0.1169
  C  C1062  1  0.324400  0.741600  0.542000  1.0  -0.0498
  C  C1063  1  0.348800  0.719000  0.542300  1.0  -0.1179
  C  C1064  1  0.310100  0.795800  0.560300  1.0  0.7055
  C  C1065  1  0.413800  0.008300  0.981500  1.0  0.031
  C  C1066  1  0.381300  0.015500  0.983800  1.0  -0.0849
  C  C1067  1  0.361700  0.993400  0.994800  1.0  -0.0653
  C  C1068  1  0.374800  0.963000  0.004900  1.0  -0.06
  C  C1069  1  0.406900  0.955500  0.003600  1.0  -0.0273
  C  C1070  1  0.426000  0.977300  0.992300  1.0  -0.0971
  C  C1071  1  0.403700  0.112000  0.925000  1.0  0.1794
  C  C1072  1  0.412500  0.143800  0.913200  1.0  -0.0522
  C  C1073  1  0.443500  0.150400  0.906700  1.0  0.2987
  C  C1074  1  0.448000  0.182000  0.895800  1.0  -0.0845
  C  C1075  1  0.421400  0.204800  0.891500  1.0  -0.1004
  C  C1076  1  0.391400  0.197500  0.898700  1.0  0.0228
  C  C1077  1  0.386900  0.166800  0.909300  1.0  -0.1003
  C  C1078  1  0.478800  0.193200  0.889600  1.0  0.1573
  C  C1079  1  0.514100  0.075900  0.043300  1.0  0.1905
  C  C1080  1  0.543900  0.097600  0.052800  1.0  -0.1083
  C  C1081  1  0.550000  0.114200  0.020200  1.0  0.2543
  C  C1082  1  0.580700  0.135000  0.033700  1.0  -0.1015
  C  C1083  1  0.604100  0.138200  0.077900  1.0  -0.0587
  C  C1084  1  0.597900  0.122000  0.108900  1.0  -0.0095
  C  C1085  1  0.567800  0.102100  0.096400  1.0  -0.0685
  C  C1086  1  0.589000  0.154100  0.004300  1.0  0.1746
  C  C1087  1  0.490100  0.018300  0.913900  1.0  0.1609
  C  C1088  1  0.516500  0.028600  0.899100  1.0  -0.0394
  C  C1089  1  0.523800  0.061300  0.894400  1.0  0.2309
  C  C1090  1  0.551300  0.067800  0.880300  1.0  -0.0267
  C  C1091  1  0.571500  0.043100  0.873700  1.0  -0.045
  C  C1092  1  0.565200  0.011800  0.880500  1.0  -0.0145
  C  C1093  1  0.537200  0.004900  0.891700  1.0  -0.0721
  C  C1094  1  0.561100  0.099300  0.873200  1.0  0.1822
  C  C1095  1  0.588800  0.206500  0.885200  1.0  0.0722
  C  C1096  1  0.586900  0.209400  0.843900  1.0  -0.1016
  C  C1097  1  0.605800  0.232100  0.833100  1.0  -0.0906
  C  C1098  1  0.626600  0.253900  0.862800  1.0  -0.0452
  C  C1099  1  0.628600  0.252900  0.903500  1.0  -0.1034
  C  C1100  1  0.610500  0.229200  0.914000  1.0  -0.0653
  C  C1101  1  0.365900  0.222500  0.898700  1.0  0.0497
  C  C1102  1  0.355600  0.224200  0.932100  1.0  -0.1326
  C  C1103  1  0.333600  0.248600  0.933700  1.0  -0.0457
  C  C1104  1  0.320300  0.271200  0.901200  1.0  -0.1269
  C  C1105  1  0.329700  0.268700  0.867100  1.0  -0.0517
  C  C1106  1  0.352600  0.245200  0.866300  1.0  -0.1142
  C  C1107  1  0.297000  0.298100  0.903300  1.0  0.7396
  C  C1108  1  0.621700  0.126200  0.155600  1.0  0.0721
  C  C1109  1  0.608300  0.123100  0.186300  1.0  -0.1436
  C  C1110  1  0.630300  0.127700  0.229600  1.0  -0.0456
  C  C1111  1  0.667300  0.134600  0.243800  1.0  -0.1166
  C  C1112  1  0.680900  0.137300  0.213600  1.0  -0.0537
  C  C1113  1  0.658300  0.133700  0.169900  1.0  -0.1243
  C  C1114  1  0.691700  0.137500  0.291300  1.0  0.7059
  C  C1115  1  0.590400  0.986500  0.880400  1.0  0.0465
  C  C1116  1  0.627200  0.993300  0.895200  1.0  -0.1559
  C  C1117  1  0.651600  0.969300  0.899900  1.0  -0.0398
  C  C1118  1  0.640100  0.938200  0.889000  1.0  -0.1337
  C  C1119  1  0.602800  0.931800  0.871800  1.0  -0.0503
  C  C1120  1  0.578600  0.956000  0.867700  1.0  -0.1292
  C  C1121  1  0.668000  0.912300  0.897600  1.0  0.7144
  C  C1122  1  0.069700  0.985500  0.341500  1.0  0.0225
  C  C1123  1  0.055200  0.010700  0.313100  1.0  -0.1043
  C  C1124  1  0.076000  0.033300  0.305900  1.0  -0.1047
  C  C1125  1  0.113200  0.032300  0.328600  1.0  -0.0395
  C  C1126  1  0.128900  0.008700  0.357700  1.0  -0.0562
  C  C1127  1  0.107600  0.985700  0.363800  1.0  -0.0639
  C  C1128  1  0.980600  0.979000  0.393500  1.0  0.1774
  C  C1129  1  0.948000  0.968200  0.399000  1.0  -0.1201
  C  C1130  1  0.941100  0.936100  0.404600  1.0  0.2913
  C  C1131  1  0.910100  0.929700  0.412100  1.0  -0.0627
  C  C1132  1  0.887900  0.955000  0.412400  1.0  -0.123
  C  C1133  1  0.894200  0.986400  0.406000  1.0  0.008
  C  C1134  1  0.925000  0.992100  0.399900  1.0  -0.107
  C  C1135  1  0.899400  0.898300  0.417900  1.0  0.1809
  C  C1136  1  0.965600  0.922400  0.270300  1.0  0.1704
  C  C1137  1  0.936300  0.899500  0.259900  1.0  -0.0382
  C  C1138  1  0.931300  0.879800  0.290700  1.0  0.2884
  C  C1139  1  0.900900  0.858500  0.275600  1.0  -0.052
  C  C1140  1  0.878100  0.857000  0.231300  1.0  -0.1196
  C  C1141  1  0.883000  0.876100  0.201600  1.0  -0.0017
  C  C1142  1  0.911800  0.897200  0.216200  1.0  -0.0605
  C  C1143  1  0.891700  0.838100  0.303200  1.0  0.1668
  C  C1144  1  0.074100  0.885500  0.399900  1.0  0.1843
  C  C1145  1  0.066000  0.855600  0.414200  1.0  -0.0834
  C  C1146  1  0.032900  0.848900  0.417500  1.0  0.2913
  C  C1147  1  0.028700  0.817700  0.430300  1.0  -0.0691
  C  C1148  1  0.055100  0.794500  0.437400  1.0  -0.0967
  C  C1149  1  0.087000  0.801000  0.433500  1.0  0.0168
  C  C1150  1  0.091800  0.831300  0.422300  1.0  -0.0833
  C  C1151  1  0.996700  0.807000  0.435000  1.0  0.1766
  C  C1152  1  0.879800  0.788300  0.415000  1.0  0.0404
  C  C1153  1  0.848600  0.774900  0.383100  1.0  -0.0672
  C  C1154  1  0.890000  0.775200  0.455700  1.0  -0.1141
  C  C1155  1  0.829400  0.750100  0.390000  1.0  -0.1074
  C  C1156  1  0.871400  0.750900  0.463900  1.0  -0.0584
  C  C1157  1  0.840900  0.738500  0.430900  1.0  -0.0173
  C  C1158  1  0.869100  0.012000  0.404400  1.0  0.0563
  C  C1159  1  0.867800  0.040700  0.384200  1.0  -0.1161
  C  C1160  1  0.843300  0.064000  0.381200  1.0  -0.0851
  C  C1161  1  0.818900  0.059600  0.398900  1.0  -0.1146
  C  C1162  1  0.819600  0.030800  0.418600  1.0  -0.0283
  C  C1163  1  0.844200  0.007600  0.421500  1.0  -0.1367
  C  C1164  1  0.792800  0.084800  0.398000  1.0  0.7324
  C  C1165  1  0.857600  0.874400  0.155200  1.0  0.0476
  C  C1166  1  0.847700  0.900900  0.128600  1.0  -0.0638
  C  C1167  1  0.824300  0.898600  0.085300  1.0  -0.0435
  C  C1168  1  0.810800  0.869000  0.067200  1.0  -0.1305
  C  C1169  1  0.820300  0.842400  0.093900  1.0  -0.0229
  C  C1170  1  0.843200  0.845100  0.137200  1.0  -0.1426
  C  C1171  1  0.786900  0.865000  0.019600  1.0  0.7497
  C  C1172  1  0.113700  0.775400  0.439000  1.0  0.0689
  C  C1173  1  0.101700  0.745100  0.422800  1.0  -0.1345
  C  C1174  1  0.126300  0.722400  0.423800  1.0  -0.0359
  C  C1175  1  0.163200  0.728700  0.440400  1.0  -0.1178
  C  C1176  1  0.175600  0.758400  0.458000  1.0  -0.0517
  C  C1177  1  0.151200  0.781000  0.457700  1.0  -0.1178
  C  C1178  1  0.189900  0.704200  0.439700  1.0  0.7063
  C  C1179  1  0.913800  0.508300  0.981500  1.0  0.031
  C  C1180  1  0.881300  0.515500  0.983800  1.0  -0.0849
  C  C1181  1  0.861700  0.493400  0.994800  1.0  -0.0653
  C  C1182  1  0.874800  0.463000  0.004900  1.0  -0.06
  C  C1183  1  0.906900  0.455500  0.003600  1.0  -0.0273
  C  C1184  1  0.926000  0.477300  0.992300  1.0  -0.0971
  C  C1185  1  0.903700  0.612000  0.925000  1.0  0.1794
  C  C1186  1  0.912500  0.643800  0.913200  1.0  -0.0522
  C  C1187  1  0.943500  0.650400  0.906700  1.0  0.2987
  C  C1188  1  0.948000  0.682000  0.895800  1.0  -0.0845
  C  C1189  1  0.921400  0.704800  0.891500  1.0  -0.1004
  C  C1190  1  0.891400  0.697500  0.898700  1.0  0.0228
  C  C1191  1  0.886900  0.666800  0.909300  1.0  -0.1003
  C  C1192  1  0.978800  0.693200  0.889600  1.0  0.1573
  C  C1193  1  0.014100  0.575900  0.043300  1.0  0.1905
  C  C1194  1  0.043900  0.597600  0.052800  1.0  -0.1083
  C  C1195  1  0.050000  0.614200  0.020200  1.0  0.2543
  C  C1196  1  0.080700  0.635000  0.033700  1.0  -0.1015
  C  C1197  1  0.104100  0.638200  0.077900  1.0  -0.0587
  C  C1198  1  0.097900  0.622000  0.108900  1.0  -0.0095
  C  C1199  1  0.067800  0.602100  0.096400  1.0  -0.0685
  C  C1200  1  0.089000  0.654100  0.004300  1.0  0.1746
  C  C1201  1  0.990100  0.518300  0.913900  1.0  0.1609
  C  C1202  1  0.016500  0.528600  0.899100  1.0  -0.0394
  C  C1203  1  0.023800  0.561300  0.894400  1.0  0.2309
  C  C1204  1  0.051300  0.567800  0.880300  1.0  -0.0267
  C  C1205  1  0.071500  0.543100  0.873700  1.0  -0.045
  C  C1206  1  0.065200  0.511800  0.880500  1.0  -0.0145
  C  C1207  1  0.037200  0.504900  0.891700  1.0  -0.0721
  C  C1208  1  0.061100  0.599300  0.873200  1.0  0.1822
  C  C1209  1  0.088800  0.706500  0.885200  1.0  0.0722
  C  C1210  1  0.086900  0.709400  0.843900  1.0  -0.1016
  C  C1211  1  0.105800  0.732100  0.833100  1.0  -0.0906
  C  C1212  1  0.126600  0.753900  0.862800  1.0  -0.0452
  C  C1213  1  0.128600  0.752900  0.903500  1.0  -0.1034
  C  C1214  1  0.110500  0.729200  0.914000  1.0  -0.0653
  C  C1215  1  0.865900  0.722500  0.898700  1.0  0.0497
  C  C1216  1  0.855600  0.724200  0.932100  1.0  -0.1326
  C  C1217  1  0.833600  0.748600  0.933700  1.0  -0.0457
  C  C1218  1  0.820300  0.771200  0.901200  1.0  -0.1269
  C  C1219  1  0.829700  0.768700  0.867100  1.0  -0.0517
  C  C1220  1  0.852600  0.745200  0.866300  1.0  -0.1142
  C  C1221  1  0.797000  0.798100  0.903300  1.0  0.7396
  C  C1222  1  0.121700  0.626200  0.155600  1.0  0.0721
  C  C1223  1  0.108300  0.623100  0.186300  1.0  -0.1436
  C  C1224  1  0.130300  0.627700  0.229600  1.0  -0.0456
  C  C1225  1  0.167300  0.634600  0.243800  1.0  -0.1166
  C  C1226  1  0.180900  0.637300  0.213600  1.0  -0.0537
  C  C1227  1  0.158300  0.633700  0.169900  1.0  -0.1243
  C  C1228  1  0.191700  0.637500  0.291300  1.0  0.7059
  C  C1229  1  0.090400  0.486500  0.880400  1.0  0.0465
  C  C1230  1  0.127200  0.493300  0.895200  1.0  -0.1559
  C  C1231  1  0.151600  0.469300  0.899900  1.0  -0.0398
  C  C1232  1  0.140100  0.438200  0.889000  1.0  -0.1337
  C  C1233  1  0.102800  0.431800  0.871800  1.0  -0.0503
  C  C1234  1  0.078600  0.456000  0.867700  1.0  -0.1292
  C  C1235  1  0.168000  0.412300  0.897600  1.0  0.7144
  C  C1236  1  0.569700  0.485500  0.341500  1.0  0.0225
  C  C1237  1  0.555200  0.510700  0.313100  1.0  -0.1043
  C  C1238  1  0.576000  0.533300  0.305900  1.0  -0.1047
  C  C1239  1  0.613200  0.532300  0.328600  1.0  -0.0395
  C  C1240  1  0.628900  0.508700  0.357700  1.0  -0.0562
  C  C1241  1  0.607600  0.485700  0.363800  1.0  -0.0639
  C  C1242  1  0.480600  0.479000  0.393500  1.0  0.1774
  C  C1243  1  0.448000  0.468200  0.399000  1.0  -0.1201
  C  C1244  1  0.441100  0.436100  0.404600  1.0  0.2913
  C  C1245  1  0.410100  0.429700  0.412100  1.0  -0.0627
  C  C1246  1  0.387900  0.455000  0.412400  1.0  -0.123
  C  C1247  1  0.394200  0.486400  0.406000  1.0  0.008
  C  C1248  1  0.425000  0.492100  0.399900  1.0  -0.107
  C  C1249  1  0.399400  0.398300  0.417900  1.0  0.1809
  C  C1250  1  0.465600  0.422400  0.270300  1.0  0.1704
  C  C1251  1  0.436300  0.399500  0.259900  1.0  -0.0382
  C  C1252  1  0.431300  0.379800  0.290700  1.0  0.2884
  C  C1253  1  0.400900  0.358500  0.275600  1.0  -0.052
  C  C1254  1  0.378100  0.357000  0.231300  1.0  -0.1196
  C  C1255  1  0.383000  0.376100  0.201600  1.0  -0.0017
  C  C1256  1  0.411800  0.397200  0.216200  1.0  -0.0605
  C  C1257  1  0.391700  0.338100  0.303200  1.0  0.1668
  C  C1258  1  0.574100  0.385500  0.399900  1.0  0.1843
  C  C1259  1  0.566000  0.355600  0.414200  1.0  -0.0834
  C  C1260  1  0.532900  0.348900  0.417500  1.0  0.2913
  C  C1261  1  0.528700  0.317700  0.430300  1.0  -0.0691
  C  C1262  1  0.555100  0.294500  0.437400  1.0  -0.0967
  C  C1263  1  0.587000  0.301000  0.433500  1.0  0.0168
  C  C1264  1  0.591800  0.331300  0.422300  1.0  -0.0833
  C  C1265  1  0.496700  0.307000  0.435000  1.0  0.1766
  C  C1266  1  0.379800  0.288300  0.415000  1.0  0.0404
  C  C1267  1  0.348600  0.274900  0.383100  1.0  -0.0672
  C  C1268  1  0.390000  0.275200  0.455700  1.0  -0.1141
  C  C1269  1  0.329400  0.250100  0.390000  1.0  -0.1074
  C  C1270  1  0.371400  0.250900  0.463900  1.0  -0.0584
  C  C1271  1  0.340900  0.238500  0.430900  1.0  -0.0173
  C  C1272  1  0.369100  0.512000  0.404400  1.0  0.0563
  C  C1273  1  0.367800  0.540700  0.384200  1.0  -0.1161
  C  C1274  1  0.343300  0.564000  0.381200  1.0  -0.0851
  C  C1275  1  0.318900  0.559600  0.398900  1.0  -0.1146
  C  C1276  1  0.319600  0.530800  0.418600  1.0  -0.0283
  C  C1277  1  0.344200  0.507600  0.421500  1.0  -0.1367
  C  C1278  1  0.292800  0.584800  0.398000  1.0  0.7324
  C  C1279  1  0.357600  0.374400  0.155200  1.0  0.0476
  C  C1280  1  0.347700  0.400900  0.128600  1.0  -0.0638
  C  C1281  1  0.324300  0.398600  0.085300  1.0  -0.0435
  C  C1282  1  0.310800  0.369000  0.067200  1.0  -0.1305
  C  C1283  1  0.320300  0.342400  0.093900  1.0  -0.0229
  C  C1284  1  0.343200  0.345100  0.137200  1.0  -0.1426
  C  C1285  1  0.286900  0.365000  0.019600  1.0  0.7497
  C  C1286  1  0.613700  0.275400  0.439000  1.0  0.0689
  C  C1287  1  0.601700  0.245100  0.422800  1.0  -0.1345
  C  C1288  1  0.626300  0.222400  0.423800  1.0  -0.0359
  C  C1289  1  0.663200  0.228700  0.440400  1.0  -0.1178
  C  C1290  1  0.675600  0.258400  0.458000  1.0  -0.0517
  C  C1291  1  0.651200  0.281000  0.457700  1.0  -0.1178
  C  C1292  1  0.689900  0.204200  0.439700  1.0  0.7063
  C  C1293  1  0.413800  0.991700  0.481500  1.0  0.0303
  C  C1294  1  0.381300  0.984500  0.483800  1.0  -0.0825
  C  C1295  1  0.361700  0.006600  0.494800  1.0  -0.0659
  C  C1296  1  0.374800  0.037000  0.504900  1.0  -0.0577
  C  C1297  1  0.406900  0.044500  0.503600  1.0  -0.0278
  C  C1298  1  0.426000  0.022700  0.492300  1.0  -0.0968
  C  C1299  1  0.403700  0.888000  0.425000  1.0  0.1795
  C  C1300  1  0.412500  0.856200  0.413200  1.0  -0.0513
  C  C1301  1  0.443500  0.849600  0.406700  1.0  0.299
  C  C1302  1  0.448000  0.818000  0.395800  1.0  -0.0846
  C  C1303  1  0.421400  0.795200  0.391500  1.0  -0.099
  C  C1304  1  0.391400  0.802500  0.398700  1.0  0.0229
  C  C1305  1  0.386900  0.833200  0.409300  1.0  -0.101
  C  C1306  1  0.478800  0.806800  0.389600  1.0  0.1575
  C  C1307  1  0.514100  0.924100  0.543300  1.0  0.1907
  C  C1308  1  0.543900  0.902400  0.552800  1.0  -0.109
  C  C1309  1  0.550000  0.885800  0.520200  1.0  0.255
  C  C1310  1  0.580700  0.865000  0.533700  1.0  -0.1034
  C  C1311  1  0.604100  0.861800  0.577900  1.0  -0.0589
  C  C1312  1  0.597900  0.878000  0.608900  1.0  -0.0096
  C  C1313  1  0.567800  0.897900  0.596400  1.0  -0.0679
  C  C1314  1  0.589000  0.845900  0.504300  1.0  0.1747
  C  C1315  1  0.490100  0.981700  0.413900  1.0  0.1595
  C  C1316  1  0.516500  0.971400  0.399100  1.0  -0.041
  C  C1317  1  0.523800  0.938700  0.394400  1.0  0.2315
  C  C1318  1  0.551300  0.932200  0.380300  1.0  -0.0292
  C  C1319  1  0.571500  0.956900  0.373700  1.0  -0.0445
  C  C1320  1  0.565200  0.988200  0.380500  1.0  -0.0138
  C  C1321  1  0.537200  0.995100  0.391700  1.0  -0.0716
  C  C1322  1  0.561100  0.900700  0.373200  1.0  0.1837
  C  C1323  1  0.588800  0.793500  0.385200  1.0  0.0719
  C  C1324  1  0.586900  0.790600  0.343900  1.0  -0.102
  C  C1325  1  0.605800  0.767900  0.333100  1.0  -0.0906
  C  C1326  1  0.626600  0.746100  0.362800  1.0  -0.0441
  C  C1327  1  0.628600  0.747100  0.403500  1.0  -0.1015
  C  C1328  1  0.610500  0.770800  0.414000  1.0  -0.0644
  C  C1329  1  0.365900  0.777500  0.398700  1.0  0.05
  C  C1330  1  0.355600  0.775800  0.432100  1.0  -0.1332
  C  C1331  1  0.333600  0.751400  0.433700  1.0  -0.046
  C  C1332  1  0.320300  0.728800  0.401200  1.0  -0.1284
  C  C1333  1  0.329700  0.731300  0.367100  1.0  -0.0515
  C  C1334  1  0.352600  0.754800  0.366300  1.0  -0.1137
  C  C1335  1  0.297000  0.701900  0.403300  1.0  0.7398
  C  C1336  1  0.621700  0.873800  0.655600  1.0  0.0722
  C  C1337  1  0.608300  0.876900  0.686300  1.0  -0.1437
  C  C1338  1  0.630300  0.872300  0.729600  1.0  -0.0457
  C  C1339  1  0.667300  0.865400  0.743800  1.0  -0.1167
  C  C1340  1  0.680900  0.862700  0.713600  1.0  -0.0543
  C  C1341  1  0.658300  0.866300  0.669900  1.0  -0.1245
  C  C1342  1  0.691700  0.862500  0.791300  1.0  0.706
  C  C1343  1  0.590400  0.013500  0.380400  1.0  0.0463
  C  C1344  1  0.627200  0.006700  0.395200  1.0  -0.1545
  C  C1345  1  0.651600  0.030700  0.399900  1.0  -0.0394
  C  C1346  1  0.640100  0.061800  0.389000  1.0  -0.1327
  C  C1347  1  0.602800  0.068200  0.371800  1.0  -0.0519
  C  C1348  1  0.578600  0.044000  0.367700  1.0  -0.1313
  C  C1349  1  0.668000  0.087700  0.397600  1.0  0.7148
  C  C1350  1  0.069700  0.014500  0.841500  1.0  0.0214
  C  C1351  1  0.055200  0.989300  0.813100  1.0  -0.1035
  C  C1352  1  0.076000  0.966700  0.805900  1.0  -0.1041
  C  C1353  1  0.113200  0.967700  0.828600  1.0  -0.0368
  C  C1354  1  0.128900  0.991300  0.857700  1.0  -0.0576
  C  C1355  1  0.107600  0.014300  0.863800  1.0  -0.0632
  C  C1356  1  0.980600  0.021000  0.893500  1.0  0.1785
  C  C1357  1  0.948000  0.031800  0.899000  1.0  -0.1202
  C  C1358  1  0.941100  0.063900  0.904600  1.0  0.2915
  C  C1359  1  0.910100  0.070300  0.912100  1.0  -0.0625
  C  C1360  1  0.887900  0.045000  0.912400  1.0  -0.1233
  C  C1361  1  0.894200  0.013600  0.906000  1.0  0.0076
  C  C1362  1  0.925000  0.007900  0.899900  1.0  -0.1061
  C  C1363  1  0.899400  0.101700  0.917900  1.0  0.1805
  C  C1364  1  0.965600  0.077600  0.770300  1.0  0.1698
  C  C1365  1  0.936300  0.100500  0.759900  1.0  -0.0383
  C  C1366  1  0.931300  0.120200  0.790700  1.0  0.2882
  C  C1367  1  0.900900  0.141500  0.775600  1.0  -0.0523
  C  C1368  1  0.878100  0.143000  0.731300  1.0  -0.1208
  C  C1369  1  0.883000  0.123900  0.701600  1.0  -0.0016
  C  C1370  1  0.911800  0.102800  0.716200  1.0  -0.0602
  C  C1371  1  0.891700  0.161900  0.803200  1.0  0.1659
  C  C1372  1  0.074100  0.114500  0.899900  1.0  0.1845
  C  C1373  1  0.066000  0.144400  0.914200  1.0  -0.0839
  C  C1374  1  0.032900  0.151100  0.917500  1.0  0.2915
  C  C1375  1  0.028700  0.182300  0.930300  1.0  -0.0688
  C  C1376  1  0.055100  0.205500  0.937400  1.0  -0.0973
  C  C1377  1  0.087000  0.199000  0.933500  1.0  0.0165
  C  C1378  1  0.091800  0.168700  0.922300  1.0  -0.0834
  C  C1379  1  0.996700  0.193000  0.935000  1.0  0.1772
  C  C1380  1  0.879800  0.211700  0.915000  1.0  0.0409
  C  C1381  1  0.848600  0.225100  0.883100  1.0  -0.0673
  C  C1382  1  0.890000  0.224800  0.955700  1.0  -0.1145
  C  C1383  1  0.829400  0.249900  0.890000  1.0  -0.1075
  C  C1384  1  0.871400  0.249100  0.963900  1.0  -0.0589
  C  C1385  1  0.840900  0.261500  0.930900  1.0  -0.017
  C  C1386  1  0.869100  0.988000  0.904400  1.0  0.0561
  C  C1387  1  0.867800  0.959300  0.884200  1.0  -0.1164
  C  C1388  1  0.843300  0.936000  0.881200  1.0  -0.0837
  C  C1389  1  0.818900  0.940400  0.898900  1.0  -0.1157
  C  C1390  1  0.819600  0.969200  0.918600  1.0  -0.0288
  C  C1391  1  0.844200  0.992400  0.921500  1.0  -0.1381
  C  C1392  1  0.792800  0.915200  0.898000  1.0  0.7324
  C  C1393  1  0.857600  0.125600  0.655200  1.0  0.0477
  C  C1394  1  0.847700  0.099100  0.628600  1.0  -0.0654
  C  C1395  1  0.824300  0.101400  0.585300  1.0  -0.0422
  C  C1396  1  0.810800  0.131000  0.567200  1.0  -0.1309
  C  C1397  1  0.820300  0.157600  0.593900  1.0  -0.0233
  C  C1398  1  0.843200  0.154900  0.637200  1.0  -0.1437
  C  C1399  1  0.786900  0.135000  0.519600  1.0  0.7491
  C  C1400  1  0.113700  0.224600  0.939000  1.0  0.0694
  C  C1401  1  0.101700  0.254900  0.922800  1.0  -0.1357
  C  C1402  1  0.126300  0.277600  0.923800  1.0  -0.0358
  C  C1403  1  0.163200  0.271300  0.940400  1.0  -0.1156
  C  C1404  1  0.175600  0.241600  0.958000  1.0  -0.0518
  C  C1405  1  0.151200  0.219000  0.957700  1.0  -0.1185
  C  C1406  1  0.189900  0.295800  0.939700  1.0  0.7065
  C  C1407  1  0.913800  0.491700  0.481500  1.0  0.0303
  C  C1408  1  0.881300  0.484500  0.483800  1.0  -0.0825
  C  C1409  1  0.861700  0.506600  0.494800  1.0  -0.0659
  C  C1410  1  0.874800  0.537000  0.504900  1.0  -0.0577
  C  C1411  1  0.906900  0.544500  0.503600  1.0  -0.0278
  C  C1412  1  0.926000  0.522700  0.492300  1.0  -0.0968
  C  C1413  1  0.903700  0.388000  0.425000  1.0  0.1795
  C  C1414  1  0.912500  0.356200  0.413200  1.0  -0.0513
  C  C1415  1  0.943500  0.349600  0.406700  1.0  0.299
  C  C1416  1  0.948000  0.318000  0.395800  1.0  -0.0846
  C  C1417  1  0.921400  0.295200  0.391500  1.0  -0.099
  C  C1418  1  0.891400  0.302500  0.398700  1.0  0.0229
  C  C1419  1  0.886900  0.333200  0.409300  1.0  -0.101
  C  C1420  1  0.978800  0.306800  0.389600  1.0  0.1575
  C  C1421  1  0.014100  0.424100  0.543300  1.0  0.1907
  C  C1422  1  0.043900  0.402400  0.552800  1.0  -0.109
  C  C1423  1  0.050000  0.385800  0.520200  1.0  0.255
  C  C1424  1  0.080700  0.365000  0.533700  1.0  -0.1034
  C  C1425  1  0.104100  0.361800  0.577900  1.0  -0.0589
  C  C1426  1  0.097900  0.378000  0.608900  1.0  -0.0096
  C  C1427  1  0.067800  0.397900  0.596400  1.0  -0.0679
  C  C1428  1  0.089000  0.345900  0.504300  1.0  0.1747
  C  C1429  1  0.990100  0.481700  0.413900  1.0  0.1595
  C  C1430  1  0.016500  0.471400  0.399100  1.0  -0.041
  C  C1431  1  0.023800  0.438700  0.394400  1.0  0.2315
  C  C1432  1  0.051300  0.432200  0.380300  1.0  -0.0292
  C  C1433  1  0.071500  0.456900  0.373700  1.0  -0.0445
  C  C1434  1  0.065200  0.488200  0.380500  1.0  -0.0138
  C  C1435  1  0.037200  0.495100  0.391700  1.0  -0.0716
  C  C1436  1  0.061100  0.400700  0.373200  1.0  0.1837
  C  C1437  1  0.088800  0.293500  0.385200  1.0  0.0719
  C  C1438  1  0.086900  0.290600  0.343900  1.0  -0.102
  C  C1439  1  0.105800  0.267900  0.333100  1.0  -0.0906
  C  C1440  1  0.126600  0.246100  0.362800  1.0  -0.0441
  C  C1441  1  0.128600  0.247100  0.403500  1.0  -0.1015
  C  C1442  1  0.110500  0.270800  0.414000  1.0  -0.0644
  C  C1443  1  0.865900  0.277500  0.398700  1.0  0.05
  C  C1444  1  0.855600  0.275800  0.432100  1.0  -0.1332
  C  C1445  1  0.833600  0.251400  0.433700  1.0  -0.046
  C  C1446  1  0.820300  0.228800  0.401200  1.0  -0.1284
  C  C1447  1  0.829700  0.231300  0.367100  1.0  -0.0515
  C  C1448  1  0.852600  0.254800  0.366300  1.0  -0.1137
  C  C1449  1  0.797000  0.201900  0.403300  1.0  0.7398
  C  C1450  1  0.121700  0.373800  0.655600  1.0  0.0722
  C  C1451  1  0.108300  0.376900  0.686300  1.0  -0.1437
  C  C1452  1  0.130300  0.372300  0.729600  1.0  -0.0457
  C  C1453  1  0.167300  0.365400  0.743800  1.0  -0.1167
  C  C1454  1  0.180900  0.362700  0.713600  1.0  -0.0543
  C  C1455  1  0.158300  0.366300  0.669900  1.0  -0.1245
  C  C1456  1  0.191700  0.362500  0.791300  1.0  0.706
  C  C1457  1  0.090400  0.513500  0.380400  1.0  0.0463
  C  C1458  1  0.127200  0.506700  0.395200  1.0  -0.1545
  C  C1459  1  0.151600  0.530700  0.399900  1.0  -0.0394
  C  C1460  1  0.140100  0.561800  0.389000  1.0  -0.1327
  C  C1461  1  0.102800  0.568200  0.371800  1.0  -0.0519
  C  C1462  1  0.078600  0.544000  0.367700  1.0  -0.1313
  C  C1463  1  0.168000  0.587700  0.397600  1.0  0.7148
  C  C1464  1  0.569700  0.514500  0.841500  1.0  0.0214
  C  C1465  1  0.555200  0.489300  0.813100  1.0  -0.1035
  C  C1466  1  0.576000  0.466700  0.805900  1.0  -0.1041
  C  C1467  1  0.613200  0.467700  0.828600  1.0  -0.0368
  C  C1468  1  0.628900  0.491300  0.857700  1.0  -0.0576
  C  C1469  1  0.607600  0.514300  0.863800  1.0  -0.0632
  C  C1470  1  0.480600  0.521000  0.893500  1.0  0.1785
  C  C1471  1  0.448000  0.531800  0.899000  1.0  -0.1202
  C  C1472  1  0.441100  0.563900  0.904600  1.0  0.2915
  C  C1473  1  0.410100  0.570300  0.912100  1.0  -0.0625
  C  C1474  1  0.387900  0.545000  0.912400  1.0  -0.1233
  C  C1475  1  0.394200  0.513600  0.906000  1.0  0.0076
  C  C1476  1  0.425000  0.507900  0.899900  1.0  -0.1061
  C  C1477  1  0.399400  0.601700  0.917900  1.0  0.1805
  C  C1478  1  0.465600  0.577600  0.770300  1.0  0.1698
  C  C1479  1  0.436300  0.600500  0.759900  1.0  -0.0383
  C  C1480  1  0.431300  0.620200  0.790700  1.0  0.2882
  C  C1481  1  0.400900  0.641500  0.775600  1.0  -0.0523
  C  C1482  1  0.378100  0.643000  0.731300  1.0  -0.1208
  C  C1483  1  0.383000  0.623900  0.701600  1.0  -0.0016
  C  C1484  1  0.411800  0.602800  0.716200  1.0  -0.0602
  C  C1485  1  0.391700  0.661900  0.803200  1.0  0.1659
  C  C1486  1  0.574100  0.614500  0.899900  1.0  0.1845
  C  C1487  1  0.566000  0.644400  0.914200  1.0  -0.0839
  C  C1488  1  0.532900  0.651100  0.917500  1.0  0.2915
  C  C1489  1  0.528700  0.682300  0.930300  1.0  -0.0688
  C  C1490  1  0.555100  0.705500  0.937400  1.0  -0.0973
  C  C1491  1  0.587000  0.699000  0.933500  1.0  0.0165
  C  C1492  1  0.591800  0.668700  0.922300  1.0  -0.0834
  C  C1493  1  0.496700  0.693000  0.935000  1.0  0.1772
  C  C1494  1  0.379800  0.711700  0.915000  1.0  0.0409
  C  C1495  1  0.348600  0.725100  0.883100  1.0  -0.0673
  C  C1496  1  0.390000  0.724800  0.955700  1.0  -0.1145
  C  C1497  1  0.329400  0.749900  0.890000  1.0  -0.1075
  C  C1498  1  0.371400  0.749100  0.963900  1.0  -0.0589
  C  C1499  1  0.340900  0.761500  0.930900  1.0  -0.017
  C  C1500  1  0.369100  0.488000  0.904400  1.0  0.0561
  C  C1501  1  0.367800  0.459300  0.884200  1.0  -0.1164
  C  C1502  1  0.343300  0.436000  0.881200  1.0  -0.0837
  C  C1503  1  0.318900  0.440400  0.898900  1.0  -0.1157
  C  C1504  1  0.319600  0.469200  0.918600  1.0  -0.0288
  C  C1505  1  0.344200  0.492400  0.921500  1.0  -0.1381
  C  C1506  1  0.292800  0.415200  0.898000  1.0  0.7324
  C  C1507  1  0.357600  0.625600  0.655200  1.0  0.0477
  C  C1508  1  0.347700  0.599100  0.628600  1.0  -0.0654
  C  C1509  1  0.324300  0.601400  0.585300  1.0  -0.0422
  C  C1510  1  0.310800  0.631000  0.567200  1.0  -0.1309
  C  C1511  1  0.320300  0.657600  0.593900  1.0  -0.0233
  C  C1512  1  0.343200  0.654900  0.637200  1.0  -0.1437
  C  C1513  1  0.286900  0.635000  0.519600  1.0  0.7491
  C  C1514  1  0.613700  0.724600  0.939000  1.0  0.0694
  C  C1515  1  0.601700  0.754900  0.922800  1.0  -0.1357
  C  C1516  1  0.626300  0.777600  0.923800  1.0  -0.0358
  C  C1517  1  0.663200  0.771300  0.940400  1.0  -0.1156
  C  C1518  1  0.675600  0.741600  0.958000  1.0  -0.0518
  C  C1519  1  0.651200  0.719000  0.957700  1.0  -0.1185
  C  C1520  1  0.689900  0.795800  0.939700  1.0  0.7065
  Br  Br1521  1  0.650130  0.931620  0.478720  1.0  -0.0517
  Br  Br1522  1  0.345000  0.284090  0.650100  1.0  -0.1084
  Br  Br1523  1  0.857550  0.064250  0.179000  1.0  -0.0798
  Br  Br1524  1  0.185480  0.706000  0.057000  1.0  -0.0611
  Br  Br1525  1  0.150130  0.431620  0.478720  1.0  -0.0517
  Br  Br1526  1  0.845000  0.784090  0.650100  1.0  -0.1084
  Br  Br1527  1  0.357550  0.564250  0.179000  1.0  -0.0798
  Br  Br1528  1  0.685480  0.206000  0.057000  1.0  -0.0611
  Br  Br1529  1  0.650130  0.068380  0.978720  1.0  -0.051
  Br  Br1530  1  0.345000  0.715910  0.150100  1.0  -0.1093
  Br  Br1531  1  0.857550  0.935750  0.679000  1.0  -0.0812
  Br  Br1532  1  0.185480  0.294000  0.557000  1.0  -0.061
  Br  Br1533  1  0.150130  0.568380  0.978720  1.0  -0.051
  Br  Br1534  1  0.845000  0.215910  0.150100  1.0  -0.1093
  Br  Br1535  1  0.357550  0.435750  0.679000  1.0  -0.0812
  Br  Br1536  1  0.685480  0.794000  0.557000  1.0  -0.061
  Br  Br1537  1  0.349870  0.931620  0.021280  1.0  -0.0522
  Br  Br1538  1  0.655000  0.284090  0.849900  1.0  -0.1076
  Br  Br1539  1  0.142450  0.064250  0.321000  1.0  -0.0798
  Br  Br1540  1  0.814520  0.706000  0.443000  1.0  -0.0601
  Br  Br1541  1  0.849870  0.431620  0.021280  1.0  -0.0522
  Br  Br1542  1  0.155000  0.784090  0.849900  1.0  -0.1076
  Br  Br1543  1  0.642450  0.564250  0.321000  1.0  -0.0798
  Br  Br1544  1  0.314520  0.206000  0.443000  1.0  -0.0601
  Br  Br1545  1  0.349870  0.068380  0.521280  1.0  -0.0526
  Br  Br1546  1  0.655000  0.715910  0.349900  1.0  -0.1084
  Br  Br1547  1  0.142450  0.935750  0.821000  1.0  -0.0807
  Br  Br1548  1  0.814520  0.294000  0.943000  1.0  -0.0619
  Br  Br1549  1  0.849870  0.568380  0.521280  1.0  -0.0526
  Br  Br1550  1  0.155000  0.215910  0.349900  1.0  -0.1084
  Br  Br1551  1  0.642450  0.435750  0.821000  1.0  -0.0807
  Br  Br1552  1  0.314520  0.794000  0.943000  1.0  -0.0619
  N  N1553  1  0.573300  0.086700  0.561300  1.0  -0.3049
  N  N1554  1  0.494300  0.176800  0.607100  1.0  -0.2997
  N  N1555  1  0.510700  0.067700  0.492900  1.0  -0.3562
  N  N1556  1  0.429700  0.156200  0.536200  1.0  -0.3041
  N  N1557  1  0.528100  0.035700  0.572500  1.0  -0.2668
  N  N1558  1  0.449600  0.125000  0.617500  1.0  -0.3313
  N  N1559  1  0.997800  0.960700  0.117100  1.0  -0.3815
  N  N1560  1  0.086500  0.872300  0.084800  1.0  -0.3482
  N  N1561  1  0.009800  0.928900  0.192400  1.0  -0.3369
  N  N1562  1  0.092300  0.836900  0.156100  1.0  -0.349
  N  N1563  1  0.947200  0.908800  0.114800  1.0  -0.3185
  N  N1564  1  0.032400  0.823000  0.075700  1.0  -0.3156
  N  N1565  1  0.073300  0.586700  0.561300  1.0  -0.3049
  N  N1566  1  0.994300  0.676800  0.607100  1.0  -0.2997
  N  N1567  1  0.010700  0.567700  0.492900  1.0  -0.3562
  N  N1568  1  0.929700  0.656200  0.536200  1.0  -0.3041
  N  N1569  1  0.028100  0.535700  0.572500  1.0  -0.2668
  N  N1570  1  0.949600  0.625000  0.617500  1.0  -0.3313
  N  N1571  1  0.497800  0.460700  0.117100  1.0  -0.3815
  N  N1572  1  0.586500  0.372300  0.084800  1.0  -0.3482
  N  N1573  1  0.509800  0.428900  0.192400  1.0  -0.3369
  N  N1574  1  0.592300  0.336900  0.156100  1.0  -0.349
  N  N1575  1  0.447200  0.408800  0.114800  1.0  -0.3185
  N  N1576  1  0.532400  0.323000  0.075700  1.0  -0.3156
  N  N1577  1  0.573300  0.913300  0.061300  1.0  -0.3051
  N  N1578  1  0.494300  0.823200  0.107100  1.0  -0.2988
  N  N1579  1  0.510700  0.932300  0.992900  1.0  -0.3568
  N  N1580  1  0.429700  0.843800  0.036200  1.0  -0.3044
  N  N1581  1  0.528100  0.964300  0.072500  1.0  -0.2683
  N  N1582  1  0.449600  0.875000  0.117500  1.0  -0.331
  N  N1583  1  0.997800  0.039300  0.617100  1.0  -0.3814
  N  N1584  1  0.086500  0.127700  0.584800  1.0  -0.3484
  N  N1585  1  0.009800  0.071100  0.692400  1.0  -0.3368
  N  N1586  1  0.092300  0.163100  0.656100  1.0  -0.3487
  N  N1587  1  0.947200  0.091200  0.614800  1.0  -0.3184
  N  N1588  1  0.032400  0.177000  0.575700  1.0  -0.3166
  N  N1589  1  0.073300  0.413300  0.061300  1.0  -0.3051
  N  N1590  1  0.994300  0.323200  0.107100  1.0  -0.2988
  N  N1591  1  0.010700  0.432300  0.992900  1.0  -0.3568
  N  N1592  1  0.929700  0.343800  0.036200  1.0  -0.3044
  N  N1593  1  0.028100  0.464300  0.072500  1.0  -0.2683
  N  N1594  1  0.949600  0.375000  0.117500  1.0  -0.331
  N  N1595  1  0.497800  0.539300  0.617100  1.0  -0.3814
  N  N1596  1  0.586500  0.627700  0.584800  1.0  -0.3484
  N  N1597  1  0.509800  0.571100  0.692400  1.0  -0.3368
  N  N1598  1  0.592300  0.663100  0.656100  1.0  -0.3487
  N  N1599  1  0.447200  0.591200  0.614800  1.0  -0.3184
  N  N1600  1  0.532400  0.677000  0.575700  1.0  -0.3166
  N  N1601  1  0.426700  0.086700  0.938700  1.0  -0.3054
  N  N1602  1  0.505700  0.176800  0.892900  1.0  -0.2999
  N  N1603  1  0.489300  0.067700  0.007100  1.0  -0.3548
  N  N1604  1  0.570300  0.156200  0.963800  1.0  -0.3062
  N  N1605  1  0.471900  0.035700  0.927500  1.0  -0.2679
  N  N1606  1  0.550400  0.125000  0.882500  1.0  -0.3314
  N  N1607  1  0.002200  0.960700  0.382900  1.0  -0.381
  N  N1608  1  0.913500  0.872300  0.415200  1.0  -0.3485
  N  N1609  1  0.990200  0.928900  0.307600  1.0  -0.3377
  N  N1610  1  0.907700  0.836900  0.343900  1.0  -0.3479
  N  N1611  1  0.052800  0.908800  0.385200  1.0  -0.3188
  N  N1612  1  0.967600  0.823000  0.424300  1.0  -0.3142
  N  N1613  1  0.926700  0.586700  0.938700  1.0  -0.3054
  N  N1614  1  0.005700  0.676800  0.892900  1.0  -0.2999
  N  N1615  1  0.989300  0.567700  0.007100  1.0  -0.3548
  N  N1616  1  0.070300  0.656200  0.963800  1.0  -0.3062
  N  N1617  1  0.971900  0.535700  0.927500  1.0  -0.2679
  N  N1618  1  0.050400  0.625000  0.882500  1.0  -0.3314
  N  N1619  1  0.502200  0.460700  0.382900  1.0  -0.381
  N  N1620  1  0.413500  0.372300  0.415200  1.0  -0.3485
  N  N1621  1  0.490200  0.428900  0.307600  1.0  -0.3377
  N  N1622  1  0.407700  0.336900  0.343900  1.0  -0.3479
  N  N1623  1  0.552800  0.408800  0.385200  1.0  -0.3188
  N  N1624  1  0.467600  0.323000  0.424300  1.0  -0.3142
  N  N1625  1  0.426700  0.913300  0.438700  1.0  -0.3052
  N  N1626  1  0.505700  0.823200  0.392900  1.0  -0.2994
  N  N1627  1  0.489300  0.932300  0.507100  1.0  -0.3553
  N  N1628  1  0.570300  0.843800  0.463800  1.0  -0.306
  N  N1629  1  0.471900  0.964300  0.427500  1.0  -0.2689
  N  N1630  1  0.550400  0.875000  0.382500  1.0  -0.331
  N  N1631  1  0.002200  0.039300  0.882900  1.0  -0.3809
  N  N1632  1  0.913500  0.127700  0.915200  1.0  -0.3487
  N  N1633  1  0.990200  0.071100  0.807600  1.0  -0.3375
  N  N1634  1  0.907700  0.163100  0.843900  1.0  -0.3471
  N  N1635  1  0.052800  0.091200  0.885200  1.0  -0.3183
  N  N1636  1  0.967600  0.177000  0.924300  1.0  -0.315
  N  N1637  1  0.926700  0.413300  0.438700  1.0  -0.3052
  N  N1638  1  0.005700  0.323200  0.392900  1.0  -0.2994
  N  N1639  1  0.989300  0.432300  0.507100  1.0  -0.3553
  N  N1640  1  0.070300  0.343800  0.463800  1.0  -0.306
  N  N1641  1  0.971900  0.464300  0.427500  1.0  -0.2689
  N  N1642  1  0.050400  0.375000  0.382500  1.0  -0.331
  N  N1643  1  0.502200  0.539300  0.882900  1.0  -0.3809
  N  N1644  1  0.413500  0.627700  0.915200  1.0  -0.3487
  N  N1645  1  0.490200  0.571100  0.807600  1.0  -0.3375
  N  N1646  1  0.407700  0.663100  0.843900  1.0  -0.3471
  N  N1647  1  0.552800  0.591200  0.885200  1.0  -0.3183
  N  N1648  1  0.467600  0.677000  0.924300  1.0  -0.315
  O  O1649  1  0.265500  0.855700  0.594200  1.0  -1.2268
  O  O1650  1  0.589900  0.061800  0.554700  1.0  -0.5625
  O  O1651  1  0.469800  0.193900  0.616400  1.0  -0.3338
  O  O1652  1  0.534100  0.044400  0.490700  1.0  -0.2712
  O  O1653  1  0.414400  0.177200  0.555600  1.0  -0.2782
  O  O1654  1  0.551600  0.019000  0.560600  1.0  -0.3033
  O  O1655  1  0.433700  0.152200  0.626400  1.0  -0.3223
  O  O1656  1  0.532200  0.128800  0.587700  1.0  -0.6483
  O  O1657  1  0.710400  0.298500  0.564800  1.0  -0.5951
  O  O1658  1  0.471900  0.110000  0.521000  1.0  -0.6575
  O  O1659  1  0.713800  0.317200  0.626900  1.0  -0.5931
  O  O1660  1  0.494900  0.084300  0.598800  1.0  -0.637
  O  O1661  1  0.322700  0.133400  0.183100  1.0  -0.6276
  O  O1662  1  0.275300  0.142500  0.194800  1.0  -0.5727
  O  O1663  1  0.344500  0.885700  0.618200  1.0  -0.5942
  O  O1664  1  0.299100  0.919500  0.580900  1.0  -0.6081
  O  O1665  1  0.971200  0.976800  0.121300  1.0  -0.5572
  O  O1666  1  0.105200  0.845600  0.080100  1.0  -0.3365
  O  O1667  1  0.985200  0.951700  0.192100  1.0  -0.2515
  O  O1668  1  0.107700  0.815700  0.138600  1.0  -0.2549
  O  O1669  1  0.931600  0.934100  0.126500  1.0  -0.2711
  O  O1670  1  0.058000  0.806600  0.068900  1.0  -0.3056
  O  O1671  1  0.038300  0.913400  0.097700  1.0  -0.6532
  O  O1672  1  0.209200  0.109600  0.122300  1.0  -0.5935
  O  O1673  1  0.045600  0.880500  0.168900  1.0  -0.6585
  O  O1674  1  0.226600  0.078300  0.082400  1.0  -0.6042
  O  O1675  1  0.992100  0.870300  0.090800  1.0  -0.646
  O  O1676  1  0.226400  0.889900  0.502700  1.0  -0.6325
  O  O1677  1  0.220800  0.837400  0.494600  1.0  -0.5964
  O  O1678  1  0.777500  0.711100  0.045300  1.0  -0.5685
  O  O1679  1  0.823000  0.678100  0.076500  1.0  -0.6089
  O  O1680  1  0.765500  0.355700  0.594200  1.0  -1.2268
  O  O1681  1  0.089900  0.561800  0.554700  1.0  -0.5625
  O  O1682  1  0.969800  0.693900  0.616400  1.0  -0.3338
  O  O1683  1  0.034100  0.544400  0.490700  1.0  -0.2712
  O  O1684  1  0.914400  0.677200  0.555600  1.0  -0.2782
  O  O1685  1  0.051600  0.519000  0.560600  1.0  -0.3033
  O  O1686  1  0.933700  0.652200  0.626400  1.0  -0.3223
  O  O1687  1  0.032200  0.628800  0.587700  1.0  -0.6483
  O  O1688  1  0.210400  0.798500  0.564800  1.0  -0.5951
  O  O1689  1  0.971900  0.610000  0.521000  1.0  -0.6575
  O  O1690  1  0.213800  0.817200  0.626900  1.0  -0.5931
  O  O1691  1  0.994900  0.584300  0.598800  1.0  -0.637
  O  O1692  1  0.822700  0.633400  0.183100  1.0  -0.6276
  O  O1693  1  0.775300  0.642500  0.194800  1.0  -0.5727
  O  O1694  1  0.844500  0.385700  0.618200  1.0  -0.5942
  O  O1695  1  0.799100  0.419500  0.580900  1.0  -0.6081
  O  O1696  1  0.471200  0.476800  0.121300  1.0  -0.5572
  O  O1697  1  0.605200  0.345600  0.080100  1.0  -0.3365
  O  O1698  1  0.485200  0.451700  0.192100  1.0  -0.2515
  O  O1699  1  0.607700  0.315700  0.138600  1.0  -0.2549
  O  O1700  1  0.431600  0.434100  0.126500  1.0  -0.2711
  O  O1701  1  0.558000  0.306600  0.068900  1.0  -0.3056
  O  O1702  1  0.538300  0.413400  0.097700  1.0  -0.6532
  O  O1703  1  0.709200  0.609600  0.122300  1.0  -0.5935
  O  O1704  1  0.545600  0.380500  0.168900  1.0  -0.6585
  O  O1705  1  0.726600  0.578300  0.082400  1.0  -0.6042
  O  O1706  1  0.492100  0.370300  0.090800  1.0  -0.646
  O  O1707  1  0.726400  0.389900  0.502700  1.0  -0.6325
  O  O1708  1  0.720800  0.337400  0.494600  1.0  -0.5964
  O  O1709  1  0.277500  0.211100  0.045300  1.0  -0.5685
  O  O1710  1  0.323000  0.178100  0.076500  1.0  -0.6089
  O  O1711  1  0.265500  0.144300  0.094200  1.0  -1.2267
  O  O1712  1  0.589900  0.938200  0.054700  1.0  -0.5618
  O  O1713  1  0.469800  0.806100  0.116400  1.0  -0.3346
  O  O1714  1  0.534100  0.955600  0.990700  1.0  -0.2716
  O  O1715  1  0.414400  0.822800  0.055600  1.0  -0.2786
  O  O1716  1  0.551600  0.981000  0.060600  1.0  -0.3035
  O  O1717  1  0.433700  0.847800  0.126400  1.0  -0.3222
  O  O1718  1  0.532200  0.871200  0.087700  1.0  -0.6484
  O  O1719  1  0.710400  0.701500  0.064800  1.0  -0.5949
  O  O1720  1  0.471900  0.890000  0.021000  1.0  -0.6567
  O  O1721  1  0.713800  0.682800  0.126900  1.0  -0.5939
  O  O1722  1  0.494900  0.915700  0.098800  1.0  -0.6371
  O  O1723  1  0.322700  0.866600  0.683100  1.0  -0.6272
  O  O1724  1  0.275300  0.857500  0.694800  1.0  -0.5729
  O  O1725  1  0.344500  0.114300  0.118200  1.0  -0.5938
  O  O1726  1  0.299100  0.080500  0.080900  1.0  -0.6081
  O  O1727  1  0.971200  0.023200  0.621300  1.0  -0.5567
  O  O1728  1  0.105200  0.154400  0.580100  1.0  -0.3363
  O  O1729  1  0.985200  0.048300  0.692100  1.0  -0.2502
  O  O1730  1  0.107700  0.184300  0.638600  1.0  -0.2557
  O  O1731  1  0.931600  0.065900  0.626500  1.0  -0.271
  O  O1732  1  0.058000  0.193400  0.568900  1.0  -0.3049
  O  O1733  1  0.038300  0.086600  0.597700  1.0  -0.6523
  O  O1734  1  0.209200  0.890400  0.622300  1.0  -0.5946
  O  O1735  1  0.045600  0.119500  0.668900  1.0  -0.6586
  O  O1736  1  0.226600  0.921700  0.582400  1.0  -0.6034
  O  O1737  1  0.992100  0.129700  0.590800  1.0  -0.6457
  O  O1738  1  0.226400  0.110100  0.002700  1.0  -0.6331
  O  O1739  1  0.220800  0.162600  0.994600  1.0  -0.5956
  O  O1740  1  0.777500  0.288900  0.545300  1.0  -0.5683
  O  O1741  1  0.823000  0.321900  0.576500  1.0  -0.609
  O  O1742  1  0.765500  0.644300  0.094200  1.0  -1.2267
  O  O1743  1  0.089900  0.438200  0.054700  1.0  -0.5618
  O  O1744  1  0.969800  0.306100  0.116400  1.0  -0.3346
  O  O1745  1  0.034100  0.455600  0.990700  1.0  -0.2716
  O  O1746  1  0.914400  0.322800  0.055600  1.0  -0.2786
  O  O1747  1  0.051600  0.481000  0.060600  1.0  -0.3035
  O  O1748  1  0.933700  0.347800  0.126400  1.0  -0.3222
  O  O1749  1  0.032200  0.371200  0.087700  1.0  -0.6484
  O  O1750  1  0.210400  0.201500  0.064800  1.0  -0.5949
  O  O1751  1  0.971900  0.390000  0.021000  1.0  -0.6567
  O  O1752  1  0.213800  0.182800  0.126900  1.0  -0.5939
  O  O1753  1  0.994900  0.415700  0.098800  1.0  -0.6371
  O  O1754  1  0.822700  0.366600  0.683100  1.0  -0.6272
  O  O1755  1  0.775300  0.357500  0.694800  1.0  -0.5729
  O  O1756  1  0.844500  0.614300  0.118200  1.0  -0.5938
  O  O1757  1  0.799100  0.580500  0.080900  1.0  -0.6081
  O  O1758  1  0.471200  0.523200  0.621300  1.0  -0.5567
  O  O1759  1  0.605200  0.654400  0.580100  1.0  -0.3363
  O  O1760  1  0.485200  0.548300  0.692100  1.0  -0.2502
  O  O1761  1  0.607700  0.684300  0.638600  1.0  -0.2557
  O  O1762  1  0.431600  0.565900  0.626500  1.0  -0.271
  O  O1763  1  0.558000  0.693400  0.568900  1.0  -0.3049
  O  O1764  1  0.538300  0.586600  0.597700  1.0  -0.6523
  O  O1765  1  0.709200  0.390400  0.622300  1.0  -0.5946
  O  O1766  1  0.545600  0.619500  0.668900  1.0  -0.6586
  O  O1767  1  0.726600  0.421700  0.582400  1.0  -0.6034
  O  O1768  1  0.492100  0.629700  0.590800  1.0  -0.6457
  O  O1769  1  0.726400  0.610100  0.002700  1.0  -0.6331
  O  O1770  1  0.720800  0.662600  0.994600  1.0  -0.5956
  O  O1771  1  0.277500  0.788900  0.545300  1.0  -0.5683
  O  O1772  1  0.323000  0.821900  0.576500  1.0  -0.609
  O  O1773  1  0.734500  0.855700  0.905800  1.0  -1.2253
  O  O1774  1  0.410100  0.061800  0.945300  1.0  -0.5613
  O  O1775  1  0.530200  0.193900  0.883600  1.0  -0.335
  O  O1776  1  0.465900  0.044400  0.009300  1.0  -0.2709
  O  O1777  1  0.585600  0.177200  0.944400  1.0  -0.2793
  O  O1778  1  0.448400  0.019000  0.939400  1.0  -0.3031
  O  O1779  1  0.566300  0.152200  0.873600  1.0  -0.3242
  O  O1780  1  0.467800  0.128800  0.912300  1.0  -0.65
  O  O1781  1  0.289600  0.298500  0.935200  1.0  -0.5966
  O  O1782  1  0.528100  0.110000  0.979000  1.0  -0.657
  O  O1783  1  0.286200  0.317200  0.873100  1.0  -0.5933
  O  O1784  1  0.505100  0.084300  0.901200  1.0  -0.6393
  O  O1785  1  0.677300  0.133400  0.316900  1.0  -0.6286
  O  O1786  1  0.724700  0.142500  0.305200  1.0  -0.5724
  O  O1787  1  0.655500  0.885700  0.881800  1.0  -0.5936
  O  O1788  1  0.700900  0.919500  0.919100  1.0  -0.6069
  O  O1789  1  0.028800  0.976800  0.378700  1.0  -0.5562
  O  O1790  1  0.894800  0.845600  0.419900  1.0  -0.3334
  O  O1791  1  0.014800  0.951700  0.307900  1.0  -0.2508
  O  O1792  1  0.892300  0.815700  0.361400  1.0  -0.2557
  O  O1793  1  0.068400  0.934100  0.373500  1.0  -0.2734
  O  O1794  1  0.942000  0.806600  0.431100  1.0  -0.305
  O  O1795  1  0.961700  0.913400  0.402300  1.0  -0.6531
  O  O1796  1  0.790800  0.109600  0.377700  1.0  -0.5935
  O  O1797  1  0.954400  0.880500  0.331100  1.0  -0.6584
  O  O1798  1  0.773400  0.078300  0.417600  1.0  -0.6034
  O  O1799  1  0.007900  0.870300  0.409200  1.0  -0.6457
  O  O1800  1  0.773600  0.889900  0.997300  1.0  -0.6339
  O  O1801  1  0.779200  0.837400  0.005400  1.0  -0.596
  O  O1802  1  0.222500  0.711100  0.454700  1.0  -0.5686
  O  O1803  1  0.177000  0.678100  0.423500  1.0  -0.6094
  O  O1804  1  0.234500  0.355700  0.905800  1.0  -1.2253
  O  O1805  1  0.910100  0.561800  0.945300  1.0  -0.5613
  O  O1806  1  0.030200  0.693900  0.883600  1.0  -0.335
  O  O1807  1  0.965900  0.544400  0.009300  1.0  -0.2709
  O  O1808  1  0.085600  0.677200  0.944400  1.0  -0.2793
  O  O1809  1  0.948400  0.519000  0.939400  1.0  -0.3031
  O  O1810  1  0.066300  0.652200  0.873600  1.0  -0.3242
  O  O1811  1  0.967800  0.628800  0.912300  1.0  -0.65
  O  O1812  1  0.789600  0.798500  0.935200  1.0  -0.5966
  O  O1813  1  0.028100  0.610000  0.979000  1.0  -0.657
  O  O1814  1  0.786200  0.817200  0.873100  1.0  -0.5933
  O  O1815  1  0.005100  0.584300  0.901200  1.0  -0.6393
  O  O1816  1  0.177300  0.633400  0.316900  1.0  -0.6286
  O  O1817  1  0.224700  0.642500  0.305200  1.0  -0.5724
  O  O1818  1  0.155500  0.385700  0.881800  1.0  -0.5936
  O  O1819  1  0.200900  0.419500  0.919100  1.0  -0.6069
  O  O1820  1  0.528800  0.476800  0.378700  1.0  -0.5562
  O  O1821  1  0.394800  0.345600  0.419900  1.0  -0.3334
  O  O1822  1  0.514800  0.451700  0.307900  1.0  -0.2508
  O  O1823  1  0.392300  0.315700  0.361400  1.0  -0.2557
  O  O1824  1  0.568400  0.434100  0.373500  1.0  -0.2734
  O  O1825  1  0.442000  0.306600  0.431100  1.0  -0.305
  O  O1826  1  0.461700  0.413400  0.402300  1.0  -0.6531
  O  O1827  1  0.290800  0.609600  0.377700  1.0  -0.5935
  O  O1828  1  0.454400  0.380500  0.331100  1.0  -0.6584
  O  O1829  1  0.273400  0.578300  0.417600  1.0  -0.6034
  O  O1830  1  0.507900  0.370300  0.409200  1.0  -0.6457
  O  O1831  1  0.273600  0.389900  0.997300  1.0  -0.6339
  O  O1832  1  0.279200  0.337400  0.005400  1.0  -0.596
  O  O1833  1  0.722500  0.211100  0.454700  1.0  -0.5686
  O  O1834  1  0.677000  0.178100  0.423500  1.0  -0.6094
  O  O1835  1  0.734500  0.144300  0.405800  1.0  -1.2251
  O  O1836  1  0.410100  0.938200  0.445300  1.0  -0.5605
  O  O1837  1  0.530200  0.806100  0.383600  1.0  -0.3333
  O  O1838  1  0.465900  0.955600  0.509300  1.0  -0.2715
  O  O1839  1  0.585600  0.822800  0.444400  1.0  -0.2784
  O  O1840  1  0.448400  0.981000  0.439400  1.0  -0.3026
  O  O1841  1  0.566300  0.847800  0.373600  1.0  -0.3242
  O  O1842  1  0.467800  0.871200  0.412300  1.0  -0.6494
  O  O1843  1  0.289600  0.701500  0.435200  1.0  -0.5966
  O  O1844  1  0.528100  0.890000  0.479000  1.0  -0.6564
  O  O1845  1  0.286200  0.682800  0.373100  1.0  -0.593
  O  O1846  1  0.505100  0.915700  0.401200  1.0  -0.64
  O  O1847  1  0.677300  0.866600  0.816900  1.0  -0.6288
  O  O1848  1  0.724700  0.857500  0.805200  1.0  -0.5721
  O  O1849  1  0.655500  0.114300  0.381800  1.0  -0.5945
  O  O1850  1  0.700900  0.080500  0.419100  1.0  -0.6063
  O  O1851  1  0.028800  0.023200  0.878700  1.0  -0.5582
  O  O1852  1  0.894800  0.154400  0.919900  1.0  -0.3337
  O  O1853  1  0.014800  0.048300  0.807900  1.0  -0.2508
  O  O1854  1  0.892300  0.184300  0.861400  1.0  -0.2561
  O  O1855  1  0.068400  0.065900  0.873500  1.0  -0.273
  O  O1856  1  0.942000  0.193400  0.931100  1.0  -0.3039
  O  O1857  1  0.961700  0.086600  0.902300  1.0  -0.6525
  O  O1858  1  0.790800  0.890400  0.877700  1.0  -0.593
  O  O1859  1  0.954400  0.119500  0.831100  1.0  -0.6589
  O  O1860  1  0.773400  0.921700  0.917600  1.0  -0.6029
  O  O1861  1  0.007900  0.129700  0.909200  1.0  -0.6453
  O  O1862  1  0.773600  0.110100  0.497300  1.0  -0.6336
  O  O1863  1  0.779200  0.162600  0.505400  1.0  -0.5952
  O  O1864  1  0.222500  0.288900  0.954700  1.0  -0.5679
  O  O1865  1  0.177000  0.321900  0.923500  1.0  -0.6102
  O  O1866  1  0.234500  0.644300  0.405800  1.0  -1.2251
  O  O1867  1  0.910100  0.438200  0.445300  1.0  -0.5605
  O  O1868  1  0.030200  0.306100  0.383600  1.0  -0.3333
  O  O1869  1  0.965900  0.455600  0.509300  1.0  -0.2715
  O  O1870  1  0.085600  0.322800  0.444400  1.0  -0.2784
  O  O1871  1  0.948400  0.481000  0.439400  1.0  -0.3026
  O  O1872  1  0.066300  0.347800  0.373600  1.0  -0.3242
  O  O1873  1  0.967800  0.371200  0.412300  1.0  -0.6494
  O  O1874  1  0.789600  0.201500  0.435200  1.0  -0.5966
  O  O1875  1  0.028100  0.390000  0.479000  1.0  -0.6564
  O  O1876  1  0.786200  0.182800  0.373100  1.0  -0.593
  O  O1877  1  0.005100  0.415700  0.401200  1.0  -0.64
  O  O1878  1  0.177300  0.366600  0.816900  1.0  -0.6288
  O  O1879  1  0.224700  0.357500  0.805200  1.0  -0.5721
  O  O1880  1  0.155500  0.614300  0.381800  1.0  -0.5945
  O  O1881  1  0.200900  0.580500  0.419100  1.0  -0.6063
  O  O1882  1  0.528800  0.523200  0.878700  1.0  -0.5582
  O  O1883  1  0.394800  0.654400  0.919900  1.0  -0.3337
  O  O1884  1  0.514800  0.548300  0.807900  1.0  -0.2508
  O  O1885  1  0.392300  0.684300  0.861400  1.0  -0.2561
  O  O1886  1  0.568400  0.565900  0.873500  1.0  -0.273
  O  O1887  1  0.442000  0.693400  0.931100  1.0  -0.3039
  O  O1888  1  0.461700  0.586600  0.902300  1.0  -0.6525
  O  O1889  1  0.290800  0.390400  0.877700  1.0  -0.593
  O  O1890  1  0.454400  0.619500  0.831100  1.0  -0.6589
  O  O1891  1  0.273400  0.421700  0.917600  1.0  -0.6029
  O  O1892  1  0.507900  0.629700  0.909200  1.0  -0.6453
  O  O1893  1  0.273600  0.610100  0.497300  1.0  -0.6336
  O  O1894  1  0.279200  0.662600  0.505400  1.0  -0.5952
  O  O1895  1  0.722500  0.788900  0.954700  1.0  -0.5679
  O  O1896  1  0.677000  0.821900  0.923500  1.0  -0.6102
