# generated using pymatgen
data_CuH10C20NO4
_symmetry_space_group_name_H-M   'P 1'
_cell_length_a   46.37100000
_cell_length_b   46.37100000
_cell_length_c   46.37100000
_cell_angle_alpha   90.00000000
_cell_angle_beta   90.00000000
_cell_angle_gamma   90.00000000
_symmetry_Int_Tables_number   1
_chemical_formula_structural   CuH10C20NO4
_chemical_formula_sum   'Cu48 H480 C960 N48 O192'
_cell_volume   99710.15352281
_cell_formula_units_Z   48
loop_
 _symmetry_equiv_pos_site_id
 _symmetry_equiv_pos_as_xyz
  1  'x, y, z'
loop_
 _atom_site_type_symbol
 _atom_site_label
 _atom_site_symmetry_multiplicity
 _atom_site_fract_x
 _atom_site_fract_y
 _atom_site_fract_z
 _atom_site_occupancy
 _atom_site_charge
  Cu  Cu1  1  0.199970  0.500000  0.500000  1.0  0.8262
  Cu  Cu2  1  0.146250  0.500000  0.500000  1.0  0.8183
  Cu  Cu3  1  0.199970  0.000000  0.000000  1.0  0.8262
  Cu  Cu4  1  0.146250  0.000000  0.000000  1.0  0.8183
  Cu  Cu5  1  0.699970  0.500000  0.000000  1.0  0.8262
  Cu  Cu6  1  0.646250  0.500000  0.000000  1.0  0.8183
  Cu  Cu7  1  0.699970  0.000000  0.500000  1.0  0.8262
  Cu  Cu8  1  0.646250  0.000000  0.500000  1.0  0.8183
  Cu  Cu9  1  0.800030  0.500000  0.500000  1.0  0.8227
  Cu  Cu10  1  0.853750  0.500000  0.500000  1.0  0.8195
  Cu  Cu11  1  0.800030  0.000000  0.000000  1.0  0.8227
  Cu  Cu12  1  0.853750  0.000000  0.000000  1.0  0.8195
  Cu  Cu13  1  0.300030  0.500000  0.000000  1.0  0.8227
  Cu  Cu14  1  0.353750  0.500000  0.000000  1.0  0.8195
  Cu  Cu15  1  0.300030  0.000000  0.500000  1.0  0.8227
  Cu  Cu16  1  0.353750  0.000000  0.500000  1.0  0.8195
  Cu  Cu17  1  0.500000  0.199970  0.500000  1.0  0.8206
  Cu  Cu18  1  0.500000  0.146250  0.500000  1.0  0.8172
  Cu  Cu19  1  0.500000  0.699970  0.000000  1.0  0.8206
  Cu  Cu20  1  0.500000  0.646250  0.000000  1.0  0.8172
  Cu  Cu21  1  0.000000  0.199970  0.000000  1.0  0.8206
  Cu  Cu22  1  0.000000  0.146250  0.000000  1.0  0.8172
  Cu  Cu23  1  0.000000  0.699970  0.500000  1.0  0.8206
  Cu  Cu24  1  0.000000  0.646250  0.500000  1.0  0.8172
  Cu  Cu25  1  0.500000  0.800030  0.500000  1.0  0.8212
  Cu  Cu26  1  0.500000  0.853750  0.500000  1.0  0.8187
  Cu  Cu27  1  0.500000  0.300030  0.000000  1.0  0.8212
  Cu  Cu28  1  0.500000  0.353750  0.000000  1.0  0.8187
  Cu  Cu29  1  0.000000  0.800030  0.000000  1.0  0.8212
  Cu  Cu30  1  0.000000  0.853750  0.000000  1.0  0.8187
  Cu  Cu31  1  0.000000  0.300030  0.500000  1.0  0.8212
  Cu  Cu32  1  0.000000  0.353750  0.500000  1.0  0.8187
  Cu  Cu33  1  0.500000  0.500000  0.199970  1.0  0.8221
  Cu  Cu34  1  0.500000  0.500000  0.146250  1.0  0.819
  Cu  Cu35  1  0.500000  0.000000  0.699970  1.0  0.8221
  Cu  Cu36  1  0.500000  0.000000  0.646250  1.0  0.819
  Cu  Cu37  1  0.000000  0.500000  0.699970  1.0  0.8221
  Cu  Cu38  1  0.000000  0.500000  0.646250  1.0  0.819
  Cu  Cu39  1  0.000000  0.000000  0.199970  1.0  0.8221
  Cu  Cu40  1  0.000000  0.000000  0.146250  1.0  0.819
  Cu  Cu41  1  0.500000  0.500000  0.800030  1.0  0.8254
  Cu  Cu42  1  0.500000  0.500000  0.853750  1.0  0.8172
  Cu  Cu43  1  0.500000  0.000000  0.300030  1.0  0.8254
  Cu  Cu44  1  0.500000  0.000000  0.353750  1.0  0.8172
  Cu  Cu45  1  0.000000  0.500000  0.300030  1.0  0.8254
  Cu  Cu46  1  0.000000  0.500000  0.353750  1.0  0.8172
  Cu  Cu47  1  0.000000  0.000000  0.800030  1.0  0.8254
  Cu  Cu48  1  0.000000  0.000000  0.853750  1.0  0.8172
  H  H49  1  0.223660  0.549370  0.252900  1.0  0.1165
  H  H50  1  0.185790  0.548860  0.290040  1.0  0.1135
  H  H51  1  0.221730  0.502300  0.412450  1.0  0.1156
  H  H52  1  0.223000  0.504690  0.359330  1.0  0.1126
  H  H53  1  0.127940  0.500090  0.410330  1.0  0.1057
  H  H54  1  0.088800  0.500450  0.371200  1.0  0.1065
  H  H55  1  0.139770  0.506920  0.276230  1.0  0.1104
  H  H56  1  0.086630  0.505180  0.277510  1.0  0.114
  H  H57  1  0.209270  0.462920  0.313220  1.0  0.108
  H  H58  1  0.247050  0.463040  0.275970  1.0  0.1122
  H  H59  1  0.223660  0.049370  0.752900  1.0  0.1165
  H  H60  1  0.185790  0.048860  0.790040  1.0  0.1135
  H  H61  1  0.221730  0.002300  0.912450  1.0  0.1173
  H  H62  1  0.223000  0.004690  0.859330  1.0  0.1126
  H  H63  1  0.127940  0.000090  0.910330  1.0  0.1057
  H  H64  1  0.088800  0.000450  0.871200  1.0  0.1065
  H  H65  1  0.139770  0.006920  0.776230  1.0  0.1109
  H  H66  1  0.086630  0.005180  0.777510  1.0  0.1127
  H  H67  1  0.209270  0.962920  0.813220  1.0  0.108
  H  H68  1  0.247050  0.963040  0.775970  1.0  0.1122
  H  H69  1  0.723660  0.549370  0.752900  1.0  0.1165
  H  H70  1  0.685790  0.548860  0.790040  1.0  0.1135
  H  H71  1  0.721730  0.502300  0.912450  1.0  0.1156
  H  H72  1  0.723000  0.504690  0.859330  1.0  0.1126
  H  H73  1  0.627940  0.500090  0.910330  1.0  0.1057
  H  H74  1  0.588800  0.500450  0.871200  1.0  0.1065
  H  H75  1  0.639770  0.506920  0.776230  1.0  0.1104
  H  H76  1  0.586630  0.505180  0.777510  1.0  0.114
  H  H77  1  0.709270  0.462920  0.813220  1.0  0.108
  H  H78  1  0.747050  0.463040  0.775970  1.0  0.1122
  H  H79  1  0.723660  0.049370  0.252900  1.0  0.1165
  H  H80  1  0.685790  0.048860  0.290040  1.0  0.1135
  H  H81  1  0.721730  0.002300  0.412450  1.0  0.1173
  H  H82  1  0.723000  0.004690  0.359330  1.0  0.1126
  H  H83  1  0.627940  0.000090  0.410330  1.0  0.1057
  H  H84  1  0.588800  0.000450  0.371200  1.0  0.1065
  H  H85  1  0.639770  0.006920  0.276230  1.0  0.1109
  H  H86  1  0.586630  0.005180  0.277510  1.0  0.1127
  H  H87  1  0.709270  0.962920  0.313220  1.0  0.108
  H  H88  1  0.747050  0.963040  0.275970  1.0  0.1122
  H  H89  1  0.776340  0.450630  0.252900  1.0  0.1154
  H  H90  1  0.814210  0.451140  0.290040  1.0  0.1116
  H  H91  1  0.778270  0.497700  0.412450  1.0  0.1159
  H  H92  1  0.777000  0.495310  0.359330  1.0  0.1135
  H  H93  1  0.872060  0.499910  0.410330  1.0  0.1057
  H  H94  1  0.911200  0.499550  0.371200  1.0  0.1066
  H  H95  1  0.860230  0.493080  0.276230  1.0  0.1099
  H  H96  1  0.913370  0.494820  0.277510  1.0  0.1138
  H  H97  1  0.790730  0.537080  0.313220  1.0  0.1089
  H  H98  1  0.752950  0.536960  0.275970  1.0  0.1138
  H  H99  1  0.776340  0.950630  0.752900  1.0  0.1154
  H  H100  1  0.814210  0.951140  0.790040  1.0  0.1116
  H  H101  1  0.778270  0.997700  0.912450  1.0  0.1175
  H  H102  1  0.777000  0.995310  0.859330  1.0  0.1135
  H  H103  1  0.872060  0.999910  0.910330  1.0  0.1057
  H  H104  1  0.911200  0.999550  0.871200  1.0  0.1066
  H  H105  1  0.860230  0.993080  0.776230  1.0  0.1103
  H  H106  1  0.913370  0.994820  0.777510  1.0  0.1127
  H  H107  1  0.790730  0.037080  0.813220  1.0  0.1089
  H  H108  1  0.752950  0.036960  0.775970  1.0  0.1138
  H  H109  1  0.276340  0.450630  0.752900  1.0  0.1154
  H  H110  1  0.314210  0.451140  0.790040  1.0  0.1116
  H  H111  1  0.278270  0.497700  0.912450  1.0  0.1159
  H  H112  1  0.277000  0.495310  0.859330  1.0  0.1135
  H  H113  1  0.372060  0.499910  0.910330  1.0  0.1057
  H  H114  1  0.411200  0.499550  0.871200  1.0  0.1066
  H  H115  1  0.360230  0.493080  0.776230  1.0  0.1099
  H  H116  1  0.413370  0.494820  0.777510  1.0  0.1138
  H  H117  1  0.290730  0.537080  0.813220  1.0  0.1089
  H  H118  1  0.252950  0.536960  0.775970  1.0  0.1138
  H  H119  1  0.276340  0.950630  0.252900  1.0  0.1154
  H  H120  1  0.314210  0.951140  0.290040  1.0  0.1116
  H  H121  1  0.278270  0.997700  0.412450  1.0  0.1175
  H  H122  1  0.277000  0.995310  0.359330  1.0  0.1135
  H  H123  1  0.372060  0.999910  0.410330  1.0  0.1057
  H  H124  1  0.411200  0.999550  0.371200  1.0  0.1066
  H  H125  1  0.360230  0.993080  0.276230  1.0  0.1103
  H  H126  1  0.413370  0.994820  0.277510  1.0  0.1127
  H  H127  1  0.290730  0.037080  0.313220  1.0  0.1089
  H  H128  1  0.252950  0.036960  0.275970  1.0  0.1138
  H  H129  1  0.776340  0.549370  0.747100  1.0  0.1165
  H  H130  1  0.814210  0.548860  0.709960  1.0  0.114
  H  H131  1  0.778270  0.502300  0.587550  1.0  0.116
  H  H132  1  0.777000  0.504690  0.640670  1.0  0.1131
  H  H133  1  0.872060  0.500090  0.589670  1.0  0.1061
  H  H134  1  0.911200  0.500450  0.628800  1.0  0.1057
  H  H135  1  0.860230  0.506920  0.723770  1.0  0.1098
  H  H136  1  0.913370  0.505180  0.722490  1.0  0.1145
  H  H137  1  0.790730  0.462920  0.686780  1.0  0.1077
  H  H138  1  0.752950  0.463040  0.724030  1.0  0.1132
  H  H139  1  0.776340  0.049370  0.247100  1.0  0.1165
  H  H140  1  0.814210  0.048860  0.209960  1.0  0.114
  H  H141  1  0.778270  0.002300  0.087550  1.0  0.1175
  H  H142  1  0.777000  0.004690  0.140670  1.0  0.1131
  H  H143  1  0.872060  0.000090  0.089670  1.0  0.1061
  H  H144  1  0.911200  0.000450  0.128800  1.0  0.1057
  H  H145  1  0.860230  0.006920  0.223770  1.0  0.1101
  H  H146  1  0.913370  0.005180  0.222490  1.0  0.1135
  H  H147  1  0.790730  0.962920  0.186780  1.0  0.1077
  H  H148  1  0.752950  0.963040  0.224030  1.0  0.1132
  H  H149  1  0.276340  0.549370  0.247100  1.0  0.1165
  H  H150  1  0.314210  0.548860  0.209960  1.0  0.114
  H  H151  1  0.278270  0.502300  0.087550  1.0  0.116
  H  H152  1  0.277000  0.504690  0.140670  1.0  0.1131
  H  H153  1  0.372060  0.500090  0.089670  1.0  0.1061
  H  H154  1  0.411200  0.500450  0.128800  1.0  0.1057
  H  H155  1  0.360230  0.506920  0.223770  1.0  0.1098
  H  H156  1  0.413370  0.505180  0.222490  1.0  0.1145
  H  H157  1  0.290730  0.462920  0.186780  1.0  0.1077
  H  H158  1  0.252950  0.463040  0.224030  1.0  0.1132
  H  H159  1  0.276340  0.049370  0.747100  1.0  0.1165
  H  H160  1  0.314210  0.048860  0.709960  1.0  0.114
  H  H161  1  0.278270  0.002300  0.587550  1.0  0.1175
  H  H162  1  0.277000  0.004690  0.640670  1.0  0.1131
  H  H163  1  0.372060  0.000090  0.589670  1.0  0.1061
  H  H164  1  0.411200  0.000450  0.628800  1.0  0.1057
  H  H165  1  0.360230  0.006920  0.723770  1.0  0.1101
  H  H166  1  0.413370  0.005180  0.722490  1.0  0.1135
  H  H167  1  0.290730  0.962920  0.686780  1.0  0.1077
  H  H168  1  0.252950  0.963040  0.724030  1.0  0.1132
  H  H169  1  0.223660  0.450630  0.747100  1.0  0.1159
  H  H170  1  0.185790  0.451140  0.709960  1.0  0.112
  H  H171  1  0.221730  0.497700  0.587550  1.0  0.1153
  H  H172  1  0.223000  0.495310  0.640670  1.0  0.1129
  H  H173  1  0.127940  0.499910  0.589670  1.0  0.1063
  H  H174  1  0.088800  0.499550  0.628800  1.0  0.1063
  H  H175  1  0.139770  0.493080  0.723770  1.0  0.1103
  H  H176  1  0.086630  0.494820  0.722490  1.0  0.1151
  H  H177  1  0.209270  0.537080  0.686780  1.0  0.1089
  H  H178  1  0.247050  0.536960  0.724030  1.0  0.1136
  H  H179  1  0.223660  0.950630  0.247100  1.0  0.1159
  H  H180  1  0.185790  0.951140  0.209960  1.0  0.112
  H  H181  1  0.221730  0.997700  0.087550  1.0  0.1171
  H  H182  1  0.223000  0.995310  0.140670  1.0  0.1129
  H  H183  1  0.127940  0.999910  0.089670  1.0  0.1063
  H  H184  1  0.088800  0.999550  0.128800  1.0  0.1063
  H  H185  1  0.139770  0.993080  0.223770  1.0  0.1107
  H  H186  1  0.086630  0.994820  0.222490  1.0  0.114
  H  H187  1  0.209270  0.037080  0.186780  1.0  0.1089
  H  H188  1  0.247050  0.036960  0.224030  1.0  0.1136
  H  H189  1  0.723660  0.450630  0.247100  1.0  0.1159
  H  H190  1  0.685790  0.451140  0.209960  1.0  0.112
  H  H191  1  0.721730  0.497700  0.087550  1.0  0.1153
  H  H192  1  0.723000  0.495310  0.140670  1.0  0.1129
  H  H193  1  0.627940  0.499910  0.089670  1.0  0.1063
  H  H194  1  0.588800  0.499550  0.128800  1.0  0.1063
  H  H195  1  0.639770  0.493080  0.223770  1.0  0.1103
  H  H196  1  0.586630  0.494820  0.222490  1.0  0.1151
  H  H197  1  0.709270  0.537080  0.186780  1.0  0.1089
  H  H198  1  0.747050  0.536960  0.224030  1.0  0.1136
  H  H199  1  0.723660  0.950630  0.747100  1.0  0.1159
  H  H200  1  0.685790  0.951140  0.709960  1.0  0.112
  H  H201  1  0.721730  0.997700  0.587550  1.0  0.1171
  H  H202  1  0.723000  0.995310  0.640670  1.0  0.1129
  H  H203  1  0.627940  0.999910  0.589670  1.0  0.1063
  H  H204  1  0.588800  0.999550  0.628800  1.0  0.1063
  H  H205  1  0.639770  0.993080  0.723770  1.0  0.1107
  H  H206  1  0.586630  0.994820  0.722490  1.0  0.114
  H  H207  1  0.709270  0.037080  0.686780  1.0  0.1089
  H  H208  1  0.747050  0.036960  0.724030  1.0  0.1136
  H  H209  1  0.252900  0.223660  0.549370  1.0  0.1152
  H  H210  1  0.290040  0.185790  0.548860  1.0  0.1105
  H  H211  1  0.412450  0.221730  0.502300  1.0  0.1187
  H  H212  1  0.359330  0.223000  0.504690  1.0  0.115
  H  H213  1  0.410330  0.127940  0.500090  1.0  0.1065
  H  H214  1  0.371200  0.088800  0.500450  1.0  0.1057
  H  H215  1  0.276230  0.139770  0.506920  1.0  0.1122
  H  H216  1  0.277510  0.086630  0.505180  1.0  0.1158
  H  H217  1  0.313220  0.209270  0.462920  1.0  0.1073
  H  H218  1  0.275970  0.247050  0.463040  1.0  0.1127
  H  H219  1  0.252900  0.723660  0.049370  1.0  0.1152
  H  H220  1  0.290040  0.685790  0.048860  1.0  0.1105
  H  H221  1  0.412450  0.721730  0.002300  1.0  0.1202
  H  H222  1  0.359330  0.723000  0.004690  1.0  0.115
  H  H223  1  0.410330  0.627940  0.000090  1.0  0.1065
  H  H224  1  0.371200  0.588800  0.000450  1.0  0.1057
  H  H225  1  0.276230  0.639770  0.006920  1.0  0.1128
  H  H226  1  0.277510  0.586630  0.005180  1.0  0.1147
  H  H227  1  0.313220  0.709270  0.962920  1.0  0.1073
  H  H228  1  0.275970  0.747050  0.963040  1.0  0.1127
  H  H229  1  0.752900  0.223660  0.049370  1.0  0.1152
  H  H230  1  0.790040  0.185790  0.048860  1.0  0.1105
  H  H231  1  0.912450  0.221730  0.002300  1.0  0.1202
  H  H232  1  0.859330  0.223000  0.004690  1.0  0.115
  H  H233  1  0.910330  0.127940  0.000090  1.0  0.1065
  H  H234  1  0.871200  0.088800  0.000450  1.0  0.1057
  H  H235  1  0.776230  0.139770  0.006920  1.0  0.1128
  H  H236  1  0.777510  0.086630  0.005180  1.0  0.1147
  H  H237  1  0.813220  0.209270  0.962920  1.0  0.1073
  H  H238  1  0.775970  0.247050  0.963040  1.0  0.1127
  H  H239  1  0.752900  0.723660  0.549370  1.0  0.1152
  H  H240  1  0.790040  0.685790  0.548860  1.0  0.1105
  H  H241  1  0.912450  0.721730  0.502300  1.0  0.1187
  H  H242  1  0.859330  0.723000  0.504690  1.0  0.115
  H  H243  1  0.910330  0.627940  0.500090  1.0  0.1065
  H  H244  1  0.871200  0.588800  0.500450  1.0  0.1057
  H  H245  1  0.776230  0.639770  0.506920  1.0  0.1122
  H  H246  1  0.777510  0.586630  0.505180  1.0  0.1158
  H  H247  1  0.813220  0.709270  0.462920  1.0  0.1073
  H  H248  1  0.775970  0.747050  0.463040  1.0  0.1127
  H  H249  1  0.252900  0.776340  0.450630  1.0  0.1147
  H  H250  1  0.290040  0.814210  0.451140  1.0  0.1093
  H  H251  1  0.412450  0.778270  0.497700  1.0  0.1183
  H  H252  1  0.359330  0.777000  0.495310  1.0  0.1132
  H  H253  1  0.410330  0.872060  0.499910  1.0  0.107
  H  H254  1  0.371200  0.911200  0.499550  1.0  0.1059
  H  H255  1  0.276230  0.860230  0.493080  1.0  0.1122
  H  H256  1  0.277510  0.913370  0.494820  1.0  0.1158
  H  H257  1  0.313220  0.790730  0.537080  1.0  0.109
  H  H258  1  0.275970  0.752950  0.536960  1.0  0.1128
  H  H259  1  0.252900  0.276340  0.950630  1.0  0.1147
  H  H260  1  0.290040  0.314210  0.951140  1.0  0.1093
  H  H261  1  0.412450  0.278270  0.997700  1.0  0.1198
  H  H262  1  0.359330  0.277000  0.995310  1.0  0.1132
  H  H263  1  0.410330  0.372060  0.999910  1.0  0.107
  H  H264  1  0.371200  0.411200  0.999550  1.0  0.1059
  H  H265  1  0.276230  0.360230  0.993080  1.0  0.1127
  H  H266  1  0.277510  0.413370  0.994820  1.0  0.1148
  H  H267  1  0.313220  0.290730  0.037080  1.0  0.109
  H  H268  1  0.275970  0.252950  0.036960  1.0  0.1128
  H  H269  1  0.752900  0.776340  0.950630  1.0  0.1147
  H  H270  1  0.790040  0.814210  0.951140  1.0  0.1093
  H  H271  1  0.912450  0.778270  0.997700  1.0  0.1198
  H  H272  1  0.859330  0.777000  0.995310  1.0  0.1132
  H  H273  1  0.910330  0.872060  0.999910  1.0  0.107
  H  H274  1  0.871200  0.911200  0.999550  1.0  0.1059
  H  H275  1  0.776230  0.860230  0.993080  1.0  0.1127
  H  H276  1  0.777510  0.913370  0.994820  1.0  0.1148
  H  H277  1  0.813220  0.790730  0.037080  1.0  0.109
  H  H278  1  0.775970  0.752950  0.036960  1.0  0.1128
  H  H279  1  0.752900  0.276340  0.450630  1.0  0.1147
  H  H280  1  0.790040  0.314210  0.451140  1.0  0.1093
  H  H281  1  0.912450  0.278270  0.497700  1.0  0.1183
  H  H282  1  0.859330  0.277000  0.495310  1.0  0.1132
  H  H283  1  0.910330  0.372060  0.499910  1.0  0.107
  H  H284  1  0.871200  0.411200  0.499550  1.0  0.1059
  H  H285  1  0.776230  0.360230  0.493080  1.0  0.1122
  H  H286  1  0.777510  0.413370  0.494820  1.0  0.1158
  H  H287  1  0.813220  0.290730  0.537080  1.0  0.109
  H  H288  1  0.775970  0.252950  0.536960  1.0  0.1128
  H  H289  1  0.747100  0.776340  0.549370  1.0  0.1155
  H  H290  1  0.709960  0.814210  0.548860  1.0  0.1102
  H  H291  1  0.587550  0.778270  0.502300  1.0  0.1176
  H  H292  1  0.640670  0.777000  0.504690  1.0  0.1148
  H  H293  1  0.589670  0.872060  0.500090  1.0  0.1081
  H  H294  1  0.628800  0.911200  0.500450  1.0  0.1058
  H  H295  1  0.723770  0.860230  0.506920  1.0  0.1122
  H  H296  1  0.722490  0.913370  0.505180  1.0  0.1155
  H  H297  1  0.686780  0.790730  0.462920  1.0  0.1074
  H  H298  1  0.724030  0.752950  0.463040  1.0  0.1119
  H  H299  1  0.747100  0.276340  0.049370  1.0  0.1155
  H  H300  1  0.709960  0.314210  0.048860  1.0  0.1102
  H  H301  1  0.587550  0.278270  0.002300  1.0  0.1192
  H  H302  1  0.640670  0.277000  0.004690  1.0  0.1148
  H  H303  1  0.589670  0.372060  0.000090  1.0  0.1081
  H  H304  1  0.628800  0.411200  0.000450  1.0  0.1058
  H  H305  1  0.723770  0.360230  0.006920  1.0  0.1125
  H  H306  1  0.722490  0.413370  0.005180  1.0  0.1155
  H  H307  1  0.686780  0.290730  0.962920  1.0  0.1074
  H  H308  1  0.724030  0.252950  0.963040  1.0  0.1119
  H  H309  1  0.247100  0.776340  0.049370  1.0  0.1155
  H  H310  1  0.209960  0.814210  0.048860  1.0  0.1102
  H  H311  1  0.087550  0.778270  0.002300  1.0  0.1192
  H  H312  1  0.140670  0.777000  0.004690  1.0  0.1148
  H  H313  1  0.089670  0.872060  0.000090  1.0  0.1081
  H  H314  1  0.128800  0.911200  0.000450  1.0  0.1058
  H  H315  1  0.223770  0.860230  0.006920  1.0  0.1125
  H  H316  1  0.222490  0.913370  0.005180  1.0  0.1155
  H  H317  1  0.186780  0.790730  0.962920  1.0  0.1074
  H  H318  1  0.224030  0.752950  0.963040  1.0  0.1119
  H  H319  1  0.247100  0.276340  0.549370  1.0  0.1155
  H  H320  1  0.209960  0.314210  0.548860  1.0  0.1102
  H  H321  1  0.087550  0.278270  0.502300  1.0  0.1176
  H  H322  1  0.140670  0.277000  0.504690  1.0  0.1148
  H  H323  1  0.089670  0.372060  0.500090  1.0  0.1081
  H  H324  1  0.128800  0.411200  0.500450  1.0  0.1058
  H  H325  1  0.223770  0.360230  0.506920  1.0  0.1122
  H  H326  1  0.222490  0.413370  0.505180  1.0  0.1155
  H  H327  1  0.186780  0.290730  0.462920  1.0  0.1074
  H  H328  1  0.224030  0.252950  0.463040  1.0  0.1119
  H  H329  1  0.747100  0.223660  0.450630  1.0  0.1145
  H  H330  1  0.709960  0.185790  0.451140  1.0  0.1092
  H  H331  1  0.587550  0.221730  0.497700  1.0  0.1189
  H  H332  1  0.640670  0.223000  0.495310  1.0  0.1153
  H  H333  1  0.589670  0.127940  0.499910  1.0  0.1068
  H  H334  1  0.628800  0.088800  0.499550  1.0  0.1057
  H  H335  1  0.723770  0.139770  0.493080  1.0  0.1125
  H  H336  1  0.722490  0.086630  0.494820  1.0  0.1154
  H  H337  1  0.686780  0.209270  0.537080  1.0  0.1091
  H  H338  1  0.724030  0.247050  0.536960  1.0  0.1124
  H  H339  1  0.747100  0.723660  0.950630  1.0  0.1145
  H  H340  1  0.709960  0.685790  0.951140  1.0  0.1092
  H  H341  1  0.587550  0.721730  0.997700  1.0  0.1204
  H  H342  1  0.640670  0.723000  0.995310  1.0  0.1153
  H  H343  1  0.589670  0.627940  0.999910  1.0  0.1068
  H  H344  1  0.628800  0.588800  0.999550  1.0  0.1057
  H  H345  1  0.723770  0.639770  0.993080  1.0  0.1127
  H  H346  1  0.722490  0.586630  0.994820  1.0  0.115
  H  H347  1  0.686780  0.709270  0.037080  1.0  0.1091
  H  H348  1  0.724030  0.747050  0.036960  1.0  0.1124
  H  H349  1  0.247100  0.223660  0.950630  1.0  0.1145
  H  H350  1  0.209960  0.185790  0.951140  1.0  0.1092
  H  H351  1  0.087550  0.221730  0.997700  1.0  0.1204
  H  H352  1  0.140670  0.223000  0.995310  1.0  0.1153
  H  H353  1  0.089670  0.127940  0.999910  1.0  0.1068
  H  H354  1  0.128800  0.088800  0.999550  1.0  0.1057
  H  H355  1  0.223770  0.139770  0.993080  1.0  0.1127
  H  H356  1  0.222490  0.086630  0.994820  1.0  0.115
  H  H357  1  0.186780  0.209270  0.037080  1.0  0.1091
  H  H358  1  0.224030  0.247050  0.036960  1.0  0.1124
  H  H359  1  0.247100  0.723660  0.450630  1.0  0.1145
  H  H360  1  0.209960  0.685790  0.451140  1.0  0.1092
  H  H361  1  0.087550  0.721730  0.497700  1.0  0.1189
  H  H362  1  0.140670  0.723000  0.495310  1.0  0.1153
  H  H363  1  0.089670  0.627940  0.499910  1.0  0.1068
  H  H364  1  0.128800  0.588800  0.499550  1.0  0.1057
  H  H365  1  0.223770  0.639770  0.493080  1.0  0.1125
  H  H366  1  0.222490  0.586630  0.494820  1.0  0.1154
  H  H367  1  0.186780  0.709270  0.537080  1.0  0.1091
  H  H368  1  0.224030  0.747050  0.536960  1.0  0.1124
  H  H369  1  0.549370  0.252900  0.223660  1.0  0.1159
  H  H370  1  0.548860  0.290040  0.185790  1.0  0.1103
  H  H371  1  0.502300  0.412450  0.221730  1.0  0.1155
  H  H372  1  0.504690  0.359330  0.223000  1.0  0.1109
  H  H373  1  0.500090  0.410330  0.127940  1.0  0.107
  H  H374  1  0.500450  0.371200  0.088800  1.0  0.1075
  H  H375  1  0.506920  0.276230  0.139770  1.0  0.1131
  H  H376  1  0.505180  0.277510  0.086630  1.0  0.1167
  H  H377  1  0.462920  0.313220  0.209270  1.0  0.109
  H  H378  1  0.463040  0.275970  0.247050  1.0  0.1121
  H  H379  1  0.549370  0.752900  0.723660  1.0  0.1159
  H  H380  1  0.548860  0.790040  0.685790  1.0  0.1103
  H  H381  1  0.502300  0.912450  0.721730  1.0  0.1155
  H  H382  1  0.504690  0.859330  0.723000  1.0  0.1109
  H  H383  1  0.500090  0.910330  0.627940  1.0  0.107
  H  H384  1  0.500450  0.871200  0.588800  1.0  0.1075
  H  H385  1  0.506920  0.776230  0.639770  1.0  0.1131
  H  H386  1  0.505180  0.777510  0.586630  1.0  0.1167
  H  H387  1  0.462920  0.813220  0.709270  1.0  0.109
  H  H388  1  0.463040  0.775970  0.747050  1.0  0.1121
  H  H389  1  0.049370  0.252900  0.723660  1.0  0.1159
  H  H390  1  0.048860  0.290040  0.685790  1.0  0.1103
  H  H391  1  0.002300  0.412450  0.721730  1.0  0.1176
  H  H392  1  0.004690  0.359330  0.723000  1.0  0.1109
  H  H393  1  0.000090  0.410330  0.627940  1.0  0.107
  H  H394  1  0.000450  0.371200  0.588800  1.0  0.1075
  H  H395  1  0.006920  0.276230  0.639770  1.0  0.113
  H  H396  1  0.005180  0.277510  0.586630  1.0  0.1155
  H  H397  1  0.962920  0.313220  0.709270  1.0  0.109
  H  H398  1  0.963040  0.275970  0.747050  1.0  0.1121
  H  H399  1  0.049370  0.752900  0.223660  1.0  0.1159
  H  H400  1  0.048860  0.790040  0.185790  1.0  0.1103
  H  H401  1  0.002300  0.912450  0.221730  1.0  0.1176
  H  H402  1  0.004690  0.859330  0.223000  1.0  0.1109
  H  H403  1  0.000090  0.910330  0.127940  1.0  0.107
  H  H404  1  0.000450  0.871200  0.088800  1.0  0.1075
  H  H405  1  0.006920  0.776230  0.139770  1.0  0.113
  H  H406  1  0.005180  0.777510  0.086630  1.0  0.1155
  H  H407  1  0.962920  0.813220  0.209270  1.0  0.109
  H  H408  1  0.963040  0.775970  0.247050  1.0  0.1121
  H  H409  1  0.450630  0.252900  0.776340  1.0  0.1146
  H  H410  1  0.451140  0.290040  0.814210  1.0  0.111
  H  H411  1  0.497700  0.412450  0.778270  1.0  0.1145
  H  H412  1  0.495310  0.359330  0.777000  1.0  0.1109
  H  H413  1  0.499910  0.410330  0.872060  1.0  0.1083
  H  H414  1  0.499550  0.371200  0.911200  1.0  0.109
  H  H415  1  0.493080  0.276230  0.860230  1.0  0.1129
  H  H416  1  0.494820  0.277510  0.913370  1.0  0.117
  H  H417  1  0.537080  0.313220  0.790730  1.0  0.108
  H  H418  1  0.536960  0.275970  0.752950  1.0  0.1115
  H  H419  1  0.450630  0.752900  0.276340  1.0  0.1146
  H  H420  1  0.451140  0.790040  0.314210  1.0  0.111
  H  H421  1  0.497700  0.912450  0.278270  1.0  0.1145
  H  H422  1  0.495310  0.859330  0.277000  1.0  0.1109
  H  H423  1  0.499910  0.910330  0.372060  1.0  0.1083
  H  H424  1  0.499550  0.871200  0.411200  1.0  0.109
  H  H425  1  0.493080  0.776230  0.360230  1.0  0.1129
  H  H426  1  0.494820  0.777510  0.413370  1.0  0.117
  H  H427  1  0.537080  0.813220  0.290730  1.0  0.108
  H  H428  1  0.536960  0.775970  0.252950  1.0  0.1115
  H  H429  1  0.950630  0.252900  0.276340  1.0  0.1146
  H  H430  1  0.951140  0.290040  0.314210  1.0  0.111
  H  H431  1  0.997700  0.412450  0.278270  1.0  0.1162
  H  H432  1  0.995310  0.359330  0.277000  1.0  0.1109
  H  H433  1  0.999910  0.410330  0.372060  1.0  0.1083
  H  H434  1  0.999550  0.371200  0.411200  1.0  0.109
  H  H435  1  0.993080  0.276230  0.360230  1.0  0.1129
  H  H436  1  0.994820  0.277510  0.413370  1.0  0.1155
  H  H437  1  0.037080  0.313220  0.290730  1.0  0.108
  H  H438  1  0.036960  0.275970  0.252950  1.0  0.1115
  H  H439  1  0.950630  0.752900  0.776340  1.0  0.1146
  H  H440  1  0.951140  0.790040  0.814210  1.0  0.111
  H  H441  1  0.997700  0.912450  0.778270  1.0  0.1162
  H  H442  1  0.995310  0.859330  0.777000  1.0  0.1109
  H  H443  1  0.999910  0.910330  0.872060  1.0  0.1083
  H  H444  1  0.999550  0.871200  0.911200  1.0  0.109
  H  H445  1  0.993080  0.776230  0.860230  1.0  0.1129
  H  H446  1  0.994820  0.777510  0.913370  1.0  0.1155
  H  H447  1  0.037080  0.813220  0.790730  1.0  0.108
  H  H448  1  0.036960  0.775970  0.752950  1.0  0.1115
  H  H449  1  0.549370  0.747100  0.776340  1.0  0.1158
  H  H450  1  0.548860  0.709960  0.814210  1.0  0.11
  H  H451  1  0.502300  0.587550  0.778270  1.0  0.1145
  H  H452  1  0.504690  0.640670  0.777000  1.0  0.1105
  H  H453  1  0.500090  0.589670  0.872060  1.0  0.1072
  H  H454  1  0.500450  0.628800  0.911200  1.0  0.107
  H  H455  1  0.506920  0.723770  0.860230  1.0  0.1144
  H  H456  1  0.505180  0.722490  0.913370  1.0  0.1177
  H  H457  1  0.462920  0.686780  0.790730  1.0  0.109
  H  H458  1  0.463040  0.724030  0.752950  1.0  0.1121
  H  H459  1  0.549370  0.247100  0.276340  1.0  0.1158
  H  H460  1  0.548860  0.209960  0.314210  1.0  0.11
  H  H461  1  0.502300  0.087550  0.278270  1.0  0.1145
  H  H462  1  0.504690  0.140670  0.277000  1.0  0.1105
  H  H463  1  0.500090  0.089670  0.372060  1.0  0.1072
  H  H464  1  0.500450  0.128800  0.411200  1.0  0.107
  H  H465  1  0.506920  0.223770  0.360230  1.0  0.1144
  H  H466  1  0.505180  0.222490  0.413370  1.0  0.1177
  H  H467  1  0.462920  0.186780  0.290730  1.0  0.109
  H  H468  1  0.463040  0.224030  0.252950  1.0  0.1121
  H  H469  1  0.049370  0.747100  0.276340  1.0  0.1158
  H  H470  1  0.048860  0.709960  0.314210  1.0  0.11
  H  H471  1  0.002300  0.587550  0.278270  1.0  0.1162
  H  H472  1  0.004690  0.640670  0.277000  1.0  0.1105
  H  H473  1  0.000090  0.589670  0.372060  1.0  0.1072
  H  H474  1  0.000450  0.628800  0.411200  1.0  0.107
  H  H475  1  0.006920  0.723770  0.360230  1.0  0.115
  H  H476  1  0.005180  0.722490  0.413370  1.0  0.1163
  H  H477  1  0.962920  0.686780  0.290730  1.0  0.109
  H  H478  1  0.963040  0.724030  0.252950  1.0  0.1121
  H  H479  1  0.049370  0.247100  0.776340  1.0  0.1158
  H  H480  1  0.048860  0.209960  0.814210  1.0  0.11
  H  H481  1  0.002300  0.087550  0.778270  1.0  0.1162
  H  H482  1  0.004690  0.140670  0.777000  1.0  0.1105
  H  H483  1  0.000090  0.089670  0.872060  1.0  0.1072
  H  H484  1  0.000450  0.128800  0.911200  1.0  0.107
  H  H485  1  0.006920  0.223770  0.860230  1.0  0.115
  H  H486  1  0.005180  0.222490  0.913370  1.0  0.1163
  H  H487  1  0.962920  0.186780  0.790730  1.0  0.109
  H  H488  1  0.963040  0.224030  0.752950  1.0  0.1121
  H  H489  1  0.450630  0.747100  0.223660  1.0  0.1156
  H  H490  1  0.451140  0.709960  0.185790  1.0  0.111
  H  H491  1  0.497700  0.587550  0.221730  1.0  0.1159
  H  H492  1  0.495310  0.640670  0.223000  1.0  0.1115
  H  H493  1  0.499910  0.589670  0.127940  1.0  0.1076
  H  H494  1  0.499550  0.628800  0.088800  1.0  0.1074
  H  H495  1  0.493080  0.723770  0.139770  1.0  0.1139
  H  H496  1  0.494820  0.722490  0.086630  1.0  0.1171
  H  H497  1  0.537080  0.686780  0.209270  1.0  0.108
  H  H498  1  0.536960  0.724030  0.247050  1.0  0.1121
  H  H499  1  0.450630  0.247100  0.723660  1.0  0.1156
  H  H500  1  0.451140  0.209960  0.685790  1.0  0.111
  H  H501  1  0.497700  0.087550  0.721730  1.0  0.1159
  H  H502  1  0.495310  0.140670  0.723000  1.0  0.1115
  H  H503  1  0.499910  0.089670  0.627940  1.0  0.1076
  H  H504  1  0.499550  0.128800  0.588800  1.0  0.1074
  H  H505  1  0.493080  0.223770  0.639770  1.0  0.1139
  H  H506  1  0.494820  0.222490  0.586630  1.0  0.1171
  H  H507  1  0.537080  0.186780  0.709270  1.0  0.108
  H  H508  1  0.536960  0.224030  0.747050  1.0  0.1121
  H  H509  1  0.950630  0.747100  0.723660  1.0  0.1156
  H  H510  1  0.951140  0.709960  0.685790  1.0  0.111
  H  H511  1  0.997700  0.587550  0.721730  1.0  0.1178
  H  H512  1  0.995310  0.640670  0.723000  1.0  0.1115
  H  H513  1  0.999910  0.589670  0.627940  1.0  0.1076
  H  H514  1  0.999550  0.628800  0.588800  1.0  0.1074
  H  H515  1  0.993080  0.723770  0.639770  1.0  0.1148
  H  H516  1  0.994820  0.722490  0.586630  1.0  0.1159
  H  H517  1  0.037080  0.686780  0.709270  1.0  0.108
  H  H518  1  0.036960  0.724030  0.747050  1.0  0.1121
  H  H519  1  0.950630  0.247100  0.223660  1.0  0.1156
  H  H520  1  0.951140  0.209960  0.185790  1.0  0.111
  H  H521  1  0.997700  0.087550  0.221730  1.0  0.1178
  H  H522  1  0.995310  0.140670  0.223000  1.0  0.1115
  H  H523  1  0.999910  0.089670  0.127940  1.0  0.1076
  H  H524  1  0.999550  0.128800  0.088800  1.0  0.1074
  H  H525  1  0.993080  0.223770  0.139770  1.0  0.1148
  H  H526  1  0.994820  0.222490  0.086630  1.0  0.1159
  H  H527  1  0.037080  0.186780  0.209270  1.0  0.108
  H  H528  1  0.036960  0.224030  0.247050  1.0  0.1121
  C  C529  1  0.220760  0.530240  0.265990  1.0  -0.1853
  C  C530  1  0.199160  0.529960  0.286970  1.0  -0.1511
  C  C531  1  0.201550  0.502170  0.400690  1.0  -0.0549
  C  C532  1  0.202540  0.503470  0.370470  1.0  -0.1212
  C  C533  1  0.176510  0.503400  0.355450  1.0  0.2323
  C  C534  1  0.150440  0.502230  0.369750  1.0  0.0161
  C  C535  1  0.148730  0.500870  0.399720  1.0  -0.134
  C  C536  1  0.174800  0.500920  0.415600  1.0  -0.121
  C  C537  1  0.173080  0.499310  0.446750  1.0  0.7075
  C  C538  1  0.052440  0.500700  0.326110  1.0  0.6767
  C  C539  1  0.083500  0.502760  0.324390  1.0  -0.119
  C  C540  1  0.099380  0.502040  0.350450  1.0  -0.1312
  C  C541  1  0.129380  0.503090  0.348740  1.0  0.0139
  C  C542  1  0.143660  0.504980  0.322700  1.0  0.235
  C  C543  1  0.128620  0.505750  0.296690  1.0  -0.1073
  C  C544  1  0.098390  0.504680  0.297670  1.0  -0.0653
  C  C545  1  0.194960  0.505460  0.304120  1.0  0.1332
  C  C546  1  0.212400  0.481950  0.300060  1.0  -0.1583
  C  C547  1  0.233750  0.482030  0.278810  1.0  -0.174
  C  C548  1  0.238170  0.505820  0.261650  1.0  -0.0033
  C  C549  1  0.220760  0.030240  0.765990  1.0  -0.1853
  C  C550  1  0.199160  0.029960  0.786970  1.0  -0.1511
  C  C551  1  0.201550  0.002170  0.900690  1.0  -0.0549
  C  C552  1  0.202540  0.003470  0.870470  1.0  -0.1212
  C  C553  1  0.176510  0.003400  0.855450  1.0  0.2323
  C  C554  1  0.150440  0.002230  0.869750  1.0  0.0143
  C  C555  1  0.148730  0.000870  0.899720  1.0  -0.134
  C  C556  1  0.174800  0.000920  0.915600  1.0  -0.121
  C  C557  1  0.173080  0.999310  0.946750  1.0  0.7075
  C  C558  1  0.052440  0.000700  0.826110  1.0  0.6767
  C  C559  1  0.083500  0.002760  0.824390  1.0  -0.119
  C  C560  1  0.099380  0.002040  0.850450  1.0  -0.1312
  C  C561  1  0.129380  0.003090  0.848740  1.0  0.0139
  C  C562  1  0.143660  0.004980  0.822700  1.0  0.235
  C  C563  1  0.128620  0.005750  0.796690  1.0  -0.1073
  C  C564  1  0.098390  0.004680  0.797670  1.0  -0.0653
  C  C565  1  0.194960  0.005460  0.804120  1.0  0.1332
  C  C566  1  0.212400  0.981950  0.800060  1.0  -0.1583
  C  C567  1  0.233750  0.982030  0.778810  1.0  -0.174
  C  C568  1  0.238170  0.005820  0.761650  1.0  -0.0033
  C  C569  1  0.720760  0.530240  0.765990  1.0  -0.1853
  C  C570  1  0.699160  0.529960  0.786970  1.0  -0.1511
  C  C571  1  0.701550  0.502170  0.900690  1.0  -0.0549
  C  C572  1  0.702540  0.503470  0.870470  1.0  -0.1212
  C  C573  1  0.676510  0.503400  0.855450  1.0  0.2323
  C  C574  1  0.650440  0.502230  0.869750  1.0  0.0161
  C  C575  1  0.648730  0.500870  0.899720  1.0  -0.134
  C  C576  1  0.674800  0.500920  0.915600  1.0  -0.121
  C  C577  1  0.673080  0.499310  0.946750  1.0  0.7075
  C  C578  1  0.552440  0.500700  0.826110  1.0  0.6767
  C  C579  1  0.583500  0.502760  0.824390  1.0  -0.119
  C  C580  1  0.599380  0.502040  0.850450  1.0  -0.1312
  C  C581  1  0.629380  0.503090  0.848740  1.0  0.0139
  C  C582  1  0.643660  0.504980  0.822700  1.0  0.235
  C  C583  1  0.628620  0.505750  0.796690  1.0  -0.1073
  C  C584  1  0.598390  0.504680  0.797670  1.0  -0.0653
  C  C585  1  0.694960  0.505460  0.804120  1.0  0.1332
  C  C586  1  0.712400  0.481950  0.800060  1.0  -0.1583
  C  C587  1  0.733750  0.482030  0.778810  1.0  -0.174
  C  C588  1  0.738170  0.505820  0.761650  1.0  -0.0033
  C  C589  1  0.720760  0.030240  0.265990  1.0  -0.1853
  C  C590  1  0.699160  0.029960  0.286970  1.0  -0.1511
  C  C591  1  0.701550  0.002170  0.400690  1.0  -0.0549
  C  C592  1  0.702540  0.003470  0.370470  1.0  -0.1212
  C  C593  1  0.676510  0.003400  0.355450  1.0  0.2323
  C  C594  1  0.650440  0.002230  0.369750  1.0  0.0161
  C  C595  1  0.648730  0.000870  0.399720  1.0  -0.134
  C  C596  1  0.674800  0.000920  0.415600  1.0  -0.121
  C  C597  1  0.673080  0.999310  0.446750  1.0  0.7075
  C  C598  1  0.552440  0.000700  0.326110  1.0  0.6767
  C  C599  1  0.583500  0.002760  0.324390  1.0  -0.119
  C  C600  1  0.599380  0.002040  0.350450  1.0  -0.1312
  C  C601  1  0.629380  0.003090  0.348740  1.0  0.0139
  C  C602  1  0.643660  0.004980  0.322700  1.0  0.235
  C  C603  1  0.628620  0.005750  0.296690  1.0  -0.1073
  C  C604  1  0.598390  0.004680  0.297670  1.0  -0.0653
  C  C605  1  0.694960  0.005460  0.304120  1.0  0.1332
  C  C606  1  0.712400  0.981950  0.300060  1.0  -0.1583
  C  C607  1  0.733750  0.982030  0.278810  1.0  -0.174
  C  C608  1  0.738170  0.005820  0.261650  1.0  -0.0033
  C  C609  1  0.779240  0.469760  0.265990  1.0  -0.1855
  C  C610  1  0.800840  0.470040  0.286970  1.0  -0.1511
  C  C611  1  0.798450  0.497830  0.400690  1.0  -0.0558
  C  C612  1  0.797460  0.496530  0.370470  1.0  -0.1212
  C  C613  1  0.823490  0.496600  0.355450  1.0  0.233
  C  C614  1  0.849560  0.497770  0.369750  1.0  0.0158
  C  C615  1  0.851270  0.499130  0.399720  1.0  -0.1325
  C  C616  1  0.825200  0.499080  0.415600  1.0  -0.1205
  C  C617  1  0.826920  0.500690  0.446750  1.0  0.7075
  C  C618  1  0.947560  0.499300  0.326110  1.0  0.6772
  C  C619  1  0.916500  0.497240  0.324390  1.0  -0.1193
  C  C620  1  0.900620  0.497960  0.350450  1.0  -0.1287
  C  C621  1  0.870620  0.496910  0.348740  1.0  0.0138
  C  C622  1  0.856340  0.495020  0.322700  1.0  0.2345
  C  C623  1  0.871380  0.494250  0.296690  1.0  -0.1099
  C  C624  1  0.901610  0.495320  0.297670  1.0  -0.0655
  C  C625  1  0.805040  0.494540  0.304120  1.0  0.1326
  C  C626  1  0.787600  0.518050  0.300060  1.0  -0.1598
  C  C627  1  0.766250  0.517970  0.278810  1.0  -0.1728
  C  C628  1  0.761830  0.494180  0.261650  1.0  -0.0042
  C  C629  1  0.779240  0.969760  0.765990  1.0  -0.1855
  C  C630  1  0.800840  0.970040  0.786970  1.0  -0.1511
  C  C631  1  0.798450  0.997830  0.900690  1.0  -0.0558
  C  C632  1  0.797460  0.996530  0.870470  1.0  -0.1212
  C  C633  1  0.823490  0.996600  0.855450  1.0  0.233
  C  C634  1  0.849560  0.997770  0.869750  1.0  0.0141
  C  C635  1  0.851270  0.999130  0.899720  1.0  -0.1325
  C  C636  1  0.825200  0.999080  0.915600  1.0  -0.1205
  C  C637  1  0.826920  0.000690  0.946750  1.0  0.7075
  C  C638  1  0.947560  0.999300  0.826110  1.0  0.6772
  C  C639  1  0.916500  0.997240  0.824390  1.0  -0.1193
  C  C640  1  0.900620  0.997960  0.850450  1.0  -0.1287
  C  C641  1  0.870620  0.996910  0.848740  1.0  0.0138
  C  C642  1  0.856340  0.995020  0.822700  1.0  0.2345
  C  C643  1  0.871380  0.994250  0.796690  1.0  -0.1099
  C  C644  1  0.901610  0.995320  0.797670  1.0  -0.0655
  C  C645  1  0.805040  0.994540  0.804120  1.0  0.1326
  C  C646  1  0.787600  0.018050  0.800060  1.0  -0.1598
  C  C647  1  0.766250  0.017970  0.778810  1.0  -0.1728
  C  C648  1  0.761830  0.994180  0.761650  1.0  -0.0042
  C  C649  1  0.279240  0.469760  0.765990  1.0  -0.1855
  C  C650  1  0.300840  0.470040  0.786970  1.0  -0.1511
  C  C651  1  0.298450  0.497830  0.900690  1.0  -0.0558
  C  C652  1  0.297460  0.496530  0.870470  1.0  -0.1212
  C  C653  1  0.323490  0.496600  0.855450  1.0  0.233
  C  C654  1  0.349560  0.497770  0.869750  1.0  0.0158
  C  C655  1  0.351270  0.499130  0.899720  1.0  -0.1325
  C  C656  1  0.325200  0.499080  0.915600  1.0  -0.1205
  C  C657  1  0.326920  0.500690  0.946750  1.0  0.7075
  C  C658  1  0.447560  0.499300  0.826110  1.0  0.6772
  C  C659  1  0.416500  0.497240  0.824390  1.0  -0.1193
  C  C660  1  0.400620  0.497960  0.850450  1.0  -0.1287
  C  C661  1  0.370620  0.496910  0.848740  1.0  0.0138
  C  C662  1  0.356340  0.495020  0.822700  1.0  0.2345
  C  C663  1  0.371380  0.494250  0.796690  1.0  -0.1099
  C  C664  1  0.401610  0.495320  0.797670  1.0  -0.0655
  C  C665  1  0.305040  0.494540  0.804120  1.0  0.1326
  C  C666  1  0.287600  0.518050  0.800060  1.0  -0.1598
  C  C667  1  0.266250  0.517970  0.778810  1.0  -0.1728
  C  C668  1  0.261830  0.494180  0.761650  1.0  -0.0042
  C  C669  1  0.279240  0.969760  0.265990  1.0  -0.1855
  C  C670  1  0.300840  0.970040  0.286970  1.0  -0.1511
  C  C671  1  0.298450  0.997830  0.400690  1.0  -0.0558
  C  C672  1  0.297460  0.996530  0.370470  1.0  -0.1212
  C  C673  1  0.323490  0.996600  0.355450  1.0  0.233
  C  C674  1  0.349560  0.997770  0.369750  1.0  0.0141
  C  C675  1  0.351270  0.999130  0.399720  1.0  -0.1325
  C  C676  1  0.325200  0.999080  0.415600  1.0  -0.1205
  C  C677  1  0.326920  0.000690  0.446750  1.0  0.7075
  C  C678  1  0.447560  0.999300  0.326110  1.0  0.6772
  C  C679  1  0.416500  0.997240  0.324390  1.0  -0.1193
  C  C680  1  0.400620  0.997960  0.350450  1.0  -0.1287
  C  C681  1  0.370620  0.996910  0.348740  1.0  0.0138
  C  C682  1  0.356340  0.995020  0.322700  1.0  0.2345
  C  C683  1  0.371380  0.994250  0.296690  1.0  -0.1099
  C  C684  1  0.401610  0.995320  0.297670  1.0  -0.0655
  C  C685  1  0.305040  0.994540  0.304120  1.0  0.1326
  C  C686  1  0.287600  0.018050  0.300060  1.0  -0.1598
  C  C687  1  0.266250  0.017970  0.278810  1.0  -0.1728
  C  C688  1  0.261830  0.994180  0.261650  1.0  -0.0042
  C  C689  1  0.779240  0.530240  0.734010  1.0  -0.1857
  C  C690  1  0.800840  0.529960  0.713030  1.0  -0.1499
  C  C691  1  0.798450  0.502170  0.599310  1.0  -0.0551
  C  C692  1  0.797460  0.503470  0.629530  1.0  -0.1219
  C  C693  1  0.823490  0.503400  0.644550  1.0  0.2336
  C  C694  1  0.849560  0.502230  0.630250  1.0  0.0154
  C  C695  1  0.851270  0.500870  0.600280  1.0  -0.1329
  C  C696  1  0.825200  0.500920  0.584400  1.0  -0.1205
  C  C697  1  0.826920  0.499310  0.553250  1.0  0.7073
  C  C698  1  0.947560  0.500700  0.673890  1.0  0.6772
  C  C699  1  0.916500  0.502760  0.675610  1.0  -0.1191
  C  C700  1  0.900620  0.502040  0.649550  1.0  -0.129
  C  C701  1  0.870620  0.503090  0.651260  1.0  0.0142
  C  C702  1  0.856340  0.504980  0.677300  1.0  0.233
  C  C703  1  0.871380  0.505750  0.703310  1.0  -0.1091
  C  C704  1  0.901610  0.504680  0.702330  1.0  -0.0644
  C  C705  1  0.805040  0.505460  0.695880  1.0  0.1323
  C  C706  1  0.787600  0.481950  0.699940  1.0  -0.1584
  C  C707  1  0.766250  0.482030  0.721190  1.0  -0.1728
  C  C708  1  0.761830  0.505820  0.738350  1.0  -0.0046
  C  C709  1  0.779240  0.030240  0.234010  1.0  -0.1857
  C  C710  1  0.800840  0.029960  0.213030  1.0  -0.1499
  C  C711  1  0.798450  0.002170  0.099310  1.0  -0.0551
  C  C712  1  0.797460  0.003470  0.129530  1.0  -0.1219
  C  C713  1  0.823490  0.003400  0.144550  1.0  0.2336
  C  C714  1  0.849560  0.002230  0.130250  1.0  0.0154
  C  C715  1  0.851270  0.000870  0.100280  1.0  -0.1329
  C  C716  1  0.825200  0.000920  0.084400  1.0  -0.1205
  C  C717  1  0.826920  0.999310  0.053250  1.0  0.7073
  C  C718  1  0.947560  0.000700  0.173890  1.0  0.6772
  C  C719  1  0.916500  0.002760  0.175610  1.0  -0.1191
  C  C720  1  0.900620  0.002040  0.149550  1.0  -0.129
  C  C721  1  0.870620  0.003090  0.151260  1.0  0.0142
  C  C722  1  0.856340  0.004980  0.177300  1.0  0.233
  C  C723  1  0.871380  0.005750  0.203310  1.0  -0.1091
  C  C724  1  0.901610  0.004680  0.202330  1.0  -0.0644
  C  C725  1  0.805040  0.005460  0.195880  1.0  0.1323
  C  C726  1  0.787600  0.981950  0.199940  1.0  -0.1584
  C  C727  1  0.766250  0.982030  0.221190  1.0  -0.1728
  C  C728  1  0.761830  0.005820  0.238350  1.0  -0.0046
  C  C729  1  0.279240  0.530240  0.234010  1.0  -0.1857
  C  C730  1  0.300840  0.529960  0.213030  1.0  -0.1499
  C  C731  1  0.298450  0.502170  0.099310  1.0  -0.0551
  C  C732  1  0.297460  0.503470  0.129530  1.0  -0.1219
  C  C733  1  0.323490  0.503400  0.144550  1.0  0.2336
  C  C734  1  0.349560  0.502230  0.130250  1.0  0.0154
  C  C735  1  0.351270  0.500870  0.100280  1.0  -0.1329
  C  C736  1  0.325200  0.500920  0.084400  1.0  -0.1205
  C  C737  1  0.326920  0.499310  0.053250  1.0  0.7073
  C  C738  1  0.447560  0.500700  0.173890  1.0  0.6772
  C  C739  1  0.416500  0.502760  0.175610  1.0  -0.1191
  C  C740  1  0.400620  0.502040  0.149550  1.0  -0.129
  C  C741  1  0.370620  0.503090  0.151260  1.0  0.0142
  C  C742  1  0.356340  0.504980  0.177300  1.0  0.233
  C  C743  1  0.371380  0.505750  0.203310  1.0  -0.1091
  C  C744  1  0.401610  0.504680  0.202330  1.0  -0.0644
  C  C745  1  0.305040  0.505460  0.195880  1.0  0.1323
  C  C746  1  0.287600  0.481950  0.199940  1.0  -0.1584
  C  C747  1  0.266250  0.482030  0.221190  1.0  -0.1728
  C  C748  1  0.261830  0.505820  0.238350  1.0  -0.0046
  C  C749  1  0.279240  0.030240  0.734010  1.0  -0.1857
  C  C750  1  0.300840  0.029960  0.713030  1.0  -0.1499
  C  C751  1  0.298450  0.002170  0.599310  1.0  -0.0551
  C  C752  1  0.297460  0.003470  0.629530  1.0  -0.1219
  C  C753  1  0.323490  0.003400  0.644550  1.0  0.2336
  C  C754  1  0.349560  0.002230  0.630250  1.0  0.0154
  C  C755  1  0.351270  0.000870  0.600280  1.0  -0.1329
  C  C756  1  0.325200  0.000920  0.584400  1.0  -0.1205
  C  C757  1  0.326920  0.999310  0.553250  1.0  0.7073
  C  C758  1  0.447560  0.000700  0.673890  1.0  0.6772
  C  C759  1  0.416500  0.002760  0.675610  1.0  -0.1191
  C  C760  1  0.400620  0.002040  0.649550  1.0  -0.129
  C  C761  1  0.370620  0.003090  0.651260  1.0  0.0142
  C  C762  1  0.356340  0.004980  0.677300  1.0  0.233
  C  C763  1  0.371380  0.005750  0.703310  1.0  -0.1091
  C  C764  1  0.401610  0.004680  0.702330  1.0  -0.0644
  C  C765  1  0.305040  0.005460  0.695880  1.0  0.1323
  C  C766  1  0.287600  0.981950  0.699940  1.0  -0.1584
  C  C767  1  0.266250  0.982030  0.721190  1.0  -0.1728
  C  C768  1  0.261830  0.005820  0.738350  1.0  -0.0046
  C  C769  1  0.220760  0.469760  0.734010  1.0  -0.1845
  C  C770  1  0.199160  0.470040  0.713030  1.0  -0.1507
  C  C771  1  0.201550  0.497830  0.599310  1.0  -0.0546
  C  C772  1  0.202540  0.496530  0.629530  1.0  -0.121
  C  C773  1  0.176510  0.496600  0.644550  1.0  0.2331
  C  C774  1  0.150440  0.497770  0.630250  1.0  0.0147
  C  C775  1  0.148730  0.499130  0.600280  1.0  -0.1339
  C  C776  1  0.174800  0.499080  0.584400  1.0  -0.1211
  C  C777  1  0.173080  0.500690  0.553250  1.0  0.7074
  C  C778  1  0.052440  0.499300  0.673890  1.0  0.6766
  C  C779  1  0.083500  0.497240  0.675610  1.0  -0.1195
  C  C780  1  0.099380  0.497960  0.649550  1.0  -0.1299
  C  C781  1  0.129380  0.496910  0.651260  1.0  0.0141
  C  C782  1  0.143660  0.495020  0.677300  1.0  0.2336
  C  C783  1  0.128620  0.494250  0.703310  1.0  -0.1065
  C  C784  1  0.098390  0.495320  0.702330  1.0  -0.0655
  C  C785  1  0.194960  0.494540  0.695880  1.0  0.1327
  C  C786  1  0.212400  0.518050  0.699940  1.0  -0.1582
  C  C787  1  0.233750  0.517970  0.721190  1.0  -0.1709
  C  C788  1  0.238170  0.494180  0.738350  1.0  -0.0037
  C  C789  1  0.220760  0.969760  0.234010  1.0  -0.1845
  C  C790  1  0.199160  0.970040  0.213030  1.0  -0.1507
  C  C791  1  0.201550  0.997830  0.099310  1.0  -0.0546
  C  C792  1  0.202540  0.996530  0.129530  1.0  -0.121
  C  C793  1  0.176510  0.996600  0.144550  1.0  0.2331
  C  C794  1  0.150440  0.997770  0.130250  1.0  0.0131
  C  C795  1  0.148730  0.999130  0.100280  1.0  -0.1339
  C  C796  1  0.174800  0.999080  0.084400  1.0  -0.1211
  C  C797  1  0.173080  0.000690  0.053250  1.0  0.7074
  C  C798  1  0.052440  0.999300  0.173890  1.0  0.6766
  C  C799  1  0.083500  0.997240  0.175610  1.0  -0.1195
  C  C800  1  0.099380  0.997960  0.149550  1.0  -0.1299
  C  C801  1  0.129380  0.996910  0.151260  1.0  0.0141
  C  C802  1  0.143660  0.995020  0.177300  1.0  0.2336
  C  C803  1  0.128620  0.994250  0.203310  1.0  -0.1065
  C  C804  1  0.098390  0.995320  0.202330  1.0  -0.0655
  C  C805  1  0.194960  0.994540  0.195880  1.0  0.1327
  C  C806  1  0.212400  0.018050  0.199940  1.0  -0.1582
  C  C807  1  0.233750  0.017970  0.221190  1.0  -0.1709
  C  C808  1  0.238170  0.994180  0.238350  1.0  -0.0037
  C  C809  1  0.720760  0.469760  0.234010  1.0  -0.1845
  C  C810  1  0.699160  0.470040  0.213030  1.0  -0.1507
  C  C811  1  0.701550  0.497830  0.099310  1.0  -0.0546
  C  C812  1  0.702540  0.496530  0.129530  1.0  -0.121
  C  C813  1  0.676510  0.496600  0.144550  1.0  0.2331
  C  C814  1  0.650440  0.497770  0.130250  1.0  0.0147
  C  C815  1  0.648730  0.499130  0.100280  1.0  -0.1339
  C  C816  1  0.674800  0.499080  0.084400  1.0  -0.1211
  C  C817  1  0.673080  0.500690  0.053250  1.0  0.7074
  C  C818  1  0.552440  0.499300  0.173890  1.0  0.6766
  C  C819  1  0.583500  0.497240  0.175610  1.0  -0.1195
  C  C820  1  0.599380  0.497960  0.149550  1.0  -0.1299
  C  C821  1  0.629380  0.496910  0.151260  1.0  0.0141
  C  C822  1  0.643660  0.495020  0.177300  1.0  0.2336
  C  C823  1  0.628620  0.494250  0.203310  1.0  -0.1065
  C  C824  1  0.598390  0.495320  0.202330  1.0  -0.0655
  C  C825  1  0.694960  0.494540  0.195880  1.0  0.1327
  C  C826  1  0.712400  0.518050  0.199940  1.0  -0.1582
  C  C827  1  0.733750  0.517970  0.221190  1.0  -0.1709
  C  C828  1  0.738170  0.494180  0.238350  1.0  -0.0037
  C  C829  1  0.720760  0.969760  0.734010  1.0  -0.1845
  C  C830  1  0.699160  0.970040  0.713030  1.0  -0.1507
  C  C831  1  0.701550  0.997830  0.599310  1.0  -0.0546
  C  C832  1  0.702540  0.996530  0.629530  1.0  -0.121
  C  C833  1  0.676510  0.996600  0.644550  1.0  0.2331
  C  C834  1  0.650440  0.997770  0.630250  1.0  0.0131
  C  C835  1  0.648730  0.999130  0.600280  1.0  -0.1339
  C  C836  1  0.674800  0.999080  0.584400  1.0  -0.1211
  C  C837  1  0.673080  0.000690  0.553250  1.0  0.7074
  C  C838  1  0.552440  0.999300  0.673890  1.0  0.6766
  C  C839  1  0.583500  0.997240  0.675610  1.0  -0.1195
  C  C840  1  0.599380  0.997960  0.649550  1.0  -0.1299
  C  C841  1  0.629380  0.996910  0.651260  1.0  0.0141
  C  C842  1  0.643660  0.995020  0.677300  1.0  0.2336
  C  C843  1  0.628620  0.994250  0.703310  1.0  -0.1065
  C  C844  1  0.598390  0.995320  0.702330  1.0  -0.0655
  C  C845  1  0.694960  0.994540  0.695880  1.0  0.1327
  C  C846  1  0.712400  0.018050  0.699940  1.0  -0.1582
  C  C847  1  0.733750  0.017970  0.721190  1.0  -0.1709
  C  C848  1  0.738170  0.994180  0.738350  1.0  -0.0037
  C  C849  1  0.265990  0.220760  0.530240  1.0  -0.1853
  C  C850  1  0.286970  0.199160  0.529960  1.0  -0.1475
  C  C851  1  0.400690  0.201550  0.502170  1.0  -0.06
  C  C852  1  0.370470  0.202540  0.503470  1.0  -0.1266
  C  C853  1  0.355450  0.176510  0.503400  1.0  0.2346
  C  C854  1  0.369750  0.150440  0.502230  1.0  0.0157
  C  C855  1  0.399720  0.148730  0.500870  1.0  -0.1325
  C  C856  1  0.415600  0.174800  0.500920  1.0  -0.1209
  C  C857  1  0.446750  0.173080  0.499310  1.0  0.7055
  C  C858  1  0.326110  0.052440  0.500700  1.0  0.6795
  C  C859  1  0.324390  0.083500  0.502760  1.0  -0.1182
  C  C860  1  0.350450  0.099380  0.502040  1.0  -0.1288
  C  C861  1  0.348740  0.129380  0.503090  1.0  0.0159
  C  C862  1  0.322700  0.143660  0.504980  1.0  0.2332
  C  C863  1  0.296690  0.128620  0.505750  1.0  -0.1079
  C  C864  1  0.297670  0.098390  0.504680  1.0  -0.0634
  C  C865  1  0.304120  0.194960  0.505460  1.0  0.1326
  C  C866  1  0.300060  0.212400  0.481950  1.0  -0.1529
  C  C867  1  0.278810  0.233750  0.482030  1.0  -0.1658
  C  C868  1  0.261650  0.238170  0.505820  1.0  -0.0049
  C  C869  1  0.265990  0.720760  0.030240  1.0  -0.1853
  C  C870  1  0.286970  0.699160  0.029960  1.0  -0.1475
  C  C871  1  0.400690  0.701550  0.002170  1.0  -0.06
  C  C872  1  0.370470  0.702540  0.003470  1.0  -0.1266
  C  C873  1  0.355450  0.676510  0.003400  1.0  0.2346
  C  C874  1  0.369750  0.650440  0.002230  1.0  0.0157
  C  C875  1  0.399720  0.648730  0.000870  1.0  -0.1325
  C  C876  1  0.415600  0.674800  0.000920  1.0  -0.1209
  C  C877  1  0.446750  0.673080  0.999310  1.0  0.7055
  C  C878  1  0.326110  0.552440  0.000700  1.0  0.6795
  C  C879  1  0.324390  0.583500  0.002760  1.0  -0.1182
  C  C880  1  0.350450  0.599380  0.002040  1.0  -0.1288
  C  C881  1  0.348740  0.629380  0.003090  1.0  0.0159
  C  C882  1  0.322700  0.643660  0.004980  1.0  0.2332
  C  C883  1  0.296690  0.628620  0.005750  1.0  -0.1079
  C  C884  1  0.297670  0.598390  0.004680  1.0  -0.0634
  C  C885  1  0.304120  0.694960  0.005460  1.0  0.1326
  C  C886  1  0.300060  0.712400  0.981950  1.0  -0.1529
  C  C887  1  0.278810  0.733750  0.982030  1.0  -0.1658
  C  C888  1  0.261650  0.738170  0.005820  1.0  -0.0049
  C  C889  1  0.765990  0.220760  0.030240  1.0  -0.1853
  C  C890  1  0.786970  0.199160  0.029960  1.0  -0.1475
  C  C891  1  0.900690  0.201550  0.002170  1.0  -0.06
  C  C892  1  0.870470  0.202540  0.003470  1.0  -0.1266
  C  C893  1  0.855450  0.176510  0.003400  1.0  0.2346
  C  C894  1  0.869750  0.150440  0.002230  1.0  0.0142
  C  C895  1  0.899720  0.148730  0.000870  1.0  -0.1325
  C  C896  1  0.915600  0.174800  0.000920  1.0  -0.1209
  C  C897  1  0.946750  0.173080  0.999310  1.0  0.7055
  C  C898  1  0.826110  0.052440  0.000700  1.0  0.6795
  C  C899  1  0.824390  0.083500  0.002760  1.0  -0.1182
  C  C900  1  0.850450  0.099380  0.002040  1.0  -0.1288
  C  C901  1  0.848740  0.129380  0.003090  1.0  0.0159
  C  C902  1  0.822700  0.143660  0.004980  1.0  0.2332
  C  C903  1  0.796690  0.128620  0.005750  1.0  -0.1079
  C  C904  1  0.797670  0.098390  0.004680  1.0  -0.0634
  C  C905  1  0.804120  0.194960  0.005460  1.0  0.1326
  C  C906  1  0.800060  0.212400  0.981950  1.0  -0.1529
  C  C907  1  0.778810  0.233750  0.982030  1.0  -0.1658
  C  C908  1  0.761650  0.238170  0.005820  1.0  -0.0049
  C  C909  1  0.765990  0.720760  0.530240  1.0  -0.1853
  C  C910  1  0.786970  0.699160  0.529960  1.0  -0.1475
  C  C911  1  0.900690  0.701550  0.502170  1.0  -0.06
  C  C912  1  0.870470  0.702540  0.503470  1.0  -0.1266
  C  C913  1  0.855450  0.676510  0.503400  1.0  0.2346
  C  C914  1  0.869750  0.650440  0.502230  1.0  0.0157
  C  C915  1  0.899720  0.648730  0.500870  1.0  -0.1325
  C  C916  1  0.915600  0.674800  0.500920  1.0  -0.1209
  C  C917  1  0.946750  0.673080  0.499310  1.0  0.7055
  C  C918  1  0.826110  0.552440  0.500700  1.0  0.6795
  C  C919  1  0.824390  0.583500  0.502760  1.0  -0.1182
  C  C920  1  0.850450  0.599380  0.502040  1.0  -0.1288
  C  C921  1  0.848740  0.629380  0.503090  1.0  0.0159
  C  C922  1  0.822700  0.643660  0.504980  1.0  0.2332
  C  C923  1  0.796690  0.628620  0.505750  1.0  -0.1079
  C  C924  1  0.797670  0.598390  0.504680  1.0  -0.0634
  C  C925  1  0.804120  0.694960  0.505460  1.0  0.1326
  C  C926  1  0.800060  0.712400  0.481950  1.0  -0.1529
  C  C927  1  0.778810  0.733750  0.482030  1.0  -0.1658
  C  C928  1  0.761650  0.738170  0.505820  1.0  -0.0049
  C  C929  1  0.265990  0.779240  0.469760  1.0  -0.1861
  C  C930  1  0.286970  0.800840  0.470040  1.0  -0.1452
  C  C931  1  0.400690  0.798450  0.497830  1.0  -0.0582
  C  C932  1  0.370470  0.797460  0.496530  1.0  -0.1255
  C  C933  1  0.355450  0.823490  0.496600  1.0  0.2342
  C  C934  1  0.369750  0.849560  0.497770  1.0  0.0156
  C  C935  1  0.399720  0.851270  0.499130  1.0  -0.1351
  C  C936  1  0.415600  0.825200  0.499080  1.0  -0.1209
  C  C937  1  0.446750  0.826920  0.500690  1.0  0.7053
  C  C938  1  0.326110  0.947560  0.499300  1.0  0.6785
  C  C939  1  0.324390  0.916500  0.497240  1.0  -0.1182
  C  C940  1  0.350450  0.900620  0.497960  1.0  -0.1295
  C  C941  1  0.348740  0.870620  0.496910  1.0  0.0164
  C  C942  1  0.322700  0.856340  0.495020  1.0  0.2335
  C  C943  1  0.296690  0.871380  0.494250  1.0  -0.1071
  C  C944  1  0.297670  0.901610  0.495320  1.0  -0.0639
  C  C945  1  0.304120  0.805040  0.494540  1.0  0.1327
  C  C946  1  0.300060  0.787600  0.518050  1.0  -0.1529
  C  C947  1  0.278810  0.766250  0.517970  1.0  -0.1655
  C  C948  1  0.261650  0.761830  0.494180  1.0  -0.0044
  C  C949  1  0.265990  0.279240  0.969760  1.0  -0.1861
  C  C950  1  0.286970  0.300840  0.970040  1.0  -0.1452
  C  C951  1  0.400690  0.298450  0.997830  1.0  -0.0582
  C  C952  1  0.370470  0.297460  0.996530  1.0  -0.1255
  C  C953  1  0.355450  0.323490  0.996600  1.0  0.2342
  C  C954  1  0.369750  0.349560  0.997770  1.0  0.014
  C  C955  1  0.399720  0.351270  0.999130  1.0  -0.1351
  C  C956  1  0.415600  0.325200  0.999080  1.0  -0.1209
  C  C957  1  0.446750  0.326920  0.000690  1.0  0.7053
  C  C958  1  0.326110  0.447560  0.999300  1.0  0.6785
  C  C959  1  0.324390  0.416500  0.997240  1.0  -0.1182
  C  C960  1  0.350450  0.400620  0.997960  1.0  -0.1295
  C  C961  1  0.348740  0.370620  0.996910  1.0  0.0164
  C  C962  1  0.322700  0.356340  0.995020  1.0  0.2335
  C  C963  1  0.296690  0.371380  0.994250  1.0  -0.1071
  C  C964  1  0.297670  0.401610  0.995320  1.0  -0.0639
  C  C965  1  0.304120  0.305040  0.994540  1.0  0.1327
  C  C966  1  0.300060  0.287600  0.018050  1.0  -0.1529
  C  C967  1  0.278810  0.266250  0.017970  1.0  -0.1655
  C  C968  1  0.261650  0.261830  0.994180  1.0  -0.0044
  C  C969  1  0.765990  0.779240  0.969760  1.0  -0.1861
  C  C970  1  0.786970  0.800840  0.970040  1.0  -0.1452
  C  C971  1  0.900690  0.798450  0.997830  1.0  -0.0582
  C  C972  1  0.870470  0.797460  0.996530  1.0  -0.1255
  C  C973  1  0.855450  0.823490  0.996600  1.0  0.2342
  C  C974  1  0.869750  0.849560  0.997770  1.0  0.014
  C  C975  1  0.899720  0.851270  0.999130  1.0  -0.1351
  C  C976  1  0.915600  0.825200  0.999080  1.0  -0.1209
  C  C977  1  0.946750  0.826920  0.000690  1.0  0.7053
  C  C978  1  0.826110  0.947560  0.999300  1.0  0.6785
  C  C979  1  0.824390  0.916500  0.997240  1.0  -0.1182
  C  C980  1  0.850450  0.900620  0.997960  1.0  -0.1295
  C  C981  1  0.848740  0.870620  0.996910  1.0  0.0164
  C  C982  1  0.822700  0.856340  0.995020  1.0  0.2335
  C  C983  1  0.796690  0.871380  0.994250  1.0  -0.1071
  C  C984  1  0.797670  0.901610  0.995320  1.0  -0.0639
  C  C985  1  0.804120  0.805040  0.994540  1.0  0.1327
  C  C986  1  0.800060  0.787600  0.018050  1.0  -0.1529
  C  C987  1  0.778810  0.766250  0.017970  1.0  -0.1655
  C  C988  1  0.761650  0.761830  0.994180  1.0  -0.0044
  C  C989  1  0.765990  0.279240  0.469760  1.0  -0.1861
  C  C990  1  0.786970  0.300840  0.470040  1.0  -0.1452
  C  C991  1  0.900690  0.298450  0.497830  1.0  -0.0582
  C  C992  1  0.870470  0.297460  0.496530  1.0  -0.1255
  C  C993  1  0.855450  0.323490  0.496600  1.0  0.2342
  C  C994  1  0.869750  0.349560  0.497770  1.0  0.0156
  C  C995  1  0.899720  0.351270  0.499130  1.0  -0.1351
  C  C996  1  0.915600  0.325200  0.499080  1.0  -0.1209
  C  C997  1  0.946750  0.326920  0.500690  1.0  0.7053
  C  C998  1  0.826110  0.447560  0.499300  1.0  0.6785
  C  C999  1  0.824390  0.416500  0.497240  1.0  -0.1182
  C  C1000  1  0.850450  0.400620  0.497960  1.0  -0.1295
  C  C1001  1  0.848740  0.370620  0.496910  1.0  0.0164
  C  C1002  1  0.822700  0.356340  0.495020  1.0  0.2335
  C  C1003  1  0.796690  0.371380  0.494250  1.0  -0.1071
  C  C1004  1  0.797670  0.401610  0.495320  1.0  -0.0639
  C  C1005  1  0.804120  0.305040  0.494540  1.0  0.1327
  C  C1006  1  0.800060  0.287600  0.518050  1.0  -0.1529
  C  C1007  1  0.778810  0.266250  0.517970  1.0  -0.1655
  C  C1008  1  0.761650  0.261830  0.494180  1.0  -0.0044
  C  C1009  1  0.734010  0.779240  0.530240  1.0  -0.1827
  C  C1010  1  0.713030  0.800840  0.529960  1.0  -0.1466
  C  C1011  1  0.599310  0.798450  0.502170  1.0  -0.0594
  C  C1012  1  0.629530  0.797460  0.503470  1.0  -0.1239
  C  C1013  1  0.644550  0.823490  0.503400  1.0  0.2345
  C  C1014  1  0.630250  0.849560  0.502230  1.0  0.0164
  C  C1015  1  0.600280  0.851270  0.500870  1.0  -0.1368
  C  C1016  1  0.584400  0.825200  0.500920  1.0  -0.121
  C  C1017  1  0.553250  0.826920  0.499310  1.0  0.7047
  C  C1018  1  0.673890  0.947560  0.500700  1.0  0.6786
  C  C1019  1  0.675610  0.916500  0.502760  1.0  -0.1185
  C  C1020  1  0.649550  0.900620  0.502040  1.0  -0.1305
  C  C1021  1  0.651260  0.870620  0.503090  1.0  0.0171
  C  C1022  1  0.677300  0.856340  0.504980  1.0  0.232
  C  C1023  1  0.703310  0.871380  0.505750  1.0  -0.1075
  C  C1024  1  0.702330  0.901610  0.504680  1.0  -0.0658
  C  C1025  1  0.695880  0.805040  0.505460  1.0  0.1325
  C  C1026  1  0.699940  0.787600  0.481950  1.0  -0.1543
  C  C1027  1  0.721190  0.766250  0.482030  1.0  -0.1654
  C  C1028  1  0.738350  0.761830  0.505820  1.0  -0.0041
  C  C1029  1  0.734010  0.279240  0.030240  1.0  -0.1827
  C  C1030  1  0.713030  0.300840  0.029960  1.0  -0.1466
  C  C1031  1  0.599310  0.298450  0.002170  1.0  -0.0594
  C  C1032  1  0.629530  0.297460  0.003470  1.0  -0.1239
  C  C1033  1  0.644550  0.323490  0.003400  1.0  0.2345
  C  C1034  1  0.630250  0.349560  0.002230  1.0  0.0164
  C  C1035  1  0.600280  0.351270  0.000870  1.0  -0.1368
  C  C1036  1  0.584400  0.325200  0.000920  1.0  -0.121
  C  C1037  1  0.553250  0.326920  0.999310  1.0  0.7047
  C  C1038  1  0.673890  0.447560  0.000700  1.0  0.6786
  C  C1039  1  0.675610  0.416500  0.002760  1.0  -0.1185
  C  C1040  1  0.649550  0.400620  0.002040  1.0  -0.1305
  C  C1041  1  0.651260  0.370620  0.003090  1.0  0.0171
  C  C1042  1  0.677300  0.356340  0.004980  1.0  0.232
  C  C1043  1  0.703310  0.371380  0.005750  1.0  -0.1075
  C  C1044  1  0.702330  0.401610  0.004680  1.0  -0.0658
  C  C1045  1  0.695880  0.305040  0.005460  1.0  0.1325
  C  C1046  1  0.699940  0.287600  0.981950  1.0  -0.1543
  C  C1047  1  0.721190  0.266250  0.982030  1.0  -0.1654
  C  C1048  1  0.738350  0.261830  0.005820  1.0  -0.0041
  C  C1049  1  0.234010  0.779240  0.030240  1.0  -0.1827
  C  C1050  1  0.213030  0.800840  0.029960  1.0  -0.1466
  C  C1051  1  0.099310  0.798450  0.002170  1.0  -0.0594
  C  C1052  1  0.129530  0.797460  0.003470  1.0  -0.1239
  C  C1053  1  0.144550  0.823490  0.003400  1.0  0.2345
  C  C1054  1  0.130250  0.849560  0.002230  1.0  0.0164
  C  C1055  1  0.100280  0.851270  0.000870  1.0  -0.1368
  C  C1056  1  0.084400  0.825200  0.000920  1.0  -0.121
  C  C1057  1  0.053250  0.826920  0.999310  1.0  0.7047
  C  C1058  1  0.173890  0.947560  0.000700  1.0  0.6786
  C  C1059  1  0.175610  0.916500  0.002760  1.0  -0.1185
  C  C1060  1  0.149550  0.900620  0.002040  1.0  -0.1305
  C  C1061  1  0.151260  0.870620  0.003090  1.0  0.0171
  C  C1062  1  0.177300  0.856340  0.004980  1.0  0.232
  C  C1063  1  0.203310  0.871380  0.005750  1.0  -0.1075
  C  C1064  1  0.202330  0.901610  0.004680  1.0  -0.0658
  C  C1065  1  0.195880  0.805040  0.005460  1.0  0.1325
  C  C1066  1  0.199940  0.787600  0.981950  1.0  -0.1543
  C  C1067  1  0.221190  0.766250  0.982030  1.0  -0.1654
  C  C1068  1  0.238350  0.761830  0.005820  1.0  -0.0041
  C  C1069  1  0.234010  0.279240  0.530240  1.0  -0.1827
  C  C1070  1  0.213030  0.300840  0.529960  1.0  -0.1466
  C  C1071  1  0.099310  0.298450  0.502170  1.0  -0.0594
  C  C1072  1  0.129530  0.297460  0.503470  1.0  -0.1239
  C  C1073  1  0.144550  0.323490  0.503400  1.0  0.2345
  C  C1074  1  0.130250  0.349560  0.502230  1.0  0.0164
  C  C1075  1  0.100280  0.351270  0.500870  1.0  -0.1368
  C  C1076  1  0.084400  0.325200  0.500920  1.0  -0.121
  C  C1077  1  0.053250  0.326920  0.499310  1.0  0.7047
  C  C1078  1  0.173890  0.447560  0.500700  1.0  0.6786
  C  C1079  1  0.175610  0.416500  0.502760  1.0  -0.1185
  C  C1080  1  0.149550  0.400620  0.502040  1.0  -0.1305
  C  C1081  1  0.151260  0.370620  0.503090  1.0  0.0171
  C  C1082  1  0.177300  0.356340  0.504980  1.0  0.232
  C  C1083  1  0.203310  0.371380  0.505750  1.0  -0.1075
  C  C1084  1  0.202330  0.401610  0.504680  1.0  -0.0658
  C  C1085  1  0.195880  0.305040  0.505460  1.0  0.1325
  C  C1086  1  0.199940  0.287600  0.481950  1.0  -0.1543
  C  C1087  1  0.221190  0.266250  0.482030  1.0  -0.1654
  C  C1088  1  0.238350  0.261830  0.505820  1.0  -0.0041
  C  C1089  1  0.734010  0.220760  0.469760  1.0  -0.1845
  C  C1090  1  0.713030  0.199160  0.470040  1.0  -0.1447
  C  C1091  1  0.599310  0.201550  0.497830  1.0  -0.0621
  C  C1092  1  0.629530  0.202540  0.496530  1.0  -0.124
  C  C1093  1  0.644550  0.176510  0.496600  1.0  0.2353
  C  C1094  1  0.630250  0.150440  0.497770  1.0  0.0142
  C  C1095  1  0.600280  0.148730  0.499130  1.0  -0.1336
  C  C1096  1  0.584400  0.174800  0.499080  1.0  -0.1214
  C  C1097  1  0.553250  0.173080  0.500690  1.0  0.7046
  C  C1098  1  0.673890  0.052440  0.499300  1.0  0.6795
  C  C1099  1  0.675610  0.083500  0.497240  1.0  -0.1183
  C  C1100  1  0.649550  0.099380  0.497960  1.0  -0.1295
  C  C1101  1  0.651260  0.129380  0.496910  1.0  0.0153
  C  C1102  1  0.677300  0.143660  0.495020  1.0  0.2321
  C  C1103  1  0.703310  0.128620  0.494250  1.0  -0.1072
  C  C1104  1  0.702330  0.098390  0.495320  1.0  -0.0651
  C  C1105  1  0.695880  0.194960  0.494540  1.0  0.1329
  C  C1106  1  0.699940  0.212400  0.518050  1.0  -0.1553
  C  C1107  1  0.721190  0.233750  0.517970  1.0  -0.1653
  C  C1108  1  0.738350  0.238170  0.494180  1.0  -0.0041
  C  C1109  1  0.734010  0.720760  0.969760  1.0  -0.1845
  C  C1110  1  0.713030  0.699160  0.970040  1.0  -0.1447
  C  C1111  1  0.599310  0.701550  0.997830  1.0  -0.0621
  C  C1112  1  0.629530  0.702540  0.996530  1.0  -0.124
  C  C1113  1  0.644550  0.676510  0.996600  1.0  0.2353
  C  C1114  1  0.630250  0.650440  0.997770  1.0  0.0126
  C  C1115  1  0.600280  0.648730  0.999130  1.0  -0.1336
  C  C1116  1  0.584400  0.674800  0.999080  1.0  -0.1214
  C  C1117  1  0.553250  0.673080  0.000690  1.0  0.7046
  C  C1118  1  0.673890  0.552440  0.999300  1.0  0.6795
  C  C1119  1  0.675610  0.583500  0.997240  1.0  -0.1183
  C  C1120  1  0.649550  0.599380  0.997960  1.0  -0.1295
  C  C1121  1  0.651260  0.629380  0.996910  1.0  0.0153
  C  C1122  1  0.677300  0.643660  0.995020  1.0  0.2321
  C  C1123  1  0.703310  0.628620  0.994250  1.0  -0.1072
  C  C1124  1  0.702330  0.598390  0.995320  1.0  -0.0651
  C  C1125  1  0.695880  0.694960  0.994540  1.0  0.1329
  C  C1126  1  0.699940  0.712400  0.018050  1.0  -0.1553
  C  C1127  1  0.721190  0.733750  0.017970  1.0  -0.1653
  C  C1128  1  0.738350  0.738170  0.994180  1.0  -0.0041
  C  C1129  1  0.234010  0.220760  0.969760  1.0  -0.1845
  C  C1130  1  0.213030  0.199160  0.970040  1.0  -0.1447
  C  C1131  1  0.099310  0.201550  0.997830  1.0  -0.0621
  C  C1132  1  0.129530  0.202540  0.996530  1.0  -0.124
  C  C1133  1  0.144550  0.176510  0.996600  1.0  0.2353
  C  C1134  1  0.130250  0.150440  0.997770  1.0  0.0126
  C  C1135  1  0.100280  0.148730  0.999130  1.0  -0.1336
  C  C1136  1  0.084400  0.174800  0.999080  1.0  -0.1214
  C  C1137  1  0.053250  0.173080  0.000690  1.0  0.7046
  C  C1138  1  0.173890  0.052440  0.999300  1.0  0.6795
  C  C1139  1  0.175610  0.083500  0.997240  1.0  -0.1183
  C  C1140  1  0.149550  0.099380  0.997960  1.0  -0.1295
  C  C1141  1  0.151260  0.129380  0.996910  1.0  0.0153
  C  C1142  1  0.177300  0.143660  0.995020  1.0  0.2321
  C  C1143  1  0.203310  0.128620  0.994250  1.0  -0.1072
  C  C1144  1  0.202330  0.098390  0.995320  1.0  -0.0651
  C  C1145  1  0.195880  0.194960  0.994540  1.0  0.1329
  C  C1146  1  0.199940  0.212400  0.018050  1.0  -0.1553
  C  C1147  1  0.221190  0.233750  0.017970  1.0  -0.1653
  C  C1148  1  0.238350  0.238170  0.994180  1.0  -0.0041
  C  C1149  1  0.234010  0.720760  0.469760  1.0  -0.1845
  C  C1150  1  0.213030  0.699160  0.470040  1.0  -0.1447
  C  C1151  1  0.099310  0.701550  0.497830  1.0  -0.0621
  C  C1152  1  0.129530  0.702540  0.496530  1.0  -0.124
  C  C1153  1  0.144550  0.676510  0.496600  1.0  0.2353
  C  C1154  1  0.130250  0.650440  0.497770  1.0  0.0142
  C  C1155  1  0.100280  0.648730  0.499130  1.0  -0.1336
  C  C1156  1  0.084400  0.674800  0.499080  1.0  -0.1214
  C  C1157  1  0.053250  0.673080  0.500690  1.0  0.7046
  C  C1158  1  0.173890  0.552440  0.499300  1.0  0.6795
  C  C1159  1  0.175610  0.583500  0.497240  1.0  -0.1183
  C  C1160  1  0.149550  0.599380  0.497960  1.0  -0.1295
  C  C1161  1  0.151260  0.629380  0.496910  1.0  0.0153
  C  C1162  1  0.177300  0.643660  0.495020  1.0  0.2321
  C  C1163  1  0.203310  0.628620  0.494250  1.0  -0.1072
  C  C1164  1  0.202330  0.598390  0.495320  1.0  -0.0651
  C  C1165  1  0.195880  0.694960  0.494540  1.0  0.1329
  C  C1166  1  0.199940  0.712400  0.518050  1.0  -0.1553
  C  C1167  1  0.221190  0.733750  0.517970  1.0  -0.1653
  C  C1168  1  0.238350  0.738170  0.494180  1.0  -0.0041
  C  C1169  1  0.530240  0.265990  0.220760  1.0  -0.1852
  C  C1170  1  0.529960  0.286970  0.199160  1.0  -0.1479
  C  C1171  1  0.502170  0.400690  0.201550  1.0  -0.0564
  C  C1172  1  0.503470  0.370470  0.202540  1.0  -0.1195
  C  C1173  1  0.503400  0.355450  0.176510  1.0  0.2348
  C  C1174  1  0.502230  0.369750  0.150440  1.0  0.0167
  C  C1175  1  0.500870  0.399720  0.148730  1.0  -0.1336
  C  C1176  1  0.500920  0.415600  0.174800  1.0  -0.1201
  C  C1177  1  0.499310  0.446750  0.173080  1.0  0.7065
  C  C1178  1  0.500700  0.326110  0.052440  1.0  0.6803
  C  C1179  1  0.502760  0.324390  0.083500  1.0  -0.1187
  C  C1180  1  0.502040  0.350450  0.099380  1.0  -0.132
  C  C1181  1  0.503090  0.348740  0.129380  1.0  0.0172
  C  C1182  1  0.504980  0.322700  0.143660  1.0  0.2345
  C  C1183  1  0.505750  0.296690  0.128620  1.0  -0.1085
  C  C1184  1  0.504680  0.297670  0.098390  1.0  -0.0688
  C  C1185  1  0.505460  0.304120  0.194960  1.0  0.1326
  C  C1186  1  0.481950  0.300060  0.212400  1.0  -0.1573
  C  C1187  1  0.482030  0.278810  0.233750  1.0  -0.1666
  C  C1188  1  0.505820  0.261650  0.238170  1.0  -0.0039
  C  C1189  1  0.530240  0.765990  0.720760  1.0  -0.1852
  C  C1190  1  0.529960  0.786970  0.699160  1.0  -0.1479
  C  C1191  1  0.502170  0.900690  0.701550  1.0  -0.0564
  C  C1192  1  0.503470  0.870470  0.702540  1.0  -0.1195
  C  C1193  1  0.503400  0.855450  0.676510  1.0  0.2348
  C  C1194  1  0.502230  0.869750  0.650440  1.0  0.0167
  C  C1195  1  0.500870  0.899720  0.648730  1.0  -0.1336
  C  C1196  1  0.500920  0.915600  0.674800  1.0  -0.1201
  C  C1197  1  0.499310  0.946750  0.673080  1.0  0.7065
  C  C1198  1  0.500700  0.826110  0.552440  1.0  0.6803
  C  C1199  1  0.502760  0.824390  0.583500  1.0  -0.1187
  C  C1200  1  0.502040  0.850450  0.599380  1.0  -0.132
  C  C1201  1  0.503090  0.848740  0.629380  1.0  0.0172
  C  C1202  1  0.504980  0.822700  0.643660  1.0  0.2345
  C  C1203  1  0.505750  0.796690  0.628620  1.0  -0.1085
  C  C1204  1  0.504680  0.797670  0.598390  1.0  -0.0688
  C  C1205  1  0.505460  0.804120  0.694960  1.0  0.1326
  C  C1206  1  0.481950  0.800060  0.712400  1.0  -0.1573
  C  C1207  1  0.482030  0.778810  0.733750  1.0  -0.1666
  C  C1208  1  0.505820  0.761650  0.738170  1.0  -0.0039
  C  C1209  1  0.030240  0.265990  0.720760  1.0  -0.1852
  C  C1210  1  0.029960  0.286970  0.699160  1.0  -0.1479
  C  C1211  1  0.002170  0.400690  0.701550  1.0  -0.0564
  C  C1212  1  0.003470  0.370470  0.702540  1.0  -0.1195
  C  C1213  1  0.003400  0.355450  0.676510  1.0  0.2348
  C  C1214  1  0.002230  0.369750  0.650440  1.0  0.0167
  C  C1215  1  0.000870  0.399720  0.648730  1.0  -0.1336
  C  C1216  1  0.000920  0.415600  0.674800  1.0  -0.1201
  C  C1217  1  0.999310  0.446750  0.673080  1.0  0.7065
  C  C1218  1  0.000700  0.326110  0.552440  1.0  0.6803
  C  C1219  1  0.002760  0.324390  0.583500  1.0  -0.1187
  C  C1220  1  0.002040  0.350450  0.599380  1.0  -0.132
  C  C1221  1  0.003090  0.348740  0.629380  1.0  0.0172
  C  C1222  1  0.004980  0.322700  0.643660  1.0  0.2345
  C  C1223  1  0.005750  0.296690  0.628620  1.0  -0.1085
  C  C1224  1  0.004680  0.297670  0.598390  1.0  -0.0688
  C  C1225  1  0.005460  0.304120  0.694960  1.0  0.1326
  C  C1226  1  0.981950  0.300060  0.712400  1.0  -0.1573
  C  C1227  1  0.982030  0.278810  0.733750  1.0  -0.1666
  C  C1228  1  0.005820  0.261650  0.738170  1.0  -0.0039
  C  C1229  1  0.030240  0.765990  0.220760  1.0  -0.1852
  C  C1230  1  0.029960  0.786970  0.199160  1.0  -0.1479
  C  C1231  1  0.002170  0.900690  0.201550  1.0  -0.0564
  C  C1232  1  0.003470  0.870470  0.202540  1.0  -0.1195
  C  C1233  1  0.003400  0.855450  0.176510  1.0  0.2348
  C  C1234  1  0.002230  0.869750  0.150440  1.0  0.0151
  C  C1235  1  0.000870  0.899720  0.148730  1.0  -0.1336
  C  C1236  1  0.000920  0.915600  0.174800  1.0  -0.1201
  C  C1237  1  0.999310  0.946750  0.173080  1.0  0.7065
  C  C1238  1  0.000700  0.826110  0.052440  1.0  0.6803
  C  C1239  1  0.002760  0.824390  0.083500  1.0  -0.1187
  C  C1240  1  0.002040  0.850450  0.099380  1.0  -0.132
  C  C1241  1  0.003090  0.848740  0.129380  1.0  0.0172
  C  C1242  1  0.004980  0.822700  0.143660  1.0  0.2345
  C  C1243  1  0.005750  0.796690  0.128620  1.0  -0.1085
  C  C1244  1  0.004680  0.797670  0.098390  1.0  -0.0688
  C  C1245  1  0.005460  0.804120  0.194960  1.0  0.1326
  C  C1246  1  0.981950  0.800060  0.212400  1.0  -0.1573
  C  C1247  1  0.982030  0.778810  0.233750  1.0  -0.1666
  C  C1248  1  0.005820  0.761650  0.238170  1.0  -0.0039
  C  C1249  1  0.469760  0.265990  0.779240  1.0  -0.184
  C  C1250  1  0.470040  0.286970  0.800840  1.0  -0.1476
  C  C1251  1  0.497830  0.400690  0.798450  1.0  -0.0566
  C  C1252  1  0.496530  0.370470  0.797460  1.0  -0.1214
  C  C1253  1  0.496600  0.355450  0.823490  1.0  0.2354
  C  C1254  1  0.497770  0.369750  0.849560  1.0  0.0167
  C  C1255  1  0.499130  0.399720  0.851270  1.0  -0.1336
  C  C1256  1  0.499080  0.415600  0.825200  1.0  -0.1203
  C  C1257  1  0.500690  0.446750  0.826920  1.0  0.7064
  C  C1258  1  0.499300  0.326110  0.947560  1.0  0.679
  C  C1259  1  0.497240  0.324390  0.916500  1.0  -0.1189
  C  C1260  1  0.497960  0.350450  0.900620  1.0  -0.1327
  C  C1261  1  0.496910  0.348740  0.870620  1.0  0.0178
  C  C1262  1  0.495020  0.322700  0.856340  1.0  0.2335
  C  C1263  1  0.494250  0.296690  0.871380  1.0  -0.1077
  C  C1264  1  0.495320  0.297670  0.901610  1.0  -0.0694
  C  C1265  1  0.494540  0.304120  0.805040  1.0  0.1329
  C  C1266  1  0.518050  0.300060  0.787600  1.0  -0.1574
  C  C1267  1  0.517970  0.278810  0.766250  1.0  -0.1681
  C  C1268  1  0.494180  0.261650  0.761830  1.0  -0.0031
  C  C1269  1  0.469760  0.765990  0.279240  1.0  -0.184
  C  C1270  1  0.470040  0.786970  0.300840  1.0  -0.1476
  C  C1271  1  0.497830  0.900690  0.298450  1.0  -0.0566
  C  C1272  1  0.496530  0.870470  0.297460  1.0  -0.1214
  C  C1273  1  0.496600  0.855450  0.323490  1.0  0.2354
  C  C1274  1  0.497770  0.869750  0.349560  1.0  0.0167
  C  C1275  1  0.499130  0.899720  0.351270  1.0  -0.1336
  C  C1276  1  0.499080  0.915600  0.325200  1.0  -0.1203
  C  C1277  1  0.500690  0.946750  0.326920  1.0  0.7064
  C  C1278  1  0.499300  0.826110  0.447560  1.0  0.679
  C  C1279  1  0.497240  0.824390  0.416500  1.0  -0.1189
  C  C1280  1  0.497960  0.850450  0.400620  1.0  -0.1327
  C  C1281  1  0.496910  0.848740  0.370620  1.0  0.0178
  C  C1282  1  0.495020  0.822700  0.356340  1.0  0.2335
  C  C1283  1  0.494250  0.796690  0.371380  1.0  -0.1077
  C  C1284  1  0.495320  0.797670  0.401610  1.0  -0.0694
  C  C1285  1  0.494540  0.804120  0.305040  1.0  0.1329
  C  C1286  1  0.518050  0.800060  0.287600  1.0  -0.1574
  C  C1287  1  0.517970  0.778810  0.266250  1.0  -0.1681
  C  C1288  1  0.494180  0.761650  0.261830  1.0  -0.0031
  C  C1289  1  0.969760  0.265990  0.279240  1.0  -0.184
  C  C1290  1  0.970040  0.286970  0.300840  1.0  -0.1476
  C  C1291  1  0.997830  0.400690  0.298450  1.0  -0.0566
  C  C1292  1  0.996530  0.370470  0.297460  1.0  -0.1214
  C  C1293  1  0.996600  0.355450  0.323490  1.0  0.2354
  C  C1294  1  0.997770  0.369750  0.349560  1.0  0.0152
  C  C1295  1  0.999130  0.399720  0.351270  1.0  -0.1336
  C  C1296  1  0.999080  0.415600  0.325200  1.0  -0.1203
  C  C1297  1  0.000690  0.446750  0.326920  1.0  0.7064
  C  C1298  1  0.999300  0.326110  0.447560  1.0  0.679
  C  C1299  1  0.997240  0.324390  0.416500  1.0  -0.1189
  C  C1300  1  0.997960  0.350450  0.400620  1.0  -0.1327
  C  C1301  1  0.996910  0.348740  0.370620  1.0  0.0178
  C  C1302  1  0.995020  0.322700  0.356340  1.0  0.2335
  C  C1303  1  0.994250  0.296690  0.371380  1.0  -0.1077
  C  C1304  1  0.995320  0.297670  0.401610  1.0  -0.0694
  C  C1305  1  0.994540  0.304120  0.305040  1.0  0.1329
  C  C1306  1  0.018050  0.300060  0.287600  1.0  -0.1574
  C  C1307  1  0.017970  0.278810  0.266250  1.0  -0.1681
  C  C1308  1  0.994180  0.261650  0.261830  1.0  -0.0031
  C  C1309  1  0.969760  0.765990  0.779240  1.0  -0.184
  C  C1310  1  0.970040  0.786970  0.800840  1.0  -0.1476
  C  C1311  1  0.997830  0.900690  0.798450  1.0  -0.0566
  C  C1312  1  0.996530  0.870470  0.797460  1.0  -0.1214
  C  C1313  1  0.996600  0.855450  0.823490  1.0  0.2354
  C  C1314  1  0.997770  0.869750  0.849560  1.0  0.0152
  C  C1315  1  0.999130  0.899720  0.851270  1.0  -0.1336
  C  C1316  1  0.999080  0.915600  0.825200  1.0  -0.1203
  C  C1317  1  0.000690  0.946750  0.826920  1.0  0.7064
  C  C1318  1  0.999300  0.826110  0.947560  1.0  0.679
  C  C1319  1  0.997240  0.824390  0.916500  1.0  -0.1189
  C  C1320  1  0.997960  0.850450  0.900620  1.0  -0.1327
  C  C1321  1  0.996910  0.848740  0.870620  1.0  0.0178
  C  C1322  1  0.995020  0.822700  0.856340  1.0  0.2335
  C  C1323  1  0.994250  0.796690  0.871380  1.0  -0.1077
  C  C1324  1  0.995320  0.797670  0.901610  1.0  -0.0694
  C  C1325  1  0.994540  0.804120  0.805040  1.0  0.1329
  C  C1326  1  0.018050  0.800060  0.787600  1.0  -0.1574
  C  C1327  1  0.017970  0.778810  0.766250  1.0  -0.1681
  C  C1328  1  0.994180  0.761650  0.761830  1.0  -0.0031
  C  C1329  1  0.530240  0.734010  0.779240  1.0  -0.1852
  C  C1330  1  0.529960  0.713030  0.800840  1.0  -0.148
  C  C1331  1  0.502170  0.599310  0.798450  1.0  -0.056
  C  C1332  1  0.503470  0.629530  0.797460  1.0  -0.1208
  C  C1333  1  0.503400  0.644550  0.823490  1.0  0.2349
  C  C1334  1  0.502230  0.630250  0.849560  1.0  0.0157
  C  C1335  1  0.500870  0.600280  0.851270  1.0  -0.1321
  C  C1336  1  0.500920  0.584400  0.825200  1.0  -0.1201
  C  C1337  1  0.499310  0.553250  0.826920  1.0  0.7072
  C  C1338  1  0.500700  0.673890  0.947560  1.0  0.6789
  C  C1339  1  0.502760  0.675610  0.916500  1.0  -0.1191
  C  C1340  1  0.502040  0.649550  0.900620  1.0  -0.1298
  C  C1341  1  0.503090  0.651260  0.870620  1.0  0.0173
  C  C1342  1  0.504980  0.677300  0.856340  1.0  0.2347
  C  C1343  1  0.505750  0.703310  0.871380  1.0  -0.1094
  C  C1344  1  0.504680  0.702330  0.901610  1.0  -0.0719
  C  C1345  1  0.505460  0.695880  0.805040  1.0  0.1332
  C  C1346  1  0.481950  0.699940  0.787600  1.0  -0.1584
  C  C1347  1  0.482030  0.721190  0.766250  1.0  -0.1667
  C  C1348  1  0.505820  0.738350  0.761830  1.0  -0.0031
  C  C1349  1  0.530240  0.234010  0.279240  1.0  -0.1852
  C  C1350  1  0.529960  0.213030  0.300840  1.0  -0.148
  C  C1351  1  0.502170  0.099310  0.298450  1.0  -0.056
  C  C1352  1  0.503470  0.129530  0.297460  1.0  -0.1208
  C  C1353  1  0.503400  0.144550  0.323490  1.0  0.2349
  C  C1354  1  0.502230  0.130250  0.349560  1.0  0.0157
  C  C1355  1  0.500870  0.100280  0.351270  1.0  -0.1321
  C  C1356  1  0.500920  0.084400  0.325200  1.0  -0.1201
  C  C1357  1  0.499310  0.053250  0.326920  1.0  0.7072
  C  C1358  1  0.500700  0.173890  0.447560  1.0  0.6789
  C  C1359  1  0.502760  0.175610  0.416500  1.0  -0.1191
  C  C1360  1  0.502040  0.149550  0.400620  1.0  -0.1298
  C  C1361  1  0.503090  0.151260  0.370620  1.0  0.0173
  C  C1362  1  0.504980  0.177300  0.356340  1.0  0.2347
  C  C1363  1  0.505750  0.203310  0.371380  1.0  -0.1094
  C  C1364  1  0.504680  0.202330  0.401610  1.0  -0.0719
  C  C1365  1  0.505460  0.195880  0.305040  1.0  0.1332
  C  C1366  1  0.481950  0.199940  0.287600  1.0  -0.1584
  C  C1367  1  0.482030  0.221190  0.266250  1.0  -0.1667
  C  C1368  1  0.505820  0.238350  0.261830  1.0  -0.0031
  C  C1369  1  0.030240  0.734010  0.279240  1.0  -0.1852
  C  C1370  1  0.029960  0.713030  0.300840  1.0  -0.148
  C  C1371  1  0.002170  0.599310  0.298450  1.0  -0.056
  C  C1372  1  0.003470  0.629530  0.297460  1.0  -0.1208
  C  C1373  1  0.003400  0.644550  0.323490  1.0  0.2349
  C  C1374  1  0.002230  0.630250  0.349560  1.0  0.0157
  C  C1375  1  0.000870  0.600280  0.351270  1.0  -0.1321
  C  C1376  1  0.000920  0.584400  0.325200  1.0  -0.1201
  C  C1377  1  0.999310  0.553250  0.326920  1.0  0.7072
  C  C1378  1  0.000700  0.673890  0.447560  1.0  0.6789
  C  C1379  1  0.002760  0.675610  0.416500  1.0  -0.1191
  C  C1380  1  0.002040  0.649550  0.400620  1.0  -0.1298
  C  C1381  1  0.003090  0.651260  0.370620  1.0  0.0173
  C  C1382  1  0.004980  0.677300  0.356340  1.0  0.2347
  C  C1383  1  0.005750  0.703310  0.371380  1.0  -0.1094
  C  C1384  1  0.004680  0.702330  0.401610  1.0  -0.0719
  C  C1385  1  0.005460  0.695880  0.305040  1.0  0.1332
  C  C1386  1  0.981950  0.699940  0.287600  1.0  -0.1584
  C  C1387  1  0.982030  0.721190  0.266250  1.0  -0.1667
  C  C1388  1  0.005820  0.738350  0.261830  1.0  -0.0031
  C  C1389  1  0.030240  0.234010  0.779240  1.0  -0.1852
  C  C1390  1  0.029960  0.213030  0.800840  1.0  -0.148
  C  C1391  1  0.002170  0.099310  0.798450  1.0  -0.056
  C  C1392  1  0.003470  0.129530  0.797460  1.0  -0.1208
  C  C1393  1  0.003400  0.144550  0.823490  1.0  0.2349
  C  C1394  1  0.002230  0.130250  0.849560  1.0  0.0157
  C  C1395  1  0.000870  0.100280  0.851270  1.0  -0.1321
  C  C1396  1  0.000920  0.084400  0.825200  1.0  -0.1201
  C  C1397  1  0.999310  0.053250  0.826920  1.0  0.7072
  C  C1398  1  0.000700  0.173890  0.947560  1.0  0.6789
  C  C1399  1  0.002760  0.175610  0.916500  1.0  -0.1191
  C  C1400  1  0.002040  0.149550  0.900620  1.0  -0.1298
  C  C1401  1  0.003090  0.151260  0.870620  1.0  0.0173
  C  C1402  1  0.004980  0.177300  0.856340  1.0  0.2347
  C  C1403  1  0.005750  0.203310  0.871380  1.0  -0.1094
  C  C1404  1  0.004680  0.202330  0.901610  1.0  -0.0719
  C  C1405  1  0.005460  0.195880  0.805040  1.0  0.1332
  C  C1406  1  0.981950  0.199940  0.787600  1.0  -0.1584
  C  C1407  1  0.982030  0.221190  0.766250  1.0  -0.1667
  C  C1408  1  0.005820  0.238350  0.761830  1.0  -0.0031
  C  C1409  1  0.469760  0.734010  0.220760  1.0  -0.1845
  C  C1410  1  0.470040  0.713030  0.199160  1.0  -0.1478
  C  C1411  1  0.497830  0.599310  0.201550  1.0  -0.0558
  C  C1412  1  0.496530  0.629530  0.202540  1.0  -0.1198
  C  C1413  1  0.496600  0.644550  0.176510  1.0  0.2346
  C  C1414  1  0.497770  0.630250  0.150440  1.0  0.0147
  C  C1415  1  0.499130  0.600280  0.148730  1.0  -0.132
  C  C1416  1  0.499080  0.584400  0.174800  1.0  -0.1203
  C  C1417  1  0.500690  0.553250  0.173080  1.0  0.7072
  C  C1418  1  0.499300  0.673890  0.052440  1.0  0.6806
  C  C1419  1  0.497240  0.675610  0.083500  1.0  -0.1189
  C  C1420  1  0.497960  0.649550  0.099380  1.0  -0.1299
  C  C1421  1  0.496910  0.651260  0.129380  1.0  0.0159
  C  C1422  1  0.495020  0.677300  0.143660  1.0  0.235
  C  C1423  1  0.494250  0.703310  0.128620  1.0  -0.1097
  C  C1424  1  0.495320  0.702330  0.098390  1.0  -0.071
  C  C1425  1  0.494540  0.695880  0.194960  1.0  0.1328
  C  C1426  1  0.518050  0.699940  0.212400  1.0  -0.1586
  C  C1427  1  0.517970  0.721190  0.233750  1.0  -0.1666
  C  C1428  1  0.494180  0.738350  0.238170  1.0  -0.0037
  C  C1429  1  0.469760  0.234010  0.720760  1.0  -0.1845
  C  C1430  1  0.470040  0.213030  0.699160  1.0  -0.1478
  C  C1431  1  0.497830  0.099310  0.701550  1.0  -0.0558
  C  C1432  1  0.496530  0.129530  0.702540  1.0  -0.1198
  C  C1433  1  0.496600  0.144550  0.676510  1.0  0.2346
  C  C1434  1  0.497770  0.130250  0.650440  1.0  0.0147
  C  C1435  1  0.499130  0.100280  0.648730  1.0  -0.132
  C  C1436  1  0.499080  0.084400  0.674800  1.0  -0.1203
  C  C1437  1  0.500690  0.053250  0.673080  1.0  0.7072
  C  C1438  1  0.499300  0.173890  0.552440  1.0  0.6806
  C  C1439  1  0.497240  0.175610  0.583500  1.0  -0.1189
  C  C1440  1  0.497960  0.149550  0.599380  1.0  -0.1299
  C  C1441  1  0.496910  0.151260  0.629380  1.0  0.0159
  C  C1442  1  0.495020  0.177300  0.643660  1.0  0.235
  C  C1443  1  0.494250  0.203310  0.628620  1.0  -0.1097
  C  C1444  1  0.495320  0.202330  0.598390  1.0  -0.071
  C  C1445  1  0.494540  0.195880  0.694960  1.0  0.1328
  C  C1446  1  0.518050  0.199940  0.712400  1.0  -0.1586
  C  C1447  1  0.517970  0.221190  0.733750  1.0  -0.1666
  C  C1448  1  0.494180  0.238350  0.738170  1.0  -0.0037
  C  C1449  1  0.969760  0.734010  0.720760  1.0  -0.1845
  C  C1450  1  0.970040  0.713030  0.699160  1.0  -0.1478
  C  C1451  1  0.997830  0.599310  0.701550  1.0  -0.0558
  C  C1452  1  0.996530  0.629530  0.702540  1.0  -0.1198
  C  C1453  1  0.996600  0.644550  0.676510  1.0  0.2346
  C  C1454  1  0.997770  0.630250  0.650440  1.0  0.013
  C  C1455  1  0.999130  0.600280  0.648730  1.0  -0.132
  C  C1456  1  0.999080  0.584400  0.674800  1.0  -0.1203
  C  C1457  1  0.000690  0.553250  0.673080  1.0  0.7072
  C  C1458  1  0.999300  0.673890  0.552440  1.0  0.6806
  C  C1459  1  0.997240  0.675610  0.583500  1.0  -0.1189
  C  C1460  1  0.997960  0.649550  0.599380  1.0  -0.1299
  C  C1461  1  0.996910  0.651260  0.629380  1.0  0.0159
  C  C1462  1  0.995020  0.677300  0.643660  1.0  0.235
  C  C1463  1  0.994250  0.703310  0.628620  1.0  -0.1097
  C  C1464  1  0.995320  0.702330  0.598390  1.0  -0.071
  C  C1465  1  0.994540  0.695880  0.694960  1.0  0.1328
  C  C1466  1  0.018050  0.699940  0.712400  1.0  -0.1586
  C  C1467  1  0.017970  0.721190  0.733750  1.0  -0.1666
  C  C1468  1  0.994180  0.738350  0.738170  1.0  -0.0037
  C  C1469  1  0.969760  0.234010  0.220760  1.0  -0.1845
  C  C1470  1  0.970040  0.213030  0.199160  1.0  -0.1478
  C  C1471  1  0.997830  0.099310  0.201550  1.0  -0.0558
  C  C1472  1  0.996530  0.129530  0.202540  1.0  -0.1198
  C  C1473  1  0.996600  0.144550  0.176510  1.0  0.2346
  C  C1474  1  0.997770  0.130250  0.150440  1.0  0.013
  C  C1475  1  0.999130  0.100280  0.148730  1.0  -0.132
  C  C1476  1  0.999080  0.084400  0.174800  1.0  -0.1203
  C  C1477  1  0.000690  0.053250  0.173080  1.0  0.7072
  C  C1478  1  0.999300  0.173890  0.052440  1.0  0.6806
  C  C1479  1  0.997240  0.175610  0.083500  1.0  -0.1189
  C  C1480  1  0.997960  0.149550  0.099380  1.0  -0.1299
  C  C1481  1  0.996910  0.151260  0.129380  1.0  0.0159
  C  C1482  1  0.995020  0.177300  0.143660  1.0  0.235
  C  C1483  1  0.994250  0.203310  0.128620  1.0  -0.1097
  C  C1484  1  0.995320  0.202330  0.098390  1.0  -0.071
  C  C1485  1  0.994540  0.195880  0.194960  1.0  0.1328
  C  C1486  1  0.018050  0.199940  0.212400  1.0  -0.1586
  C  C1487  1  0.017970  0.221190  0.233750  1.0  -0.1666
  C  C1488  1  0.994180  0.238350  0.238170  1.0  -0.0037
  N  N1489  1  0.172580  0.505140  0.326580  1.0  -0.1153
  N  N1490  1  0.172580  0.005140  0.826580  1.0  -0.1153
  N  N1491  1  0.672580  0.505140  0.826580  1.0  -0.1153
  N  N1492  1  0.672580  0.005140  0.326580  1.0  -0.1153
  N  N1493  1  0.827420  0.494860  0.326580  1.0  -0.1156
  N  N1494  1  0.827420  0.994860  0.826580  1.0  -0.1156
  N  N1495  1  0.327420  0.494860  0.826580  1.0  -0.1156
  N  N1496  1  0.327420  0.994860  0.326580  1.0  -0.1156
  N  N1497  1  0.827420  0.505140  0.673420  1.0  -0.1154
  N  N1498  1  0.827420  0.005140  0.173420  1.0  -0.1154
  N  N1499  1  0.327420  0.505140  0.173420  1.0  -0.1154
  N  N1500  1  0.327420  0.005140  0.673420  1.0  -0.1154
  N  N1501  1  0.172580  0.494860  0.673420  1.0  -0.1156
  N  N1502  1  0.172580  0.994860  0.173420  1.0  -0.1156
  N  N1503  1  0.672580  0.494860  0.173420  1.0  -0.1156
  N  N1504  1  0.672580  0.994860  0.673420  1.0  -0.1156
  N  N1505  1  0.326580  0.172580  0.505140  1.0  -0.1161
  N  N1506  1  0.326580  0.672580  0.005140  1.0  -0.1161
  N  N1507  1  0.826580  0.172580  0.005140  1.0  -0.1161
  N  N1508  1  0.826580  0.672580  0.505140  1.0  -0.1161
  N  N1509  1  0.326580  0.827420  0.494860  1.0  -0.1159
  N  N1510  1  0.326580  0.327420  0.994860  1.0  -0.1159
  N  N1511  1  0.826580  0.827420  0.994860  1.0  -0.1159
  N  N1512  1  0.826580  0.327420  0.494860  1.0  -0.1159
  N  N1513  1  0.673420  0.827420  0.505140  1.0  -0.1159
  N  N1514  1  0.673420  0.327420  0.005140  1.0  -0.1159
  N  N1515  1  0.173420  0.827420  0.005140  1.0  -0.1159
  N  N1516  1  0.173420  0.327420  0.505140  1.0  -0.1159
  N  N1517  1  0.673420  0.172580  0.494860  1.0  -0.1159
  N  N1518  1  0.673420  0.672580  0.994860  1.0  -0.1159
  N  N1519  1  0.173420  0.172580  0.994860  1.0  -0.1159
  N  N1520  1  0.173420  0.672580  0.494860  1.0  -0.1159
  N  N1521  1  0.505140  0.326580  0.172580  1.0  -0.1156
  N  N1522  1  0.505140  0.826580  0.672580  1.0  -0.1156
  N  N1523  1  0.005140  0.326580  0.672580  1.0  -0.1156
  N  N1524  1  0.005140  0.826580  0.172580  1.0  -0.1156
  N  N1525  1  0.494860  0.326580  0.827420  1.0  -0.1162
  N  N1526  1  0.494860  0.826580  0.327420  1.0  -0.1162
  N  N1527  1  0.994860  0.326580  0.327420  1.0  -0.1162
  N  N1528  1  0.994860  0.826580  0.827420  1.0  -0.1162
  N  N1529  1  0.505140  0.673420  0.827420  1.0  -0.1157
  N  N1530  1  0.505140  0.173420  0.327420  1.0  -0.1157
  N  N1531  1  0.005140  0.673420  0.327420  1.0  -0.1157
  N  N1532  1  0.005140  0.173420  0.827420  1.0  -0.1157
  N  N1533  1  0.494860  0.673420  0.172580  1.0  -0.116
  N  N1534  1  0.494860  0.173420  0.672580  1.0  -0.116
  N  N1535  1  0.994860  0.673420  0.672580  1.0  -0.116
  N  N1536  1  0.994860  0.173420  0.172580  1.0  -0.116
  O  O1537  1  0.196780  0.499420  0.460460  1.0  -0.5837
  O  O1538  1  0.149210  0.499520  0.460230  1.0  -0.5835
  O  O1539  1  0.038960  0.500480  0.349970  1.0  -0.5786
  O  O1540  1  0.038730  0.500580  0.302410  1.0  -0.5756
  O  O1541  1  0.196780  0.999420  0.960460  1.0  -0.5837
  O  O1542  1  0.149210  0.999520  0.960230  1.0  -0.5835
  O  O1543  1  0.038960  0.000480  0.849970  1.0  -0.5786
  O  O1544  1  0.038730  0.000580  0.802410  1.0  -0.5756
  O  O1545  1  0.696780  0.499420  0.960460  1.0  -0.5837
  O  O1546  1  0.649210  0.499520  0.960230  1.0  -0.5835
  O  O1547  1  0.538960  0.500480  0.849970  1.0  -0.5786
  O  O1548  1  0.538730  0.500580  0.802410  1.0  -0.5756
  O  O1549  1  0.696780  0.999420  0.460460  1.0  -0.5837
  O  O1550  1  0.649210  0.999520  0.460230  1.0  -0.5835
  O  O1551  1  0.538960  0.000480  0.349970  1.0  -0.5786
  O  O1552  1  0.538730  0.000580  0.302410  1.0  -0.5756
  O  O1553  1  0.803220  0.500580  0.460460  1.0  -0.5841
  O  O1554  1  0.850790  0.500480  0.460230  1.0  -0.5832
  O  O1555  1  0.961040  0.499520  0.349970  1.0  -0.5787
  O  O1556  1  0.961270  0.499420  0.302410  1.0  -0.5762
  O  O1557  1  0.803220  0.000580  0.960460  1.0  -0.5841
  O  O1558  1  0.850790  0.000480  0.960230  1.0  -0.5832
  O  O1559  1  0.961040  0.999520  0.849970  1.0  -0.5787
  O  O1560  1  0.961270  0.999420  0.802410  1.0  -0.5762
  O  O1561  1  0.303220  0.500580  0.960460  1.0  -0.5841
  O  O1562  1  0.350790  0.500480  0.960230  1.0  -0.5832
  O  O1563  1  0.461040  0.499520  0.849970  1.0  -0.5787
  O  O1564  1  0.461270  0.499420  0.802410  1.0  -0.5762
  O  O1565  1  0.303220  0.000580  0.460460  1.0  -0.5841
  O  O1566  1  0.350790  0.000480  0.460230  1.0  -0.5832
  O  O1567  1  0.461040  0.999520  0.349970  1.0  -0.5787
  O  O1568  1  0.461270  0.999420  0.302410  1.0  -0.5762
  O  O1569  1  0.803220  0.499420  0.539540  1.0  -0.5833
  O  O1570  1  0.850790  0.499520  0.539770  1.0  -0.5828
  O  O1571  1  0.961040  0.500480  0.650030  1.0  -0.5789
  O  O1572  1  0.961270  0.500580  0.697590  1.0  -0.5775
  O  O1573  1  0.803220  0.999420  0.039540  1.0  -0.5833
  O  O1574  1  0.850790  0.999520  0.039770  1.0  -0.5828
  O  O1575  1  0.961040  0.000480  0.150030  1.0  -0.5789
  O  O1576  1  0.961270  0.000580  0.197590  1.0  -0.5775
  O  O1577  1  0.303220  0.499420  0.039540  1.0  -0.5833
  O  O1578  1  0.350790  0.499520  0.039770  1.0  -0.5828
  O  O1579  1  0.461040  0.500480  0.150030  1.0  -0.5789
  O  O1580  1  0.461270  0.500580  0.197590  1.0  -0.5775
  O  O1581  1  0.303220  0.999420  0.539540  1.0  -0.5833
  O  O1582  1  0.350790  0.999520  0.539770  1.0  -0.5828
  O  O1583  1  0.461040  0.000480  0.650030  1.0  -0.5789
  O  O1584  1  0.461270  0.000580  0.697590  1.0  -0.5775
  O  O1585  1  0.196780  0.500580  0.539540  1.0  -0.5833
  O  O1586  1  0.149210  0.500480  0.539770  1.0  -0.5833
  O  O1587  1  0.038960  0.499520  0.650030  1.0  -0.5798
  O  O1588  1  0.038730  0.499420  0.697590  1.0  -0.5764
  O  O1589  1  0.196780  0.000580  0.039540  1.0  -0.5833
  O  O1590  1  0.149210  0.000480  0.039770  1.0  -0.5833
  O  O1591  1  0.038960  0.999520  0.150030  1.0  -0.5798
  O  O1592  1  0.038730  0.999420  0.197590  1.0  -0.5764
  O  O1593  1  0.696780  0.500580  0.039540  1.0  -0.5833
  O  O1594  1  0.649210  0.500480  0.039770  1.0  -0.5833
  O  O1595  1  0.538960  0.499520  0.150030  1.0  -0.5798
  O  O1596  1  0.538730  0.499420  0.197590  1.0  -0.5764
  O  O1597  1  0.696780  0.000580  0.539540  1.0  -0.5833
  O  O1598  1  0.649210  0.000480  0.539770  1.0  -0.5833
  O  O1599  1  0.538960  0.999520  0.650030  1.0  -0.5798
  O  O1600  1  0.538730  0.999420  0.697590  1.0  -0.5764
  O  O1601  1  0.460460  0.196780  0.499420  1.0  -0.5846
  O  O1602  1  0.460230  0.149210  0.499520  1.0  -0.5851
  O  O1603  1  0.349970  0.038960  0.500480  1.0  -0.5751
  O  O1604  1  0.302410  0.038730  0.500580  1.0  -0.5734
  O  O1605  1  0.460460  0.696780  0.999420  1.0  -0.5846
  O  O1606  1  0.460230  0.649210  0.999520  1.0  -0.5851
  O  O1607  1  0.349970  0.538960  0.000480  1.0  -0.5751
  O  O1608  1  0.302410  0.538730  0.000580  1.0  -0.5734
  O  O1609  1  0.960460  0.196780  0.999420  1.0  -0.5846
  O  O1610  1  0.960230  0.149210  0.999520  1.0  -0.5851
  O  O1611  1  0.849970  0.038960  0.000480  1.0  -0.5751
  O  O1612  1  0.802410  0.038730  0.000580  1.0  -0.5734
  O  O1613  1  0.960460  0.696780  0.499420  1.0  -0.5846
  O  O1614  1  0.960230  0.649210  0.499520  1.0  -0.5851
  O  O1615  1  0.849970  0.538960  0.500480  1.0  -0.5751
  O  O1616  1  0.802410  0.538730  0.500580  1.0  -0.5734
  O  O1617  1  0.460460  0.803220  0.500580  1.0  -0.5862
  O  O1618  1  0.460230  0.850790  0.500480  1.0  -0.5841
  O  O1619  1  0.349970  0.961040  0.499520  1.0  -0.5743
  O  O1620  1  0.302410  0.961270  0.499420  1.0  -0.573
  O  O1621  1  0.460460  0.303220  0.000580  1.0  -0.5862
  O  O1622  1  0.460230  0.350790  0.000480  1.0  -0.5841
  O  O1623  1  0.349970  0.461040  0.999520  1.0  -0.5743
  O  O1624  1  0.302410  0.461270  0.999420  1.0  -0.573
  O  O1625  1  0.960460  0.803220  0.000580  1.0  -0.5862
  O  O1626  1  0.960230  0.850790  0.000480  1.0  -0.5841
  O  O1627  1  0.849970  0.961040  0.999520  1.0  -0.5743
  O  O1628  1  0.802410  0.961270  0.999420  1.0  -0.573
  O  O1629  1  0.960460  0.303220  0.500580  1.0  -0.5862
  O  O1630  1  0.960230  0.350790  0.500480  1.0  -0.5841
  O  O1631  1  0.849970  0.461040  0.499520  1.0  -0.5743
  O  O1632  1  0.802410  0.461270  0.499420  1.0  -0.573
  O  O1633  1  0.539540  0.803220  0.499420  1.0  -0.5867
  O  O1634  1  0.539770  0.850790  0.499520  1.0  -0.5842
  O  O1635  1  0.650030  0.961040  0.500480  1.0  -0.5749
  O  O1636  1  0.697590  0.961270  0.500580  1.0  -0.5732
  O  O1637  1  0.539540  0.303220  0.999420  1.0  -0.5867
  O  O1638  1  0.539770  0.350790  0.999520  1.0  -0.5842
  O  O1639  1  0.650030  0.461040  0.000480  1.0  -0.5749
  O  O1640  1  0.697590  0.461270  0.000580  1.0  -0.5732
  O  O1641  1  0.039540  0.803220  0.999420  1.0  -0.5867
  O  O1642  1  0.039770  0.850790  0.999520  1.0  -0.5842
  O  O1643  1  0.150030  0.961040  0.000480  1.0  -0.5749
  O  O1644  1  0.197590  0.961270  0.000580  1.0  -0.5732
  O  O1645  1  0.039540  0.303220  0.499420  1.0  -0.5867
  O  O1646  1  0.039770  0.350790  0.499520  1.0  -0.5842
  O  O1647  1  0.150030  0.461040  0.500480  1.0  -0.5749
  O  O1648  1  0.197590  0.461270  0.500580  1.0  -0.5732
  O  O1649  1  0.539540  0.196780  0.500580  1.0  -0.585
  O  O1650  1  0.539770  0.149210  0.500480  1.0  -0.5857
  O  O1651  1  0.650030  0.038960  0.499520  1.0  -0.5751
  O  O1652  1  0.697590  0.038730  0.499420  1.0  -0.5735
  O  O1653  1  0.539540  0.696780  0.000580  1.0  -0.585
  O  O1654  1  0.539770  0.649210  0.000480  1.0  -0.5857
  O  O1655  1  0.650030  0.538960  0.999520  1.0  -0.5751
  O  O1656  1  0.697590  0.538730  0.999420  1.0  -0.5735
  O  O1657  1  0.039540  0.196780  0.000580  1.0  -0.585
  O  O1658  1  0.039770  0.149210  0.000480  1.0  -0.5857
  O  O1659  1  0.150030  0.038960  0.999520  1.0  -0.5751
  O  O1660  1  0.197590  0.038730  0.999420  1.0  -0.5735
  O  O1661  1  0.039540  0.696780  0.500580  1.0  -0.585
  O  O1662  1  0.039770  0.649210  0.500480  1.0  -0.5857
  O  O1663  1  0.150030  0.538960  0.499520  1.0  -0.5751
  O  O1664  1  0.197590  0.538730  0.499420  1.0  -0.5735
  O  O1665  1  0.499420  0.460460  0.196780  1.0  -0.5867
  O  O1666  1  0.499520  0.460230  0.149210  1.0  -0.5855
  O  O1667  1  0.500480  0.349970  0.038960  1.0  -0.5752
  O  O1668  1  0.500580  0.302410  0.038730  1.0  -0.5723
  O  O1669  1  0.499420  0.960460  0.696780  1.0  -0.5867
  O  O1670  1  0.499520  0.960230  0.649210  1.0  -0.5855
  O  O1671  1  0.500480  0.849970  0.538960  1.0  -0.5752
  O  O1672  1  0.500580  0.802410  0.538730  1.0  -0.5723
  O  O1673  1  0.999420  0.460460  0.696780  1.0  -0.5867
  O  O1674  1  0.999520  0.460230  0.649210  1.0  -0.5855
  O  O1675  1  0.000480  0.349970  0.538960  1.0  -0.5752
  O  O1676  1  0.000580  0.302410  0.538730  1.0  -0.5723
  O  O1677  1  0.999420  0.960460  0.196780  1.0  -0.5867
  O  O1678  1  0.999520  0.960230  0.149210  1.0  -0.5855
  O  O1679  1  0.000480  0.849970  0.038960  1.0  -0.5752
  O  O1680  1  0.000580  0.802410  0.038730  1.0  -0.5723
  O  O1681  1  0.500580  0.460460  0.803220  1.0  -0.5852
  O  O1682  1  0.500480  0.460230  0.850790  1.0  -0.5858
  O  O1683  1  0.499520  0.349970  0.961040  1.0  -0.575
  O  O1684  1  0.499420  0.302410  0.961270  1.0  -0.5731
  O  O1685  1  0.500580  0.960460  0.303220  1.0  -0.5852
  O  O1686  1  0.500480  0.960230  0.350790  1.0  -0.5858
  O  O1687  1  0.499520  0.849970  0.461040  1.0  -0.575
  O  O1688  1  0.499420  0.802410  0.461270  1.0  -0.5731
  O  O1689  1  0.000580  0.460460  0.303220  1.0  -0.5852
  O  O1690  1  0.000480  0.460230  0.350790  1.0  -0.5858
  O  O1691  1  0.999520  0.349970  0.461040  1.0  -0.575
  O  O1692  1  0.999420  0.302410  0.461270  1.0  -0.5731
  O  O1693  1  0.000580  0.960460  0.803220  1.0  -0.5852
  O  O1694  1  0.000480  0.960230  0.850790  1.0  -0.5858
  O  O1695  1  0.999520  0.849970  0.961040  1.0  -0.575
  O  O1696  1  0.999420  0.802410  0.961270  1.0  -0.5731
  O  O1697  1  0.499420  0.539540  0.803220  1.0  -0.5856
  O  O1698  1  0.499520  0.539770  0.850790  1.0  -0.5866
  O  O1699  1  0.500480  0.650030  0.961040  1.0  -0.5761
  O  O1700  1  0.500580  0.697590  0.961270  1.0  -0.5725
  O  O1701  1  0.499420  0.039540  0.303220  1.0  -0.5856
  O  O1702  1  0.499520  0.039770  0.350790  1.0  -0.5866
  O  O1703  1  0.500480  0.150030  0.461040  1.0  -0.5761
  O  O1704  1  0.500580  0.197590  0.461270  1.0  -0.5725
  O  O1705  1  0.999420  0.539540  0.303220  1.0  -0.5856
  O  O1706  1  0.999520  0.539770  0.350790  1.0  -0.5866
  O  O1707  1  0.000480  0.650030  0.461040  1.0  -0.5761
  O  O1708  1  0.000580  0.697590  0.461270  1.0  -0.5725
  O  O1709  1  0.999420  0.039540  0.803220  1.0  -0.5856
  O  O1710  1  0.999520  0.039770  0.850790  1.0  -0.5866
  O  O1711  1  0.000480  0.150030  0.961040  1.0  -0.5761
  O  O1712  1  0.000580  0.197590  0.961270  1.0  -0.5725
  O  O1713  1  0.500580  0.539540  0.196780  1.0  -0.5872
  O  O1714  1  0.500480  0.539770  0.149210  1.0  -0.5856
  O  O1715  1  0.499520  0.650030  0.038960  1.0  -0.576
  O  O1716  1  0.499420  0.697590  0.038730  1.0  -0.5719
  O  O1717  1  0.500580  0.039540  0.696780  1.0  -0.5872
  O  O1718  1  0.500480  0.039770  0.649210  1.0  -0.5856
  O  O1719  1  0.499520  0.150030  0.538960  1.0  -0.576
  O  O1720  1  0.499420  0.197590  0.538730  1.0  -0.5719
  O  O1721  1  0.000580  0.539540  0.696780  1.0  -0.5872
  O  O1722  1  0.000480  0.539770  0.649210  1.0  -0.5856
  O  O1723  1  0.999520  0.650030  0.538960  1.0  -0.576
  O  O1724  1  0.999420  0.697590  0.538730  1.0  -0.5719
  O  O1725  1  0.000580  0.039540  0.196780  1.0  -0.5872
  O  O1726  1  0.000480  0.039770  0.149210  1.0  -0.5856
  O  O1727  1  0.999520  0.150030  0.038960  1.0  -0.576
  O  O1728  1  0.999420  0.197590  0.038730  1.0  -0.5719
