# generated using pymatgen
data_CuH10C20NO4
_symmetry_space_group_name_H-M   'P 1'
_cell_length_a   45.54190000
_cell_length_b   45.54190000
_cell_length_c   45.54190000
_cell_angle_alpha   90.00000000
_cell_angle_beta   90.00000000
_cell_angle_gamma   90.00000000
_symmetry_Int_Tables_number   1
_chemical_formula_structural   CuH10C20NO4
_chemical_formula_sum   'Cu48 H480 C960 N48 O192'
_cell_volume   94456.84513933
_cell_formula_units_Z   48
loop_
 _symmetry_equiv_pos_site_id
 _symmetry_equiv_pos_as_xyz
  1  'x, y, z'
loop_
 _atom_site_type_symbol
 _atom_site_label
 _atom_site_symmetry_multiplicity
 _atom_site_fract_x
 _atom_site_fract_y
 _atom_site_fract_z
 _atom_site_occupancy
 _atom_site_charge
  Cu  Cu1  1  0.851300  0.014980  0.989640  1.0  0.816
  Cu  Cu2  1  0.797150  0.016990  0.982410  1.0  0.9539
  Cu  Cu3  1  0.648700  0.985020  0.489640  1.0  0.8146
  Cu  Cu4  1  0.702850  0.983010  0.482410  1.0  0.9557
  Cu  Cu5  1  0.148700  0.514980  0.510360  1.0  0.8142
  Cu  Cu6  1  0.202850  0.516990  0.517590  1.0  0.9553
  Cu  Cu7  1  0.351300  0.485020  0.010360  1.0  0.8161
  Cu  Cu8  1  0.297150  0.483010  0.017590  1.0  0.9542
  Cu  Cu9  1  0.989640  0.851300  0.014980  1.0  0.8115
  Cu  Cu10  1  0.982410  0.797150  0.016990  1.0  0.9505
  Cu  Cu11  1  0.489640  0.648700  0.985020  1.0  0.8141
  Cu  Cu12  1  0.482410  0.702850  0.983010  1.0  0.951
  Cu  Cu13  1  0.510360  0.148700  0.514980  1.0  0.8143
  Cu  Cu14  1  0.517590  0.202850  0.516990  1.0  0.9497
  Cu  Cu15  1  0.010360  0.351300  0.485020  1.0  0.8128
  Cu  Cu16  1  0.017590  0.297150  0.483010  1.0  0.9501
  Cu  Cu17  1  0.014980  0.989640  0.851300  1.0  0.8119
  Cu  Cu18  1  0.016990  0.982410  0.797150  1.0  0.955
  Cu  Cu19  1  0.985020  0.489640  0.648700  1.0  0.8138
  Cu  Cu20  1  0.983010  0.482410  0.702850  1.0  0.9497
  Cu  Cu21  1  0.514980  0.510360  0.148700  1.0  0.8139
  Cu  Cu22  1  0.516990  0.517590  0.202850  1.0  0.9502
  Cu  Cu23  1  0.485020  0.010360  0.351300  1.0  0.8121
  Cu  Cu24  1  0.483010  0.017590  0.297150  1.0  0.9552
  Cu  Cu25  1  0.148700  0.985020  0.010360  1.0  0.8143
  Cu  Cu26  1  0.202850  0.983010  0.017590  1.0  0.9557
  Cu  Cu27  1  0.351300  0.014980  0.510360  1.0  0.8162
  Cu  Cu28  1  0.297150  0.016990  0.517590  1.0  0.9539
  Cu  Cu29  1  0.851300  0.485020  0.489640  1.0  0.8159
  Cu  Cu30  1  0.797150  0.483010  0.482410  1.0  0.9541
  Cu  Cu31  1  0.648700  0.514980  0.989640  1.0  0.8145
  Cu  Cu32  1  0.702850  0.516990  0.982410  1.0  0.9554
  Cu  Cu33  1  0.010360  0.148700  0.985020  1.0  0.8146
  Cu  Cu34  1  0.017590  0.202850  0.983010  1.0  0.9496
  Cu  Cu35  1  0.510360  0.351300  0.014980  1.0  0.8127
  Cu  Cu36  1  0.517590  0.297150  0.016990  1.0  0.95
  Cu  Cu37  1  0.489640  0.851300  0.485020  1.0  0.8117
  Cu  Cu38  1  0.482410  0.797150  0.483010  1.0  0.9506
  Cu  Cu39  1  0.989640  0.648700  0.514980  1.0  0.8138
  Cu  Cu40  1  0.982410  0.702850  0.516990  1.0  0.9511
  Cu  Cu41  1  0.985020  0.010360  0.148700  1.0  0.8137
  Cu  Cu42  1  0.983010  0.017590  0.202850  1.0  0.9497
  Cu  Cu43  1  0.014980  0.510360  0.351300  1.0  0.812
  Cu  Cu44  1  0.016990  0.517590  0.297150  1.0  0.9551
  Cu  Cu45  1  0.485020  0.489640  0.851300  1.0  0.812
  Cu  Cu46  1  0.483010  0.482410  0.797150  1.0  0.955
  Cu  Cu47  1  0.514980  0.989640  0.648700  1.0  0.8139
  Cu  Cu48  1  0.516990  0.982410  0.702850  1.0  0.9503
  H  H49  1  0.656290  0.983410  0.258370  1.0  0.1024
  H  H50  1  0.767030  0.025230  0.069820  1.0  0.1029
  H  H51  1  0.713450  0.979680  0.394240  1.0  0.1012
  H  H52  1  0.762500  0.035920  0.122730  1.0  0.099
  H  H53  1  0.711420  0.989760  0.341260  1.0  0.0946
  H  H54  1  0.860280  0.008170  0.081020  1.0  0.0974
  H  H55  1  0.618920  0.991130  0.400360  1.0  0.0964
  H  H56  1  0.896550  0.006840  0.124290  1.0  0.0948
  H  H57  1  0.577170  0.002760  0.365080  1.0  0.099
  H  H58  1  0.839600  0.034690  0.213980  1.0  0.0959
  H  H59  1  0.622300  0.020800  0.266620  1.0  0.0953
  H  H60  1  0.892050  0.022380  0.218380  1.0  0.1026
  H  H61  1  0.568920  0.026120  0.272950  1.0  0.1024
  H  H62  1  0.796540  0.071900  0.202300  1.0  0.1001
  H  H63  1  0.707380  0.036660  0.317320  1.0  0.1063
  H  H64  1  0.757730  0.066070  0.239060  1.0  0.091
  H  H65  1  0.744060  0.044270  0.279110  1.0  0.0915
  H  H66  1  0.732660  0.982240  0.200230  1.0  0.1021
  H  H67  1  0.771850  0.989400  0.161380  1.0  0.1007
  H  H68  1  0.692070  0.992350  0.217740  1.0  0.0936
  H  H69  1  0.843710  0.016590  0.758370  1.0  0.1034
  H  H70  1  0.732970  0.974770  0.569820  1.0  0.1016
  H  H71  1  0.786550  0.020320  0.894240  1.0  0.1014
  H  H72  1  0.737500  0.964080  0.622730  1.0  0.0985
  H  H73  1  0.788580  0.010240  0.841260  1.0  0.0946
  H  H74  1  0.639720  0.991830  0.581020  1.0  0.0977
  H  H75  1  0.881080  0.008870  0.900360  1.0  0.0959
  H  H76  1  0.603450  0.993160  0.624290  1.0  0.0954
  H  H77  1  0.922830  0.997240  0.865080  1.0  0.0996
  H  H78  1  0.660400  0.965310  0.713980  1.0  0.0956
  H  H79  1  0.877700  0.979200  0.766620  1.0  0.096
  H  H80  1  0.607950  0.977620  0.718380  1.0  0.1023
  H  H81  1  0.931080  0.973880  0.772950  1.0  0.1024
  H  H82  1  0.703460  0.928100  0.702300  1.0  0.0987
  H  H83  1  0.792620  0.963340  0.817320  1.0  0.1064
  H  H84  1  0.742270  0.933930  0.739060  1.0  0.0908
  H  H85  1  0.755940  0.955730  0.779110  1.0  0.0913
  H  H86  1  0.767340  0.017760  0.700230  1.0  0.1023
  H  H87  1  0.728150  0.010600  0.661380  1.0  0.1015
  H  H88  1  0.807930  0.007650  0.717740  1.0  0.0943
  H  H89  1  0.343710  0.483410  0.241630  1.0  0.1022
  H  H90  1  0.232970  0.525230  0.430180  1.0  0.102
  H  H91  1  0.286550  0.479680  0.105760  1.0  0.1017
  H  H92  1  0.237500  0.535920  0.377270  1.0  0.0985
  H  H93  1  0.288580  0.489760  0.158740  1.0  0.0944
  H  H94  1  0.139720  0.508170  0.418980  1.0  0.0975
  H  H95  1  0.381080  0.491130  0.099640  1.0  0.0955
  H  H96  1  0.103450  0.506840  0.375710  1.0  0.0953
  H  H97  1  0.422830  0.502760  0.134920  1.0  0.1
  H  H98  1  0.160400  0.534690  0.286020  1.0  0.0957
  H  H99  1  0.377700  0.520800  0.233380  1.0  0.0968
  H  H100  1  0.107950  0.522380  0.281620  1.0  0.1015
  H  H101  1  0.431080  0.526120  0.227050  1.0  0.1042
  H  H102  1  0.203460  0.571900  0.297700  1.0  0.1004
  H  H103  1  0.292620  0.536660  0.182680  1.0  0.1062
  H  H104  1  0.242270  0.566070  0.260940  1.0  0.0908
  H  H105  1  0.255940  0.544270  0.220890  1.0  0.0912
  H  H106  1  0.267340  0.482240  0.299770  1.0  0.1037
  H  H107  1  0.228150  0.489400  0.338620  1.0  0.1008
  H  H108  1  0.307930  0.492350  0.282260  1.0  0.0945
  H  H109  1  0.156290  0.516590  0.741630  1.0  0.1033
  H  H110  1  0.267030  0.474770  0.930180  1.0  0.1019
  H  H111  1  0.213450  0.520320  0.605760  1.0  0.1015
  H  H112  1  0.262500  0.464080  0.877270  1.0  0.0992
  H  H113  1  0.211420  0.510240  0.658740  1.0  0.0954
  H  H114  1  0.360280  0.491830  0.918980  1.0  0.0977
  H  H115  1  0.118920  0.508870  0.599640  1.0  0.0964
  H  H116  1  0.396550  0.493160  0.875710  1.0  0.0951
  H  H117  1  0.077170  0.497240  0.634920  1.0  0.0995
  H  H118  1  0.339600  0.465310  0.786020  1.0  0.0963
  H  H119  1  0.122300  0.479200  0.733380  1.0  0.0966
  H  H120  1  0.392050  0.477620  0.781620  1.0  0.1017
  H  H121  1  0.068920  0.473880  0.727050  1.0  0.1035
  H  H122  1  0.296540  0.428100  0.797700  1.0  0.0989
  H  H123  1  0.207380  0.463340  0.682680  1.0  0.1056
  H  H124  1  0.257730  0.433930  0.760940  1.0  0.0904
  H  H125  1  0.244060  0.455730  0.720890  1.0  0.0914
  H  H126  1  0.232660  0.517760  0.799770  1.0  0.1031
  H  H127  1  0.271850  0.510600  0.838620  1.0  0.1009
  H  H128  1  0.192070  0.507650  0.782260  1.0  0.0946
  H  H129  1  0.258370  0.656290  0.983410  1.0  0.1021
  H  H130  1  0.069820  0.767030  0.025230  1.0  0.1056
  H  H131  1  0.394240  0.713450  0.979680  1.0  0.1048
  H  H132  1  0.122730  0.762500  0.035920  1.0  0.1002
  H  H133  1  0.341260  0.711420  0.989760  1.0  0.0979
  H  H134  1  0.081020  0.860280  0.008170  1.0  0.0989
  H  H135  1  0.400360  0.618920  0.991130  1.0  0.0963
  H  H136  1  0.124290  0.896550  0.006840  1.0  0.0949
  H  H137  1  0.365080  0.577170  0.002760  1.0  0.0993
  H  H138  1  0.213980  0.839600  0.034690  1.0  0.0958
  H  H139  1  0.266620  0.622300  0.020800  1.0  0.0954
  H  H140  1  0.218380  0.892050  0.022380  1.0  0.1039
  H  H141  1  0.272950  0.568920  0.026120  1.0  0.1043
  H  H142  1  0.202300  0.796540  0.071900  1.0  0.0993
  H  H143  1  0.317320  0.707380  0.036660  1.0  0.1047
  H  H144  1  0.239060  0.757730  0.066070  1.0  0.0923
  H  H145  1  0.279110  0.744060  0.044270  1.0  0.0913
  H  H146  1  0.200230  0.732660  0.982240  1.0  0.0988
  H  H147  1  0.161380  0.771850  0.989400  1.0  0.1007
  H  H148  1  0.217740  0.692070  0.992350  1.0  0.0932
  H  H149  1  0.758370  0.843710  0.016590  1.0  0.1035
  H  H150  1  0.569820  0.732970  0.974770  1.0  0.1063
  H  H151  1  0.894240  0.786550  0.020320  1.0  0.1041
  H  H152  1  0.622730  0.737500  0.964080  1.0  0.1012
  H  H153  1  0.841260  0.788580  0.010240  1.0  0.0964
  H  H154  1  0.581020  0.639720  0.991830  1.0  0.0981
  H  H155  1  0.900360  0.881080  0.008870  1.0  0.0967
  H  H156  1  0.624290  0.603450  0.993160  1.0  0.0947
  H  H157  1  0.865080  0.922830  0.997240  1.0  0.0993
  H  H158  1  0.713980  0.660400  0.965310  1.0  0.0958
  H  H159  1  0.766620  0.877700  0.979200  1.0  0.0954
  H  H160  1  0.718380  0.607950  0.977620  1.0  0.1038
  H  H161  1  0.772950  0.931080  0.973880  1.0  0.1044
  H  H162  1  0.702300  0.703460  0.928100  1.0  0.0987
  H  H163  1  0.817320  0.792620  0.963340  1.0  0.1061
  H  H164  1  0.739060  0.742270  0.933930  1.0  0.0905
  H  H165  1  0.779110  0.755940  0.955730  1.0  0.091
  H  H166  1  0.700230  0.767340  0.017760  1.0  0.1011
  H  H167  1  0.661380  0.728150  0.010600  1.0  0.101
  H  H168  1  0.717740  0.807930  0.007650  1.0  0.0951
  H  H169  1  0.241630  0.343710  0.483410  1.0  0.1025
  H  H170  1  0.430180  0.232970  0.525230  1.0  0.1069
  H  H171  1  0.105760  0.286550  0.479680  1.0  0.1038
  H  H172  1  0.377270  0.237500  0.535920  1.0  0.1013
  H  H173  1  0.158740  0.288580  0.489760  1.0  0.0967
  H  H174  1  0.418980  0.139720  0.508170  1.0  0.0985
  H  H175  1  0.099640  0.381080  0.491130  1.0  0.0982
  H  H176  1  0.375710  0.103450  0.506840  1.0  0.094
  H  H177  1  0.134920  0.422830  0.502760  1.0  0.0995
  H  H178  1  0.286020  0.160400  0.534690  1.0  0.0959
  H  H179  1  0.233380  0.377700  0.520800  1.0  0.0952
  H  H180  1  0.281620  0.107950  0.522380  1.0  0.1038
  H  H181  1  0.227050  0.431080  0.526120  1.0  0.1042
  H  H182  1  0.297700  0.203460  0.571900  1.0  0.0998
  H  H183  1  0.182680  0.292620  0.536660  1.0  0.1059
  H  H184  1  0.260940  0.242270  0.566070  1.0  0.0919
  H  H185  1  0.220890  0.255940  0.544270  1.0  0.0911
  H  H186  1  0.299770  0.267340  0.482240  1.0  0.0988
  H  H187  1  0.338620  0.228150  0.489400  1.0  0.1004
  H  H188  1  0.282260  0.307930  0.492350  1.0  0.0948
  H  H189  1  0.741630  0.156290  0.516590  1.0  0.103
  H  H190  1  0.930180  0.267030  0.474770  1.0  0.1058
  H  H191  1  0.605760  0.213450  0.520320  1.0  0.1052
  H  H192  1  0.877270  0.262500  0.464080  1.0  0.1002
  H  H193  1  0.658740  0.211420  0.510240  1.0  0.0977
  H  H194  1  0.918980  0.360280  0.491830  1.0  0.0983
  H  H195  1  0.599640  0.118920  0.508870  1.0  0.0974
  H  H196  1  0.875710  0.396550  0.493160  1.0  0.0956
  H  H197  1  0.634920  0.077170  0.497240  1.0  0.0996
  H  H198  1  0.786020  0.339600  0.465310  1.0  0.0958
  H  H199  1  0.733380  0.122300  0.479200  1.0  0.0956
  H  H200  1  0.781620  0.392050  0.477620  1.0  0.1042
  H  H201  1  0.727050  0.068920  0.473880  1.0  0.1042
  H  H202  1  0.797700  0.296540  0.428100  1.0  0.0984
  H  H203  1  0.682680  0.207380  0.463340  1.0  0.1065
  H  H204  1  0.760940  0.257730  0.433930  1.0  0.0906
  H  H205  1  0.720890  0.244060  0.455730  1.0  0.0917
  H  H206  1  0.799770  0.232660  0.517760  1.0  0.1022
  H  H207  1  0.838620  0.271850  0.510600  1.0  0.1012
  H  H208  1  0.782260  0.192070  0.507650  1.0  0.0961
  H  H209  1  0.983410  0.258370  0.656290  1.0  0.1008
  H  H210  1  0.025230  0.069820  0.767030  1.0  0.1026
  H  H211  1  0.979680  0.394240  0.713450  1.0  0.1004
  H  H212  1  0.035920  0.122730  0.762500  1.0  0.0977
  H  H213  1  0.989760  0.341260  0.711420  1.0  0.0973
  H  H214  1  0.008170  0.081020  0.860280  1.0  0.0976
  H  H215  1  0.991130  0.400360  0.618920  1.0  0.0976
  H  H216  1  0.006840  0.124290  0.896550  1.0  0.0955
  H  H217  1  0.002760  0.365080  0.577170  1.0  0.1013
  H  H218  1  0.034690  0.213980  0.839600  1.0  0.0963
  H  H219  1  0.020800  0.266620  0.622300  1.0  0.0968
  H  H220  1  0.022380  0.218380  0.892050  1.0  0.1059
  H  H221  1  0.026120  0.272950  0.568920  1.0  0.1039
  H  H222  1  0.071900  0.202300  0.796540  1.0  0.098
  H  H223  1  0.036660  0.317320  0.707380  1.0  0.105
  H  H224  1  0.066070  0.239060  0.757730  1.0  0.0915
  H  H225  1  0.044270  0.279110  0.744060  1.0  0.0914
  H  H226  1  0.982240  0.200230  0.732660  1.0  0.0981
  H  H227  1  0.989400  0.161380  0.771850  1.0  0.1023
  H  H228  1  0.992350  0.217740  0.692070  1.0  0.0961
  H  H229  1  0.016590  0.758370  0.843710  1.0  0.1019
  H  H230  1  0.974770  0.569820  0.732970  1.0  0.1032
  H  H231  1  0.020320  0.894240  0.786550  1.0  0.0999
  H  H232  1  0.964080  0.622730  0.737500  1.0  0.0985
  H  H233  1  0.010240  0.841260  0.788580  1.0  0.0951
  H  H234  1  0.991830  0.581020  0.639720  1.0  0.0962
  H  H235  1  0.008870  0.900360  0.881080  1.0  0.0966
  H  H236  1  0.993160  0.624290  0.603450  1.0  0.0949
  H  H237  1  0.997240  0.865080  0.922830  1.0  0.1011
  H  H238  1  0.965310  0.713980  0.660400  1.0  0.0954
  H  H239  1  0.979200  0.766620  0.877700  1.0  0.0972
  H  H240  1  0.977620  0.718380  0.607950  1.0  0.1053
  H  H241  1  0.973880  0.772950  0.931080  1.0  0.1037
  H  H242  1  0.928100  0.702300  0.703460  1.0  0.0973
  H  H243  1  0.963340  0.817320  0.792620  1.0  0.1058
  H  H244  1  0.933930  0.739060  0.742270  1.0  0.0908
  H  H245  1  0.955730  0.779110  0.755940  1.0  0.0921
  H  H246  1  0.017760  0.700230  0.767340  1.0  0.1022
  H  H247  1  0.010600  0.661380  0.728150  1.0  0.1011
  H  H248  1  0.007650  0.717740  0.807930  1.0  0.0971
  H  H249  1  0.483410  0.241630  0.343710  1.0  0.1007
  H  H250  1  0.525230  0.430180  0.232970  1.0  0.1032
  H  H251  1  0.479680  0.105760  0.286550  1.0  0.0994
  H  H252  1  0.535920  0.377270  0.237500  1.0  0.0978
  H  H253  1  0.489760  0.158740  0.288580  1.0  0.0954
  H  H254  1  0.508170  0.418980  0.139720  1.0  0.0972
  H  H255  1  0.491130  0.099640  0.381080  1.0  0.0961
  H  H256  1  0.506840  0.375710  0.103450  1.0  0.0966
  H  H257  1  0.502760  0.134920  0.422830  1.0  0.0997
  H  H258  1  0.534690  0.286020  0.160400  1.0  0.0949
  H  H259  1  0.520800  0.233380  0.377700  1.0  0.0968
  H  H260  1  0.522380  0.281620  0.107950  1.0  0.1048
  H  H261  1  0.526120  0.227050  0.431080  1.0  0.1052
  H  H262  1  0.571900  0.297700  0.203460  1.0  0.0979
  H  H263  1  0.536660  0.182680  0.292620  1.0  0.1054
  H  H264  1  0.566070  0.260940  0.242270  1.0  0.0907
  H  H265  1  0.544270  0.220890  0.255940  1.0  0.092
  H  H266  1  0.482240  0.299770  0.267340  1.0  0.1001
  H  H267  1  0.489400  0.338620  0.228150  1.0  0.1016
  H  H268  1  0.492350  0.282260  0.307930  1.0  0.0969
  H  H269  1  0.516590  0.741630  0.156290  1.0  0.1017
  H  H270  1  0.474770  0.930180  0.267030  1.0  0.1026
  H  H271  1  0.520320  0.605760  0.213450  1.0  0.101
  H  H272  1  0.464080  0.877270  0.262500  1.0  0.098
  H  H273  1  0.510240  0.658740  0.211420  1.0  0.0975
  H  H274  1  0.491830  0.918980  0.360280  1.0  0.0973
  H  H275  1  0.508870  0.599640  0.118920  1.0  0.0976
  H  H276  1  0.493160  0.875710  0.396550  1.0  0.0971
  H  H277  1  0.497240  0.634920  0.077170  1.0  0.0995
  H  H278  1  0.465310  0.786020  0.339600  1.0  0.0953
  H  H279  1  0.479200  0.733380  0.122300  1.0  0.0972
  H  H280  1  0.477620  0.781620  0.392050  1.0  0.1056
  H  H281  1  0.473880  0.727050  0.068920  1.0  0.104
  H  H282  1  0.428100  0.797700  0.296540  1.0  0.0976
  H  H283  1  0.463340  0.682680  0.207380  1.0  0.1054
  H  H284  1  0.433930  0.760940  0.257730  1.0  0.0905
  H  H285  1  0.455730  0.720890  0.244060  1.0  0.0915
  H  H286  1  0.517760  0.799770  0.232660  1.0  0.1003
  H  H287  1  0.510600  0.838620  0.271850  1.0  0.1014
  H  H288  1  0.507650  0.782260  0.192070  1.0  0.096
  H  H289  1  0.343710  0.016590  0.741630  1.0  0.1035
  H  H290  1  0.232970  0.974770  0.930180  1.0  0.1026
  H  H291  1  0.286550  0.020320  0.605760  1.0  0.1018
  H  H292  1  0.237500  0.964080  0.877270  1.0  0.0984
  H  H293  1  0.288580  0.010240  0.658740  1.0  0.0947
  H  H294  1  0.139720  0.991830  0.918980  1.0  0.0976
  H  H295  1  0.381080  0.008870  0.599640  1.0  0.0953
  H  H296  1  0.103450  0.993160  0.875710  1.0  0.0955
  H  H297  1  0.422830  0.997240  0.634920  1.0  0.0997
  H  H298  1  0.160400  0.965310  0.786020  1.0  0.0957
  H  H299  1  0.377700  0.979200  0.733380  1.0  0.0968
  H  H300  1  0.107950  0.977620  0.781620  1.0  0.1016
  H  H301  1  0.431080  0.973880  0.727050  1.0  0.1039
  H  H302  1  0.203460  0.928100  0.797700  1.0  0.0986
  H  H303  1  0.292620  0.963340  0.682680  1.0  0.1056
  H  H304  1  0.242270  0.933930  0.760940  1.0  0.0903
  H  H305  1  0.255940  0.955730  0.720890  1.0  0.0913
  H  H306  1  0.267340  0.017760  0.799770  1.0  0.1032
  H  H307  1  0.228150  0.010600  0.838620  1.0  0.1011
  H  H308  1  0.307930  0.007650  0.782260  1.0  0.0949
  H  H309  1  0.156290  0.983410  0.241630  1.0  0.102
  H  H310  1  0.267030  0.025230  0.430180  1.0  0.1022
  H  H311  1  0.213450  0.979680  0.105760  1.0  0.1013
  H  H312  1  0.262500  0.035920  0.377270  1.0  0.099
  H  H313  1  0.211420  0.989760  0.158740  1.0  0.0949
  H  H314  1  0.360280  0.008170  0.418980  1.0  0.0972
  H  H315  1  0.118920  0.991130  0.099640  1.0  0.0964
  H  H316  1  0.396550  0.006840  0.375710  1.0  0.0946
  H  H317  1  0.077170  0.002760  0.134920  1.0  0.0996
  H  H318  1  0.339600  0.034690  0.286020  1.0  0.0964
  H  H319  1  0.122300  0.020800  0.233380  1.0  0.0965
  H  H320  1  0.392050  0.022380  0.281620  1.0  0.1016
  H  H321  1  0.068920  0.026120  0.227050  1.0  0.1037
  H  H322  1  0.296540  0.071900  0.297700  1.0  0.1003
  H  H323  1  0.207380  0.036660  0.182680  1.0  0.1062
  H  H324  1  0.257730  0.066070  0.260940  1.0  0.0909
  H  H325  1  0.244060  0.044270  0.220890  1.0  0.0918
  H  H326  1  0.232660  0.982240  0.299770  1.0  0.1032
  H  H327  1  0.271850  0.989400  0.338620  1.0  0.1006
  H  H328  1  0.192070  0.992350  0.282260  1.0  0.0943
  H  H329  1  0.656290  0.516590  0.758370  1.0  0.1033
  H  H330  1  0.767030  0.474770  0.569820  1.0  0.1023
  H  H331  1  0.713450  0.520320  0.894240  1.0  0.101
  H  H332  1  0.762500  0.464080  0.622730  1.0  0.0991
  H  H333  1  0.711420  0.510240  0.841260  1.0  0.0954
  H  H334  1  0.860280  0.491830  0.581020  1.0  0.0984
  H  H335  1  0.618920  0.508870  0.900360  1.0  0.0964
  H  H336  1  0.896550  0.493160  0.624290  1.0  0.0949
  H  H337  1  0.577170  0.497240  0.865080  1.0  0.099
  H  H338  1  0.839600  0.465310  0.713980  1.0  0.0962
  H  H339  1  0.622300  0.479200  0.766620  1.0  0.0953
  H  H340  1  0.892050  0.477620  0.718380  1.0  0.1026
  H  H341  1  0.568920  0.473880  0.772950  1.0  0.1021
  H  H342  1  0.796540  0.428100  0.702300  1.0  0.099
  H  H343  1  0.707380  0.463340  0.817320  1.0  0.1057
  H  H344  1  0.757730  0.433930  0.739060  1.0  0.0907
  H  H345  1  0.744060  0.455730  0.779110  1.0  0.0913
  H  H346  1  0.732660  0.517760  0.700230  1.0  0.1021
  H  H347  1  0.771850  0.510600  0.661380  1.0  0.1012
  H  H348  1  0.692070  0.507650  0.717740  1.0  0.0942
  H  H349  1  0.843710  0.483410  0.258370  1.0  0.1021
  H  H350  1  0.732970  0.525230  0.069820  1.0  0.1018
  H  H351  1  0.786550  0.479680  0.394240  1.0  0.1016
  H  H352  1  0.737500  0.535920  0.122730  1.0  0.0985
  H  H353  1  0.788580  0.489760  0.341260  1.0  0.0941
  H  H354  1  0.639720  0.508170  0.081020  1.0  0.0971
  H  H355  1  0.881080  0.491130  0.400360  1.0  0.0961
  H  H356  1  0.603450  0.506840  0.124290  1.0  0.0956
  H  H357  1  0.922830  0.502760  0.365080  1.0  0.0997
  H  H358  1  0.660400  0.534690  0.213980  1.0  0.0953
  H  H359  1  0.877700  0.520800  0.266620  1.0  0.096
  H  H360  1  0.607950  0.522380  0.218380  1.0  0.1023
  H  H361  1  0.931080  0.526120  0.272950  1.0  0.1028
  H  H362  1  0.703460  0.571900  0.202300  1.0  0.1001
  H  H363  1  0.792620  0.536660  0.317320  1.0  0.1068
  H  H364  1  0.742270  0.566070  0.239060  1.0  0.0911
  H  H365  1  0.755940  0.544270  0.279110  1.0  0.091
  H  H366  1  0.767340  0.482240  0.200230  1.0  0.1028
  H  H367  1  0.728150  0.489400  0.161380  1.0  0.1009
  H  H368  1  0.807930  0.492350  0.217740  1.0  0.0939
  H  H369  1  0.741630  0.343710  0.016590  1.0  0.1034
  H  H370  1  0.930180  0.232970  0.974770  1.0  0.1075
  H  H371  1  0.605760  0.286550  0.020320  1.0  0.1039
  H  H372  1  0.877270  0.237500  0.964080  1.0  0.1012
  H  H373  1  0.658740  0.288580  0.010240  1.0  0.0968
  H  H374  1  0.918980  0.139720  0.991830  1.0  0.098
  H  H375  1  0.599640  0.381080  0.008870  1.0  0.098
  H  H376  1  0.875710  0.103450  0.993160  1.0  0.0948
  H  H377  1  0.634920  0.422830  0.997240  1.0  0.0995
  H  H378  1  0.786020  0.160400  0.965310  1.0  0.0957
  H  H379  1  0.733380  0.377700  0.979200  1.0  0.0955
  H  H380  1  0.781620  0.107950  0.977620  1.0  0.1039
  H  H381  1  0.727050  0.431080  0.973880  1.0  0.1043
  H  H382  1  0.797700  0.203460  0.928100  1.0  0.0984
  H  H383  1  0.682680  0.292620  0.963340  1.0  0.1065
  H  H384  1  0.760940  0.242270  0.933930  1.0  0.0909
  H  H385  1  0.720890  0.255940  0.955730  1.0  0.0909
  H  H386  1  0.799770  0.267340  0.017760  1.0  0.1019
  H  H387  1  0.838620  0.228150  0.010600  1.0  0.1011
  H  H388  1  0.782260  0.307930  0.007650  1.0  0.096
  H  H389  1  0.241630  0.156290  0.983410  1.0  0.1025
  H  H390  1  0.430180  0.267030  0.025230  1.0  0.1055
  H  H391  1  0.105760  0.213450  0.979680  1.0  0.1049
  H  H392  1  0.377270  0.262500  0.035920  1.0  0.1002
  H  H393  1  0.158740  0.211420  0.989760  1.0  0.0973
  H  H394  1  0.418980  0.360280  0.008170  1.0  0.0986
  H  H395  1  0.099640  0.118920  0.991130  1.0  0.0973
  H  H396  1  0.375710  0.396550  0.006840  1.0  0.0952
  H  H397  1  0.134920  0.077170  0.002760  1.0  0.0995
  H  H398  1  0.286020  0.339600  0.034690  1.0  0.0957
  H  H399  1  0.233380  0.122300  0.020800  1.0  0.0953
  H  H400  1  0.281620  0.392050  0.022380  1.0  0.1041
  H  H401  1  0.227050  0.068920  0.026120  1.0  0.1042
  H  H402  1  0.297700  0.296540  0.071900  1.0  0.0992
  H  H403  1  0.182680  0.207380  0.036660  1.0  0.1056
  H  H404  1  0.260940  0.257730  0.066070  1.0  0.0919
  H  H405  1  0.220890  0.244060  0.044270  1.0  0.0913
  H  H406  1  0.299770  0.232660  0.982240  1.0  0.0992
  H  H407  1  0.338620  0.271850  0.989400  1.0  0.1009
  H  H408  1  0.282260  0.192070  0.992350  1.0  0.0947
  H  H409  1  0.758370  0.656290  0.516590  1.0  0.1036
  H  H410  1  0.569820  0.767030  0.474770  1.0  0.1055
  H  H411  1  0.894240  0.713450  0.520320  1.0  0.1051
  H  H412  1  0.622730  0.762500  0.464080  1.0  0.1002
  H  H413  1  0.841260  0.711420  0.510240  1.0  0.0982
  H  H414  1  0.581020  0.860280  0.491830  1.0  0.0981
  H  H415  1  0.900360  0.618920  0.508870  1.0  0.0962
  H  H416  1  0.624290  0.896550  0.493160  1.0  0.0952
  H  H417  1  0.865080  0.577170  0.497240  1.0  0.099
  H  H418  1  0.713980  0.839600  0.465310  1.0  0.0957
  H  H419  1  0.766620  0.622300  0.479200  1.0  0.0955
  H  H420  1  0.718380  0.892050  0.477620  1.0  0.1038
  H  H421  1  0.772950  0.568920  0.473880  1.0  0.1041
  H  H422  1  0.702300  0.796540  0.428100  1.0  0.0988
  H  H423  1  0.817320  0.707380  0.463340  1.0  0.106
  H  H424  1  0.739060  0.757730  0.433930  1.0  0.0902
  H  H425  1  0.779110  0.744060  0.455730  1.0  0.0918
  H  H426  1  0.700230  0.732660  0.517760  1.0  0.1016
  H  H427  1  0.661380  0.771850  0.510600  1.0  0.101
  H  H428  1  0.717740  0.692070  0.507650  1.0  0.0944
  H  H429  1  0.258370  0.843710  0.483410  1.0  0.1023
  H  H430  1  0.069820  0.732970  0.525230  1.0  0.1062
  H  H431  1  0.394240  0.786550  0.479680  1.0  0.1041
  H  H432  1  0.122730  0.737500  0.535920  1.0  0.1014
  H  H433  1  0.341260  0.788580  0.489760  1.0  0.0964
  H  H434  1  0.081020  0.639720  0.508170  1.0  0.0987
  H  H435  1  0.400360  0.881080  0.491130  1.0  0.097
  H  H436  1  0.124290  0.603450  0.506840  1.0  0.0942
  H  H437  1  0.365080  0.922830  0.502760  1.0  0.0997
  H  H438  1  0.213980  0.660400  0.534690  1.0  0.096
  H  H439  1  0.266620  0.877700  0.520800  1.0  0.0956
  H  H440  1  0.218380  0.607950  0.522380  1.0  0.1037
  H  H441  1  0.272950  0.931080  0.526120  1.0  0.1044
  H  H442  1  0.202300  0.703460  0.571900  1.0  0.0995
  H  H443  1  0.317320  0.792620  0.536660  1.0  0.105
  H  H444  1  0.239060  0.742270  0.566070  1.0  0.0922
  H  H445  1  0.279110  0.755940  0.544270  1.0  0.0909
  H  H446  1  0.200230  0.767340  0.482240  1.0  0.0985
  H  H447  1  0.161380  0.728150  0.489400  1.0  0.1003
  H  H448  1  0.217740  0.807930  0.492350  1.0  0.0939
  H  H449  1  0.016590  0.741630  0.343710  1.0  0.1017
  H  H450  1  0.974770  0.930180  0.232970  1.0  0.1041
  H  H451  1  0.020320  0.605760  0.286550  1.0  0.0999
  H  H452  1  0.964080  0.877270  0.237500  1.0  0.0985
  H  H453  1  0.010240  0.658740  0.288580  1.0  0.0954
  H  H454  1  0.991830  0.918980  0.139720  1.0  0.0964
  H  H455  1  0.008870  0.599640  0.381080  1.0  0.0958
  H  H456  1  0.993160  0.875710  0.103450  1.0  0.0963
  H  H457  1  0.997240  0.634920  0.422830  1.0  0.0992
  H  H458  1  0.965310  0.786020  0.160400  1.0  0.095
  H  H459  1  0.979200  0.733380  0.377700  1.0  0.0971
  H  H460  1  0.977620  0.781620  0.107950  1.0  0.1049
  H  H461  1  0.973880  0.727050  0.431080  1.0  0.1042
  H  H462  1  0.928100  0.797700  0.203460  1.0  0.0972
  H  H463  1  0.963340  0.682680  0.292620  1.0  0.1055
  H  H464  1  0.933930  0.760940  0.242270  1.0  0.0907
  H  H465  1  0.955730  0.720890  0.255940  1.0  0.0918
  H  H466  1  0.017760  0.799770  0.267340  1.0  0.1017
  H  H467  1  0.010600  0.838620  0.228150  1.0  0.1012
  H  H468  1  0.007650  0.782260  0.307930  1.0  0.0969
  H  H469  1  0.983410  0.241630  0.156290  1.0  0.1005
  H  H470  1  0.025230  0.430180  0.267030  1.0  0.1013
  H  H471  1  0.979680  0.105760  0.213450  1.0  0.1004
  H  H472  1  0.035920  0.377270  0.262500  1.0  0.0975
  H  H473  1  0.989760  0.158740  0.211420  1.0  0.0971
  H  H474  1  0.008170  0.418980  0.360280  1.0  0.098
  H  H475  1  0.991130  0.099640  0.118920  1.0  0.0976
  H  H476  1  0.006840  0.375710  0.396550  1.0  0.0969
  H  H477  1  0.002760  0.134920  0.077170  1.0  0.0998
  H  H478  1  0.034690  0.286020  0.339600  1.0  0.0948
  H  H479  1  0.020800  0.233380  0.122300  1.0  0.0968
  H  H480  1  0.022380  0.281620  0.392050  1.0  0.1054
  H  H481  1  0.026120  0.227050  0.068920  1.0  0.1045
  H  H482  1  0.071900  0.297700  0.296540  1.0  0.0978
  H  H483  1  0.036660  0.182680  0.207380  1.0  0.1046
  H  H484  1  0.066070  0.260940  0.257730  1.0  0.0908
  H  H485  1  0.044270  0.220890  0.244060  1.0  0.0915
  H  H486  1  0.982240  0.299770  0.232660  1.0  0.0982
  H  H487  1  0.989400  0.338620  0.271850  1.0  0.1017
  H  H488  1  0.992350  0.282260  0.192070  1.0  0.096
  H  H489  1  0.516590  0.758370  0.656290  1.0  0.1018
  H  H490  1  0.474770  0.569820  0.767030  1.0  0.1022
  H  H491  1  0.520320  0.894240  0.713450  1.0  0.1009
  H  H492  1  0.464080  0.622730  0.762500  1.0  0.0981
  H  H493  1  0.510240  0.841260  0.711420  1.0  0.0974
  H  H494  1  0.491830  0.581020  0.860280  1.0  0.0968
  H  H495  1  0.508870  0.900360  0.618920  1.0  0.0977
  H  H496  1  0.493160  0.624290  0.896550  1.0  0.0954
  H  H497  1  0.497240  0.865080  0.577170  1.0  0.1006
  H  H498  1  0.465310  0.713980  0.839600  1.0  0.0965
  H  H499  1  0.479200  0.766620  0.622300  1.0  0.0971
  H  H500  1  0.477620  0.718380  0.892050  1.0  0.106
  H  H501  1  0.473880  0.772950  0.568920  1.0  0.1037
  H  H502  1  0.428100  0.702300  0.796540  1.0  0.0975
  H  H503  1  0.463340  0.817320  0.707380  1.0  0.1055
  H  H504  1  0.433930  0.739060  0.757730  1.0  0.0907
  H  H505  1  0.455730  0.779110  0.744060  1.0  0.0914
  H  H506  1  0.517760  0.700230  0.732660  1.0  0.1004
  H  H507  1  0.510600  0.661380  0.771850  1.0  0.1015
  H  H508  1  0.507650  0.717740  0.692070  1.0  0.0965
  H  H509  1  0.483410  0.258370  0.843710  1.0  0.1011
  H  H510  1  0.525230  0.069820  0.732970  1.0  0.103
  H  H511  1  0.479680  0.394240  0.786550  1.0  0.0994
  H  H512  1  0.535920  0.122730  0.737500  1.0  0.0978
  H  H513  1  0.489760  0.341260  0.788580  1.0  0.0952
  H  H514  1  0.508170  0.081020  0.639720  1.0  0.097
  H  H515  1  0.491130  0.400360  0.881080  1.0  0.0967
  H  H516  1  0.506840  0.124290  0.603450  1.0  0.0951
  H  H517  1  0.502760  0.365080  0.922830  1.0  0.1019
  H  H518  1  0.534690  0.213980  0.660400  1.0  0.0956
  H  H519  1  0.520800  0.266620  0.877700  1.0  0.0971
  H  H520  1  0.522380  0.218380  0.607950  1.0  0.1052
  H  H521  1  0.526120  0.272950  0.931080  1.0  0.1042
  H  H522  1  0.571900  0.202300  0.703460  1.0  0.0981
  H  H523  1  0.536660  0.317320  0.792620  1.0  0.1058
  H  H524  1  0.566070  0.239060  0.742270  1.0  0.0915
  H  H525  1  0.544270  0.279110  0.755940  1.0  0.092
  H  H526  1  0.482240  0.200230  0.767340  1.0  0.1006
  H  H527  1  0.489400  0.161380  0.728150  1.0  0.1019
  H  H528  1  0.492350  0.217740  0.807930  1.0  0.0967
  C  C529  1  0.695710  0.002080  0.240500  1.0  -0.1501
  C  C530  1  0.675200  0.997110  0.262760  1.0  -0.1552
  C  C531  1  0.786420  0.023940  0.083480  1.0  -0.095
  C  C532  1  0.692380  0.984250  0.384280  1.0  -0.0735
  C  C533  1  0.783560  0.029990  0.113530  1.0  -0.1222
  C  C534  1  0.691480  0.990210  0.354090  1.0  -0.1296
  C  C535  1  0.808580  0.028230  0.130990  1.0  0.2163
  C  C536  1  0.664390  0.996790  0.341440  1.0  0.2072
  C  C537  1  0.835480  0.020750  0.119250  1.0  0.0083
  C  C538  1  0.639000  0.996320  0.357890  1.0  0.03
  C  C539  1  0.838970  0.014280  0.089550  1.0  -0.1679
  C  C540  1  0.639150  0.990580  0.387930  1.0  -0.1356
  C  C541  1  0.813970  0.015980  0.071210  1.0  -0.0876
  C  C542  1  0.666440  0.984790  0.401540  1.0  -0.0511
  C  C543  1  0.817820  0.014120  0.039640  1.0  0.6681
  C  C544  1  0.669440  0.983660  0.433210  1.0  0.6656
  C  C545  1  0.930060  0.011460  0.173100  1.0  0.6848
  C  C546  1  0.537060  0.014740  0.321860  1.0  0.6612
  C  C547  1  0.898500  0.013820  0.171720  1.0  -0.1004
  C  C548  1  0.568780  0.014590  0.319380  1.0  -0.0949
  C  C549  1  0.884730  0.013240  0.143880  1.0  -0.164
  C  C550  1  0.586470  0.006500  0.343540  1.0  -0.1482
  C  C551  1  0.855080  0.020650  0.142340  1.0  -0.0072
  C  C552  1  0.616510  0.003270  0.338930  1.0  0.0054
  C  C553  1  0.839170  0.028300  0.166930  1.0  0.2324
  C  C554  1  0.629270  0.007820  0.311840  1.0  0.2131
  C  C555  1  0.852120  0.029070  0.194610  1.0  -0.1172
  C  C556  1  0.612460  0.016450  0.287760  1.0  -0.1227
  C  C557  1  0.881980  0.021970  0.196860  1.0  -0.0887
  C  C558  1  0.582050  0.019580  0.291630  1.0  -0.0762
  C  C559  1  0.787000  0.031220  0.180150  1.0  0.1644
  C  C560  1  0.679360  0.009270  0.290680  1.0  0.1577
  C  C561  1  0.782610  0.052670  0.201640  1.0  -0.1223
  C  C562  1  0.704020  0.026850  0.295950  1.0  -0.1538
  C  C563  1  0.760660  0.049100  0.222720  1.0  -0.1528
  C  C564  1  0.724720  0.031520  0.273910  1.0  -0.136
  C  C565  1  0.743080  0.023670  0.222930  1.0  0.0441
  C  C566  1  0.720940  0.019070  0.245910  1.0  0.0588
  C  C567  1  0.768870  0.006450  0.179430  1.0  -0.1286
  C  C568  1  0.747190  0.002590  0.200730  1.0  -0.1361
  C  C569  1  0.804290  0.997920  0.740500  1.0  -0.1535
  C  C570  1  0.824800  0.002890  0.762760  1.0  -0.1529
  C  C571  1  0.713580  0.976060  0.583480  1.0  -0.0942
  C  C572  1  0.807620  0.015750  0.884280  1.0  -0.0732
  C  C573  1  0.716440  0.970010  0.613530  1.0  -0.1225
  C  C574  1  0.808520  0.009790  0.854090  1.0  -0.1288
  C  C575  1  0.691420  0.971770  0.630990  1.0  0.2151
  C  C576  1  0.835610  0.003210  0.841440  1.0  0.2084
  C  C577  1  0.664520  0.979250  0.619250  1.0  0.0087
  C  C578  1  0.861000  0.003680  0.857890  1.0  0.0288
  C  C579  1  0.661030  0.985720  0.589550  1.0  -0.1676
  C  C580  1  0.860850  0.009420  0.887930  1.0  -0.1343
  C  C581  1  0.686030  0.984020  0.571210  1.0  -0.0884
  C  C582  1  0.833560  0.015210  0.901540  1.0  -0.0512
  C  C583  1  0.682180  0.985880  0.539640  1.0  0.6685
  C  C584  1  0.830560  0.016340  0.933210  1.0  0.6662
  C  C585  1  0.569940  0.988540  0.673100  1.0  0.6844
  C  C586  1  0.962940  0.985260  0.821860  1.0  0.6616
  C  C587  1  0.601500  0.986180  0.671720  1.0  -0.1006
  C  C588  1  0.931220  0.985410  0.819380  1.0  -0.0944
  C  C589  1  0.615270  0.986760  0.643880  1.0  -0.1646
  C  C590  1  0.913530  0.993500  0.843540  1.0  -0.1452
  C  C591  1  0.644920  0.979350  0.642340  1.0  -0.0068
  C  C592  1  0.883490  0.996730  0.838930  1.0  0.0055
  C  C593  1  0.660830  0.971700  0.666930  1.0  0.2331
  C  C594  1  0.870730  0.992180  0.811840  1.0  0.2125
  C  C595  1  0.647880  0.970930  0.694610  1.0  -0.1167
  C  C596  1  0.887540  0.983550  0.787760  1.0  -0.1234
  C  C597  1  0.618020  0.978030  0.696860  1.0  -0.0906
  C  C598  1  0.917950  0.980420  0.791630  1.0  -0.0761
  C  C599  1  0.713000  0.968780  0.680150  1.0  0.165
  C  C600  1  0.820640  0.990730  0.790680  1.0  0.1574
  C  C601  1  0.717390  0.947330  0.701640  1.0  -0.1246
  C  C602  1  0.795980  0.973150  0.795950  1.0  -0.1555
  C  C603  1  0.739340  0.950900  0.722720  1.0  -0.1515
  C  C604  1  0.775280  0.968480  0.773910  1.0  -0.1377
  C  C605  1  0.756920  0.976330  0.722930  1.0  0.0437
  C  C606  1  0.779060  0.980930  0.745910  1.0  0.0588
  C  C607  1  0.731130  0.993550  0.679430  1.0  -0.1288
  C  C608  1  0.752810  0.997410  0.700730  1.0  -0.1349
  C  C609  1  0.304290  0.502080  0.259500  1.0  -0.1517
  C  C610  1  0.324800  0.497110  0.237240  1.0  -0.1538
  C  C611  1  0.213580  0.523940  0.416520  1.0  -0.0936
  C  C612  1  0.307620  0.484250  0.115720  1.0  -0.0728
  C  C613  1  0.216440  0.529990  0.386470  1.0  -0.1228
  C  C614  1  0.308520  0.490210  0.145910  1.0  -0.1293
  C  C615  1  0.191420  0.528230  0.369010  1.0  0.2154
  C  C616  1  0.335610  0.496790  0.158560  1.0  0.2081
  C  C617  1  0.164520  0.520750  0.380750  1.0  0.0103
  C  C618  1  0.361000  0.496320  0.142110  1.0  0.0286
  C  C619  1  0.161030  0.514280  0.410450  1.0  -0.1682
  C  C620  1  0.360850  0.490580  0.112070  1.0  -0.1345
  C  C621  1  0.186030  0.515980  0.428790  1.0  -0.0882
  C  C622  1  0.333560  0.484790  0.098460  1.0  -0.0503
  C  C623  1  0.182180  0.514120  0.460360  1.0  0.6684
  C  C624  1  0.330560  0.483660  0.066790  1.0  0.6661
  C  C625  1  0.069940  0.511460  0.326900  1.0  0.6845
  C  C626  1  0.462940  0.514740  0.178140  1.0  0.6617
  C  C627  1  0.101500  0.513820  0.328280  1.0  -0.1004
  C  C628  1  0.431220  0.514590  0.180620  1.0  -0.0947
  C  C629  1  0.115270  0.513240  0.356120  1.0  -0.165
  C  C630  1  0.413530  0.506500  0.156460  1.0  -0.1471
  C  C631  1  0.144920  0.520650  0.357660  1.0  -0.007
  C  C632  1  0.383490  0.503270  0.161070  1.0  0.0047
  C  C633  1  0.160830  0.528300  0.333070  1.0  0.2331
  C  C634  1  0.370730  0.507820  0.188160  1.0  0.213
  C  C635  1  0.147880  0.529070  0.305390  1.0  -0.1164
  C  C636  1  0.387540  0.516450  0.212240  1.0  -0.123
  C  C637  1  0.118020  0.521970  0.303140  1.0  -0.0904
  C  C638  1  0.417950  0.519580  0.208370  1.0  -0.0759
  C  C639  1  0.213000  0.531220  0.319850  1.0  0.1651
  C  C640  1  0.320640  0.509270  0.209320  1.0  0.1574
  C  C641  1  0.217390  0.552670  0.298360  1.0  -0.1251
  C  C642  1  0.295980  0.526850  0.204050  1.0  -0.1539
  C  C643  1  0.239340  0.549100  0.277280  1.0  -0.1526
  C  C644  1  0.275280  0.531520  0.226090  1.0  -0.1381
  C  C645  1  0.256920  0.523670  0.277070  1.0  0.044
  C  C646  1  0.279060  0.519070  0.254090  1.0  0.0583
  C  C647  1  0.231130  0.506450  0.320570  1.0  -0.1284
  C  C648  1  0.252810  0.502590  0.299270  1.0  -0.135
  C  C649  1  0.195710  0.497920  0.759500  1.0  -0.1508
  C  C650  1  0.175200  0.502890  0.737240  1.0  -0.1547
  C  C651  1  0.286420  0.476060  0.916520  1.0  -0.0954
  C  C652  1  0.192380  0.515750  0.615720  1.0  -0.0738
  C  C653  1  0.283560  0.470010  0.886470  1.0  -0.1228
  C  C654  1  0.191480  0.509790  0.645910  1.0  -0.1299
  C  C655  1  0.308580  0.471770  0.869010  1.0  0.2158
  C  C656  1  0.164390  0.503210  0.658560  1.0  0.2075
  C  C657  1  0.335480  0.479250  0.880750  1.0  0.0086
  C  C658  1  0.139000  0.503680  0.642110  1.0  0.0283
  C  C659  1  0.338970  0.485720  0.910450  1.0  -0.168
  C  C660  1  0.139150  0.509420  0.612070  1.0  -0.1348
  C  C661  1  0.313970  0.484020  0.928790  1.0  -0.0882
  C  C662  1  0.166440  0.515210  0.598460  1.0  -0.0505
  C  C663  1  0.317820  0.485880  0.960360  1.0  0.6686
  C  C664  1  0.169440  0.516340  0.566790  1.0  0.6657
  C  C665  1  0.430060  0.488540  0.826900  1.0  0.685
  C  C666  1  0.037060  0.485260  0.678140  1.0  0.6615
  C  C667  1  0.398500  0.486180  0.828280  1.0  -0.1003
  C  C668  1  0.068780  0.485410  0.680620  1.0  -0.095
  C  C669  1  0.384730  0.486760  0.856120  1.0  -0.1635
  C  C670  1  0.086470  0.493500  0.656460  1.0  -0.1473
  C  C671  1  0.355080  0.479350  0.857660  1.0  -0.0076
  C  C672  1  0.116510  0.496730  0.661070  1.0  0.004
  C  C673  1  0.339170  0.471700  0.833070  1.0  0.2325
  C  C674  1  0.129270  0.492180  0.688160  1.0  0.2137
  C  C675  1  0.352120  0.470930  0.805390  1.0  -0.1176
  C  C676  1  0.112460  0.483550  0.712240  1.0  -0.1219
  C  C677  1  0.381980  0.478030  0.803140  1.0  -0.0892
  C  C678  1  0.082050  0.480420  0.708370  1.0  -0.0776
  C  C679  1  0.287000  0.468780  0.819850  1.0  0.1642
  C  C680  1  0.179360  0.490730  0.709320  1.0  0.1575
  C  C681  1  0.282610  0.447330  0.798360  1.0  -0.1221
  C  C682  1  0.204020  0.473150  0.704050  1.0  -0.1568
  C  C683  1  0.260660  0.450900  0.777280  1.0  -0.1526
  C  C684  1  0.224720  0.468480  0.726090  1.0  -0.1353
  C  C685  1  0.243080  0.476330  0.777070  1.0  0.0444
  C  C686  1  0.220940  0.480930  0.754090  1.0  0.0584
  C  C687  1  0.268870  0.493550  0.820570  1.0  -0.1286
  C  C688  1  0.247190  0.497410  0.799270  1.0  -0.1358
  C  C689  1  0.240500  0.695710  0.002080  1.0  -0.1516
  C  C690  1  0.262760  0.675200  0.997110  1.0  -0.1485
  C  C691  1  0.083480  0.786420  0.023940  1.0  -0.0983
  C  C692  1  0.384280  0.692380  0.984250  1.0  -0.077
  C  C693  1  0.113530  0.783560  0.029990  1.0  -0.1273
  C  C694  1  0.354090  0.691480  0.990210  1.0  -0.1334
  C  C695  1  0.130990  0.808580  0.028230  1.0  0.2144
  C  C696  1  0.341440  0.664390  0.996790  1.0  0.2086
  C  C697  1  0.119250  0.835480  0.020750  1.0  0.0106
  C  C698  1  0.357890  0.639000  0.996320  1.0  0.0284
  C  C699  1  0.089550  0.838970  0.014280  1.0  -0.1699
  C  C700  1  0.387930  0.639150  0.990580  1.0  -0.136
  C  C701  1  0.071210  0.813970  0.015980  1.0  -0.0883
  C  C702  1  0.401540  0.666440  0.984790  1.0  -0.0511
  C  C703  1  0.039640  0.817820  0.014120  1.0  0.6678
  C  C704  1  0.433210  0.669440  0.983660  1.0  0.6641
  C  C705  1  0.173100  0.930060  0.011460  1.0  0.6856
  C  C706  1  0.321860  0.537060  0.014740  1.0  0.6619
  C  C707  1  0.171720  0.898500  0.013820  1.0  -0.1009
  C  C708  1  0.319380  0.568780  0.014590  1.0  -0.0943
  C  C709  1  0.143880  0.884730  0.013240  1.0  -0.1664
  C  C710  1  0.343540  0.586470  0.006500  1.0  -0.1464
  C  C711  1  0.142340  0.855080  0.020650  1.0  -0.0035
  C  C712  1  0.338930  0.616510  0.003270  1.0  0.0074
  C  C713  1  0.166930  0.839170  0.028300  1.0  0.2334
  C  C714  1  0.311840  0.629270  0.007820  1.0  0.213
  C  C715  1  0.194610  0.852120  0.029070  1.0  -0.1178
  C  C716  1  0.287760  0.612460  0.016450  1.0  -0.1226
  C  C717  1  0.196860  0.881980  0.021970  1.0  -0.0904
  C  C718  1  0.291630  0.582050  0.019580  1.0  -0.0778
  C  C719  1  0.180150  0.787000  0.031220  1.0  0.1658
  C  C720  1  0.290680  0.679360  0.009270  1.0  0.1567
  C  C721  1  0.201640  0.782610  0.052670  1.0  -0.1192
  C  C722  1  0.295950  0.704020  0.026850  1.0  -0.1523
  C  C723  1  0.222720  0.760660  0.049100  1.0  -0.1503
  C  C724  1  0.273910  0.724720  0.031520  1.0  -0.1381
  C  C725  1  0.222930  0.743080  0.023670  1.0  0.0449
  C  C726  1  0.245910  0.720940  0.019070  1.0  0.058
  C  C727  1  0.179430  0.768870  0.006450  1.0  -0.1274
  C  C728  1  0.200730  0.747190  0.002590  1.0  -0.1255
  C  C729  1  0.740500  0.804290  0.997920  1.0  -0.1533
  C  C730  1  0.762760  0.824800  0.002890  1.0  -0.151
  C  C731  1  0.583480  0.713580  0.976060  1.0  -0.0986
  C  C732  1  0.884280  0.807620  0.015750  1.0  -0.0776
  C  C733  1  0.613530  0.716440  0.970010  1.0  -0.1269
  C  C734  1  0.854090  0.808520  0.009790  1.0  -0.132
  C  C735  1  0.630990  0.691420  0.971770  1.0  0.2149
  C  C736  1  0.841440  0.835610  0.003210  1.0  0.2076
  C  C737  1  0.619250  0.664520  0.979250  1.0  0.0089
  C  C738  1  0.857890  0.861000  0.003680  1.0  0.028
  C  C739  1  0.589550  0.661030  0.985720  1.0  -0.1677
  C  C740  1  0.887930  0.860850  0.009420  1.0  -0.1375
  C  C741  1  0.571210  0.686030  0.984020  1.0  -0.0885
  C  C742  1  0.901540  0.833560  0.015210  1.0  -0.0517
  C  C743  1  0.539640  0.682180  0.985880  1.0  0.6672
  C  C744  1  0.933210  0.830560  0.016340  1.0  0.6641
  C  C745  1  0.673100  0.569940  0.988540  1.0  0.6863
  C  C746  1  0.821860  0.962940  0.985260  1.0  0.6619
  C  C747  1  0.671720  0.601500  0.986180  1.0  -0.1019
  C  C748  1  0.819380  0.931220  0.985410  1.0  -0.0941
  C  C749  1  0.643880  0.615270  0.986760  1.0  -0.1665
  C  C750  1  0.843540  0.913530  0.993500  1.0  -0.1474
  C  C751  1  0.642340  0.644920  0.979350  1.0  -0.0059
  C  C752  1  0.838930  0.883490  0.996730  1.0  0.0065
  C  C753  1  0.666930  0.660830  0.971700  1.0  0.2331
  C  C754  1  0.811840  0.870730  0.992180  1.0  0.2137
  C  C755  1  0.694610  0.647880  0.970930  1.0  -0.1176
  C  C756  1  0.787760  0.887540  0.983550  1.0  -0.1225
  C  C757  1  0.696860  0.618020  0.978030  1.0  -0.0901
  C  C758  1  0.791630  0.917950  0.980420  1.0  -0.0773
  C  C759  1  0.680150  0.713000  0.968780  1.0  0.1655
  C  C760  1  0.790680  0.820640  0.990730  1.0  0.1566
  C  C761  1  0.701640  0.717390  0.947330  1.0  -0.1213
  C  C762  1  0.795950  0.795980  0.973150  1.0  -0.154
  C  C763  1  0.722720  0.739340  0.950900  1.0  -0.1512
  C  C764  1  0.773910  0.775280  0.968480  1.0  -0.1353
  C  C765  1  0.722930  0.756920  0.976330  1.0  0.0451
  C  C766  1  0.745910  0.779060  0.980930  1.0  0.058
  C  C767  1  0.679430  0.731130  0.993550  1.0  -0.1295
  C  C768  1  0.700730  0.752810  0.997410  1.0  -0.1269
  C  C769  1  0.259500  0.304290  0.502080  1.0  -0.156
  C  C770  1  0.237240  0.324800  0.497110  1.0  -0.1503
  C  C771  1  0.416520  0.213580  0.523940  1.0  -0.097
  C  C772  1  0.115720  0.307620  0.484250  1.0  -0.078
  C  C773  1  0.386470  0.216440  0.529990  1.0  -0.127
  C  C774  1  0.145910  0.308520  0.490210  1.0  -0.1339
  C  C775  1  0.369010  0.191420  0.528230  1.0  0.213
  C  C776  1  0.158560  0.335610  0.496790  1.0  0.2086
  C  C777  1  0.380750  0.164520  0.520750  1.0  0.0101
  C  C778  1  0.142110  0.361000  0.496320  1.0  0.0289
  C  C779  1  0.410450  0.161030  0.514280  1.0  -0.1676
  C  C780  1  0.112070  0.360850  0.490580  1.0  -0.1383
  C  C781  1  0.428790  0.186030  0.515980  1.0  -0.0878
  C  C782  1  0.098460  0.333560  0.484790  1.0  -0.0503
  C  C783  1  0.460360  0.182180  0.514120  1.0  0.6682
  C  C784  1  0.066790  0.330560  0.483660  1.0  0.6633
  C  C785  1  0.326900  0.069940  0.511460  1.0  0.6859
  C  C786  1  0.178140  0.462940  0.514740  1.0  0.6617
  C  C787  1  0.328280  0.101500  0.513820  1.0  -0.101
  C  C788  1  0.180620  0.431220  0.514590  1.0  -0.0944
  C  C789  1  0.356120  0.115270  0.513240  1.0  -0.1645
  C  C790  1  0.156460  0.413530  0.506500  1.0  -0.1481
  C  C791  1  0.357660  0.144920  0.520650  1.0  -0.0061
  C  C792  1  0.161070  0.383490  0.503270  1.0  0.0074
  C  C793  1  0.333070  0.160830  0.528300  1.0  0.2334
  C  C794  1  0.188160  0.370730  0.507820  1.0  0.2127
  C  C795  1  0.305390  0.147880  0.529070  1.0  -0.116
  C  C796  1  0.212240  0.387540  0.516450  1.0  -0.122
  C  C797  1  0.303140  0.118020  0.521970  1.0  -0.09
  C  C798  1  0.208370  0.417950  0.519580  1.0  -0.0768
  C  C799  1  0.319850  0.213000  0.531220  1.0  0.1656
  C  C800  1  0.209320  0.320640  0.509270  1.0  0.157
  C  C801  1  0.298360  0.217390  0.552670  1.0  -0.1198
  C  C802  1  0.204050  0.295980  0.526850  1.0  -0.1534
  C  C803  1  0.277280  0.239340  0.549100  1.0  -0.1511
  C  C804  1  0.226090  0.275280  0.531520  1.0  -0.136
  C  C805  1  0.277070  0.256920  0.523670  1.0  0.0447
  C  C806  1  0.254090  0.279060  0.519070  1.0  0.0585
  C  C807  1  0.320570  0.231130  0.506450  1.0  -0.1277
  C  C808  1  0.299270  0.252810  0.502590  1.0  -0.1271
  C  C809  1  0.759500  0.195710  0.497920  1.0  -0.1537
  C  C810  1  0.737240  0.175200  0.502890  1.0  -0.1482
  C  C811  1  0.916520  0.286420  0.476060  1.0  -0.0975
  C  C812  1  0.615720  0.192380  0.515750  1.0  -0.0784
  C  C813  1  0.886470  0.283560  0.470010  1.0  -0.1287
  C  C814  1  0.645910  0.191480  0.509790  1.0  -0.1338
  C  C815  1  0.869010  0.308580  0.471770  1.0  0.2135
  C  C816  1  0.658560  0.164390  0.503210  1.0  0.209
  C  C817  1  0.880750  0.335480  0.479250  1.0  0.0095
  C  C818  1  0.642110  0.139000  0.503680  1.0  0.0283
  C  C819  1  0.910450  0.338970  0.485720  1.0  -0.1695
  C  C820  1  0.612070  0.139150  0.509420  1.0  -0.1355
  C  C821  1  0.928790  0.313970  0.484020  1.0  -0.0882
  C  C822  1  0.598460  0.166440  0.515210  1.0  -0.0508
  C  C823  1  0.960360  0.317820  0.485880  1.0  0.668
  C  C824  1  0.566790  0.169440  0.516340  1.0  0.6633
  C  C825  1  0.826900  0.430060  0.488540  1.0  0.6854
  C  C826  1  0.678140  0.037060  0.485260  1.0  0.6619
  C  C827  1  0.828280  0.398500  0.486180  1.0  -0.1019
  C  C828  1  0.680620  0.068780  0.485410  1.0  -0.0946
  C  C829  1  0.856120  0.384730  0.486760  1.0  -0.1649
  C  C830  1  0.656460  0.086470  0.493500  1.0  -0.1475
  C  C831  1  0.857660  0.355080  0.479350  1.0  -0.0055
  C  C832  1  0.661070  0.116510  0.496730  1.0  0.0063
  C  C833  1  0.833070  0.339170  0.471700  1.0  0.2334
  C  C834  1  0.688160  0.129270  0.492180  1.0  0.2126
  C  C835  1  0.805390  0.352120  0.470930  1.0  -0.1163
  C  C836  1  0.712240  0.112460  0.483550  1.0  -0.122
  C  C837  1  0.803140  0.381980  0.478030  1.0  -0.0905
  C  C838  1  0.708370  0.082050  0.480420  1.0  -0.0769
  C  C839  1  0.819850  0.287000  0.468780  1.0  0.1656
  C  C840  1  0.709320  0.179360  0.490730  1.0  0.1569
  C  C841  1  0.798360  0.282610  0.447330  1.0  -0.1211
  C  C842  1  0.704050  0.204020  0.473150  1.0  -0.1541
  C  C843  1  0.777280  0.260660  0.450900  1.0  -0.151
  C  C844  1  0.726090  0.224720  0.468480  1.0  -0.1369
  C  C845  1  0.777070  0.243080  0.476330  1.0  0.0447
  C  C846  1  0.754090  0.220940  0.480930  1.0  0.0587
  C  C847  1  0.820570  0.268870  0.493550  1.0  -0.1267
  C  C848  1  0.799270  0.247190  0.497410  1.0  -0.1273
  C  C849  1  0.002080  0.240500  0.695710  1.0  -0.153
  C  C850  1  0.997110  0.262760  0.675200  1.0  -0.1514
  C  C851  1  0.023940  0.083480  0.786420  1.0  -0.0935
  C  C852  1  0.984250  0.384280  0.692380  1.0  -0.075
  C  C853  1  0.029990  0.113530  0.783560  1.0  -0.123
  C  C854  1  0.990210  0.354090  0.691480  1.0  -0.1289
  C  C855  1  0.028230  0.130990  0.808580  1.0  0.2142
  C  C856  1  0.996790  0.341440  0.664390  1.0  0.208
  C  C857  1  0.020750  0.119250  0.835480  1.0  0.0134
  C  C858  1  0.996320  0.357890  0.639000  1.0  0.0292
  C  C859  1  0.014280  0.089550  0.838970  1.0  -0.1668
  C  C860  1  0.990580  0.387930  0.639150  1.0  -0.1371
  C  C861  1  0.015980  0.071210  0.813970  1.0  -0.0894
  C  C862  1  0.984790  0.401540  0.666440  1.0  -0.0498
  C  C863  1  0.014120  0.039640  0.817820  1.0  0.6689
  C  C864  1  0.983660  0.433210  0.669440  1.0  0.666
  C  C865  1  0.011460  0.173100  0.930060  1.0  0.6851
  C  C866  1  0.014740  0.321860  0.537060  1.0  0.6624
  C  C867  1  0.013820  0.171720  0.898500  1.0  -0.1008
  C  C868  1  0.014590  0.319380  0.568780  1.0  -0.0956
  C  C869  1  0.013240  0.143880  0.884730  1.0  -0.1631
  C  C870  1  0.006500  0.343540  0.586470  1.0  -0.1471
  C  C871  1  0.020650  0.142340  0.855080  1.0  -0.0028
  C  C872  1  0.003270  0.338930  0.616510  1.0  0.0086
  C  C873  1  0.028300  0.166930  0.839170  1.0  0.2348
  C  C874  1  0.007820  0.311840  0.629270  1.0  0.2149
  C  C875  1  0.029070  0.194610  0.852120  1.0  -0.1213
  C  C876  1  0.016450  0.287760  0.612460  1.0  -0.1236
  C  C877  1  0.021970  0.196860  0.881980  1.0  -0.0935
  C  C878  1  0.019580  0.291630  0.582050  1.0  -0.0807
  C  C879  1  0.031220  0.180150  0.787000  1.0  0.1646
  C  C880  1  0.009270  0.290680  0.679360  1.0  0.1574
  C  C881  1  0.052670  0.201640  0.782610  1.0  -0.1187
  C  C882  1  0.026850  0.295950  0.704020  1.0  -0.1522
  C  C883  1  0.049100  0.222720  0.760660  1.0  -0.154
  C  C884  1  0.031520  0.273910  0.724720  1.0  -0.135
  C  C885  1  0.023670  0.222930  0.743080  1.0  0.0452
  C  C886  1  0.019070  0.245910  0.720940  1.0  0.0582
  C  C887  1  0.006450  0.179430  0.768870  1.0  -0.1282
  C  C888  1  0.002590  0.200730  0.747190  1.0  -0.1307
  C  C889  1  0.997920  0.740500  0.804290  1.0  -0.1541
  C  C890  1  0.002890  0.762760  0.824800  1.0  -0.1506
  C  C891  1  0.976060  0.583480  0.713580  1.0  -0.0934
  C  C892  1  0.015750  0.884280  0.807620  1.0  -0.0729
  C  C893  1  0.970010  0.613530  0.716440  1.0  -0.1221
  C  C894  1  0.009790  0.854090  0.808520  1.0  -0.1292
  C  C895  1  0.971770  0.630990  0.691420  1.0  0.2149
  C  C896  1  0.003210  0.841440  0.835610  1.0  0.2077
  C  C897  1  0.979250  0.619250  0.664520  1.0  0.011
  C  C898  1  0.003680  0.857890  0.861000  1.0  0.0289
  C  C899  1  0.985720  0.589550  0.661030  1.0  -0.1674
  C  C900  1  0.009420  0.887930  0.860850  1.0  -0.1364
  C  C901  1  0.984020  0.571210  0.686030  1.0  -0.0885
  C  C902  1  0.015210  0.901540  0.833560  1.0  -0.0515
  C  C903  1  0.985880  0.539640  0.682180  1.0  0.6687
  C  C904  1  0.016340  0.933210  0.830560  1.0  0.6654
  C  C905  1  0.988540  0.673100  0.569940  1.0  0.6851
  C  C906  1  0.985260  0.821860  0.962940  1.0  0.6618
  C  C907  1  0.986180  0.671720  0.601500  1.0  -0.1011
  C  C908  1  0.985410  0.819380  0.931220  1.0  -0.0959
  C  C909  1  0.986760  0.643880  0.615270  1.0  -0.1636
  C  C910  1  0.993500  0.843540  0.913530  1.0  -0.1487
  C  C911  1  0.979350  0.642340  0.644920  1.0  -0.0047
  C  C912  1  0.996730  0.838930  0.883490  1.0  0.0089
  C  C913  1  0.971700  0.666930  0.660830  1.0  0.2339
  C  C914  1  0.992180  0.811840  0.870730  1.0  0.2144
  C  C915  1  0.970930  0.694610  0.647880  1.0  -0.1216
  C  C916  1  0.983550  0.787760  0.887540  1.0  -0.1232
  C  C917  1  0.978030  0.696860  0.618020  1.0  -0.0931
  C  C918  1  0.980420  0.791630  0.917950  1.0  -0.0803
  C  C919  1  0.968780  0.680150  0.713000  1.0  0.1644
  C  C920  1  0.990730  0.790680  0.820640  1.0  0.1577
  C  C921  1  0.947330  0.701640  0.717390  1.0  -0.1198
  C  C922  1  0.973150  0.795950  0.795980  1.0  -0.1535
  C  C923  1  0.950900  0.722720  0.739340  1.0  -0.1528
  C  C924  1  0.968480  0.773910  0.775280  1.0  -0.1367
  C  C925  1  0.976330  0.722930  0.756920  1.0  0.0449
  C  C926  1  0.980930  0.745910  0.779060  1.0  0.0583
  C  C927  1  0.993550  0.679430  0.731130  1.0  -0.1297
  C  C928  1  0.997410  0.700730  0.752810  1.0  -0.1311
  C  C929  1  0.502080  0.259500  0.304290  1.0  -0.1552
  C  C930  1  0.497110  0.237240  0.324800  1.0  -0.1526
  C  C931  1  0.523940  0.416520  0.213580  1.0  -0.0935
  C  C932  1  0.484250  0.115720  0.307620  1.0  -0.0732
  C  C933  1  0.529990  0.386470  0.216440  1.0  -0.1203
  C  C934  1  0.490210  0.145910  0.308520  1.0  -0.1296
  C  C935  1  0.528230  0.369010  0.191420  1.0  0.2143
  C  C936  1  0.496790  0.158560  0.335610  1.0  0.2075
  C  C937  1  0.520750  0.380750  0.164520  1.0  0.0123
  C  C938  1  0.496320  0.142110  0.361000  1.0  0.0285
  C  C939  1  0.514280  0.410450  0.161030  1.0  -0.1668
  C  C940  1  0.490580  0.112070  0.360850  1.0  -0.1361
  C  C941  1  0.515980  0.428790  0.186030  1.0  -0.0892
  C  C942  1  0.484790  0.098460  0.333560  1.0  -0.0501
  C  C943  1  0.514120  0.460360  0.182180  1.0  0.6685
  C  C944  1  0.483660  0.066790  0.330560  1.0  0.6661
  C  C945  1  0.511460  0.326900  0.069940  1.0  0.6852
  C  C946  1  0.514740  0.178140  0.462940  1.0  0.662
  C  C947  1  0.513820  0.328280  0.101500  1.0  -0.1009
  C  C948  1  0.514590  0.180620  0.431220  1.0  -0.0959
  C  C949  1  0.513240  0.356120  0.115270  1.0  -0.1653
  C  C950  1  0.506500  0.156460  0.413530  1.0  -0.146
  C  C951  1  0.520650  0.357660  0.144920  1.0  -0.0026
  C  C952  1  0.503270  0.161070  0.383490  1.0  0.0086
  C  C953  1  0.528300  0.333070  0.160830  1.0  0.2338
  C  C954  1  0.507820  0.188160  0.370730  1.0  0.2157
  C  C955  1  0.529070  0.305390  0.147880  1.0  -0.1211
  C  C956  1  0.516450  0.212240  0.387540  1.0  -0.1231
  C  C957  1  0.521970  0.303140  0.118020  1.0  -0.0927
  C  C958  1  0.519580  0.208370  0.417950  1.0  -0.0792
  C  C959  1  0.531220  0.319850  0.213000  1.0  0.1644
  C  C960  1  0.509270  0.209320  0.320640  1.0  0.1575
  C  C961  1  0.552670  0.298360  0.217390  1.0  -0.1187
  C  C962  1  0.526850  0.204050  0.295980  1.0  -0.1527
  C  C963  1  0.549100  0.277280  0.239340  1.0  -0.1528
  C  C964  1  0.531520  0.226090  0.275280  1.0  -0.1344
  C  C965  1  0.523670  0.277070  0.256920  1.0  0.0447
  C  C966  1  0.519070  0.254090  0.279060  1.0  0.0586
  C  C967  1  0.506450  0.320570  0.231130  1.0  -0.1289
  C  C968  1  0.502590  0.299270  0.252810  1.0  -0.1309
  C  C969  1  0.497920  0.759500  0.195710  1.0  -0.1561
  C  C970  1  0.502890  0.737240  0.175200  1.0  -0.1525
  C  C971  1  0.476060  0.916520  0.286420  1.0  -0.0932
  C  C972  1  0.515750  0.615720  0.192380  1.0  -0.0733
  C  C973  1  0.470010  0.886470  0.283560  1.0  -0.1231
  C  C974  1  0.509790  0.645910  0.191480  1.0  -0.1263
  C  C975  1  0.471770  0.869010  0.308580  1.0  0.2152
  C  C976  1  0.503210  0.658560  0.164390  1.0  0.2068
  C  C977  1  0.479250  0.880750  0.335480  1.0  0.0133
  C  C978  1  0.503680  0.642110  0.139000  1.0  0.0275
  C  C979  1  0.485720  0.910450  0.338970  1.0  -0.167
  C  C980  1  0.509420  0.612070  0.139150  1.0  -0.1358
  C  C981  1  0.484020  0.928790  0.313970  1.0  -0.0889
  C  C982  1  0.515210  0.598460  0.166440  1.0  -0.0512
  C  C983  1  0.485880  0.960360  0.317820  1.0  0.6683
  C  C984  1  0.516340  0.566790  0.169440  1.0  0.666
  C  C985  1  0.488540  0.826900  0.430060  1.0  0.6854
  C  C986  1  0.485260  0.678140  0.037060  1.0  0.6621
  C  C987  1  0.486180  0.828280  0.398500  1.0  -0.1007
  C  C988  1  0.485410  0.680620  0.068780  1.0  -0.0955
  C  C989  1  0.486760  0.856120  0.384730  1.0  -0.1652
  C  C990  1  0.493500  0.656460  0.086470  1.0  -0.1457
  C  C991  1  0.479350  0.857660  0.355080  1.0  -0.0021
  C  C992  1  0.496730  0.661070  0.116510  1.0  0.0075
  C  C993  1  0.471700  0.833070  0.339170  1.0  0.2342
  C  C994  1  0.492180  0.688160  0.129270  1.0  0.2148
  C  C995  1  0.470930  0.805390  0.352120  1.0  -0.1209
  C  C996  1  0.483550  0.712240  0.112460  1.0  -0.1241
  C  C997  1  0.478030  0.803140  0.381980  1.0  -0.0926
  C  C998  1  0.480420  0.708370  0.082050  1.0  -0.0805
  C  C999  1  0.468780  0.819850  0.287000  1.0  0.1643
  C  C1000  1  0.490730  0.709320  0.179360  1.0  0.1573
  C  C1001  1  0.447330  0.798360  0.282610  1.0  -0.1204
  C  C1002  1  0.473150  0.704050  0.204020  1.0  -0.1532
  C  C1003  1  0.450900  0.777280  0.260660  1.0  -0.1508
  C  C1004  1  0.468480  0.726090  0.224720  1.0  -0.1365
  C  C1005  1  0.476330  0.777070  0.243080  1.0  0.0451
  C  C1006  1  0.480930  0.754090  0.220940  1.0  0.0582
  C  C1007  1  0.493550  0.820570  0.268870  1.0  -0.1298
  C  C1008  1  0.497410  0.799270  0.247190  1.0  -0.1334
  C  C1009  1  0.304290  0.997920  0.759500  1.0  -0.1525
  C  C1010  1  0.324800  0.002890  0.737240  1.0  -0.1526
  C  C1011  1  0.213580  0.976060  0.916520  1.0  -0.0933
  C  C1012  1  0.307620  0.015750  0.615720  1.0  -0.0727
  C  C1013  1  0.216440  0.970010  0.886470  1.0  -0.1229
  C  C1014  1  0.308520  0.009790  0.645910  1.0  -0.1293
  C  C1015  1  0.191420  0.971770  0.869010  1.0  0.215
  C  C1016  1  0.335610  0.003210  0.658560  1.0  0.2084
  C  C1017  1  0.164520  0.979250  0.880750  1.0  0.0102
  C  C1018  1  0.361000  0.003680  0.642110  1.0  0.0278
  C  C1019  1  0.161030  0.985720  0.910450  1.0  -0.1682
  C  C1020  1  0.360850  0.009420  0.612070  1.0  -0.1344
  C  C1021  1  0.186030  0.984020  0.928790  1.0  -0.0888
  C  C1022  1  0.333560  0.015210  0.598460  1.0  -0.0504
  C  C1023  1  0.182180  0.985880  0.960360  1.0  0.6687
  C  C1024  1  0.330560  0.016340  0.566790  1.0  0.6662
  C  C1025  1  0.069940  0.988540  0.826900  1.0  0.6844
  C  C1026  1  0.462940  0.985260  0.678140  1.0  0.6617
  C  C1027  1  0.101500  0.986180  0.828280  1.0  -0.1003
  C  C1028  1  0.431220  0.985410  0.680620  1.0  -0.0945
  C  C1029  1  0.115270  0.986760  0.856120  1.0  -0.1655
  C  C1030  1  0.413530  0.993500  0.656460  1.0  -0.1467
  C  C1031  1  0.144920  0.979350  0.857660  1.0  -0.007
  C  C1032  1  0.383490  0.996730  0.661070  1.0  0.0046
  C  C1033  1  0.160830  0.971700  0.833070  1.0  0.2328
  C  C1034  1  0.370730  0.992180  0.688160  1.0  0.2128
  C  C1035  1  0.147880  0.970930  0.805390  1.0  -0.1168
  C  C1036  1  0.387540  0.983550  0.712240  1.0  -0.1221
  C  C1037  1  0.118020  0.978030  0.803140  1.0  -0.0904
  C  C1038  1  0.417950  0.980420  0.708370  1.0  -0.0762
  C  C1039  1  0.213000  0.968780  0.819850  1.0  0.165
  C  C1040  1  0.320640  0.990730  0.709320  1.0  0.1573
  C  C1041  1  0.217390  0.947330  0.798360  1.0  -0.1246
  C  C1042  1  0.295980  0.973150  0.704050  1.0  -0.1563
  C  C1043  1  0.239340  0.950900  0.777280  1.0  -0.1525
  C  C1044  1  0.275280  0.968480  0.726090  1.0  -0.1369
  C  C1045  1  0.256920  0.976330  0.777070  1.0  0.044
  C  C1046  1  0.279060  0.980930  0.754090  1.0  0.0583
  C  C1047  1  0.231130  0.993550  0.820570  1.0  -0.1285
  C  C1048  1  0.252810  0.997410  0.799270  1.0  -0.134
  C  C1049  1  0.195710  0.002080  0.259500  1.0  -0.1497
  C  C1050  1  0.175200  0.997110  0.237240  1.0  -0.1546
  C  C1051  1  0.286420  0.023940  0.416520  1.0  -0.0953
  C  C1052  1  0.192380  0.984250  0.115720  1.0  -0.074
  C  C1053  1  0.283560  0.029990  0.386470  1.0  -0.1221
  C  C1054  1  0.191480  0.990210  0.145910  1.0  -0.1296
  C  C1055  1  0.308580  0.028230  0.369010  1.0  0.2165
  C  C1056  1  0.164390  0.996790  0.158560  1.0  0.2073
  C  C1057  1  0.335480  0.020750  0.380750  1.0  0.0087
  C  C1058  1  0.139000  0.996320  0.142110  1.0  0.0288
  C  C1059  1  0.338970  0.014280  0.410450  1.0  -0.1679
  C  C1060  1  0.139150  0.990580  0.112070  1.0  -0.1348
  C  C1061  1  0.313970  0.015980  0.428790  1.0  -0.0878
  C  C1062  1  0.166440  0.984790  0.098460  1.0  -0.0503
  C  C1063  1  0.317820  0.014120  0.460360  1.0  0.6683
  C  C1064  1  0.169440  0.983660  0.066790  1.0  0.6656
  C  C1065  1  0.430060  0.011460  0.326900  1.0  0.6849
  C  C1066  1  0.037060  0.014740  0.178140  1.0  0.6613
  C  C1067  1  0.398500  0.013820  0.328280  1.0  -0.1003
  C  C1068  1  0.068780  0.014590  0.180620  1.0  -0.095
  C  C1069  1  0.384730  0.013240  0.356120  1.0  -0.1633
  C  C1070  1  0.086470  0.006500  0.156460  1.0  -0.1477
  C  C1071  1  0.355080  0.020650  0.357660  1.0  -0.0076
  C  C1072  1  0.116510  0.003270  0.161070  1.0  0.0042
  C  C1073  1  0.339170  0.028300  0.333070  1.0  0.2327
  C  C1074  1  0.129270  0.007820  0.188160  1.0  0.2137
  C  C1075  1  0.352120  0.029070  0.305390  1.0  -0.1172
  C  C1076  1  0.112460  0.016450  0.212240  1.0  -0.1228
  C  C1077  1  0.381980  0.021970  0.303140  1.0  -0.0892
  C  C1078  1  0.082050  0.019580  0.208370  1.0  -0.0778
  C  C1079  1  0.287000  0.031220  0.319850  1.0  0.1644
  C  C1080  1  0.179360  0.009270  0.209320  1.0  0.1575
  C  C1081  1  0.282610  0.052670  0.298360  1.0  -0.1221
  C  C1082  1  0.204020  0.026850  0.204050  1.0  -0.1539
  C  C1083  1  0.260660  0.049100  0.277280  1.0  -0.1526
  C  C1084  1  0.224720  0.031520  0.226090  1.0  -0.136
  C  C1085  1  0.243080  0.023670  0.277070  1.0  0.0444
  C  C1086  1  0.220940  0.019070  0.254090  1.0  0.0584
  C  C1087  1  0.268870  0.006450  0.320570  1.0  -0.128
  C  C1088  1  0.247190  0.002590  0.299270  1.0  -0.1353
  C  C1089  1  0.695710  0.497920  0.740500  1.0  -0.1511
  C  C1090  1  0.675200  0.502890  0.762760  1.0  -0.1545
  C  C1091  1  0.786420  0.476060  0.583480  1.0  -0.0951
  C  C1092  1  0.692380  0.515750  0.884280  1.0  -0.0735
  C  C1093  1  0.783560  0.470010  0.613530  1.0  -0.1228
  C  C1094  1  0.691480  0.509790  0.854090  1.0  -0.13
  C  C1095  1  0.808580  0.471770  0.630990  1.0  0.2155
  C  C1096  1  0.664390  0.503210  0.841440  1.0  0.2073
  C  C1097  1  0.835480  0.479250  0.619250  1.0  0.0082
  C  C1098  1  0.639000  0.503680  0.857890  1.0  0.0291
  C  C1099  1  0.838970  0.485720  0.589550  1.0  -0.1678
  C  C1100  1  0.639150  0.509420  0.887930  1.0  -0.1356
  C  C1101  1  0.813970  0.484020  0.571210  1.0  -0.0879
  C  C1102  1  0.666440  0.515210  0.901540  1.0  -0.0513
  C  C1103  1  0.817820  0.485880  0.539640  1.0  0.6683
  C  C1104  1  0.669440  0.516340  0.933210  1.0  0.6657
  C  C1105  1  0.930060  0.488540  0.673100  1.0  0.685
  C  C1106  1  0.537060  0.485260  0.821860  1.0  0.6614
  C  C1107  1  0.898500  0.486180  0.671720  1.0  -0.1006
  C  C1108  1  0.568780  0.485410  0.819380  1.0  -0.0949
  C  C1109  1  0.884730  0.486760  0.643880  1.0  -0.1643
  C  C1110  1  0.586470  0.493500  0.843540  1.0  -0.1479
  C  C1111  1  0.855080  0.479350  0.642340  1.0  -0.0072
  C  C1112  1  0.616510  0.496730  0.838930  1.0  0.0052
  C  C1113  1  0.839170  0.471700  0.666930  1.0  0.2326
  C  C1114  1  0.629270  0.492180  0.811840  1.0  0.213
  C  C1115  1  0.852120  0.470930  0.694610  1.0  -0.1176
  C  C1116  1  0.612460  0.483550  0.787760  1.0  -0.1227
  C  C1117  1  0.881980  0.478030  0.696860  1.0  -0.0887
  C  C1118  1  0.582050  0.480420  0.791630  1.0  -0.0761
  C  C1119  1  0.787000  0.468780  0.680150  1.0  0.1644
  C  C1120  1  0.679360  0.490730  0.790680  1.0  0.1577
  C  C1121  1  0.782610  0.447330  0.701640  1.0  -0.1222
  C  C1122  1  0.704020  0.473150  0.795950  1.0  -0.1557
  C  C1123  1  0.760660  0.450900  0.722720  1.0  -0.1517
  C  C1124  1  0.724720  0.468480  0.773910  1.0  -0.1358
  C  C1125  1  0.743080  0.476330  0.722930  1.0  0.0441
  C  C1126  1  0.720940  0.480930  0.745910  1.0  0.0588
  C  C1127  1  0.768870  0.493550  0.679430  1.0  -0.1285
  C  C1128  1  0.747190  0.497410  0.700730  1.0  -0.1365
  C  C1129  1  0.804290  0.502080  0.240500  1.0  -0.1531
  C  C1130  1  0.824800  0.497110  0.262760  1.0  -0.1545
  C  C1131  1  0.713580  0.523940  0.083480  1.0  -0.0944
  C  C1132  1  0.807620  0.484250  0.384280  1.0  -0.073
  C  C1133  1  0.716440  0.529990  0.113530  1.0  -0.1224
  C  C1134  1  0.808520  0.490210  0.354090  1.0  -0.1288
  C  C1135  1  0.691420  0.528230  0.130990  1.0  0.2156
  C  C1136  1  0.835610  0.496790  0.341440  1.0  0.2081
  C  C1137  1  0.664520  0.520750  0.119250  1.0  0.0087
  C  C1138  1  0.861000  0.496320  0.357890  1.0  0.0295
  C  C1139  1  0.661030  0.514280  0.089550  1.0  -0.1678
  C  C1140  1  0.860850  0.490580  0.387930  1.0  -0.1346
  C  C1141  1  0.686030  0.515980  0.071210  1.0  -0.0879
  C  C1142  1  0.833560  0.484790  0.401540  1.0  -0.0512
  C  C1143  1  0.682180  0.514120  0.039640  1.0  0.6682
  C  C1144  1  0.830560  0.483660  0.433210  1.0  0.6662
  C  C1145  1  0.569940  0.511460  0.173100  1.0  0.6845
  C  C1146  1  0.962940  0.514740  0.321860  1.0  0.6615
  C  C1147  1  0.601500  0.513820  0.171720  1.0  -0.1004
  C  C1148  1  0.931220  0.514590  0.319380  1.0  -0.0946
  C  C1149  1  0.615270  0.513240  0.143880  1.0  -0.1643
  C  C1150  1  0.913530  0.506500  0.343540  1.0  -0.1455
  C  C1151  1  0.644920  0.520650  0.142340  1.0  -0.0068
  C  C1152  1  0.883490  0.503270  0.338930  1.0  0.0056
  C  C1153  1  0.660830  0.528300  0.166930  1.0  0.2327
  C  C1154  1  0.870730  0.507820  0.311840  1.0  0.2126
  C  C1155  1  0.647880  0.529070  0.194610  1.0  -0.1165
  C  C1156  1  0.887540  0.516450  0.287760  1.0  -0.1234
  C  C1157  1  0.618020  0.521970  0.196860  1.0  -0.0906
  C  C1158  1  0.917950  0.519580  0.291630  1.0  -0.0759
  C  C1159  1  0.713000  0.531220  0.180150  1.0  0.1649
  C  C1160  1  0.820640  0.509270  0.290680  1.0  0.1574
  C  C1161  1  0.717390  0.552670  0.201640  1.0  -0.1252
  C  C1162  1  0.795980  0.526850  0.295950  1.0  -0.1546
  C  C1163  1  0.739340  0.549100  0.222720  1.0  -0.1526
  C  C1164  1  0.775280  0.531520  0.273910  1.0  -0.1388
  C  C1165  1  0.756920  0.523670  0.222930  1.0  0.0437
  C  C1166  1  0.779060  0.519070  0.245910  1.0  0.0588
  C  C1167  1  0.731130  0.506450  0.179430  1.0  -0.1292
  C  C1168  1  0.752810  0.502590  0.200730  1.0  -0.1359
  C  C1169  1  0.759500  0.304290  0.997920  1.0  -0.1557
  C  C1170  1  0.737240  0.324800  0.002890  1.0  -0.1502
  C  C1171  1  0.916520  0.213580  0.976060  1.0  -0.0967
  C  C1172  1  0.615720  0.307620  0.015750  1.0  -0.0783
  C  C1173  1  0.886470  0.216440  0.970010  1.0  -0.1277
  C  C1174  1  0.645910  0.308520  0.009790  1.0  -0.1323
  C  C1175  1  0.869010  0.191420  0.971770  1.0  0.2139
  C  C1176  1  0.658560  0.335610  0.003210  1.0  0.2083
  C  C1177  1  0.880750  0.164520  0.979250  1.0  0.0093
  C  C1178  1  0.642110  0.361000  0.003680  1.0  0.0286
  C  C1179  1  0.910450  0.161030  0.985720  1.0  -0.1672
  C  C1180  1  0.612070  0.360850  0.009420  1.0  -0.1381
  C  C1181  1  0.928790  0.186030  0.984020  1.0  -0.0882
  C  C1182  1  0.598460  0.333560  0.015210  1.0  -0.0509
  C  C1183  1  0.960360  0.182180  0.985880  1.0  0.6679
  C  C1184  1  0.566790  0.330560  0.016340  1.0  0.6631
  C  C1185  1  0.826900  0.069940  0.988540  1.0  0.6859
  C  C1186  1  0.678140  0.462940  0.985260  1.0  0.6617
  C  C1187  1  0.828280  0.101500  0.986180  1.0  -0.1018
  C  C1188  1  0.680620  0.431220  0.985410  1.0  -0.0944
  C  C1189  1  0.856120  0.115270  0.986760  1.0  -0.1643
  C  C1190  1  0.656460  0.413530  0.993500  1.0  -0.1483
  C  C1191  1  0.857660  0.144920  0.979350  1.0  -0.0069
  C  C1192  1  0.661070  0.383490  0.996730  1.0  0.0066
  C  C1193  1  0.833070  0.160830  0.971700  1.0  0.233
  C  C1194  1  0.688160  0.370730  0.992180  1.0  0.2128
  C  C1195  1  0.805390  0.147880  0.970930  1.0  -0.1163
  C  C1196  1  0.712240  0.387540  0.983550  1.0  -0.1221
  C  C1197  1  0.803140  0.118020  0.978030  1.0  -0.09
  C  C1198  1  0.708370  0.417950  0.980420  1.0  -0.0769
  C  C1199  1  0.819850  0.213000  0.968780  1.0  0.1655
  C  C1200  1  0.709320  0.320640  0.990730  1.0  0.1569
  C  C1201  1  0.798360  0.217390  0.947330  1.0  -0.121
  C  C1202  1  0.704050  0.295980  0.973150  1.0  -0.1537
  C  C1203  1  0.777280  0.239340  0.950900  1.0  -0.1509
  C  C1204  1  0.726090  0.275280  0.968480  1.0  -0.1349
  C  C1205  1  0.777070  0.256920  0.976330  1.0  0.0448
  C  C1206  1  0.754090  0.279060  0.980930  1.0  0.0586
  C  C1207  1  0.820570  0.231130  0.993550  1.0  -0.1267
  C  C1208  1  0.799270  0.252810  0.997410  1.0  -0.1273
  C  C1209  1  0.259500  0.195710  0.002080  1.0  -0.1545
  C  C1210  1  0.237240  0.175200  0.997110  1.0  -0.1486
  C  C1211  1  0.416520  0.286420  0.023940  1.0  -0.0975
  C  C1212  1  0.115720  0.192380  0.984250  1.0  -0.0784
  C  C1213  1  0.386470  0.283560  0.029990  1.0  -0.1279
  C  C1214  1  0.145910  0.191480  0.990210  1.0  -0.1337
  C  C1215  1  0.369010  0.308580  0.028230  1.0  0.2136
  C  C1216  1  0.158560  0.164390  0.996790  1.0  0.2094
  C  C1217  1  0.380750  0.335480  0.020750  1.0  0.0102
  C  C1218  1  0.142110  0.139000  0.996320  1.0  0.0284
  C  C1219  1  0.410450  0.338970  0.014280  1.0  -0.1694
  C  C1220  1  0.112070  0.139150  0.990580  1.0  -0.1355
  C  C1221  1  0.428790  0.313970  0.015980  1.0  -0.0879
  C  C1222  1  0.098460  0.166440  0.984790  1.0  -0.0504
  C  C1223  1  0.460360  0.317820  0.014120  1.0  0.6682
  C  C1224  1  0.066790  0.169440  0.983660  1.0  0.6633
  C  C1225  1  0.326900  0.430060  0.011460  1.0  0.6852
  C  C1226  1  0.178140  0.037060  0.014740  1.0  0.6619
  C  C1227  1  0.328280  0.398500  0.013820  1.0  -0.1008
  C  C1228  1  0.180620  0.068780  0.014590  1.0  -0.0945
  C  C1229  1  0.356120  0.384730  0.013240  1.0  -0.1646
  C  C1230  1  0.156460  0.086470  0.006500  1.0  -0.1474
  C  C1231  1  0.357660  0.355080  0.020650  1.0  -0.0049
  C  C1232  1  0.161070  0.116510  0.003270  1.0  0.0071
  C  C1233  1  0.333070  0.339170  0.028300  1.0  0.2337
  C  C1234  1  0.188160  0.129270  0.007820  1.0  0.2124
  C  C1235  1  0.305390  0.352120  0.029070  1.0  -0.116
  C  C1236  1  0.212240  0.112460  0.016450  1.0  -0.1218
  C  C1237  1  0.303140  0.381980  0.021970  1.0  -0.0905
  C  C1238  1  0.208370  0.082050  0.019580  1.0  -0.0768
  C  C1239  1  0.319850  0.287000  0.031220  1.0  0.1657
  C  C1240  1  0.209320  0.179360  0.009270  1.0  0.1571
  C  C1241  1  0.298360  0.282610  0.052670  1.0  -0.12
  C  C1242  1  0.204050  0.204020  0.026850  1.0  -0.1538
  C  C1243  1  0.277280  0.260660  0.049100  1.0  -0.1513
  C  C1244  1  0.226090  0.224720  0.031520  1.0  -0.1383
  C  C1245  1  0.277070  0.243080  0.023670  1.0  0.0446
  C  C1246  1  0.254090  0.220940  0.019070  1.0  0.0586
  C  C1247  1  0.320570  0.268870  0.006450  1.0  -0.1266
  C  C1248  1  0.299270  0.247190  0.002590  1.0  -0.1266
  C  C1249  1  0.740500  0.695710  0.497920  1.0  -0.1516
  C  C1250  1  0.762760  0.675200  0.502890  1.0  -0.149
  C  C1251  1  0.583480  0.786420  0.476060  1.0  -0.0983
  C  C1252  1  0.884280  0.692380  0.515750  1.0  -0.0769
  C  C1253  1  0.613530  0.783560  0.470010  1.0  -0.1279
  C  C1254  1  0.854090  0.691480  0.509790  1.0  -0.1335
  C  C1255  1  0.630990  0.808580  0.471770  1.0  0.2141
  C  C1256  1  0.841440  0.664390  0.503210  1.0  0.2083
  C  C1257  1  0.619250  0.835480  0.479250  1.0  0.0098
  C  C1258  1  0.857890  0.639000  0.503680  1.0  0.0282
  C  C1259  1  0.589550  0.838970  0.485720  1.0  -0.1707
  C  C1260  1  0.887930  0.639150  0.509420  1.0  -0.1358
  C  C1261  1  0.571210  0.813970  0.484020  1.0  -0.0884
  C  C1262  1  0.901540  0.666440  0.515210  1.0  -0.0516
  C  C1263  1  0.539640  0.817820  0.485880  1.0  0.6674
  C  C1264  1  0.933210  0.669440  0.516340  1.0  0.664
  C  C1265  1  0.673100  0.930060  0.488540  1.0  0.6857
  C  C1266  1  0.821860  0.537060  0.485260  1.0  0.6619
  C  C1267  1  0.671720  0.898500  0.486180  1.0  -0.1021
  C  C1268  1  0.819380  0.568780  0.485410  1.0  -0.0943
  C  C1269  1  0.643880  0.884730  0.486760  1.0  -0.1671
  C  C1270  1  0.843540  0.586470  0.493500  1.0  -0.1465
  C  C1271  1  0.642340  0.855080  0.479350  1.0  -0.0042
  C  C1272  1  0.838930  0.616510  0.496730  1.0  0.0065
  C  C1273  1  0.666930  0.839170  0.471700  1.0  0.2332
  C  C1274  1  0.811840  0.629270  0.492180  1.0  0.2131
  C  C1275  1  0.694610  0.852120  0.470930  1.0  -0.118
  C  C1276  1  0.787760  0.612460  0.483550  1.0  -0.1225
  C  C1277  1  0.696860  0.881980  0.478030  1.0  -0.0904
  C  C1278  1  0.791630  0.582050  0.480420  1.0  -0.0771
  C  C1279  1  0.680150  0.787000  0.468780  1.0  0.1658
  C  C1280  1  0.790680  0.679360  0.490730  1.0  0.1567
  C  C1281  1  0.701640  0.782610  0.447330  1.0  -0.1212
  C  C1282  1  0.795950  0.704020  0.473150  1.0  -0.1537
  C  C1283  1  0.722720  0.760660  0.450900  1.0  -0.1514
  C  C1284  1  0.773910  0.724720  0.468480  1.0  -0.1372
  C  C1285  1  0.722930  0.743080  0.476330  1.0  0.045
  C  C1286  1  0.745910  0.720940  0.480930  1.0  0.0581
  C  C1287  1  0.679430  0.768870  0.493550  1.0  -0.1289
  C  C1288  1  0.700730  0.747190  0.497410  1.0  -0.1268
  C  C1289  1  0.240500  0.804290  0.502080  1.0  -0.1529
  C  C1290  1  0.262760  0.824800  0.497110  1.0  -0.1504
  C  C1291  1  0.083480  0.713580  0.523940  1.0  -0.0987
  C  C1292  1  0.384280  0.807620  0.484250  1.0  -0.0775
  C  C1293  1  0.113530  0.716440  0.529990  1.0  -0.1265
  C  C1294  1  0.354090  0.808520  0.490210  1.0  -0.1334
  C  C1295  1  0.130990  0.691420  0.528230  1.0  0.2141
  C  C1296  1  0.341440  0.835610  0.496790  1.0  0.2079
  C  C1297  1  0.119250  0.664520  0.520750  1.0  0.0096
  C  C1298  1  0.357890  0.861000  0.496320  1.0  0.0283
  C  C1299  1  0.089550  0.661030  0.514280  1.0  -0.1677
  C  C1300  1  0.387930  0.860850  0.490580  1.0  -0.1379
  C  C1301  1  0.071210  0.686030  0.515980  1.0  -0.0883
  C  C1302  1  0.401540  0.833560  0.484790  1.0  -0.0511
  C  C1303  1  0.039640  0.682180  0.514120  1.0  0.6677
  C  C1304  1  0.433210  0.830560  0.483660  1.0  0.6642
  C  C1305  1  0.173100  0.569940  0.511460  1.0  0.6863
  C  C1306  1  0.321860  0.962940  0.514740  1.0  0.6618
  C  C1307  1  0.171720  0.601500  0.513820  1.0  -0.1011
  C  C1308  1  0.319380  0.931220  0.514590  1.0  -0.0942
  C  C1309  1  0.143880  0.615270  0.513240  1.0  -0.1665
  C  C1310  1  0.343540  0.913530  0.506500  1.0  -0.1472
  C  C1311  1  0.142340  0.644920  0.520650  1.0  -0.0051
  C  C1312  1  0.338930  0.883490  0.503270  1.0  0.0073
  C  C1313  1  0.166930  0.660830  0.528300  1.0  0.2332
  C  C1314  1  0.311840  0.870730  0.507820  1.0  0.2135
  C  C1315  1  0.194610  0.647880  0.529070  1.0  -0.1173
  C  C1316  1  0.287760  0.887540  0.516450  1.0  -0.123
  C  C1317  1  0.196860  0.618020  0.521970  1.0  -0.09
  C  C1318  1  0.291630  0.917950  0.519580  1.0  -0.078
  C  C1319  1  0.180150  0.713000  0.531220  1.0  0.1656
  C  C1320  1  0.290680  0.820640  0.509270  1.0  0.1566
  C  C1321  1  0.201640  0.717390  0.552670  1.0  -0.1194
  C  C1322  1  0.295950  0.795980  0.526850  1.0  -0.1526
  C  C1323  1  0.222720  0.739340  0.549100  1.0  -0.1503
  C  C1324  1  0.273910  0.775280  0.531520  1.0  -0.1361
  C  C1325  1  0.222930  0.756920  0.523670  1.0  0.045
  C  C1326  1  0.245910  0.779060  0.519070  1.0  0.0579
  C  C1327  1  0.179430  0.731130  0.506450  1.0  -0.1286
  C  C1328  1  0.200730  0.752810  0.502590  1.0  -0.126
  C  C1329  1  0.997920  0.759500  0.304290  1.0  -0.1556
  C  C1330  1  0.002890  0.737240  0.324800  1.0  -0.1518
  C  C1331  1  0.976060  0.916520  0.213580  1.0  -0.0938
  C  C1332  1  0.015750  0.615720  0.307620  1.0  -0.0734
  C  C1333  1  0.970010  0.886470  0.216440  1.0  -0.1225
  C  C1334  1  0.009790  0.645910  0.308520  1.0  -0.129
  C  C1335  1  0.971770  0.869010  0.191420  1.0  0.2154
  C  C1336  1  0.003210  0.658560  0.335610  1.0  0.2072
  C  C1337  1  0.979250  0.880750  0.164520  1.0  0.0125
  C  C1338  1  0.003680  0.642110  0.361000  1.0  0.0284
  C  C1339  1  0.985720  0.910450  0.161030  1.0  -0.1675
  C  C1340  1  0.009420  0.612070  0.360850  1.0  -0.1355
  C  C1341  1  0.984020  0.928790  0.186030  1.0  -0.0887
  C  C1342  1  0.015210  0.598460  0.333560  1.0  -0.0511
  C  C1343  1  0.985880  0.960360  0.182180  1.0  0.6684
  C  C1344  1  0.016340  0.566790  0.330560  1.0  0.6656
  C  C1345  1  0.988540  0.826900  0.069940  1.0  0.6852
  C  C1346  1  0.985260  0.678140  0.462940  1.0  0.6617
  C  C1347  1  0.986180  0.828280  0.101500  1.0  -0.1008
  C  C1348  1  0.985410  0.680620  0.431220  1.0  -0.0958
  C  C1349  1  0.986760  0.856120  0.115270  1.0  -0.1646
  C  C1350  1  0.993500  0.656460  0.413530  1.0  -0.146
  C  C1351  1  0.979350  0.857660  0.144920  1.0  -0.0028
  C  C1352  1  0.996730  0.661070  0.383490  1.0  0.0089
  C  C1353  1  0.971700  0.833070  0.160830  1.0  0.2333
  C  C1354  1  0.992180  0.688160  0.370730  1.0  0.2148
  C  C1355  1  0.970930  0.805390  0.147880  1.0  -0.1213
  C  C1356  1  0.983550  0.712240  0.387540  1.0  -0.1238
  C  C1357  1  0.978030  0.803140  0.118020  1.0  -0.0926
  C  C1358  1  0.980420  0.708370  0.417950  1.0  -0.0807
  C  C1359  1  0.968780  0.819850  0.213000  1.0  0.1644
  C  C1360  1  0.990730  0.709320  0.320640  1.0  0.1576
  C  C1361  1  0.947330  0.798360  0.217390  1.0  -0.1198
  C  C1362  1  0.973150  0.704050  0.295980  1.0  -0.1537
  C  C1363  1  0.950900  0.777280  0.239340  1.0  -0.1511
  C  C1364  1  0.968480  0.726090  0.275280  1.0  -0.1357
  C  C1365  1  0.976330  0.777070  0.256920  1.0  0.0448
  C  C1366  1  0.980930  0.754090  0.279060  1.0  0.0585
  C  C1367  1  0.993550  0.820570  0.231130  1.0  -0.13
  C  C1368  1  0.997410  0.799270  0.252810  1.0  -0.1319
  C  C1369  1  0.002080  0.259500  0.195710  1.0  -0.1549
  C  C1370  1  0.997110  0.237240  0.175200  1.0  -0.1526
  C  C1371  1  0.023940  0.416520  0.286420  1.0  -0.0934
  C  C1372  1  0.984250  0.115720  0.192380  1.0  -0.0746
  C  C1373  1  0.029990  0.386470  0.283560  1.0  -0.123
  C  C1374  1  0.990210  0.145910  0.191480  1.0  -0.129
  C  C1375  1  0.028230  0.369010  0.308580  1.0  0.2144
  C  C1376  1  0.996790  0.158560  0.164390  1.0  0.2074
  C  C1377  1  0.020750  0.380750  0.335480  1.0  0.0133
  C  C1378  1  0.996320  0.142110  0.139000  1.0  0.0274
  C  C1379  1  0.014280  0.410450  0.338970  1.0  -0.1672
  C  C1380  1  0.990580  0.112070  0.139150  1.0  -0.1358
  C  C1381  1  0.015980  0.428790  0.313970  1.0  -0.0892
  C  C1382  1  0.984790  0.098460  0.166440  1.0  -0.0502
  C  C1383  1  0.014120  0.460360  0.317820  1.0  0.6684
  C  C1384  1  0.983660  0.066790  0.169440  1.0  0.6665
  C  C1385  1  0.011460  0.326900  0.430060  1.0  0.6851
  C  C1386  1  0.014740  0.178140  0.037060  1.0  0.6623
  C  C1387  1  0.013820  0.328280  0.398500  1.0  -0.1006
  C  C1388  1  0.014590  0.180620  0.068780  1.0  -0.0953
  C  C1389  1  0.013240  0.356120  0.384730  1.0  -0.1664
  C  C1390  1  0.006500  0.156460  0.086470  1.0  -0.1456
  C  C1391  1  0.020650  0.357660  0.355080  1.0  -0.002
  C  C1392  1  0.003270  0.161070  0.116510  1.0  0.0073
  C  C1393  1  0.028300  0.333070  0.339170  1.0  0.2344
  C  C1394  1  0.007820  0.188160  0.129270  1.0  0.2156
  C  C1395  1  0.029070  0.305390  0.352120  1.0  -0.1203
  C  C1396  1  0.016450  0.212240  0.112460  1.0  -0.1236
  C  C1397  1  0.021970  0.303140  0.381980  1.0  -0.0927
  C  C1398  1  0.019580  0.208370  0.082050  1.0  -0.0797
  C  C1399  1  0.031220  0.319850  0.287000  1.0  0.1645
  C  C1400  1  0.009270  0.209320  0.179360  1.0  0.1572
  C  C1401  1  0.052670  0.298360  0.282610  1.0  -0.1187
  C  C1402  1  0.026850  0.204050  0.204020  1.0  -0.1515
  C  C1403  1  0.049100  0.277280  0.260660  1.0  -0.1527
  C  C1404  1  0.031520  0.226090  0.224720  1.0  -0.1345
  C  C1405  1  0.023670  0.277070  0.243080  1.0  0.0451
  C  C1406  1  0.019070  0.254090  0.220940  1.0  0.0584
  C  C1407  1  0.006450  0.320570  0.268870  1.0  -0.1283
  C  C1408  1  0.002590  0.299270  0.247190  1.0  -0.131
  C  C1409  1  0.497920  0.740500  0.695710  1.0  -0.1551
  C  C1410  1  0.502890  0.762760  0.675200  1.0  -0.1516
  C  C1411  1  0.476060  0.583480  0.786420  1.0  -0.0932
  C  C1412  1  0.515750  0.884280  0.692380  1.0  -0.0731
  C  C1413  1  0.470010  0.613530  0.783560  1.0  -0.1231
  C  C1414  1  0.509790  0.854090  0.691480  1.0  -0.1261
  C  C1415  1  0.471770  0.630990  0.808580  1.0  0.2146
  C  C1416  1  0.503210  0.841440  0.664390  1.0  0.2074
  C  C1417  1  0.479250  0.619250  0.835480  1.0  0.0133
  C  C1418  1  0.503680  0.857890  0.639000  1.0  0.0291
  C  C1419  1  0.485720  0.589550  0.838970  1.0  -0.1669
  C  C1420  1  0.509420  0.887930  0.639150  1.0  -0.1369
  C  C1421  1  0.484020  0.571210  0.813970  1.0  -0.0887
  C  C1422  1  0.515210  0.901540  0.666440  1.0  -0.0514
  C  C1423  1  0.485880  0.539640  0.817820  1.0  0.6687
  C  C1424  1  0.516340  0.933210  0.669440  1.0  0.6656
  C  C1425  1  0.488540  0.673100  0.930060  1.0  0.6853
  C  C1426  1  0.485260  0.821860  0.537060  1.0  0.6622
  C  C1427  1  0.486180  0.671720  0.898500  1.0  -0.101
  C  C1428  1  0.485410  0.819380  0.568780  1.0  -0.0956
  C  C1429  1  0.486760  0.643880  0.884730  1.0  -0.1629
  C  C1430  1  0.493500  0.843540  0.586470  1.0  -0.1471
  C  C1431  1  0.479350  0.642340  0.855080  1.0  -0.0029
  C  C1432  1  0.496730  0.838930  0.616510  1.0  0.0087
  C  C1433  1  0.471700  0.666930  0.839170  1.0  0.2348
  C  C1434  1  0.492180  0.811840  0.629270  1.0  0.2141
  C  C1435  1  0.470930  0.694610  0.852120  1.0  -0.1216
  C  C1436  1  0.483550  0.787760  0.612460  1.0  -0.1239
  C  C1437  1  0.478030  0.696860  0.881980  1.0  -0.0934
  C  C1438  1  0.480420  0.791630  0.582050  1.0  -0.0803
  C  C1439  1  0.468780  0.680150  0.787000  1.0  0.1645
  C  C1440  1  0.490730  0.790680  0.679360  1.0  0.1575
  C  C1441  1  0.447330  0.701640  0.782610  1.0  -0.1203
  C  C1442  1  0.473150  0.795950  0.704020  1.0  -0.1536
  C  C1443  1  0.450900  0.722720  0.760660  1.0  -0.1525
  C  C1444  1  0.468480  0.773910  0.724720  1.0  -0.1378
  C  C1445  1  0.476330  0.722930  0.743080  1.0  0.0452
  C  C1446  1  0.480930  0.745910  0.720940  1.0  0.0581
  C  C1447  1  0.493550  0.679430  0.768870  1.0  -0.1293
  C  C1448  1  0.497410  0.700730  0.747190  1.0  -0.1323
  C  C1449  1  0.502080  0.240500  0.804290  1.0  -0.1525
  C  C1450  1  0.497110  0.262760  0.824800  1.0  -0.1509
  C  C1451  1  0.523940  0.083480  0.713580  1.0  -0.0933
  C  C1452  1  0.484250  0.384280  0.807620  1.0  -0.073
  C  C1453  1  0.529990  0.113530  0.716440  1.0  -0.1203
  C  C1454  1  0.490210  0.354090  0.808520  1.0  -0.1298
  C  C1455  1  0.528230  0.130990  0.691420  1.0  0.2141
  C  C1456  1  0.496790  0.341440  0.835610  1.0  0.2081
  C  C1457  1  0.520750  0.119250  0.664520  1.0  0.0108
  C  C1458  1  0.496320  0.357890  0.861000  1.0  0.029
  C  C1459  1  0.514280  0.089550  0.661030  1.0  -0.1665
  C  C1460  1  0.490580  0.387930  0.860850  1.0  -0.1374
  C  C1461  1  0.515980  0.071210  0.686030  1.0  -0.0892
  C  C1462  1  0.484790  0.401540  0.833560  1.0  -0.0499
  C  C1463  1  0.514120  0.039640  0.682180  1.0  0.6689
  C  C1464  1  0.483660  0.433210  0.830560  1.0  0.6658
  C  C1465  1  0.511460  0.173100  0.569940  1.0  0.6852
  C  C1466  1  0.514740  0.321860  0.962940  1.0  0.662
  C  C1467  1  0.513820  0.171720  0.601500  1.0  -0.101
  C  C1468  1  0.514590  0.319380  0.931220  1.0  -0.0961
  C  C1469  1  0.513240  0.143880  0.615270  1.0  -0.1636
  C  C1470  1  0.506500  0.343540  0.913530  1.0  -0.1488
  C  C1471  1  0.520650  0.142340  0.644920  1.0  -0.0045
  C  C1472  1  0.503270  0.338930  0.883490  1.0  0.0088
  C  C1473  1  0.528300  0.166930  0.660830  1.0  0.2342
  C  C1474  1  0.507820  0.311840  0.870730  1.0  0.2152
  C  C1475  1  0.529070  0.194610  0.647880  1.0  -0.1213
  C  C1476  1  0.516450  0.287760  0.887540  1.0  -0.1227
  C  C1477  1  0.521970  0.196860  0.618020  1.0  -0.0932
  C  C1478  1  0.519580  0.291630  0.917950  1.0  -0.08
  C  C1479  1  0.531220  0.180150  0.713000  1.0  0.1645
  C  C1480  1  0.509270  0.290680  0.820640  1.0  0.1577
  C  C1481  1  0.552670  0.201640  0.717390  1.0  -0.1188
  C  C1482  1  0.526850  0.295950  0.795980  1.0  -0.1528
  C  C1483  1  0.549100  0.222720  0.739340  1.0  -0.1541
  C  C1484  1  0.531520  0.273910  0.775280  1.0  -0.1346
  C  C1485  1  0.523670  0.222930  0.756920  1.0  0.0449
  C  C1486  1  0.519070  0.245910  0.779060  1.0  0.0584
  C  C1487  1  0.506450  0.179430  0.731130  1.0  -0.129
  C  C1488  1  0.502590  0.200730  0.752810  1.0  -0.1306
  N  N1489  1  0.810640  0.033020  0.160200  1.0  -0.0315
  N  N1490  1  0.658740  0.003970  0.313120  1.0  -0.0358
  N  N1491  1  0.689360  0.966980  0.660200  1.0  -0.0328
  N  N1492  1  0.841260  0.996030  0.813120  1.0  -0.0363
  N  N1493  1  0.189360  0.533020  0.339800  1.0  -0.0321
  N  N1494  1  0.341260  0.503970  0.186880  1.0  -0.036
  N  N1495  1  0.310640  0.466980  0.839800  1.0  -0.0327
  N  N1496  1  0.158740  0.496030  0.686880  1.0  -0.0355
  N  N1497  1  0.160200  0.810640  0.033020  1.0  -0.0304
  N  N1498  1  0.313120  0.658740  0.003970  1.0  -0.0371
  N  N1499  1  0.660200  0.689360  0.966980  1.0  -0.0298
  N  N1500  1  0.813120  0.841260  0.996030  1.0  -0.037
  N  N1501  1  0.339800  0.189360  0.533020  1.0  -0.0309
  N  N1502  1  0.186880  0.341260  0.503970  1.0  -0.0365
  N  N1503  1  0.839800  0.310640  0.466980  1.0  -0.0305
  N  N1504  1  0.686880  0.158740  0.496030  1.0  -0.0365
  N  N1505  1  0.033020  0.160200  0.810640  1.0  -0.0329
  N  N1506  1  0.003970  0.313120  0.658740  1.0  -0.0366
  N  N1507  1  0.966980  0.660200  0.689360  1.0  -0.0323
  N  N1508  1  0.996030  0.813120  0.841260  1.0  -0.0364
  N  N1509  1  0.533020  0.339800  0.189360  1.0  -0.0327
  N  N1510  1  0.503970  0.186880  0.341260  1.0  -0.0367
  N  N1511  1  0.466980  0.839800  0.310640  1.0  -0.0326
  N  N1512  1  0.496030  0.686880  0.158740  1.0  -0.0361
  N  N1513  1  0.189360  0.966980  0.839800  1.0  -0.0328
  N  N1514  1  0.341260  0.996030  0.686880  1.0  -0.0359
  N  N1515  1  0.310640  0.033020  0.339800  1.0  -0.0318
  N  N1516  1  0.158740  0.003970  0.186880  1.0  -0.0353
  N  N1517  1  0.810640  0.466980  0.660200  1.0  -0.0327
  N  N1518  1  0.658740  0.496030  0.813120  1.0  -0.0359
  N  N1519  1  0.689360  0.533020  0.160200  1.0  -0.0318
  N  N1520  1  0.841260  0.503970  0.313120  1.0  -0.0364
  N  N1521  1  0.839800  0.189360  0.966980  1.0  -0.03
  N  N1522  1  0.686880  0.341260  0.996030  1.0  -0.0365
  N  N1523  1  0.339800  0.310640  0.033020  1.0  -0.0304
  N  N1524  1  0.186880  0.158740  0.003970  1.0  -0.0364
  N  N1525  1  0.660200  0.810640  0.466980  1.0  -0.0304
  N  N1526  1  0.813120  0.658740  0.496030  1.0  -0.0371
  N  N1527  1  0.160200  0.689360  0.533020  1.0  -0.0308
  N  N1528  1  0.313120  0.841260  0.503970  1.0  -0.0371
  N  N1529  1  0.966980  0.839800  0.189360  1.0  -0.0324
  N  N1530  1  0.996030  0.686880  0.341260  1.0  -0.0363
  N  N1531  1  0.033020  0.339800  0.310640  1.0  -0.0329
  N  N1532  1  0.003970  0.186880  0.158740  1.0  -0.0364
  N  N1533  1  0.466980  0.660200  0.810640  1.0  -0.0325
  N  N1534  1  0.496030  0.813120  0.658740  1.0  -0.0362
  N  N1535  1  0.533020  0.160200  0.689360  1.0  -0.0327
  N  N1536  1  0.503970  0.313120  0.841260  1.0  -0.0368
  O  O1537  1  0.795850  0.015840  0.022950  1.0  -0.5914
  O  O1538  1  0.694700  0.981690  0.444390  1.0  -0.5953
  O  O1539  1  0.844130  0.013920  0.029060  1.0  -0.6018
  O  O1540  1  0.646370  0.984580  0.449600  1.0  -0.5947
  O  O1541  1  0.944720  0.009700  0.148930  1.0  -0.6094
  O  O1542  1  0.524640  0.011110  0.347080  1.0  -0.5943
  O  O1543  1  0.943100  0.014460  0.197370  1.0  -0.5973
  O  O1544  1  0.521970  0.017980  0.298920  1.0  -0.5967
  O  O1545  1  0.704150  0.984160  0.522950  1.0  -0.5918
  O  O1546  1  0.805300  0.018310  0.944390  1.0  -0.5942
  O  O1547  1  0.655870  0.986080  0.529060  1.0  -0.6012
  O  O1548  1  0.853630  0.015420  0.949600  1.0  -0.5959
  O  O1549  1  0.555280  0.990300  0.648930  1.0  -0.6098
  O  O1550  1  0.975360  0.988890  0.847080  1.0  -0.5943
  O  O1551  1  0.556900  0.985540  0.697370  1.0  -0.5975
  O  O1552  1  0.978030  0.982020  0.798920  1.0  -0.5954
  O  O1553  1  0.204150  0.515840  0.477050  1.0  -0.5925
  O  O1554  1  0.305300  0.481690  0.055610  1.0  -0.5951
  O  O1555  1  0.155870  0.513920  0.470940  1.0  -0.6015
  O  O1556  1  0.353630  0.484580  0.050400  1.0  -0.5957
  O  O1557  1  0.055280  0.509700  0.351070  1.0  -0.608
  O  O1558  1  0.475360  0.511110  0.152920  1.0  -0.593
  O  O1559  1  0.056900  0.514460  0.302630  1.0  -0.5971
  O  O1560  1  0.478030  0.517980  0.201080  1.0  -0.5967
  O  O1561  1  0.295850  0.484160  0.977050  1.0  -0.5918
  O  O1562  1  0.194700  0.518310  0.555610  1.0  -0.5948
  O  O1563  1  0.344130  0.486080  0.970940  1.0  -0.6023
  O  O1564  1  0.146370  0.515420  0.550400  1.0  -0.5942
  O  O1565  1  0.444720  0.490300  0.851070  1.0  -0.6092
  O  O1566  1  0.024640  0.488890  0.652920  1.0  -0.5926
  O  O1567  1  0.443100  0.485540  0.802630  1.0  -0.5964
  O  O1568  1  0.021970  0.482020  0.701080  1.0  -0.5974
  O  O1569  1  0.022950  0.795850  0.015840  1.0  -0.5935
  O  O1570  1  0.444390  0.694700  0.981690  1.0  -0.5956
  O  O1571  1  0.029060  0.844130  0.013920  1.0  -0.6029
  O  O1572  1  0.449600  0.646370  0.984580  1.0  -0.5975
  O  O1573  1  0.148930  0.944720  0.009700  1.0  -0.6043
  O  O1574  1  0.347080  0.524640  0.011110  1.0  -0.589
  O  O1575  1  0.197370  0.943100  0.014460  1.0  -0.5936
  O  O1576  1  0.298920  0.521970  0.017980  1.0  -0.5927
  O  O1577  1  0.522950  0.704150  0.984160  1.0  -0.5944
  O  O1578  1  0.944390  0.805300  0.018310  1.0  -0.5954
  O  O1579  1  0.529060  0.655870  0.986080  1.0  -0.6029
  O  O1580  1  0.949600  0.853630  0.015420  1.0  -0.5965
  O  O1581  1  0.648930  0.555280  0.990300  1.0  -0.605
  O  O1582  1  0.847080  0.975360  0.988890  1.0  -0.5894
  O  O1583  1  0.697370  0.556900  0.985540  1.0  -0.5932
  O  O1584  1  0.798920  0.978030  0.982020  1.0  -0.592
  O  O1585  1  0.477050  0.204150  0.515840  1.0  -0.5947
  O  O1586  1  0.055610  0.305300  0.481690  1.0  -0.5952
  O  O1587  1  0.470940  0.155870  0.513920  1.0  -0.6026
  O  O1588  1  0.050400  0.353630  0.484580  1.0  -0.5966
  O  O1589  1  0.351070  0.055280  0.509700  1.0  -0.6047
  O  O1590  1  0.152920  0.475360  0.511110  1.0  -0.5885
  O  O1591  1  0.302630  0.056900  0.514460  1.0  -0.592
  O  O1592  1  0.201080  0.478030  0.517980  1.0  -0.5927
  O  O1593  1  0.977050  0.295850  0.484160  1.0  -0.5932
  O  O1594  1  0.555610  0.194700  0.518310  1.0  -0.5953
  O  O1595  1  0.970940  0.344130  0.486080  1.0  -0.6033
  O  O1596  1  0.550400  0.146370  0.515420  1.0  -0.5983
  O  O1597  1  0.851070  0.444720  0.490300  1.0  -0.6044
  O  O1598  1  0.652920  0.024640  0.488890  1.0  -0.5888
  O  O1599  1  0.802630  0.443100  0.485540  1.0  -0.5919
  O  O1600  1  0.701080  0.021970  0.482020  1.0  -0.5941
  O  O1601  1  0.015840  0.022950  0.795850  1.0  -0.5957
  O  O1602  1  0.981690  0.444390  0.694700  1.0  -0.5979
  O  O1603  1  0.013920  0.029060  0.844130  1.0  -0.6057
  O  O1604  1  0.984580  0.449600  0.646370  1.0  -0.5994
  O  O1605  1  0.009700  0.148930  0.944720  1.0  -0.6073
  O  O1606  1  0.011110  0.347080  0.524640  1.0  -0.5897
  O  O1607  1  0.014460  0.197370  0.943100  1.0  -0.5962
  O  O1608  1  0.017980  0.298920  0.521970  1.0  -0.5947
  O  O1609  1  0.984160  0.522950  0.704150  1.0  -0.5951
  O  O1610  1  0.018310  0.944390  0.805300  1.0  -0.5957
  O  O1611  1  0.986080  0.529060  0.655870  1.0  -0.6059
  O  O1612  1  0.015420  0.949600  0.853630  1.0  -0.5992
  O  O1613  1  0.990300  0.648930  0.555280  1.0  -0.608
  O  O1614  1  0.988890  0.847080  0.975360  1.0  -0.5893
  O  O1615  1  0.985540  0.697370  0.556900  1.0  -0.596
  O  O1616  1  0.982020  0.798920  0.978030  1.0  -0.5946
  O  O1617  1  0.515840  0.477050  0.204150  1.0  -0.5949
  O  O1618  1  0.481690  0.055610  0.305300  1.0  -0.5961
  O  O1619  1  0.513920  0.470940  0.155870  1.0  -0.6053
  O  O1620  1  0.484580  0.050400  0.353630  1.0  -0.5995
  O  O1621  1  0.509700  0.351070  0.055280  1.0  -0.6063
  O  O1622  1  0.511110  0.152920  0.475360  1.0  -0.5893
  O  O1623  1  0.514460  0.302630  0.056900  1.0  -0.5946
  O  O1624  1  0.517980  0.201080  0.478030  1.0  -0.5938
  O  O1625  1  0.484160  0.977050  0.295850  1.0  -0.5955
  O  O1626  1  0.518310  0.555610  0.194700  1.0  -0.5984
  O  O1627  1  0.486080  0.970940  0.344130  1.0  -0.605
  O  O1628  1  0.515420  0.550400  0.146370  1.0  -0.5998
  O  O1629  1  0.490300  0.851070  0.444720  1.0  -0.6058
  O  O1630  1  0.488890  0.652920  0.024640  1.0  -0.5894
  O  O1631  1  0.485540  0.802630  0.443100  1.0  -0.5946
  O  O1632  1  0.482020  0.701080  0.021970  1.0  -0.5937
  O  O1633  1  0.204150  0.984160  0.977050  1.0  -0.5925
  O  O1634  1  0.305300  0.018310  0.555610  1.0  -0.5945
  O  O1635  1  0.155870  0.986080  0.970940  1.0  -0.6015
  O  O1636  1  0.353630  0.015420  0.550400  1.0  -0.5957
  O  O1637  1  0.055280  0.990300  0.851070  1.0  -0.609
  O  O1638  1  0.475360  0.988890  0.652920  1.0  -0.5923
  O  O1639  1  0.056900  0.985540  0.802630  1.0  -0.5973
  O  O1640  1  0.478030  0.982020  0.701080  1.0  -0.597
  O  O1641  1  0.295850  0.015840  0.477050  1.0  -0.5919
  O  O1642  1  0.194700  0.981690  0.055610  1.0  -0.5953
  O  O1643  1  0.344130  0.013920  0.470940  1.0  -0.602
  O  O1644  1  0.146370  0.984580  0.050400  1.0  -0.5943
  O  O1645  1  0.444720  0.009700  0.351070  1.0  -0.6097
  O  O1646  1  0.024640  0.011110  0.152920  1.0  -0.5933
  O  O1647  1  0.443100  0.014460  0.302630  1.0  -0.5957
  O  O1648  1  0.021970  0.017980  0.201080  1.0  -0.5974
  O  O1649  1  0.795850  0.484160  0.522950  1.0  -0.5912
  O  O1650  1  0.694700  0.518310  0.944390  1.0  -0.5948
  O  O1651  1  0.844130  0.486080  0.529060  1.0  -0.6019
  O  O1652  1  0.646370  0.515420  0.949600  1.0  -0.5946
  O  O1653  1  0.944720  0.490300  0.648930  1.0  -0.6106
  O  O1654  1  0.524640  0.488890  0.847080  1.0  -0.5941
  O  O1655  1  0.943100  0.485540  0.697370  1.0  -0.5968
  O  O1656  1  0.521970  0.482020  0.798920  1.0  -0.5967
  O  O1657  1  0.704150  0.515840  0.022950  1.0  -0.5918
  O  O1658  1  0.805300  0.481690  0.444390  1.0  -0.595
  O  O1659  1  0.655870  0.513920  0.029060  1.0  -0.601
  O  O1660  1  0.853630  0.484580  0.449600  1.0  -0.5958
  O  O1661  1  0.555280  0.509700  0.148930  1.0  -0.61
  O  O1662  1  0.975360  0.511110  0.347080  1.0  -0.5946
  O  O1663  1  0.556900  0.514460  0.197370  1.0  -0.5975
  O  O1664  1  0.978030  0.517980  0.298920  1.0  -0.5951
  O  O1665  1  0.977050  0.204150  0.984160  1.0  -0.5946
  O  O1666  1  0.555610  0.305300  0.018310  1.0  -0.5952
  O  O1667  1  0.970940  0.155870  0.986080  1.0  -0.6027
  O  O1668  1  0.550400  0.353630  0.015420  1.0  -0.5966
  O  O1669  1  0.851070  0.055280  0.990300  1.0  -0.6053
  O  O1670  1  0.652920  0.475360  0.988890  1.0  -0.5887
  O  O1671  1  0.802630  0.056900  0.985540  1.0  -0.5918
  O  O1672  1  0.701080  0.478030  0.982020  1.0  -0.593
  O  O1673  1  0.477050  0.295850  0.015840  1.0  -0.5932
  O  O1674  1  0.055610  0.194700  0.981690  1.0  -0.5953
  O  O1675  1  0.470940  0.344130  0.013920  1.0  -0.6032
  O  O1676  1  0.050400  0.146370  0.984580  1.0  -0.5983
  O  O1677  1  0.351070  0.444720  0.009700  1.0  -0.6052
  O  O1678  1  0.152920  0.024640  0.011110  1.0  -0.5886
  O  O1679  1  0.302630  0.443100  0.014460  1.0  -0.5915
  O  O1680  1  0.201080  0.021970  0.017980  1.0  -0.5939
  O  O1681  1  0.522950  0.795850  0.484160  1.0  -0.5935
  O  O1682  1  0.944390  0.694700  0.518310  1.0  -0.5955
  O  O1683  1  0.529060  0.844130  0.486080  1.0  -0.603
  O  O1684  1  0.949600  0.646370  0.515420  1.0  -0.5975
  O  O1685  1  0.648930  0.944720  0.490300  1.0  -0.6048
  O  O1686  1  0.847080  0.524640  0.488890  1.0  -0.5894
  O  O1687  1  0.697370  0.943100  0.485540  1.0  -0.5929
  O  O1688  1  0.798920  0.521970  0.482020  1.0  -0.5929
  O  O1689  1  0.022950  0.704150  0.515840  1.0  -0.5945
  O  O1690  1  0.444390  0.805300  0.481690  1.0  -0.5954
  O  O1691  1  0.029060  0.655870  0.513920  1.0  -0.6027
  O  O1692  1  0.449600  0.853630  0.484580  1.0  -0.5964
  O  O1693  1  0.148930  0.555280  0.509700  1.0  -0.6055
  O  O1694  1  0.347080  0.975360  0.511110  1.0  -0.5891
  O  O1695  1  0.197370  0.556900  0.514460  1.0  -0.5931
  O  O1696  1  0.298920  0.978030  0.517980  1.0  -0.5917
  O  O1697  1  0.984160  0.977050  0.204150  1.0  -0.5953
  O  O1698  1  0.018310  0.555610  0.305300  1.0  -0.5964
  O  O1699  1  0.986080  0.970940  0.155870  1.0  -0.6049
  O  O1700  1  0.015420  0.550400  0.353630  1.0  -0.5995
  O  O1701  1  0.990300  0.851070  0.055280  1.0  -0.6067
  O  O1702  1  0.988890  0.652920  0.475360  1.0  -0.589
  O  O1703  1  0.985540  0.802630  0.056900  1.0  -0.5946
  O  O1704  1  0.982020  0.701080  0.478030  1.0  -0.5934
  O  O1705  1  0.015840  0.477050  0.295850  1.0  -0.5955
  O  O1706  1  0.981690  0.055610  0.194700  1.0  -0.5982
  O  O1707  1  0.013920  0.470940  0.344130  1.0  -0.6054
  O  O1708  1  0.984580  0.050400  0.146370  1.0  -0.5999
  O  O1709  1  0.009700  0.351070  0.444720  1.0  -0.6066
  O  O1710  1  0.011110  0.152920  0.024640  1.0  -0.5896
  O  O1711  1  0.014460  0.302630  0.443100  1.0  -0.5941
  O  O1712  1  0.017980  0.201080  0.021970  1.0  -0.594
  O  O1713  1  0.484160  0.522950  0.795850  1.0  -0.596
  O  O1714  1  0.518310  0.944390  0.694700  1.0  -0.5983
  O  O1715  1  0.486080  0.529060  0.844130  1.0  -0.6052
  O  O1716  1  0.515420  0.949600  0.646370  1.0  -0.5993
  O  O1717  1  0.490300  0.648930  0.944720  1.0  -0.6084
  O  O1718  1  0.488890  0.847080  0.524640  1.0  -0.5895
  O  O1719  1  0.485540  0.697370  0.943100  1.0  -0.5956
  O  O1720  1  0.482020  0.798920  0.521970  1.0  -0.5948
  O  O1721  1  0.515840  0.022950  0.704150  1.0  -0.5951
  O  O1722  1  0.481690  0.444390  0.805300  1.0  -0.5958
  O  O1723  1  0.513920  0.029060  0.655870  1.0  -0.606
  O  O1724  1  0.484580  0.449600  0.853630  1.0  -0.5992
  O  O1725  1  0.509700  0.148930  0.555280  1.0  -0.6078
  O  O1726  1  0.511110  0.347080  0.975360  1.0  -0.5892
  O  O1727  1  0.514460  0.197370  0.556900  1.0  -0.596
  O  O1728  1  0.517980  0.298920  0.978030  1.0  -0.5947
