# generated using pymatgen
data_CuH10C20NO4
_symmetry_space_group_name_H-M   'P 1'
_cell_length_a   36.16010000
_cell_length_b   36.16010000
_cell_length_c   36.16010000
_cell_angle_alpha   90.00000000
_cell_angle_beta   90.00000000
_cell_angle_gamma   90.00000000
_symmetry_Int_Tables_number   1
_chemical_formula_structural   CuH10C20NO4
_chemical_formula_sum   'Cu48 H480 C960 N48 O192'
_cell_volume   47281.24116076
_cell_formula_units_Z   48
loop_
 _symmetry_equiv_pos_site_id
 _symmetry_equiv_pos_as_xyz
  1  'x, y, z'
loop_
 _atom_site_type_symbol
 _atom_site_label
 _atom_site_symmetry_multiplicity
 _atom_site_fract_x
 _atom_site_fract_y
 _atom_site_fract_z
 _atom_site_occupancy
 _atom_site_charge
  Cu  Cu1  1  0.086240  0.673450  0.328730  1.0  0.871
  Cu  Cu2  1  0.061460  0.627780  0.374360  1.0  0.83
  Cu  Cu3  1  0.413760  0.326550  0.828730  1.0  0.8698
  Cu  Cu4  1  0.438540  0.372220  0.874360  1.0  0.8335
  Cu  Cu5  1  0.913760  0.173450  0.171270  1.0  0.871
  Cu  Cu6  1  0.938540  0.127780  0.125640  1.0  0.8302
  Cu  Cu7  1  0.586240  0.826550  0.671270  1.0  0.8672
  Cu  Cu8  1  0.561460  0.872220  0.625640  1.0  0.8328
  Cu  Cu9  1  0.328730  0.086240  0.673450  1.0  0.8702
  Cu  Cu10  1  0.374360  0.061460  0.627780  1.0  0.8316
  Cu  Cu11  1  0.828730  0.413760  0.326550  1.0  0.8678
  Cu  Cu12  1  0.874360  0.438540  0.372220  1.0  0.8344
  Cu  Cu13  1  0.171270  0.913760  0.173450  1.0  0.8676
  Cu  Cu14  1  0.125640  0.938540  0.127780  1.0  0.8338
  Cu  Cu15  1  0.671270  0.586240  0.826550  1.0  0.868
  Cu  Cu16  1  0.625640  0.561460  0.872220  1.0  0.8329
  Cu  Cu17  1  0.673450  0.328730  0.086240  1.0  0.8709
  Cu  Cu18  1  0.627780  0.374360  0.061460  1.0  0.8343
  Cu  Cu19  1  0.326550  0.828730  0.413760  1.0  0.8727
  Cu  Cu20  1  0.372220  0.874360  0.438540  1.0  0.8341
  Cu  Cu21  1  0.173450  0.171270  0.913760  1.0  0.8735
  Cu  Cu22  1  0.127780  0.125640  0.938540  1.0  0.8317
  Cu  Cu23  1  0.826550  0.671270  0.586240  1.0  0.8736
  Cu  Cu24  1  0.872220  0.625640  0.561460  1.0  0.83
  Cu  Cu25  1  0.913760  0.326550  0.671270  1.0  0.8684
  Cu  Cu26  1  0.938540  0.372220  0.625640  1.0  0.8323
  Cu  Cu27  1  0.586240  0.673450  0.171270  1.0  0.8697
  Cu  Cu28  1  0.561460  0.627780  0.125640  1.0  0.8306
  Cu  Cu29  1  0.086240  0.826550  0.828730  1.0  0.8681
  Cu  Cu30  1  0.061460  0.872220  0.874360  1.0  0.8329
  Cu  Cu31  1  0.413760  0.173450  0.328730  1.0  0.8728
  Cu  Cu32  1  0.438540  0.127780  0.374360  1.0  0.8303
  Cu  Cu33  1  0.671270  0.913760  0.326550  1.0  0.8651
  Cu  Cu34  1  0.625640  0.938540  0.372220  1.0  0.8335
  Cu  Cu35  1  0.171270  0.586240  0.673450  1.0  0.8698
  Cu  Cu36  1  0.125640  0.561460  0.627780  1.0  0.8322
  Cu  Cu37  1  0.828730  0.086240  0.826550  1.0  0.8709
  Cu  Cu38  1  0.874360  0.061460  0.872220  1.0  0.8328
  Cu  Cu39  1  0.328730  0.413760  0.173450  1.0  0.8681
  Cu  Cu40  1  0.374360  0.438540  0.127780  1.0  0.8335
  Cu  Cu41  1  0.326550  0.671270  0.913760  1.0  0.8756
  Cu  Cu42  1  0.372220  0.625640  0.938540  1.0  0.8308
  Cu  Cu43  1  0.673450  0.171270  0.586240  1.0  0.8725
  Cu  Cu44  1  0.627780  0.125640  0.561460  1.0  0.8309
  Cu  Cu45  1  0.826550  0.828730  0.086240  1.0  0.8719
  Cu  Cu46  1  0.872220  0.874360  0.061460  1.0  0.8341
  Cu  Cu47  1  0.173450  0.328730  0.413760  1.0  0.8705
  Cu  Cu48  1  0.127780  0.374360  0.438540  1.0  0.8341
  H  H49  1  0.136830  0.536070  0.351920  1.0  0.1003
  H  H50  1  0.156800  0.547190  0.215440  1.0  0.0917
  H  H51  1  0.129380  0.599350  0.250100  1.0  0.0945
  H  H52  1  0.154340  0.469550  0.369630  1.0  0.1036
  H  H53  1  0.197150  0.407050  0.254110  1.0  0.093
  H  H54  1  0.193300  0.371860  0.311630  1.0  0.1077
  H  H55  1  0.070630  0.189920  0.019300  1.0  0.0971
  H  H56  1  0.155670  0.294810  0.049550  1.0  0.0914
  H  H57  1  0.173650  0.249050  0.002190  1.0  0.0922
  H  H58  1  0.018440  0.192280  0.065450  1.0  0.1009
  H  H59  1  0.037050  0.305290  0.142970  1.0  0.1014
  H  H60  1  0.984130  0.263910  0.155600  1.0  0.102
  H  H61  1  0.110890  0.294950  0.158170  1.0  0.1058
  H  H62  1  0.137530  0.349170  0.187930  1.0  0.1056
  H  H63  1  0.132780  0.408070  0.083910  1.0  0.1155
  H  H64  1  0.110880  0.480060  0.215700  1.0  0.1048
  H  H65  1  0.093500  0.436010  0.168140  1.0  0.1054
  H  H66  1  0.208420  0.405930  0.154440  1.0  0.1003
  H  H67  1  0.224900  0.448490  0.204320  1.0  0.0978
  H  H68  1  0.104280  0.353410  0.053360  1.0  0.0973
  H  H69  1  0.363170  0.463930  0.851920  1.0  0.1008
  H  H70  1  0.343200  0.452810  0.715440  1.0  0.0919
  H  H71  1  0.370620  0.400650  0.750100  1.0  0.0934
  H  H72  1  0.345660  0.530450  0.869630  1.0  0.1027
  H  H73  1  0.302850  0.592950  0.754110  1.0  0.0938
  H  H74  1  0.306700  0.628140  0.811630  1.0  0.1092
  H  H75  1  0.429370  0.810080  0.519300  1.0  0.0975
  H  H76  1  0.344330  0.705190  0.549550  1.0  0.0922
  H  H77  1  0.326350  0.750950  0.502190  1.0  0.0918
  H  H78  1  0.481560  0.807720  0.565450  1.0  0.1005
  H  H79  1  0.462950  0.694710  0.642970  1.0  0.101
  H  H80  1  0.515870  0.736090  0.655600  1.0  0.1023
  H  H81  1  0.389110  0.705050  0.658170  1.0  0.1065
  H  H82  1  0.362470  0.650830  0.687930  1.0  0.1049
  H  H83  1  0.367220  0.591930  0.583910  1.0  0.1158
  H  H84  1  0.389120  0.519940  0.715700  1.0  0.1034
  H  H85  1  0.406500  0.563990  0.668140  1.0  0.1053
  H  H86  1  0.291580  0.594070  0.654440  1.0  0.1
  H  H87  1  0.275100  0.551510  0.704320  1.0  0.0967
  H  H88  1  0.395720  0.646590  0.553360  1.0  0.0986
  H  H89  1  0.863170  0.036070  0.148080  1.0  0.099
  H  H90  1  0.843200  0.047190  0.284560  1.0  0.0914
  H  H91  1  0.870620  0.099350  0.249900  1.0  0.0929
  H  H92  1  0.845660  0.969550  0.130370  1.0  0.103
  H  H93  1  0.802850  0.907050  0.245890  1.0  0.0945
  H  H94  1  0.806700  0.871860  0.188370  1.0  0.1094
  H  H95  1  0.929370  0.689920  0.480700  1.0  0.0969
  H  H96  1  0.844330  0.794810  0.450450  1.0  0.0917
  H  H97  1  0.826350  0.749050  0.497810  1.0  0.0913
  H  H98  1  0.981560  0.692280  0.434550  1.0  0.1005
  H  H99  1  0.962950  0.805290  0.357030  1.0  0.1015
  H  H100  1  0.015870  0.763910  0.344400  1.0  0.1019
  H  H101  1  0.889110  0.794950  0.341830  1.0  0.1045
  H  H102  1  0.862470  0.849170  0.312070  1.0  0.1021
  H  H103  1  0.867220  0.908070  0.416090  1.0  0.1162
  H  H104  1  0.889120  0.980060  0.284300  1.0  0.104
  H  H105  1  0.906500  0.936010  0.331860  1.0  0.1057
  H  H106  1  0.791580  0.905930  0.345560  1.0  0.1
  H  H107  1  0.775100  0.948490  0.295680  1.0  0.0957
  H  H108  1  0.895720  0.853410  0.446640  1.0  0.098
  H  H109  1  0.636830  0.963930  0.648080  1.0  0.0988
  H  H110  1  0.656800  0.952810  0.784560  1.0  0.0917
  H  H111  1  0.629380  0.900650  0.749900  1.0  0.0933
  H  H112  1  0.654340  0.030450  0.630370  1.0  0.1034
  H  H113  1  0.697150  0.092950  0.745890  1.0  0.095
  H  H114  1  0.693300  0.128140  0.688370  1.0  0.1096
  H  H115  1  0.570630  0.310080  0.980700  1.0  0.0979
  H  H116  1  0.655670  0.205190  0.950450  1.0  0.0917
  H  H117  1  0.673650  0.250950  0.997810  1.0  0.0918
  H  H118  1  0.518440  0.307720  0.934550  1.0  0.1019
  H  H119  1  0.537050  0.194710  0.857030  1.0  0.101
  H  H120  1  0.484130  0.236090  0.844400  1.0  0.1019
  H  H121  1  0.610890  0.205050  0.841830  1.0  0.1054
  H  H122  1  0.637530  0.150830  0.812070  1.0  0.1026
  H  H123  1  0.632780  0.091930  0.916090  1.0  0.1158
  H  H124  1  0.610880  0.019940  0.784300  1.0  0.1048
  H  H125  1  0.593500  0.063990  0.831860  1.0  0.1055
  H  H126  1  0.708420  0.094070  0.845560  1.0  0.1004
  H  H127  1  0.724900  0.051510  0.795680  1.0  0.0974
  H  H128  1  0.604280  0.146590  0.946640  1.0  0.0986
  H  H129  1  0.351920  0.136830  0.536070  1.0  0.1008
  H  H130  1  0.215440  0.156800  0.547190  1.0  0.0933
  H  H131  1  0.250100  0.129380  0.599350  1.0  0.0951
  H  H132  1  0.369630  0.154340  0.469550  1.0  0.1031
  H  H133  1  0.254110  0.197150  0.407050  1.0  0.0931
  H  H134  1  0.311630  0.193300  0.371860  1.0  0.105
  H  H135  1  0.019300  0.070630  0.189920  1.0  0.0987
  H  H136  1  0.049550  0.155670  0.294810  1.0  0.0918
  H  H137  1  0.002190  0.173650  0.249050  1.0  0.0934
  H  H138  1  0.065450  0.018440  0.192280  1.0  0.1005
  H  H139  1  0.142970  0.037050  0.305290  1.0  0.1002
  H  H140  1  0.155600  0.984130  0.263910  1.0  0.1025
  H  H141  1  0.158170  0.110890  0.294950  1.0  0.1048
  H  H142  1  0.187930  0.137530  0.349170  1.0  0.1056
  H  H143  1  0.083910  0.132780  0.408070  1.0  0.1153
  H  H144  1  0.215700  0.110880  0.480060  1.0  0.1054
  H  H145  1  0.168140  0.093500  0.436010  1.0  0.108
  H  H146  1  0.154440  0.208420  0.405930  1.0  0.1037
  H  H147  1  0.204320  0.224900  0.448490  1.0  0.1027
  H  H148  1  0.053360  0.104280  0.353410  1.0  0.1011
  H  H149  1  0.851920  0.363170  0.463930  1.0  0.0998
  H  H150  1  0.715440  0.343200  0.452810  1.0  0.0934
  H  H151  1  0.750100  0.370620  0.400650  1.0  0.0952
  H  H152  1  0.869630  0.345660  0.530450  1.0  0.1028
  H  H153  1  0.754110  0.302850  0.592950  1.0  0.0939
  H  H154  1  0.811630  0.306700  0.628140  1.0  0.1061
  H  H155  1  0.519300  0.429370  0.810080  1.0  0.0975
  H  H156  1  0.549550  0.344330  0.705190  1.0  0.0919
  H  H157  1  0.502190  0.326350  0.750950  1.0  0.0929
  H  H158  1  0.565450  0.481560  0.807720  1.0  0.1006
  H  H159  1  0.642970  0.462950  0.694710  1.0  0.101
  H  H160  1  0.655600  0.515870  0.736090  1.0  0.1025
  H  H161  1  0.658170  0.389110  0.705050  1.0  0.1048
  H  H162  1  0.687930  0.362470  0.650830  1.0  0.1063
  H  H163  1  0.583910  0.367220  0.591930  1.0  0.1151
  H  H164  1  0.715700  0.389120  0.519940  1.0  0.1072
  H  H165  1  0.668140  0.406500  0.563990  1.0  0.1087
  H  H166  1  0.654440  0.291580  0.594070  1.0  0.1027
  H  H167  1  0.704320  0.275100  0.551510  1.0  0.1037
  H  H168  1  0.553360  0.395720  0.646590  1.0  0.1011
  H  H169  1  0.148080  0.863170  0.036070  1.0  0.1011
  H  H170  1  0.284560  0.843200  0.047190  1.0  0.0937
  H  H171  1  0.249900  0.870620  0.099350  1.0  0.0956
  H  H172  1  0.130370  0.845660  0.969550  1.0  0.1038
  H  H173  1  0.245890  0.802850  0.907050  1.0  0.0928
  H  H174  1  0.188370  0.806700  0.871860  1.0  0.105
  H  H175  1  0.480700  0.929370  0.689920  1.0  0.098
  H  H176  1  0.450450  0.844330  0.794810  1.0  0.0928
  H  H177  1  0.497810  0.826350  0.749050  1.0  0.0925
  H  H178  1  0.434550  0.981560  0.692280  1.0  0.0984
  H  H179  1  0.357030  0.962950  0.805290  1.0  0.1012
  H  H180  1  0.344400  0.015870  0.763910  1.0  0.102
  H  H181  1  0.341830  0.889110  0.794950  1.0  0.1049
  H  H182  1  0.312070  0.862470  0.849170  1.0  0.106
  H  H183  1  0.416090  0.867220  0.908070  1.0  0.1155
  H  H184  1  0.284300  0.889120  0.980060  1.0  0.1065
  H  H185  1  0.331860  0.906500  0.936010  1.0  0.1087
  H  H186  1  0.345560  0.791580  0.905930  1.0  0.1022
  H  H187  1  0.295680  0.775100  0.948490  1.0  0.1026
  H  H188  1  0.446640  0.895720  0.853410  1.0  0.1013
  H  H189  1  0.648080  0.636830  0.963930  1.0  0.1009
  H  H190  1  0.784560  0.656800  0.952810  1.0  0.0936
  H  H191  1  0.749900  0.629380  0.900650  1.0  0.0954
  H  H192  1  0.630370  0.654340  0.030450  1.0  0.1039
  H  H193  1  0.745890  0.697150  0.092950  1.0  0.0959
  H  H194  1  0.688370  0.693300  0.128140  1.0  0.1067
  H  H195  1  0.980700  0.570630  0.310080  1.0  0.0976
  H  H196  1  0.950450  0.655670  0.205190  1.0  0.0919
  H  H197  1  0.997810  0.673650  0.250950  1.0  0.0931
  H  H198  1  0.934550  0.518440  0.307720  1.0  0.0996
  H  H199  1  0.857030  0.537050  0.194710  1.0  0.1013
  H  H200  1  0.844400  0.484130  0.236090  1.0  0.1024
  H  H201  1  0.841830  0.610890  0.205050  1.0  0.1057
  H  H202  1  0.812070  0.637530  0.150830  1.0  0.1067
  H  H203  1  0.916090  0.632780  0.091930  1.0  0.1161
  H  H204  1  0.784300  0.610880  0.019940  1.0  0.1051
  H  H205  1  0.831860  0.593500  0.063990  1.0  0.1083
  H  H206  1  0.845560  0.708420  0.094070  1.0  0.1032
  H  H207  1  0.795680  0.724900  0.051510  1.0  0.1024
  H  H208  1  0.946640  0.604280  0.146590  1.0  0.1014
  H  H209  1  0.536070  0.351920  0.136830  1.0  0.1044
  H  H210  1  0.547190  0.215440  0.156800  1.0  0.0942
  H  H211  1  0.599350  0.250100  0.129380  1.0  0.0957
  H  H212  1  0.469550  0.369630  0.154340  1.0  0.1044
  H  H213  1  0.407050  0.254110  0.197150  1.0  0.0947
  H  H214  1  0.371860  0.311630  0.193300  1.0  0.1068
  H  H215  1  0.189920  0.019300  0.070630  1.0  0.0967
  H  H216  1  0.294810  0.049550  0.155670  1.0  0.093
  H  H217  1  0.249050  0.002190  0.173650  1.0  0.093
  H  H218  1  0.192280  0.065450  0.018440  1.0  0.0994
  H  H219  1  0.305290  0.142970  0.037050  1.0  0.102
  H  H220  1  0.263910  0.155600  0.984130  1.0  0.1018
  H  H221  1  0.294950  0.158170  0.110890  1.0  0.106
  H  H222  1  0.349170  0.187930  0.137530  1.0  0.1076
  H  H223  1  0.408070  0.083910  0.132780  1.0  0.116
  H  H224  1  0.480060  0.215700  0.110880  1.0  0.105
  H  H225  1  0.436010  0.168140  0.093500  1.0  0.1035
  H  H226  1  0.405930  0.154440  0.208420  1.0  0.1023
  H  H227  1  0.448490  0.204320  0.224900  1.0  0.0988
  H  H228  1  0.353410  0.053360  0.104280  1.0  0.0997
  H  H229  1  0.463930  0.851920  0.363170  1.0  0.1029
  H  H230  1  0.452810  0.715440  0.343200  1.0  0.0942
  H  H231  1  0.400650  0.750100  0.370620  1.0  0.0947
  H  H232  1  0.530450  0.869630  0.345660  1.0  0.1035
  H  H233  1  0.592950  0.754110  0.302850  1.0  0.0943
  H  H234  1  0.628140  0.811630  0.306700  1.0  0.1078
  H  H235  1  0.810080  0.519300  0.429370  1.0  0.0969
  H  H236  1  0.705190  0.549550  0.344330  1.0  0.0928
  H  H237  1  0.750950  0.502190  0.326350  1.0  0.0925
  H  H238  1  0.807720  0.565450  0.481560  1.0  0.0994
  H  H239  1  0.694710  0.642970  0.462950  1.0  0.1024
  H  H240  1  0.736090  0.655600  0.515870  1.0  0.1012
  H  H241  1  0.705050  0.658170  0.389110  1.0  0.1051
  H  H242  1  0.650830  0.687930  0.362470  1.0  0.1069
  H  H243  1  0.591930  0.583910  0.367220  1.0  0.1167
  H  H244  1  0.519940  0.715700  0.389120  1.0  0.1051
  H  H245  1  0.563990  0.668140  0.406500  1.0  0.1042
  H  H246  1  0.594070  0.654440  0.291580  1.0  0.1017
  H  H247  1  0.551510  0.704320  0.275100  1.0  0.1004
  H  H248  1  0.646590  0.553360  0.395720  1.0  0.1007
  H  H249  1  0.036070  0.148080  0.863170  1.0  0.103
  H  H250  1  0.047190  0.284560  0.843200  1.0  0.0939
  H  H251  1  0.099350  0.249900  0.870620  1.0  0.0958
  H  H252  1  0.969550  0.130370  0.845660  1.0  0.1039
  H  H253  1  0.907050  0.245890  0.802850  1.0  0.094
  H  H254  1  0.871860  0.188370  0.806700  1.0  0.1068
  H  H255  1  0.689920  0.480700  0.929370  1.0  0.096
  H  H256  1  0.794810  0.450450  0.844330  1.0  0.0934
  H  H257  1  0.749050  0.497810  0.826350  1.0  0.0919
  H  H258  1  0.692280  0.434550  0.981560  1.0  0.0996
  H  H259  1  0.805290  0.357030  0.962950  1.0  0.1029
  H  H260  1  0.763910  0.344400  0.015870  1.0  0.1014
  H  H261  1  0.794950  0.341830  0.889110  1.0  0.105
  H  H262  1  0.849170  0.312070  0.862470  1.0  0.1069
  H  H263  1  0.908070  0.416090  0.867220  1.0  0.1181
  H  H264  1  0.980060  0.284300  0.889120  1.0  0.1051
  H  H265  1  0.936010  0.331860  0.906500  1.0  0.1044
  H  H266  1  0.905930  0.345560  0.791580  1.0  0.1023
  H  H267  1  0.948490  0.295680  0.775100  1.0  0.0993
  H  H268  1  0.853410  0.446640  0.895720  1.0  0.1004
  H  H269  1  0.963930  0.648080  0.636830  1.0  0.1024
  H  H270  1  0.952810  0.784560  0.656800  1.0  0.0937
  H  H271  1  0.900650  0.749900  0.629380  1.0  0.0947
  H  H272  1  0.030450  0.630370  0.654340  1.0  0.1044
  H  H273  1  0.092950  0.745890  0.697150  1.0  0.0939
  H  H274  1  0.128140  0.688370  0.693300  1.0  0.1071
  H  H275  1  0.310080  0.980700  0.570630  1.0  0.0971
  H  H276  1  0.205190  0.950450  0.655670  1.0  0.0923
  H  H277  1  0.250950  0.997810  0.673650  1.0  0.0932
  H  H278  1  0.307720  0.934550  0.518440  1.0  0.0994
  H  H279  1  0.194710  0.857030  0.537050  1.0  0.103
  H  H280  1  0.236090  0.844400  0.484130  1.0  0.1005
  H  H281  1  0.205050  0.841830  0.610890  1.0  0.1053
  H  H282  1  0.150830  0.812070  0.637530  1.0  0.1064
  H  H283  1  0.091930  0.916090  0.632780  1.0  0.1174
  H  H284  1  0.019940  0.784300  0.610880  1.0  0.1047
  H  H285  1  0.063990  0.831860  0.593500  1.0  0.103
  H  H286  1  0.094070  0.845560  0.708420  1.0  0.1016
  H  H287  1  0.051510  0.795680  0.724900  1.0  0.0987
  H  H288  1  0.146590  0.946640  0.604280  1.0  0.1008
  H  H289  1  0.863170  0.463930  0.648080  1.0  0.0988
  H  H290  1  0.843200  0.452810  0.784560  1.0  0.0917
  H  H291  1  0.870620  0.400650  0.749900  1.0  0.0929
  H  H292  1  0.845660  0.530450  0.630370  1.0  0.1032
  H  H293  1  0.802850  0.592950  0.745890  1.0  0.0947
  H  H294  1  0.806700  0.628140  0.688370  1.0  0.1104
  H  H295  1  0.929370  0.810080  0.980700  1.0  0.0971
  H  H296  1  0.844330  0.705190  0.950450  1.0  0.0918
  H  H297  1  0.826350  0.750950  0.997810  1.0  0.0913
  H  H298  1  0.981560  0.807720  0.934550  1.0  0.1018
  H  H299  1  0.962950  0.694710  0.857030  1.0  0.0998
  H  H300  1  0.015870  0.736090  0.844400  1.0  0.1025
  H  H301  1  0.889110  0.705050  0.841830  1.0  0.1052
  H  H302  1  0.862470  0.650830  0.812070  1.0  0.1025
  H  H303  1  0.867220  0.591930  0.916090  1.0  0.115
  H  H304  1  0.889120  0.519940  0.784300  1.0  0.1035
  H  H305  1  0.906500  0.563990  0.831860  1.0  0.1049
  H  H306  1  0.791580  0.594070  0.845560  1.0  0.0999
  H  H307  1  0.775100  0.551510  0.795680  1.0  0.0962
  H  H308  1  0.895720  0.646590  0.946640  1.0  0.0969
  H  H309  1  0.636830  0.536070  0.148080  1.0  0.0991
  H  H310  1  0.656800  0.547190  0.284560  1.0  0.0914
  H  H311  1  0.629380  0.599350  0.249900  1.0  0.0933
  H  H312  1  0.654340  0.469550  0.130370  1.0  0.1031
  H  H313  1  0.697150  0.407050  0.245890  1.0  0.094
  H  H314  1  0.693300  0.371860  0.188370  1.0  0.1087
  H  H315  1  0.570630  0.189920  0.480700  1.0  0.0975
  H  H316  1  0.655670  0.294810  0.450450  1.0  0.0915
  H  H317  1  0.673650  0.249050  0.497810  1.0  0.0917
  H  H318  1  0.518440  0.192280  0.434550  1.0  0.1012
  H  H319  1  0.537050  0.305290  0.357030  1.0  0.1016
  H  H320  1  0.484130  0.263910  0.344400  1.0  0.1017
  H  H321  1  0.610890  0.294950  0.341830  1.0  0.1048
  H  H322  1  0.637530  0.349170  0.312070  1.0  0.1026
  H  H323  1  0.632780  0.408070  0.416090  1.0  0.1164
  H  H324  1  0.610880  0.480060  0.284300  1.0  0.1052
  H  H325  1  0.593500  0.436010  0.331860  1.0  0.1056
  H  H326  1  0.708420  0.405930  0.345560  1.0  0.1003
  H  H327  1  0.724900  0.448490  0.295680  1.0  0.0973
  H  H328  1  0.604280  0.353410  0.446640  1.0  0.0989
  H  H329  1  0.136830  0.963930  0.851920  1.0  0.1002
  H  H330  1  0.156800  0.952810  0.715440  1.0  0.0917
  H  H331  1  0.129380  0.900650  0.750100  1.0  0.0941
  H  H332  1  0.154340  0.030450  0.869630  1.0  0.1031
  H  H333  1  0.197150  0.092950  0.754110  1.0  0.0938
  H  H334  1  0.193300  0.128140  0.811630  1.0  0.109
  H  H335  1  0.070630  0.310080  0.519300  1.0  0.0978
  H  H336  1  0.155670  0.205190  0.549550  1.0  0.0918
  H  H337  1  0.173650  0.250950  0.502190  1.0  0.0923
  H  H338  1  0.018440  0.307720  0.565450  1.0  0.1008
  H  H339  1  0.037050  0.194710  0.642970  1.0  0.1022
  H  H340  1  0.984130  0.236090  0.655600  1.0  0.1024
  H  H341  1  0.110890  0.205050  0.658170  1.0  0.1065
  H  H342  1  0.137530  0.150830  0.687930  1.0  0.1054
  H  H343  1  0.132780  0.091930  0.583910  1.0  0.1158
  H  H344  1  0.110880  0.019940  0.715700  1.0  0.1049
  H  H345  1  0.093500  0.063990  0.668140  1.0  0.1052
  H  H346  1  0.208420  0.094070  0.654440  1.0  0.1008
  H  H347  1  0.224900  0.051510  0.704320  1.0  0.0976
  H  H348  1  0.104280  0.146590  0.553360  1.0  0.0985
  H  H349  1  0.363170  0.036070  0.351920  1.0  0.1008
  H  H350  1  0.343200  0.047190  0.215440  1.0  0.0919
  H  H351  1  0.370620  0.099350  0.250100  1.0  0.0942
  H  H352  1  0.345660  0.969550  0.369630  1.0  0.1034
  H  H353  1  0.302850  0.907050  0.254110  1.0  0.0935
  H  H354  1  0.306700  0.871860  0.311630  1.0  0.1077
  H  H355  1  0.429370  0.689920  0.019300  1.0  0.0968
  H  H356  1  0.344330  0.794810  0.049550  1.0  0.092
  H  H357  1  0.326350  0.749050  0.002190  1.0  0.0919
  H  H358  1  0.481560  0.692280  0.065450  1.0  0.1001
  H  H359  1  0.462950  0.805290  0.142970  1.0  0.1015
  H  H360  1  0.515870  0.763910  0.155600  1.0  0.102
  H  H361  1  0.389110  0.794950  0.158170  1.0  0.1058
  H  H362  1  0.362470  0.849170  0.187930  1.0  0.1049
  H  H363  1  0.367220  0.908070  0.083910  1.0  0.1169
  H  H364  1  0.389120  0.980060  0.215700  1.0  0.1036
  H  H365  1  0.406500  0.936010  0.168140  1.0  0.1058
  H  H366  1  0.291580  0.905930  0.154440  1.0  0.0995
  H  H367  1  0.275100  0.948490  0.204320  1.0  0.0966
  H  H368  1  0.395720  0.853410  0.053360  1.0  0.098
  H  H369  1  0.648080  0.863170  0.463930  1.0  0.1008
  H  H370  1  0.784560  0.843200  0.452810  1.0  0.0936
  H  H371  1  0.749900  0.870620  0.400650  1.0  0.0956
  H  H372  1  0.630370  0.845660  0.530450  1.0  0.1037
  H  H373  1  0.745890  0.802850  0.592950  1.0  0.0952
  H  H374  1  0.688370  0.806700  0.628140  1.0  0.1063
  H  H375  1  0.980700  0.929370  0.810080  1.0  0.0978
  H  H376  1  0.950450  0.844330  0.705190  1.0  0.0923
  H  H377  1  0.997810  0.826350  0.750950  1.0  0.0927
  H  H378  1  0.934550  0.981560  0.807720  1.0  0.0994
  H  H379  1  0.857030  0.962950  0.694710  1.0  0.0997
  H  H380  1  0.844400  0.015870  0.736090  1.0  0.1019
  H  H381  1  0.841830  0.889110  0.705050  1.0  0.1055
  H  H382  1  0.812070  0.862470  0.650830  1.0  0.107
  H  H383  1  0.916090  0.867220  0.591930  1.0  0.1156
  H  H384  1  0.784300  0.889120  0.519940  1.0  0.1071
  H  H385  1  0.831860  0.906500  0.563990  1.0  0.1089
  H  H386  1  0.845560  0.791580  0.594070  1.0  0.102
  H  H387  1  0.795680  0.775100  0.551510  1.0  0.1029
  H  H388  1  0.946640  0.895720  0.646590  1.0  0.1008
  H  H389  1  0.148080  0.636830  0.536070  1.0  0.1012
  H  H390  1  0.284560  0.656800  0.547190  1.0  0.0935
  H  H391  1  0.249900  0.629380  0.599350  1.0  0.0956
  H  H392  1  0.130370  0.654340  0.469550  1.0  0.1039
  H  H393  1  0.245890  0.697150  0.407050  1.0  0.0932
  H  H394  1  0.188370  0.693300  0.371860  1.0  0.1052
  H  H395  1  0.480700  0.570630  0.189920  1.0  0.0985
  H  H396  1  0.450450  0.655670  0.294810  1.0  0.0919
  H  H397  1  0.497810  0.673650  0.249050  1.0  0.0931
  H  H398  1  0.434550  0.518440  0.192280  1.0  0.0988
  H  H399  1  0.357030  0.537050  0.305290  1.0  0.1018
  H  H400  1  0.344400  0.484130  0.263910  1.0  0.1021
  H  H401  1  0.341830  0.610890  0.294950  1.0  0.1052
  H  H402  1  0.312070  0.637530  0.349170  1.0  0.1062
  H  H403  1  0.416090  0.632780  0.408070  1.0  0.1153
  H  H404  1  0.284300  0.610880  0.480060  1.0  0.1051
  H  H405  1  0.331860  0.593500  0.436010  1.0  0.1079
  H  H406  1  0.345560  0.708420  0.405930  1.0  0.1034
  H  H407  1  0.295680  0.724900  0.448490  1.0  0.1023
  H  H408  1  0.446640  0.604280  0.353410  1.0  0.102
  H  H409  1  0.851920  0.136830  0.963930  1.0  0.1002
  H  H410  1  0.715440  0.156800  0.952810  1.0  0.0935
  H  H411  1  0.750100  0.129380  0.900650  1.0  0.0952
  H  H412  1  0.869630  0.154340  0.030450  1.0  0.1027
  H  H413  1  0.754110  0.197150  0.092950  1.0  0.0948
  H  H414  1  0.811630  0.193300  0.128140  1.0  0.1061
  H  H415  1  0.519300  0.070630  0.310080  1.0  0.0974
  H  H416  1  0.549550  0.155670  0.205190  1.0  0.0916
  H  H417  1  0.502190  0.173650  0.250950  1.0  0.0934
  H  H418  1  0.565450  0.018440  0.307720  1.0  0.1005
  H  H419  1  0.642970  0.037050  0.194710  1.0  0.1018
  H  H420  1  0.655600  0.984130  0.236090  1.0  0.1024
  H  H421  1  0.658170  0.110890  0.205050  1.0  0.1052
  H  H422  1  0.687930  0.137530  0.150830  1.0  0.1059
  H  H423  1  0.583910  0.132780  0.091930  1.0  0.1149
  H  H424  1  0.715700  0.110880  0.019940  1.0  0.1055
  H  H425  1  0.668140  0.093500  0.063990  1.0  0.1081
  H  H426  1  0.654440  0.208420  0.094070  1.0  0.1036
  H  H427  1  0.704320  0.224900  0.051510  1.0  0.1028
  H  H428  1  0.553360  0.104280  0.146590  1.0  0.1014
  H  H429  1  0.351920  0.363170  0.036070  1.0  0.1004
  H  H430  1  0.215440  0.343200  0.047190  1.0  0.0934
  H  H431  1  0.250100  0.370620  0.099350  1.0  0.0953
  H  H432  1  0.369630  0.345660  0.969550  1.0  0.1031
  H  H433  1  0.254110  0.302850  0.907050  1.0  0.0928
  H  H434  1  0.311630  0.306700  0.871860  1.0  0.1047
  H  H435  1  0.019300  0.429370  0.689920  1.0  0.0979
  H  H436  1  0.049550  0.344330  0.794810  1.0  0.0924
  H  H437  1  0.002190  0.326350  0.749050  1.0  0.0925
  H  H438  1  0.065450  0.481560  0.692280  1.0  0.1003
  H  H439  1  0.142970  0.462950  0.805290  1.0  0.1011
  H  H440  1  0.155600  0.515870  0.763910  1.0  0.103
  H  H441  1  0.158170  0.389110  0.794950  1.0  0.1047
  H  H442  1  0.187930  0.362470  0.849170  1.0  0.1055
  H  H443  1  0.083910  0.367220  0.908070  1.0  0.1159
  H  H444  1  0.215700  0.389120  0.980060  1.0  0.1067
  H  H445  1  0.168140  0.406500  0.936010  1.0  0.1087
  H  H446  1  0.154440  0.291580  0.905930  1.0  0.1024
  H  H447  1  0.204320  0.275100  0.948490  1.0  0.1035
  H  H448  1  0.053360  0.395720  0.853410  1.0  0.1013
  H  H449  1  0.463930  0.648080  0.863170  1.0  0.1021
  H  H450  1  0.452810  0.784560  0.843200  1.0  0.0938
  H  H451  1  0.400650  0.749900  0.870620  1.0  0.0948
  H  H452  1  0.530450  0.630370  0.845660  1.0  0.1044
  H  H453  1  0.592950  0.745890  0.802850  1.0  0.0938
  H  H454  1  0.628140  0.688370  0.806700  1.0  0.1078
  H  H455  1  0.810080  0.980700  0.929370  1.0  0.0961
  H  H456  1  0.705190  0.950450  0.844330  1.0  0.0925
  H  H457  1  0.750950  0.997810  0.826350  1.0  0.0924
  H  H458  1  0.807720  0.934550  0.981560  1.0  0.0991
  H  H459  1  0.694710  0.857030  0.962950  1.0  0.101
  H  H460  1  0.736090  0.844400  0.015870  1.0  0.1011
  H  H461  1  0.705050  0.841830  0.889110  1.0  0.105
  H  H462  1  0.650830  0.812070  0.862470  1.0  0.1064
  H  H463  1  0.591930  0.916090  0.867220  1.0  0.1164
  H  H464  1  0.519940  0.784300  0.889120  1.0  0.1052
  H  H465  1  0.563990  0.831860  0.906500  1.0  0.1041
  H  H466  1  0.594070  0.845560  0.791580  1.0  0.1021
  H  H467  1  0.551510  0.795680  0.775100  1.0  0.0995
  H  H468  1  0.646590  0.946640  0.895720  1.0  0.1012
  H  H469  1  0.536070  0.148080  0.636830  1.0  0.1035
  H  H470  1  0.547190  0.284560  0.656800  1.0  0.0936
  H  H471  1  0.599350  0.249900  0.629380  1.0  0.0958
  H  H472  1  0.469550  0.130370  0.654340  1.0  0.104
  H  H473  1  0.407050  0.245890  0.697150  1.0  0.0945
  H  H474  1  0.371860  0.188370  0.693300  1.0  0.1069
  H  H475  1  0.189920  0.480700  0.570630  1.0  0.0967
  H  H476  1  0.294810  0.450450  0.655670  1.0  0.0933
  H  H477  1  0.249050  0.497810  0.673650  1.0  0.0929
  H  H478  1  0.192280  0.434550  0.518440  1.0  0.0998
  H  H479  1  0.305290  0.357030  0.537050  1.0  0.1033
  H  H480  1  0.263910  0.344400  0.484130  1.0  0.1015
  H  H481  1  0.294950  0.341830  0.610890  1.0  0.1052
  H  H482  1  0.349170  0.312070  0.637530  1.0  0.1072
  H  H483  1  0.408070  0.416090  0.632780  1.0  0.1176
  H  H484  1  0.480060  0.284300  0.610880  1.0  0.1047
  H  H485  1  0.436010  0.331860  0.593500  1.0  0.1039
  H  H486  1  0.405930  0.345560  0.708420  1.0  0.1021
  H  H487  1  0.448490  0.295680  0.724900  1.0  0.0984
  H  H488  1  0.353410  0.446640  0.604280  1.0  0.1008
  H  H489  1  0.963930  0.851920  0.136830  1.0  0.1033
  H  H490  1  0.952810  0.715440  0.156800  1.0  0.0942
  H  H491  1  0.900650  0.750100  0.129380  1.0  0.0949
  H  H492  1  0.030450  0.869630  0.154340  1.0  0.1043
  H  H493  1  0.092950  0.754110  0.197150  1.0  0.0941
  H  H494  1  0.128140  0.811630  0.193300  1.0  0.1071
  H  H495  1  0.310080  0.519300  0.070630  1.0  0.0973
  H  H496  1  0.205190  0.549550  0.155670  1.0  0.0921
  H  H497  1  0.250950  0.502190  0.173650  1.0  0.0933
  H  H498  1  0.307720  0.565450  0.018440  1.0  0.0993
  H  H499  1  0.194710  0.642970  0.037050  1.0  0.1031
  H  H500  1  0.236090  0.655600  0.984130  1.0  0.1008
  H  H501  1  0.205050  0.658170  0.110890  1.0  0.1054
  H  H502  1  0.150830  0.687930  0.137530  1.0  0.1069
  H  H503  1  0.091930  0.583910  0.132780  1.0  0.1167
  H  H504  1  0.019940  0.715700  0.110880  1.0  0.105
  H  H505  1  0.063990  0.668140  0.093500  1.0  0.1026
  H  H506  1  0.094070  0.654440  0.208420  1.0  0.1016
  H  H507  1  0.051510  0.704320  0.224900  1.0  0.0991
  H  H508  1  0.146590  0.553360  0.104280  1.0  0.1003
  H  H509  1  0.036070  0.351920  0.363170  1.0  0.1039
  H  H510  1  0.047190  0.215440  0.343200  1.0  0.0945
  H  H511  1  0.099350  0.250100  0.370620  1.0  0.0957
  H  H512  1  0.969550  0.369630  0.345660  1.0  0.1038
  H  H513  1  0.907050  0.254110  0.302850  1.0  0.0942
  H  H514  1  0.871860  0.311630  0.306700  1.0  0.1067
  H  H515  1  0.689920  0.019300  0.429370  1.0  0.0964
  H  H516  1  0.794810  0.049550  0.344330  1.0  0.0935
  H  H517  1  0.749050  0.002190  0.326350  1.0  0.0919
  H  H518  1  0.692280  0.065450  0.481560  1.0  0.0999
  H  H519  1  0.805290  0.142970  0.462950  1.0  0.1023
  H  H520  1  0.763910  0.155600  0.515870  1.0  0.1018
  H  H521  1  0.794950  0.158170  0.389110  1.0  0.1057
  H  H522  1  0.849170  0.187930  0.362470  1.0  0.1074
  H  H523  1  0.908070  0.083910  0.367220  1.0  0.1177
  H  H524  1  0.980060  0.215700  0.389120  1.0  0.105
  H  H525  1  0.936010  0.168140  0.406500  1.0  0.1047
  H  H526  1  0.905930  0.154440  0.291580  1.0  0.1018
  H  H527  1  0.948490  0.204320  0.275100  1.0  0.1001
  H  H528  1  0.853410  0.053360  0.395720  1.0  0.0998
  C  C529  1  0.110830  0.601530  0.323020  1.0  0.6932
  C  C530  1  0.968680  0.197650  0.122650  1.0  0.6725
  C  C531  1  0.166300  0.394330  0.377450  1.0  0.6646
  C  C532  1  0.133250  0.190880  0.976470  1.0  0.6648
  C  C533  1  0.131440  0.571930  0.303680  1.0  -0.1183
  C  C534  1  0.141950  0.539360  0.322620  1.0  -0.1489
  C  C535  1  0.158470  0.511020  0.302250  1.0  -0.0126
  C  C536  1  0.163290  0.513490  0.264430  1.0  0.2185
  C  C537  1  0.153190  0.545270  0.245090  1.0  -0.1093
  C  C538  1  0.137790  0.574800  0.265050  1.0  -0.0967
  C  C539  1  0.174090  0.417980  0.345190  1.0  -0.0896
  C  C540  1  0.165150  0.456100  0.345180  1.0  -0.1373
  C  C541  1  0.168890  0.475640  0.312020  1.0  -0.003
  C  C542  1  0.179890  0.458560  0.279690  1.0  0.2242
  C  C543  1  0.189140  0.421060  0.279240  1.0  -0.1233
  C  C544  1  0.186900  0.401100  0.312270  1.0  -0.093
  C  C545  1  0.123280  0.216520  0.006480  1.0  -0.0918
  C  C546  1  0.089510  0.212280  0.025580  1.0  -0.1479
  C  C547  1  0.080420  0.238500  0.052210  1.0  0.0647
  C  C548  1  0.103390  0.267730  0.060630  1.0  0.2337
  C  C549  1  0.137360  0.272090  0.042910  1.0  -0.1118
  C  C550  1  0.147280  0.246110  0.015850  1.0  -0.1063
  C  C551  1  0.996770  0.225070  0.111270  1.0  -0.1312
  C  C552  1  0.021150  0.217230  0.081770  1.0  -0.1299
  C  C553  1  0.050540  0.241270  0.075550  1.0  0.064
  C  C554  1  0.056390  0.272340  0.096890  1.0  0.2168
  C  C555  1  0.032320  0.281350  0.125680  1.0  -0.1021
  C  C556  1  0.002260  0.257610  0.132650  1.0  -0.0933
  C  C557  1  0.105440  0.320660  0.104650  1.0  0.1485
  C  C558  1  0.116020  0.319500  0.141840  1.0  -0.161
  C  C559  1  0.131700  0.350470  0.158620  1.0  -0.1437
  C  C560  1  0.137430  0.383250  0.138390  1.0  0.0404
  C  C561  1  0.128250  0.383610  0.100520  1.0  -0.1497
  C  C562  1  0.112080  0.352640  0.083900  1.0  -0.1267
  C  C563  1  0.169210  0.467660  0.213340  1.0  0.1104
  C  C564  1  0.132460  0.465090  0.201340  1.0  -0.0878
  C  C565  1  0.122580  0.439730  0.174030  1.0  -0.1163
  C  C566  1  0.149420  0.416670  0.157850  1.0  0.0287
  C  C567  1  0.186850  0.422450  0.167000  1.0  -0.1119
  C  C568  1  0.196550  0.447380  0.194890  1.0  -0.1178
  C  C569  1  0.389170  0.398470  0.823020  1.0  0.6925
  C  C570  1  0.531320  0.802350  0.622650  1.0  0.6723
  C  C571  1  0.333700  0.605670  0.877450  1.0  0.6636
  C  C572  1  0.366750  0.809120  0.476470  1.0  0.6655
  C  C573  1  0.368560  0.428070  0.803680  1.0  -0.1187
  C  C574  1  0.358050  0.460640  0.822620  1.0  -0.1492
  C  C575  1  0.341530  0.488980  0.802250  1.0  -0.0124
  C  C576  1  0.336710  0.486510  0.764430  1.0  0.2184
  C  C577  1  0.346810  0.454730  0.745090  1.0  -0.1088
  C  C578  1  0.362210  0.425200  0.765050  1.0  -0.0974
  C  C579  1  0.325910  0.582020  0.845190  1.0  -0.0897
  C  C580  1  0.334850  0.543900  0.845180  1.0  -0.136
  C  C581  1  0.331110  0.524360  0.812020  1.0  -0.0027
  C  C582  1  0.320110  0.541440  0.779690  1.0  0.2238
  C  C583  1  0.310860  0.578940  0.779240  1.0  -0.1233
  C  C584  1  0.313100  0.598900  0.812270  1.0  -0.094
  C  C585  1  0.376720  0.783480  0.506480  1.0  -0.0911
  C  C586  1  0.410490  0.787720  0.525580  1.0  -0.148
  C  C587  1  0.419580  0.761500  0.552210  1.0  0.0665
  C  C588  1  0.396610  0.732270  0.560630  1.0  0.2339
  C  C589  1  0.362640  0.727910  0.542910  1.0  -0.1106
  C  C590  1  0.352720  0.753890  0.515850  1.0  -0.1057
  C  C591  1  0.503230  0.774930  0.611270  1.0  -0.1304
  C  C592  1  0.478850  0.782770  0.581770  1.0  -0.1293
  C  C593  1  0.449460  0.758730  0.575550  1.0  0.0654
  C  C594  1  0.443610  0.727660  0.596890  1.0  0.2161
  C  C595  1  0.467680  0.718650  0.625680  1.0  -0.1027
  C  C596  1  0.497740  0.742390  0.632650  1.0  -0.0936
  C  C597  1  0.394560  0.679340  0.604650  1.0  0.1495
  C  C598  1  0.383980  0.680500  0.641840  1.0  -0.1631
  C  C599  1  0.368300  0.649530  0.658620  1.0  -0.1455
  C  C600  1  0.362570  0.616750  0.638390  1.0  0.0408
  C  C601  1  0.371750  0.616390  0.600520  1.0  -0.1511
  C  C602  1  0.387920  0.647360  0.583900  1.0  -0.1283
  C  C603  1  0.330790  0.532340  0.713340  1.0  0.1094
  C  C604  1  0.367540  0.534910  0.701340  1.0  -0.085
  C  C605  1  0.377420  0.560270  0.674030  1.0  -0.1182
  C  C606  1  0.350580  0.583330  0.657850  1.0  0.0282
  C  C607  1  0.313150  0.577550  0.667000  1.0  -0.1128
  C  C608  1  0.303450  0.552620  0.694890  1.0  -0.1195
  C  C609  1  0.889170  0.101530  0.176980  1.0  0.6926
  C  C610  1  0.031320  0.697650  0.377350  1.0  0.6726
  C  C611  1  0.833700  0.894330  0.122550  1.0  0.6635
  C  C612  1  0.866750  0.690880  0.523530  1.0  0.6653
  C  C613  1  0.868560  0.071930  0.196320  1.0  -0.118
  C  C614  1  0.858050  0.039360  0.177380  1.0  -0.1498
  C  C615  1  0.841530  0.011020  0.197750  1.0  -0.013
  C  C616  1  0.836710  0.013490  0.235570  1.0  0.2188
  C  C617  1  0.846810  0.045270  0.254910  1.0  -0.11
  C  C618  1  0.862210  0.074800  0.234950  1.0  -0.0978
  C  C619  1  0.825910  0.917980  0.154810  1.0  -0.0895
  C  C620  1  0.834850  0.956100  0.154820  1.0  -0.1371
  C  C621  1  0.831110  0.975640  0.187980  1.0  -0.0029
  C  C622  1  0.820110  0.958560  0.220310  1.0  0.2244
  C  C623  1  0.810860  0.921060  0.220760  1.0  -0.1226
  C  C624  1  0.813100  0.901100  0.187730  1.0  -0.0931
  C  C625  1  0.876720  0.716520  0.493520  1.0  -0.0918
  C  C626  1  0.910490  0.712280  0.474420  1.0  -0.146
  C  C627  1  0.919580  0.738500  0.447790  1.0  0.0661
  C  C628  1  0.896610  0.767730  0.439370  1.0  0.2335
  C  C629  1  0.862640  0.772090  0.457090  1.0  -0.1117
  C  C630  1  0.852720  0.746110  0.484150  1.0  -0.1061
  C  C631  1  0.003230  0.725070  0.388730  1.0  -0.1302
  C  C632  1  0.978850  0.717230  0.418230  1.0  -0.1291
  C  C633  1  0.949460  0.741270  0.424450  1.0  0.0657
  C  C634  1  0.943610  0.772340  0.403110  1.0  0.217
  C  C635  1  0.967680  0.781350  0.374320  1.0  -0.1026
  C  C636  1  0.997740  0.757610  0.367350  1.0  -0.0933
  C  C637  1  0.894560  0.820660  0.395350  1.0  0.1493
  C  C638  1  0.883980  0.819500  0.358160  1.0  -0.1624
  C  C639  1  0.868300  0.850470  0.341380  1.0  -0.1453
  C  C640  1  0.862570  0.883250  0.361610  1.0  0.0407
  C  C641  1  0.871750  0.883610  0.399480  1.0  -0.1494
  C  C642  1  0.887920  0.852640  0.416100  1.0  -0.1264
  C  C643  1  0.830790  0.967660  0.286660  1.0  0.1098
  C  C644  1  0.867540  0.965090  0.298660  1.0  -0.0851
  C  C645  1  0.877420  0.939730  0.325970  1.0  -0.1179
  C  C646  1  0.850580  0.916670  0.342150  1.0  0.0282
  C  C647  1  0.813150  0.922450  0.333000  1.0  -0.1125
  C  C648  1  0.803450  0.947380  0.305110  1.0  -0.1195
  C  C649  1  0.610830  0.898470  0.676980  1.0  0.6929
  C  C650  1  0.468680  0.302350  0.877350  1.0  0.6722
  C  C651  1  0.666300  0.105670  0.622550  1.0  0.664
  C  C652  1  0.633250  0.309120  0.023530  1.0  0.6647
  C  C653  1  0.631440  0.928070  0.696320  1.0  -0.1181
  C  C654  1  0.641950  0.960640  0.677380  1.0  -0.1496
  C  C655  1  0.658470  0.988980  0.697750  1.0  -0.0137
  C  C656  1  0.663290  0.986510  0.735570  1.0  0.2174
  C  C657  1  0.653190  0.954730  0.754910  1.0  -0.1082
  C  C658  1  0.637790  0.925200  0.734950  1.0  -0.0982
  C  C659  1  0.674090  0.082020  0.654810  1.0  -0.0889
  C  C660  1  0.665150  0.043900  0.654820  1.0  -0.1357
  C  C661  1  0.668890  0.024360  0.687980  1.0  -0.0033
  C  C662  1  0.679890  0.041440  0.720310  1.0  0.2238
  C  C663  1  0.689140  0.078940  0.720760  1.0  -0.1236
  C  C664  1  0.686900  0.098900  0.687730  1.0  -0.0933
  C  C665  1  0.623280  0.283480  0.993520  1.0  -0.0914
  C  C666  1  0.589510  0.287720  0.974420  1.0  -0.1505
  C  C667  1  0.580420  0.261500  0.947790  1.0  0.0664
  C  C668  1  0.603390  0.232270  0.939370  1.0  0.2335
  C  C669  1  0.637360  0.227910  0.957090  1.0  -0.1108
  C  C670  1  0.647280  0.253890  0.984150  1.0  -0.1062
  C  C671  1  0.496770  0.274930  0.888730  1.0  -0.1315
  C  C672  1  0.521150  0.282770  0.918230  1.0  -0.1302
  C  C673  1  0.550540  0.258730  0.924450  1.0  0.0651
  C  C674  1  0.556390  0.227660  0.903110  1.0  0.2165
  C  C675  1  0.532320  0.218650  0.874320  1.0  -0.1037
  C  C676  1  0.502260  0.242390  0.867350  1.0  -0.0942
  C  C677  1  0.605440  0.179340  0.895350  1.0  0.1488
  C  C678  1  0.616020  0.180500  0.858160  1.0  -0.163
  C  C679  1  0.631700  0.149530  0.841380  1.0  -0.146
  C  C680  1  0.637430  0.116750  0.861610  1.0  0.04
  C  C681  1  0.628250  0.116390  0.899480  1.0  -0.1499
  C  C682  1  0.612080  0.147360  0.916100  1.0  -0.1281
  C  C683  1  0.669210  0.032340  0.786660  1.0  0.1088
  C  C684  1  0.632460  0.034910  0.798660  1.0  -0.0877
  C  C685  1  0.622580  0.060270  0.825970  1.0  -0.116
  C  C686  1  0.649420  0.083330  0.842150  1.0  0.028
  C  C687  1  0.686850  0.077550  0.833000  1.0  -0.1117
  C  C688  1  0.696550  0.052620  0.805110  1.0  -0.1187
  C  C689  1  0.323020  0.110830  0.601530  1.0  0.6937
  C  C690  1  0.122650  0.968680  0.197650  1.0  0.6723
  C  C691  1  0.377450  0.166300  0.394330  1.0  0.6635
  C  C692  1  0.976470  0.133250  0.190880  1.0  0.6653
  C  C693  1  0.303680  0.131440  0.571930  1.0  -0.1192
  C  C694  1  0.322620  0.141950  0.539360  1.0  -0.1522
  C  C695  1  0.302250  0.158470  0.511020  1.0  -0.0145
  C  C696  1  0.264430  0.163290  0.513490  1.0  0.2186
  C  C697  1  0.245090  0.153190  0.545270  1.0  -0.1063
  C  C698  1  0.265050  0.137790  0.574800  1.0  -0.0944
  C  C699  1  0.345190  0.174090  0.417980  1.0  -0.0892
  C  C700  1  0.345180  0.165150  0.456100  1.0  -0.1371
  C  C701  1  0.312020  0.168890  0.475640  1.0  -0.0029
  C  C702  1  0.279690  0.179890  0.458560  1.0  0.2235
  C  C703  1  0.279240  0.189140  0.421060  1.0  -0.1233
  C  C704  1  0.312270  0.186900  0.401100  1.0  -0.0867
  C  C705  1  0.006480  0.123280  0.216520  1.0  -0.093
  C  C706  1  0.025580  0.089510  0.212280  1.0  -0.1458
  C  C707  1  0.052210  0.080420  0.238500  1.0  0.0666
  C  C708  1  0.060630  0.103390  0.267730  1.0  0.2345
  C  C709  1  0.042910  0.137360  0.272090  1.0  -0.1103
  C  C710  1  0.015850  0.147280  0.246110  1.0  -0.1064
  C  C711  1  0.111270  0.996770  0.225070  1.0  -0.1319
  C  C712  1  0.081770  0.021150  0.217230  1.0  -0.13
  C  C713  1  0.075550  0.050540  0.241270  1.0  0.0647
  C  C714  1  0.096890  0.056390  0.272340  1.0  0.2183
  C  C715  1  0.125680  0.032320  0.281350  1.0  -0.0986
  C  C716  1  0.132650  0.002260  0.257610  1.0  -0.092
  C  C717  1  0.104650  0.105440  0.320660  1.0  0.1485
  C  C718  1  0.141840  0.116020  0.319500  1.0  -0.1596
  C  C719  1  0.158620  0.131700  0.350470  1.0  -0.1504
  C  C720  1  0.138390  0.137430  0.383250  1.0  0.042
  C  C721  1  0.100520  0.128250  0.383610  1.0  -0.1444
  C  C722  1  0.083900  0.112080  0.352640  1.0  -0.1289
  C  C723  1  0.213340  0.169210  0.467660  1.0  0.1094
  C  C724  1  0.201340  0.132460  0.465090  1.0  -0.0886
  C  C725  1  0.174030  0.122580  0.439730  1.0  -0.1207
  C  C726  1  0.157850  0.149420  0.416670  1.0  0.0272
  C  C727  1  0.167000  0.186850  0.422450  1.0  -0.113
  C  C728  1  0.194890  0.196550  0.447380  1.0  -0.1202
  C  C729  1  0.823020  0.389170  0.398470  1.0  0.6933
  C  C730  1  0.622650  0.531320  0.802350  1.0  0.6721
  C  C731  1  0.877450  0.333700  0.605670  1.0  0.6634
  C  C732  1  0.476470  0.366750  0.809120  1.0  0.6656
  C  C733  1  0.803680  0.368560  0.428070  1.0  -0.1185
  C  C734  1  0.822620  0.358050  0.460640  1.0  -0.152
  C  C735  1  0.802250  0.341530  0.488980  1.0  -0.0138
  C  C736  1  0.764430  0.336710  0.486510  1.0  0.2185
  C  C737  1  0.745090  0.346810  0.454730  1.0  -0.1069
  C  C738  1  0.765050  0.362210  0.425200  1.0  -0.093
  C  C739  1  0.845190  0.325910  0.582020  1.0  -0.0891
  C  C740  1  0.845180  0.334850  0.543900  1.0  -0.1379
  C  C741  1  0.812020  0.331110  0.524360  1.0  -0.0029
  C  C742  1  0.779690  0.320110  0.541440  1.0  0.2238
  C  C743  1  0.779240  0.310860  0.578940  1.0  -0.1216
  C  C744  1  0.812270  0.313100  0.598900  1.0  -0.0879
  C  C745  1  0.506480  0.376720  0.783480  1.0  -0.0935
  C  C746  1  0.525580  0.410490  0.787720  1.0  -0.1476
  C  C747  1  0.552210  0.419580  0.761500  1.0  0.0663
  C  C748  1  0.560630  0.396610  0.732270  1.0  0.2339
  C  C749  1  0.542910  0.362640  0.727910  1.0  -0.109
  C  C750  1  0.515850  0.352720  0.753890  1.0  -0.1076
  C  C751  1  0.611270  0.503230  0.774930  1.0  -0.1314
  C  C752  1  0.581770  0.478850  0.782770  1.0  -0.1305
  C  C753  1  0.575550  0.449460  0.758730  1.0  0.0658
  C  C754  1  0.596890  0.443610  0.727660  1.0  0.2192
  C  C755  1  0.625680  0.467680  0.718650  1.0  -0.1006
  C  C756  1  0.632650  0.497740  0.742390  1.0  -0.0944
  C  C757  1  0.604650  0.394560  0.679340  1.0  0.1485
  C  C758  1  0.641840  0.383980  0.680500  1.0  -0.1583
  C  C759  1  0.658620  0.368300  0.649530  1.0  -0.1489
  C  C760  1  0.638390  0.362570  0.616750  1.0  0.0421
  C  C761  1  0.600520  0.371750  0.616390  1.0  -0.1455
  C  C762  1  0.583900  0.387920  0.647360  1.0  -0.1294
  C  C763  1  0.713340  0.330790  0.532340  1.0  0.1106
  C  C764  1  0.701340  0.367540  0.534910  1.0  -0.0904
  C  C765  1  0.674030  0.377420  0.560270  1.0  -0.1214
  C  C766  1  0.657850  0.350580  0.583330  1.0  0.027
  C  C767  1  0.667000  0.313150  0.577550  1.0  -0.111
  C  C768  1  0.694890  0.303450  0.552620  1.0  -0.1208
  C  C769  1  0.176980  0.889170  0.101530  1.0  0.693
  C  C770  1  0.377350  0.031320  0.697650  1.0  0.6727
  C  C771  1  0.122550  0.833700  0.894330  1.0  0.6629
  C  C772  1  0.523530  0.866750  0.690880  1.0  0.6644
  C  C773  1  0.196320  0.868560  0.071930  1.0  -0.1193
  C  C774  1  0.177380  0.858050  0.039360  1.0  -0.1513
  C  C775  1  0.197750  0.841530  0.011020  1.0  -0.0141
  C  C776  1  0.235570  0.836710  0.013490  1.0  0.2195
  C  C777  1  0.254910  0.846810  0.045270  1.0  -0.1058
  C  C778  1  0.234950  0.862210  0.074800  1.0  -0.0948
  C  C779  1  0.154810  0.825910  0.917980  1.0  -0.0897
  C  C780  1  0.154820  0.834850  0.956100  1.0  -0.1396
  C  C781  1  0.187980  0.831110  0.975640  1.0  -0.0045
  C  C782  1  0.220310  0.820110  0.958560  1.0  0.224
  C  C783  1  0.220760  0.810860  0.921060  1.0  -0.1243
  C  C784  1  0.187730  0.813100  0.901100  1.0  -0.0866
  C  C785  1  0.493520  0.876720  0.716520  1.0  -0.0923
  C  C786  1  0.474420  0.910490  0.712280  1.0  -0.1484
  C  C787  1  0.447790  0.919580  0.738500  1.0  0.0663
  C  C788  1  0.439370  0.896610  0.767730  1.0  0.2346
  C  C789  1  0.457090  0.862640  0.772090  1.0  -0.1104
  C  C790  1  0.484150  0.852720  0.746110  1.0  -0.1073
  C  C791  1  0.388730  0.003230  0.725070  1.0  -0.131
  C  C792  1  0.418230  0.978850  0.717230  1.0  -0.1297
  C  C793  1  0.424450  0.949460  0.741270  1.0  0.0656
  C  C794  1  0.403110  0.943610  0.772340  1.0  0.2194
  C  C795  1  0.374320  0.967680  0.781350  1.0  -0.1019
  C  C796  1  0.367350  0.997740  0.757610  1.0  -0.0945
  C  C797  1  0.395350  0.894560  0.820660  1.0  0.1484
  C  C798  1  0.358160  0.883980  0.819500  1.0  -0.1597
  C  C799  1  0.341380  0.868300  0.850470  1.0  -0.1508
  C  C800  1  0.361610  0.862570  0.883250  1.0  0.0421
  C  C801  1  0.399480  0.871750  0.883610  1.0  -0.1433
  C  C802  1  0.416100  0.887920  0.852640  1.0  -0.1287
  C  C803  1  0.286660  0.830790  0.967660  1.0  0.1095
  C  C804  1  0.298660  0.867540  0.965090  1.0  -0.0921
  C  C805  1  0.325970  0.877420  0.939730  1.0  -0.1236
  C  C806  1  0.342150  0.850580  0.916670  1.0  0.0268
  C  C807  1  0.333000  0.813150  0.922450  1.0  -0.112
  C  C808  1  0.305110  0.803450  0.947380  1.0  -0.1229
  C  C809  1  0.676980  0.610830  0.898470  1.0  0.6928
  C  C810  1  0.877350  0.468680  0.302350  1.0  0.6721
  C  C811  1  0.622550  0.666300  0.105670  1.0  0.6641
  C  C812  1  0.023530  0.633250  0.309120  1.0  0.6647
  C  C813  1  0.696320  0.631440  0.928070  1.0  -0.1186
  C  C814  1  0.677380  0.641950  0.960640  1.0  -0.151
  C  C815  1  0.697750  0.658470  0.988980  1.0  -0.0143
  C  C816  1  0.735570  0.663290  0.986510  1.0  0.2198
  C  C817  1  0.754910  0.653190  0.954730  1.0  -0.1072
  C  C818  1  0.734950  0.637790  0.925200  1.0  -0.095
  C  C819  1  0.654810  0.674090  0.082020  1.0  -0.0893
  C  C820  1  0.654820  0.665150  0.043900  1.0  -0.1392
  C  C821  1  0.687980  0.668890  0.024360  1.0  -0.0047
  C  C822  1  0.720310  0.679890  0.041440  1.0  0.2238
  C  C823  1  0.720760  0.689140  0.078940  1.0  -0.1224
  C  C824  1  0.687730  0.686900  0.098900  1.0  -0.0873
  C  C825  1  0.993520  0.623280  0.283480  1.0  -0.0927
  C  C826  1  0.974420  0.589510  0.287720  1.0  -0.1445
  C  C827  1  0.947790  0.580420  0.261500  1.0  0.0667
  C  C828  1  0.939370  0.603390  0.232270  1.0  0.2349
  C  C829  1  0.957090  0.637360  0.227910  1.0  -0.1103
  C  C830  1  0.984150  0.647280  0.253890  1.0  -0.1064
  C  C831  1  0.888730  0.496770  0.274930  1.0  -0.131
  C  C832  1  0.918230  0.521150  0.282770  1.0  -0.1287
  C  C833  1  0.924450  0.550540  0.258730  1.0  0.0649
  C  C834  1  0.903110  0.556390  0.227660  1.0  0.2173
  C  C835  1  0.874320  0.532320  0.218650  1.0  -0.1012
  C  C836  1  0.867350  0.502260  0.242390  1.0  -0.0946
  C  C837  1  0.895350  0.605440  0.179340  1.0  0.1485
  C  C838  1  0.858160  0.616020  0.180500  1.0  -0.1613
  C  C839  1  0.841380  0.631700  0.149530  1.0  -0.1506
  C  C840  1  0.861610  0.637430  0.116750  1.0  0.0427
  C  C841  1  0.899480  0.628250  0.116390  1.0  -0.1448
  C  C842  1  0.916100  0.612080  0.147360  1.0  -0.1281
  C  C843  1  0.786660  0.669210  0.032340  1.0  0.1104
  C  C844  1  0.798660  0.632460  0.034910  1.0  -0.0888
  C  C845  1  0.825970  0.622580  0.060270  1.0  -0.1222
  C  C846  1  0.842150  0.649420  0.083330  1.0  0.027
  C  C847  1  0.833000  0.686850  0.077550  1.0  -0.1126
  C  C848  1  0.805110  0.696550  0.052620  1.0  -0.1231
  C  C849  1  0.601530  0.323020  0.110830  1.0  0.6918
  C  C850  1  0.197650  0.122650  0.968680  1.0  0.6719
  C  C851  1  0.394330  0.377450  0.166300  1.0  0.6635
  C  C852  1  0.190880  0.976470  0.133250  1.0  0.6655
  C  C853  1  0.571930  0.303680  0.131440  1.0  -0.1186
  C  C854  1  0.539360  0.322620  0.141950  1.0  -0.1525
  C  C855  1  0.511020  0.302250  0.158470  1.0  -0.0131
  C  C856  1  0.513490  0.264430  0.163290  1.0  0.2167
  C  C857  1  0.545270  0.245090  0.153190  1.0  -0.1075
  C  C858  1  0.574800  0.265050  0.137790  1.0  -0.0957
  C  C859  1  0.417980  0.345190  0.174090  1.0  -0.0885
  C  C860  1  0.456100  0.345180  0.165150  1.0  -0.1408
  C  C861  1  0.475640  0.312020  0.168890  1.0  -0.0005
  C  C862  1  0.458560  0.279690  0.179890  1.0  0.224
  C  C863  1  0.421060  0.279240  0.189140  1.0  -0.1202
  C  C864  1  0.401100  0.312270  0.186900  1.0  -0.0898
  C  C865  1  0.216520  0.006480  0.123280  1.0  -0.0922
  C  C866  1  0.212280  0.025580  0.089510  1.0  -0.1467
  C  C867  1  0.238500  0.052210  0.080420  1.0  0.0666
  C  C868  1  0.267730  0.060630  0.103390  1.0  0.2331
  C  C869  1  0.272090  0.042910  0.137360  1.0  -0.1097
  C  C870  1  0.246110  0.015850  0.147280  1.0  -0.108
  C  C871  1  0.225070  0.111270  0.996770  1.0  -0.13
  C  C872  1  0.217230  0.081770  0.021150  1.0  -0.1317
  C  C873  1  0.241270  0.075550  0.050540  1.0  0.0657
  C  C874  1  0.272340  0.096890  0.056390  1.0  0.2172
  C  C875  1  0.281350  0.125680  0.032320  1.0  -0.1011
  C  C876  1  0.257610  0.132650  0.002260  1.0  -0.0933
  C  C877  1  0.320660  0.104650  0.105440  1.0  0.1495
  C  C878  1  0.319500  0.141840  0.116020  1.0  -0.1646
  C  C879  1  0.350470  0.158620  0.131700  1.0  -0.15
  C  C880  1  0.383250  0.138390  0.137430  1.0  0.0421
  C  C881  1  0.383610  0.100520  0.128250  1.0  -0.1512
  C  C882  1  0.352640  0.083900  0.112080  1.0  -0.1296
  C  C883  1  0.467660  0.213340  0.169210  1.0  0.1087
  C  C884  1  0.465090  0.201340  0.132460  1.0  -0.0823
  C  C885  1  0.439730  0.174030  0.122580  1.0  -0.1159
  C  C886  1  0.416670  0.157850  0.149420  1.0  0.0258
  C  C887  1  0.422450  0.167000  0.186850  1.0  -0.1114
  C  C888  1  0.447380  0.194890  0.196550  1.0  -0.1176
  C  C889  1  0.398470  0.823020  0.389170  1.0  0.6924
  C  C890  1  0.802350  0.622650  0.531320  1.0  0.672
  C  C891  1  0.605670  0.877450  0.333700  1.0  0.6638
  C  C892  1  0.809120  0.476470  0.366750  1.0  0.6657
  C  C893  1  0.428070  0.803680  0.368560  1.0  -0.1184
  C  C894  1  0.460640  0.822620  0.358050  1.0  -0.1533
  C  C895  1  0.488980  0.802250  0.341530  1.0  -0.0126
  C  C896  1  0.486510  0.764430  0.336710  1.0  0.2192
  C  C897  1  0.454730  0.745090  0.346810  1.0  -0.1073
  C  C898  1  0.425200  0.765050  0.362210  1.0  -0.0958
  C  C899  1  0.582020  0.845190  0.325910  1.0  -0.0886
  C  C900  1  0.543900  0.845180  0.334850  1.0  -0.1434
  C  C901  1  0.524360  0.812020  0.331110  1.0  -0.0018
  C  C902  1  0.541440  0.779690  0.320110  1.0  0.2244
  C  C903  1  0.578940  0.779240  0.310860  1.0  -0.122
  C  C904  1  0.598900  0.812270  0.313100  1.0  -0.0875
  C  C905  1  0.783480  0.506480  0.376720  1.0  -0.0928
  C  C906  1  0.787720  0.525580  0.410490  1.0  -0.1449
  C  C907  1  0.761500  0.552210  0.419580  1.0  0.0675
  C  C908  1  0.732270  0.560630  0.396610  1.0  0.2327
  C  C909  1  0.727910  0.542910  0.362640  1.0  -0.1099
  C  C910  1  0.753890  0.515850  0.352720  1.0  -0.1071
  C  C911  1  0.774930  0.611270  0.503230  1.0  -0.1316
  C  C912  1  0.782770  0.581770  0.478850  1.0  -0.1309
  C  C913  1  0.758730  0.575550  0.449460  1.0  0.0676
  C  C914  1  0.727660  0.596890  0.443610  1.0  0.2178
  C  C915  1  0.718650  0.625680  0.467680  1.0  -0.1042
  C  C916  1  0.742390  0.632650  0.497740  1.0  -0.0957
  C  C917  1  0.679340  0.604650  0.394560  1.0  0.1487
  C  C918  1  0.680500  0.641840  0.383980  1.0  -0.1637
  C  C919  1  0.649530  0.658620  0.368300  1.0  -0.151
  C  C920  1  0.616750  0.638390  0.362570  1.0  0.0415
  C  C921  1  0.616390  0.600520  0.371750  1.0  -0.1517
  C  C922  1  0.647360  0.583900  0.387920  1.0  -0.1295
  C  C923  1  0.532340  0.713340  0.330790  1.0  0.1089
  C  C924  1  0.534910  0.701340  0.367540  1.0  -0.0841
  C  C925  1  0.560270  0.674030  0.377420  1.0  -0.1162
  C  C926  1  0.583330  0.657850  0.350580  1.0  0.0257
  C  C927  1  0.577550  0.667000  0.313150  1.0  -0.1136
  C  C928  1  0.552620  0.694890  0.303450  1.0  -0.1173
  C  C929  1  0.101530  0.176980  0.889170  1.0  0.6916
  C  C930  1  0.697650  0.377350  0.031320  1.0  0.6723
  C  C931  1  0.894330  0.122550  0.833700  1.0  0.6641
  C  C932  1  0.690880  0.523530  0.866750  1.0  0.6648
  C  C933  1  0.071930  0.196320  0.868560  1.0  -0.1181
  C  C934  1  0.039360  0.177380  0.858050  1.0  -0.1523
  C  C935  1  0.011020  0.197750  0.841530  1.0  -0.0135
  C  C936  1  0.013490  0.235570  0.836710  1.0  0.2179
  C  C937  1  0.045270  0.254910  0.846810  1.0  -0.1096
  C  C938  1  0.074800  0.234950  0.862210  1.0  -0.0957
  C  C939  1  0.917980  0.154810  0.825910  1.0  -0.0885
  C  C940  1  0.956100  0.154820  0.834850  1.0  -0.1402
  C  C941  1  0.975640  0.187980  0.831110  1.0  -0.0033
  C  C942  1  0.958560  0.220310  0.820110  1.0  0.2246
  C  C943  1  0.921060  0.220760  0.810860  1.0  -0.1207
  C  C944  1  0.901100  0.187730  0.813100  1.0  -0.0882
  C  C945  1  0.716520  0.493520  0.876720  1.0  -0.0918
  C  C946  1  0.712280  0.474420  0.910490  1.0  -0.1469
  C  C947  1  0.738500  0.447790  0.919580  1.0  0.067
  C  C948  1  0.767730  0.439370  0.896610  1.0  0.2328
  C  C949  1  0.772090  0.457090  0.862640  1.0  -0.1106
  C  C950  1  0.746110  0.484150  0.852720  1.0  -0.1081
  C  C951  1  0.725070  0.388730  0.003230  1.0  -0.1319
  C  C952  1  0.717230  0.418230  0.978850  1.0  -0.1332
  C  C953  1  0.741270  0.424450  0.949460  1.0  0.0679
  C  C954  1  0.772340  0.403110  0.943610  1.0  0.2177
  C  C955  1  0.781350  0.374320  0.967680  1.0  -0.1022
  C  C956  1  0.757610  0.367350  0.997740  1.0  -0.094
  C  C957  1  0.820660  0.395350  0.894560  1.0  0.1494
  C  C958  1  0.819500  0.358160  0.883980  1.0  -0.1648
  C  C959  1  0.850470  0.341380  0.868300  1.0  -0.1505
  C  C960  1  0.883250  0.361610  0.862570  1.0  0.0417
  C  C961  1  0.883610  0.399480  0.871750  1.0  -0.1504
  C  C962  1  0.852640  0.416100  0.887920  1.0  -0.1295
  C  C963  1  0.967660  0.286660  0.830790  1.0  0.1093
  C  C964  1  0.965090  0.298660  0.867540  1.0  -0.0835
  C  C965  1  0.939730  0.325970  0.877420  1.0  -0.1161
  C  C966  1  0.916670  0.342150  0.850580  1.0  0.0273
  C  C967  1  0.922450  0.333000  0.813150  1.0  -0.1128
  C  C968  1  0.947380  0.305110  0.803450  1.0  -0.1174
  C  C969  1  0.898470  0.676980  0.610830  1.0  0.6921
  C  C970  1  0.302350  0.877350  0.468680  1.0  0.6721
  C  C971  1  0.105670  0.622550  0.666300  1.0  0.6639
  C  C972  1  0.309120  0.023530  0.633250  1.0  0.6654
  C  C973  1  0.928070  0.696320  0.631440  1.0  -0.1184
  C  C974  1  0.960640  0.677380  0.641950  1.0  -0.1535
  C  C975  1  0.988980  0.697750  0.658470  1.0  -0.014
  C  C976  1  0.986510  0.735570  0.663290  1.0  0.2165
  C  C977  1  0.954730  0.754910  0.653190  1.0  -0.1079
  C  C978  1  0.925200  0.734950  0.637790  1.0  -0.0943
  C  C979  1  0.082020  0.654810  0.674090  1.0  -0.0886
  C  C980  1  0.043900  0.654820  0.665150  1.0  -0.1407
  C  C981  1  0.024360  0.687980  0.668890  1.0  -0.0035
  C  C982  1  0.041440  0.720310  0.679890  1.0  0.2246
  C  C983  1  0.078940  0.720760  0.689140  1.0  -0.1208
  C  C984  1  0.098900  0.687730  0.686900  1.0  -0.0883
  C  C985  1  0.283480  0.993520  0.623280  1.0  -0.0924
  C  C986  1  0.287720  0.974420  0.589510  1.0  -0.1452
  C  C987  1  0.261500  0.947790  0.580420  1.0  0.0674
  C  C988  1  0.232270  0.939370  0.603390  1.0  0.2331
  C  C989  1  0.227910  0.957090  0.637360  1.0  -0.1095
  C  C990  1  0.253890  0.984150  0.647280  1.0  -0.1073
  C  C991  1  0.274930  0.888730  0.496770  1.0  -0.1298
  C  C992  1  0.282770  0.918230  0.521150  1.0  -0.1303
  C  C993  1  0.258730  0.924450  0.550540  1.0  0.0665
  C  C994  1  0.227660  0.903110  0.556390  1.0  0.2164
  C  C995  1  0.218650  0.874320  0.532320  1.0  -0.104
  C  C996  1  0.242390  0.867350  0.502260  1.0  -0.0951
  C  C997  1  0.179340  0.895350  0.605440  1.0  0.1491
  C  C998  1  0.180500  0.858160  0.616020  1.0  -0.1661
  C  C999  1  0.149530  0.841380  0.631700  1.0  -0.1512
  C  C1000  1  0.116750  0.861610  0.637430  1.0  0.0416
  C  C1001  1  0.116390  0.899480  0.628250  1.0  -0.1517
  C  C1002  1  0.147360  0.916100  0.612080  1.0  -0.1267
  C  C1003  1  0.032340  0.786660  0.669210  1.0  0.1092
  C  C1004  1  0.034910  0.798660  0.632460  1.0  -0.0819
  C  C1005  1  0.060270  0.825970  0.622580  1.0  -0.1167
  C  C1006  1  0.083330  0.842150  0.649420  1.0  0.0268
  C  C1007  1  0.077550  0.833000  0.686850  1.0  -0.1141
  C  C1008  1  0.052620  0.805110  0.696550  1.0  -0.1166
  C  C1009  1  0.889170  0.398470  0.676980  1.0  0.6924
  C  C1010  1  0.031320  0.802350  0.877350  1.0  0.6724
  C  C1011  1  0.833700  0.605670  0.622550  1.0  0.6632
  C  C1012  1  0.866750  0.809120  0.023530  1.0  0.6653
  C  C1013  1  0.868560  0.428070  0.696320  1.0  -0.1186
  C  C1014  1  0.858050  0.460640  0.677380  1.0  -0.1497
  C  C1015  1  0.841530  0.488980  0.697750  1.0  -0.0142
  C  C1016  1  0.836710  0.486510  0.735570  1.0  0.2182
  C  C1017  1  0.846810  0.454730  0.754910  1.0  -0.1083
  C  C1018  1  0.862210  0.425200  0.734950  1.0  -0.0979
  C  C1019  1  0.825910  0.582020  0.654810  1.0  -0.0892
  C  C1020  1  0.834850  0.543900  0.654820  1.0  -0.1362
  C  C1021  1  0.831110  0.524360  0.687980  1.0  -0.003
  C  C1022  1  0.820110  0.541440  0.720310  1.0  0.2243
  C  C1023  1  0.810860  0.578940  0.720760  1.0  -0.1227
  C  C1024  1  0.813100  0.598900  0.687730  1.0  -0.094
  C  C1025  1  0.876720  0.783480  0.993520  1.0  -0.0913
  C  C1026  1  0.910490  0.787720  0.974420  1.0  -0.1482
  C  C1027  1  0.919580  0.761500  0.947790  1.0  0.0665
  C  C1028  1  0.896610  0.732270  0.939370  1.0  0.2336
  C  C1029  1  0.862640  0.727910  0.957090  1.0  -0.1104
  C  C1030  1  0.852720  0.753890  0.984150  1.0  -0.1059
  C  C1031  1  0.003230  0.774930  0.888730  1.0  -0.1303
  C  C1032  1  0.978850  0.782770  0.918230  1.0  -0.1295
  C  C1033  1  0.949460  0.758730  0.924450  1.0  0.0656
  C  C1034  1  0.943610  0.727660  0.903110  1.0  0.2166
  C  C1035  1  0.967680  0.718650  0.874320  1.0  -0.1007
  C  C1036  1  0.997740  0.742390  0.867350  1.0  -0.0921
  C  C1037  1  0.894560  0.679340  0.895350  1.0  0.1494
  C  C1038  1  0.883980  0.680500  0.858160  1.0  -0.1628
  C  C1039  1  0.868300  0.649530  0.841380  1.0  -0.1467
  C  C1040  1  0.862570  0.616750  0.861610  1.0  0.0406
  C  C1041  1  0.871750  0.616390  0.899480  1.0  -0.15
  C  C1042  1  0.887920  0.647360  0.916100  1.0  -0.1282
  C  C1043  1  0.830790  0.532340  0.786660  1.0  0.109
  C  C1044  1  0.867540  0.534910  0.798660  1.0  -0.0852
  C  C1045  1  0.877420  0.560270  0.825970  1.0  -0.1177
  C  C1046  1  0.850580  0.583330  0.842150  1.0  0.0281
  C  C1047  1  0.813150  0.577550  0.833000  1.0  -0.113
  C  C1048  1  0.803450  0.552620  0.805110  1.0  -0.1194
  C  C1049  1  0.610830  0.601530  0.176980  1.0  0.6931
  C  C1050  1  0.468680  0.197650  0.377350  1.0  0.6724
  C  C1051  1  0.666300  0.394330  0.122550  1.0  0.6641
  C  C1052  1  0.633250  0.190880  0.523530  1.0  0.6647
  C  C1053  1  0.631440  0.571930  0.196320  1.0  -0.1179
  C  C1054  1  0.641950  0.539360  0.177380  1.0  -0.1496
  C  C1055  1  0.658470  0.511020  0.197750  1.0  -0.0127
  C  C1056  1  0.663290  0.513490  0.235570  1.0  0.2183
  C  C1057  1  0.653190  0.545270  0.254910  1.0  -0.1096
  C  C1058  1  0.637790  0.574800  0.234950  1.0  -0.0977
  C  C1059  1  0.674090  0.417980  0.154810  1.0  -0.0888
  C  C1060  1  0.665150  0.456100  0.154820  1.0  -0.1368
  C  C1061  1  0.668890  0.475640  0.187980  1.0  -0.0032
  C  C1062  1  0.679890  0.458560  0.220310  1.0  0.2245
  C  C1063  1  0.689140  0.421060  0.220760  1.0  -0.1231
  C  C1064  1  0.686900  0.401100  0.187730  1.0  -0.0928
  C  C1065  1  0.623280  0.216520  0.493520  1.0  -0.0918
  C  C1066  1  0.589510  0.212280  0.474420  1.0  -0.1475
  C  C1067  1  0.580420  0.238500  0.447790  1.0  0.0657
  C  C1068  1  0.603390  0.267730  0.439370  1.0  0.2334
  C  C1069  1  0.637360  0.272090  0.457090  1.0  -0.1118
  C  C1070  1  0.647280  0.246110  0.484150  1.0  -0.1063
  C  C1071  1  0.496770  0.225070  0.388730  1.0  -0.1312
  C  C1072  1  0.521150  0.217230  0.418230  1.0  -0.1294
  C  C1073  1  0.550540  0.241270  0.424450  1.0  0.0652
  C  C1074  1  0.556390  0.272340  0.403110  1.0  0.2173
  C  C1075  1  0.532320  0.281350  0.374320  1.0  -0.103
  C  C1076  1  0.502260  0.257610  0.367350  1.0  -0.0937
  C  C1077  1  0.605440  0.320660  0.395350  1.0  0.1486
  C  C1078  1  0.616020  0.319500  0.358160  1.0  -0.1625
  C  C1079  1  0.631700  0.350470  0.341380  1.0  -0.1447
  C  C1080  1  0.637430  0.383250  0.361610  1.0  0.0401
  C  C1081  1  0.628250  0.383610  0.399480  1.0  -0.1498
  C  C1082  1  0.612080  0.352640  0.416100  1.0  -0.127
  C  C1083  1  0.669210  0.467660  0.286660  1.0  0.1096
  C  C1084  1  0.632460  0.465090  0.298660  1.0  -0.0871
  C  C1085  1  0.622580  0.439730  0.325970  1.0  -0.1167
  C  C1086  1  0.649420  0.416670  0.342150  1.0  0.0282
  C  C1087  1  0.686850  0.422450  0.333000  1.0  -0.1112
  C  C1088  1  0.696550  0.447380  0.305110  1.0  -0.1182
  C  C1089  1  0.110830  0.898470  0.823020  1.0  0.6929
  C  C1090  1  0.968680  0.302350  0.622650  1.0  0.6721
  C  C1091  1  0.166300  0.105670  0.877450  1.0  0.6644
  C  C1092  1  0.133250  0.309120  0.476470  1.0  0.665
  C  C1093  1  0.131440  0.928070  0.803680  1.0  -0.1184
  C  C1094  1  0.141950  0.960640  0.822620  1.0  -0.1491
  C  C1095  1  0.158470  0.988980  0.802250  1.0  -0.0122
  C  C1096  1  0.163290  0.986510  0.764430  1.0  0.2178
  C  C1097  1  0.153190  0.954730  0.745090  1.0  -0.1089
  C  C1098  1  0.137790  0.925200  0.765050  1.0  -0.0981
  C  C1099  1  0.174090  0.082020  0.845190  1.0  -0.0897
  C  C1100  1  0.165150  0.043900  0.845180  1.0  -0.1366
  C  C1101  1  0.168890  0.024360  0.812020  1.0  -0.0029
  C  C1102  1  0.179890  0.041440  0.779690  1.0  0.2235
  C  C1103  1  0.189140  0.078940  0.779240  1.0  -0.1243
  C  C1104  1  0.186900  0.098900  0.812270  1.0  -0.0931
  C  C1105  1  0.123280  0.283480  0.506480  1.0  -0.0912
  C  C1106  1  0.089510  0.287720  0.525580  1.0  -0.1502
  C  C1107  1  0.080420  0.261500  0.552210  1.0  0.0665
  C  C1108  1  0.103390  0.232270  0.560630  1.0  0.234
  C  C1109  1  0.137360  0.227910  0.542910  1.0  -0.111
  C  C1110  1  0.147280  0.253890  0.515850  1.0  -0.1063
  C  C1111  1  0.996770  0.274930  0.611270  1.0  -0.1314
  C  C1112  1  0.021150  0.282770  0.581770  1.0  -0.1298
  C  C1113  1  0.050540  0.258730  0.575550  1.0  0.065
  C  C1114  1  0.056390  0.227660  0.596890  1.0  0.2162
  C  C1115  1  0.032320  0.218650  0.625680  1.0  -0.1039
  C  C1116  1  0.002260  0.242390  0.632650  1.0  -0.0948
  C  C1117  1  0.105440  0.179340  0.604650  1.0  0.1488
  C  C1118  1  0.116020  0.180500  0.641840  1.0  -0.1621
  C  C1119  1  0.131700  0.149530  0.658620  1.0  -0.1442
  C  C1120  1  0.137430  0.116750  0.638390  1.0  0.0403
  C  C1121  1  0.128250  0.116390  0.600520  1.0  -0.1506
  C  C1122  1  0.112080  0.147360  0.583900  1.0  -0.1276
  C  C1123  1  0.169210  0.032340  0.713340  1.0  0.1092
  C  C1124  1  0.132460  0.034910  0.701340  1.0  -0.0877
  C  C1125  1  0.122580  0.060270  0.674030  1.0  -0.1164
  C  C1126  1  0.149420  0.083330  0.657850  1.0  0.0284
  C  C1127  1  0.186850  0.077550  0.667000  1.0  -0.1121
  C  C1128  1  0.196550  0.052620  0.694890  1.0  -0.1182
  C  C1129  1  0.389170  0.101530  0.323020  1.0  0.6927
  C  C1130  1  0.531320  0.697650  0.122650  1.0  0.6726
  C  C1131  1  0.333700  0.894330  0.377450  1.0  0.6638
  C  C1132  1  0.366750  0.690880  0.976470  1.0  0.6653
  C  C1133  1  0.368560  0.071930  0.303680  1.0  -0.1183
  C  C1134  1  0.358050  0.039360  0.322620  1.0  -0.1489
  C  C1135  1  0.341530  0.011020  0.302250  1.0  -0.0129
  C  C1136  1  0.336710  0.013490  0.264430  1.0  0.2189
  C  C1137  1  0.346810  0.045270  0.245090  1.0  -0.1094
  C  C1138  1  0.362210  0.074800  0.265050  1.0  -0.0965
  C  C1139  1  0.325910  0.917980  0.345190  1.0  -0.0899
  C  C1140  1  0.334850  0.956100  0.345180  1.0  -0.1366
  C  C1141  1  0.331110  0.975640  0.312020  1.0  -0.0029
  C  C1142  1  0.320110  0.958560  0.279690  1.0  0.2238
  C  C1143  1  0.310860  0.921060  0.279240  1.0  -0.123
  C  C1144  1  0.313100  0.901100  0.312270  1.0  -0.0932
  C  C1145  1  0.376720  0.716520  0.006480  1.0  -0.0917
  C  C1146  1  0.410490  0.712280  0.025580  1.0  -0.1464
  C  C1147  1  0.419580  0.738500  0.052210  1.0  0.065
  C  C1148  1  0.396610  0.767730  0.060630  1.0  0.2336
  C  C1149  1  0.362640  0.772090  0.042910  1.0  -0.1118
  C  C1150  1  0.352720  0.746110  0.015850  1.0  -0.1059
  C  C1151  1  0.503230  0.725070  0.111270  1.0  -0.1302
  C  C1152  1  0.478850  0.717230  0.081770  1.0  -0.1295
  C  C1153  1  0.449460  0.741270  0.075550  1.0  0.0649
  C  C1154  1  0.443610  0.772340  0.096890  1.0  0.2165
  C  C1155  1  0.467680  0.781350  0.125680  1.0  -0.103
  C  C1156  1  0.497740  0.757610  0.132650  1.0  -0.0928
  C  C1157  1  0.394560  0.820660  0.104650  1.0  0.1492
  C  C1158  1  0.383980  0.819500  0.141840  1.0  -0.1617
  C  C1159  1  0.368300  0.850470  0.158620  1.0  -0.1449
  C  C1160  1  0.362570  0.883250  0.138390  1.0  0.0409
  C  C1161  1  0.371750  0.883610  0.100520  1.0  -0.1501
  C  C1162  1  0.387920  0.852640  0.083900  1.0  -0.1268
  C  C1163  1  0.330790  0.967660  0.213340  1.0  0.1106
  C  C1164  1  0.367540  0.965090  0.201340  1.0  -0.0852
  C  C1165  1  0.377420  0.939730  0.174030  1.0  -0.1177
  C  C1166  1  0.350580  0.916670  0.157850  1.0  0.0285
  C  C1167  1  0.313150  0.922450  0.167000  1.0  -0.1129
  C  C1168  1  0.303450  0.947380  0.194890  1.0  -0.1196
  C  C1169  1  0.676980  0.889170  0.398470  1.0  0.6928
  C  C1170  1  0.877350  0.031320  0.802350  1.0  0.6726
  C  C1171  1  0.622550  0.833700  0.605670  1.0  0.6635
  C  C1172  1  0.023530  0.866750  0.809120  1.0  0.6647
  C  C1173  1  0.696320  0.868560  0.428070  1.0  -0.1188
  C  C1174  1  0.677380  0.858050  0.460640  1.0  -0.151
  C  C1175  1  0.697750  0.841530  0.488980  1.0  -0.0141
  C  C1176  1  0.735570  0.836710  0.486510  1.0  0.2191
  C  C1177  1  0.754910  0.846810  0.454730  1.0  -0.1077
  C  C1178  1  0.734950  0.862210  0.425200  1.0  -0.0948
  C  C1179  1  0.654810  0.825910  0.582020  1.0  -0.0897
  C  C1180  1  0.654820  0.834850  0.543900  1.0  -0.1395
  C  C1181  1  0.687980  0.831110  0.524360  1.0  -0.0049
  C  C1182  1  0.720310  0.820110  0.541440  1.0  0.2243
  C  C1183  1  0.720760  0.810860  0.578940  1.0  -0.1222
  C  C1184  1  0.687730  0.813100  0.598900  1.0  -0.0877
  C  C1185  1  0.993520  0.876720  0.783480  1.0  -0.0928
  C  C1186  1  0.974420  0.910490  0.787720  1.0  -0.147
  C  C1187  1  0.947790  0.919580  0.761500  1.0  0.0662
  C  C1188  1  0.939370  0.896610  0.732270  1.0  0.2346
  C  C1189  1  0.957090  0.862640  0.727910  1.0  -0.1099
  C  C1190  1  0.984150  0.852720  0.753890  1.0  -0.1075
  C  C1191  1  0.888730  0.003230  0.774930  1.0  -0.1307
  C  C1192  1  0.918230  0.978850  0.782770  1.0  -0.129
  C  C1193  1  0.924450  0.949460  0.758730  1.0  0.0653
  C  C1194  1  0.903110  0.943610  0.727660  1.0  0.2191
  C  C1195  1  0.874320  0.967680  0.718650  1.0  -0.0984
  C  C1196  1  0.867350  0.997740  0.742390  1.0  -0.0922
  C  C1197  1  0.895350  0.894560  0.679340  1.0  0.1483
  C  C1198  1  0.858160  0.883980  0.680500  1.0  -0.1606
  C  C1199  1  0.841380  0.868300  0.649530  1.0  -0.1504
  C  C1200  1  0.861610  0.862570  0.616750  1.0  0.0424
  C  C1201  1  0.899480  0.871750  0.616390  1.0  -0.1455
  C  C1202  1  0.916100  0.887920  0.647360  1.0  -0.1284
  C  C1203  1  0.786660  0.830790  0.532340  1.0  0.1102
  C  C1204  1  0.798660  0.867540  0.534910  1.0  -0.0914
  C  C1205  1  0.825970  0.877420  0.560270  1.0  -0.1229
  C  C1206  1  0.842150  0.850580  0.583330  1.0  0.0267
  C  C1207  1  0.833000  0.813150  0.577550  1.0  -0.1112
  C  C1208  1  0.805110  0.803450  0.552620  1.0  -0.1229
  C  C1209  1  0.176980  0.610830  0.601530  1.0  0.6929
  C  C1210  1  0.377350  0.468680  0.197650  1.0  0.6722
  C  C1211  1  0.122550  0.666300  0.394330  1.0  0.6633
  C  C1212  1  0.523530  0.633250  0.190880  1.0  0.6645
  C  C1213  1  0.196320  0.631440  0.571930  1.0  -0.1193
  C  C1214  1  0.177380  0.641950  0.539360  1.0  -0.1513
  C  C1215  1  0.197750  0.658470  0.511020  1.0  -0.0144
  C  C1216  1  0.235570  0.663290  0.513490  1.0  0.2193
  C  C1217  1  0.254910  0.653190  0.545270  1.0  -0.1055
  C  C1218  1  0.234950  0.637790  0.574800  1.0  -0.0946
  C  C1219  1  0.154810  0.674090  0.417980  1.0  -0.0894
  C  C1220  1  0.154820  0.665150  0.456100  1.0  -0.1395
  C  C1221  1  0.187980  0.668890  0.475640  1.0  -0.0045
  C  C1222  1  0.220310  0.679890  0.458560  1.0  0.2238
  C  C1223  1  0.220760  0.689140  0.421060  1.0  -0.1234
  C  C1224  1  0.187730  0.686900  0.401100  1.0  -0.0868
  C  C1225  1  0.493520  0.623280  0.216520  1.0  -0.0922
  C  C1226  1  0.474420  0.589510  0.212280  1.0  -0.1466
  C  C1227  1  0.447790  0.580420  0.238500  1.0  0.0665
  C  C1228  1  0.439370  0.603390  0.267730  1.0  0.235
  C  C1229  1  0.457090  0.637360  0.272090  1.0  -0.1114
  C  C1230  1  0.484150  0.647280  0.246110  1.0  -0.1066
  C  C1231  1  0.388730  0.496770  0.225070  1.0  -0.1313
  C  C1232  1  0.418230  0.521150  0.217230  1.0  -0.1297
  C  C1233  1  0.424450  0.550540  0.241270  1.0  0.0646
  C  C1234  1  0.403110  0.556390  0.272340  1.0  0.2183
  C  C1235  1  0.374320  0.532320  0.281350  1.0  -0.102
  C  C1236  1  0.367350  0.502260  0.257610  1.0  -0.0941
  C  C1237  1  0.395350  0.605440  0.320660  1.0  0.1485
  C  C1238  1  0.358160  0.616020  0.319500  1.0  -0.1602
  C  C1239  1  0.341380  0.631700  0.350470  1.0  -0.151
  C  C1240  1  0.361610  0.637430  0.383250  1.0  0.0422
  C  C1241  1  0.399480  0.628250  0.383610  1.0  -0.1429
  C  C1242  1  0.416100  0.612080  0.352640  1.0  -0.1283
  C  C1243  1  0.286660  0.669210  0.467660  1.0  0.1093
  C  C1244  1  0.298660  0.632460  0.465090  1.0  -0.0889
  C  C1245  1  0.325970  0.622580  0.439730  1.0  -0.1219
  C  C1246  1  0.342150  0.649420  0.416670  1.0  0.027
  C  C1247  1  0.333000  0.686850  0.422450  1.0  -0.1128
  C  C1248  1  0.305110  0.696550  0.447380  1.0  -0.1227
  C  C1249  1  0.823020  0.110830  0.898470  1.0  0.6934
  C  C1250  1  0.622650  0.968680  0.302350  1.0  0.6718
  C  C1251  1  0.877450  0.166300  0.105670  1.0  0.6642
  C  C1252  1  0.476470  0.133250  0.309120  1.0  0.6658
  C  C1253  1  0.803680  0.131440  0.928070  1.0  -0.1184
  C  C1254  1  0.822620  0.141950  0.960640  1.0  -0.152
  C  C1255  1  0.802250  0.158470  0.988980  1.0  -0.014
  C  C1256  1  0.764430  0.163290  0.986510  1.0  0.2192
  C  C1257  1  0.745090  0.153190  0.954730  1.0  -0.1067
  C  C1258  1  0.765050  0.137790  0.925200  1.0  -0.093
  C  C1259  1  0.845190  0.174090  0.082020  1.0  -0.0892
  C  C1260  1  0.845180  0.165150  0.043900  1.0  -0.1378
  C  C1261  1  0.812020  0.168890  0.024360  1.0  -0.0031
  C  C1262  1  0.779690  0.179890  0.041440  1.0  0.2234
  C  C1263  1  0.779240  0.189140  0.078940  1.0  -0.1228
  C  C1264  1  0.812270  0.186900  0.098900  1.0  -0.0874
  C  C1265  1  0.506480  0.123280  0.283480  1.0  -0.0934
  C  C1266  1  0.525580  0.089510  0.287720  1.0  -0.1444
  C  C1267  1  0.552210  0.080420  0.261500  1.0  0.067
  C  C1268  1  0.560630  0.103390  0.232270  1.0  0.2344
  C  C1269  1  0.542910  0.137360  0.227910  1.0  -0.1094
  C  C1270  1  0.515850  0.147280  0.253890  1.0  -0.1062
  C  C1271  1  0.611270  0.996770  0.274930  1.0  -0.1317
  C  C1272  1  0.581770  0.021150  0.282770  1.0  -0.1301
  C  C1273  1  0.575550  0.050540  0.258730  1.0  0.0653
  C  C1274  1  0.596890  0.056390  0.227660  1.0  0.2173
  C  C1275  1  0.625680  0.032320  0.218650  1.0  -0.1014
  C  C1276  1  0.632650  0.002260  0.242390  1.0  -0.0946
  C  C1277  1  0.604650  0.105440  0.179340  1.0  0.1486
  C  C1278  1  0.641840  0.116020  0.180500  1.0  -0.1592
  C  C1279  1  0.658620  0.131700  0.149530  1.0  -0.1491
  C  C1280  1  0.638390  0.137430  0.116750  1.0  0.0424
  C  C1281  1  0.600520  0.128250  0.116390  1.0  -0.1445
  C  C1282  1  0.583900  0.112080  0.147360  1.0  -0.1288
  C  C1283  1  0.713340  0.169210  0.032340  1.0  0.1109
  C  C1284  1  0.701340  0.132460  0.034910  1.0  -0.0884
  C  C1285  1  0.674030  0.122580  0.060270  1.0  -0.1209
  C  C1286  1  0.657850  0.149420  0.083330  1.0  0.0271
  C  C1287  1  0.667000  0.186850  0.077550  1.0  -0.1132
  C  C1288  1  0.694890  0.196550  0.052620  1.0  -0.1206
  C  C1289  1  0.323020  0.389170  0.101530  1.0  0.6936
  C  C1290  1  0.122650  0.531320  0.697650  1.0  0.6728
  C  C1291  1  0.377450  0.333700  0.894330  1.0  0.6629
  C  C1292  1  0.976470  0.366750  0.690880  1.0  0.6652
  C  C1293  1  0.303680  0.368560  0.071930  1.0  -0.1191
  C  C1294  1  0.322620  0.358050  0.039360  1.0  -0.1522
  C  C1295  1  0.302250  0.341530  0.011020  1.0  -0.0142
  C  C1296  1  0.264430  0.336710  0.013490  1.0  0.2187
  C  C1297  1  0.245090  0.346810  0.045270  1.0  -0.1061
  C  C1298  1  0.265050  0.362210  0.074800  1.0  -0.0947
  C  C1299  1  0.345190  0.325910  0.917980  1.0  -0.0891
  C  C1300  1  0.345180  0.334850  0.956100  1.0  -0.1371
  C  C1301  1  0.312020  0.331110  0.975640  1.0  -0.0027
  C  C1302  1  0.279690  0.320110  0.958560  1.0  0.2238
  C  C1303  1  0.279240  0.310860  0.921060  1.0  -0.1231
  C  C1304  1  0.312270  0.313100  0.901100  1.0  -0.0867
  C  C1305  1  0.006480  0.376720  0.716520  1.0  -0.0931
  C  C1306  1  0.025580  0.410490  0.712280  1.0  -0.1481
  C  C1307  1  0.052210  0.419580  0.738500  1.0  0.0666
  C  C1308  1  0.060630  0.396610  0.767730  1.0  0.234
  C  C1309  1  0.042910  0.362640  0.772090  1.0  -0.1094
  C  C1310  1  0.015850  0.352720  0.746110  1.0  -0.1073
  C  C1311  1  0.111270  0.503230  0.725070  1.0  -0.1317
  C  C1312  1  0.081770  0.478850  0.717230  1.0  -0.1303
  C  C1313  1  0.075550  0.449460  0.741270  1.0  0.0659
  C  C1314  1  0.096890  0.443610  0.772340  1.0  0.2195
  C  C1315  1  0.125680  0.467680  0.781350  1.0  -0.1011
  C  C1316  1  0.132650  0.497740  0.757610  1.0  -0.0939
  C  C1317  1  0.104650  0.394560  0.820660  1.0  0.1484
  C  C1318  1  0.141840  0.383980  0.819500  1.0  -0.1591
  C  C1319  1  0.158620  0.368300  0.850470  1.0  -0.15
  C  C1320  1  0.138390  0.362570  0.883250  1.0  0.0418
  C  C1321  1  0.100520  0.371750  0.883610  1.0  -0.145
  C  C1322  1  0.083900  0.387920  0.852640  1.0  -0.1295
  C  C1323  1  0.213340  0.330790  0.967660  1.0  0.1097
  C  C1324  1  0.201340  0.367540  0.965090  1.0  -0.0913
  C  C1325  1  0.174030  0.377420  0.939730  1.0  -0.1224
  C  C1326  1  0.157850  0.350580  0.916670  1.0  0.0271
  C  C1327  1  0.167000  0.313150  0.922450  1.0  -0.1118
  C  C1328  1  0.194890  0.303450  0.947380  1.0  -0.1208
  C  C1329  1  0.398470  0.676980  0.889170  1.0  0.6924
  C  C1330  1  0.802350  0.877350  0.031320  1.0  0.6722
  C  C1331  1  0.605670  0.622550  0.833700  1.0  0.6642
  C  C1332  1  0.809120  0.023530  0.866750  1.0  0.6652
  C  C1333  1  0.428070  0.696320  0.868560  1.0  -0.1183
  C  C1334  1  0.460640  0.677380  0.858050  1.0  -0.1529
  C  C1335  1  0.488980  0.697750  0.841530  1.0  -0.0136
  C  C1336  1  0.486510  0.735570  0.836710  1.0  0.2186
  C  C1337  1  0.454730  0.754910  0.846810  1.0  -0.1081
  C  C1338  1  0.425200  0.734950  0.862210  1.0  -0.0952
  C  C1339  1  0.582020  0.654810  0.825910  1.0  -0.0887
  C  C1340  1  0.543900  0.654820  0.834850  1.0  -0.1407
  C  C1341  1  0.524360  0.687980  0.831110  1.0  -0.004
  C  C1342  1  0.541440  0.720310  0.820110  1.0  0.2246
  C  C1343  1  0.578940  0.720760  0.810860  1.0  -0.1218
  C  C1344  1  0.598900  0.687730  0.813100  1.0  -0.0878
  C  C1345  1  0.783480  0.993520  0.876720  1.0  -0.0923
  C  C1346  1  0.787720  0.974420  0.910490  1.0  -0.1446
  C  C1347  1  0.761500  0.947790  0.919580  1.0  0.0672
  C  C1348  1  0.732270  0.939370  0.896610  1.0  0.2327
  C  C1349  1  0.727910  0.957090  0.862640  1.0  -0.1101
  C  C1350  1  0.753890  0.984150  0.852720  1.0  -0.1075
  C  C1351  1  0.774930  0.888730  0.003230  1.0  -0.1317
  C  C1352  1  0.782770  0.918230  0.978850  1.0  -0.1308
  C  C1353  1  0.758730  0.924450  0.949460  1.0  0.0675
  C  C1354  1  0.727660  0.903110  0.943610  1.0  0.2177
  C  C1355  1  0.718650  0.874320  0.967680  1.0  -0.1018
  C  C1356  1  0.742390  0.867350  0.997740  1.0  -0.0928
  C  C1357  1  0.679340  0.895350  0.894560  1.0  0.1489
  C  C1358  1  0.680500  0.858160  0.883980  1.0  -0.1656
  C  C1359  1  0.649530  0.841380  0.868300  1.0  -0.1514
  C  C1360  1  0.616750  0.861610  0.862570  1.0  0.0415
  C  C1361  1  0.616390  0.899480  0.871750  1.0  -0.1519
  C  C1362  1  0.647360  0.916100  0.887920  1.0  -0.1286
  C  C1363  1  0.532340  0.786660  0.830790  1.0  0.1092
  C  C1364  1  0.534910  0.798660  0.867540  1.0  -0.0842
  C  C1365  1  0.560270  0.825970  0.877420  1.0  -0.1166
  C  C1366  1  0.583330  0.842150  0.850580  1.0  0.0269
  C  C1367  1  0.577550  0.833000  0.813150  1.0  -0.1141
  C  C1368  1  0.552620  0.805110  0.803450  1.0  -0.1171
  C  C1369  1  0.601530  0.176980  0.610830  1.0  0.6916
  C  C1370  1  0.197650  0.377350  0.468680  1.0  0.6721
  C  C1371  1  0.394330  0.122550  0.666300  1.0  0.6637
  C  C1372  1  0.190880  0.523530  0.633250  1.0  0.665
  C  C1373  1  0.571930  0.196320  0.631440  1.0  -0.1183
  C  C1374  1  0.539360  0.177380  0.641950  1.0  -0.1527
  C  C1375  1  0.511020  0.197750  0.658470  1.0  -0.014
  C  C1376  1  0.513490  0.235570  0.663290  1.0  0.2162
  C  C1377  1  0.545270  0.254910  0.653190  1.0  -0.1092
  C  C1378  1  0.574800  0.234950  0.637790  1.0  -0.0951
  C  C1379  1  0.417980  0.154810  0.674090  1.0  -0.0884
  C  C1380  1  0.456100  0.154820  0.665150  1.0  -0.1403
  C  C1381  1  0.475640  0.187980  0.668890  1.0  -0.0029
  C  C1382  1  0.458560  0.220310  0.679890  1.0  0.2245
  C  C1383  1  0.421060  0.220760  0.689140  1.0  -0.1203
  C  C1384  1  0.401100  0.187730  0.686900  1.0  -0.09
  C  C1385  1  0.216520  0.493520  0.623280  1.0  -0.0918
  C  C1386  1  0.212280  0.474420  0.589510  1.0  -0.1467
  C  C1387  1  0.238500  0.447790  0.580420  1.0  0.067
  C  C1388  1  0.267730  0.439370  0.603390  1.0  0.2329
  C  C1389  1  0.272090  0.457090  0.637360  1.0  -0.1094
  C  C1390  1  0.246110  0.484150  0.647280  1.0  -0.108
  C  C1391  1  0.225070  0.388730  0.496770  1.0  -0.13
  C  C1392  1  0.217230  0.418230  0.521150  1.0  -0.132
  C  C1393  1  0.241270  0.424450  0.550540  1.0  0.0669
  C  C1394  1  0.272340  0.403110  0.556390  1.0  0.2169
  C  C1395  1  0.281350  0.374320  0.532320  1.0  -0.1027
  C  C1396  1  0.257610  0.367350  0.502260  1.0  -0.0952
  C  C1397  1  0.320660  0.395350  0.605440  1.0  0.1496
  C  C1398  1  0.319500  0.358160  0.616020  1.0  -0.1653
  C  C1399  1  0.350470  0.341380  0.631700  1.0  -0.15
  C  C1400  1  0.383250  0.361610  0.637430  1.0  0.042
  C  C1401  1  0.383610  0.399480  0.628250  1.0  -0.1511
  C  C1402  1  0.352640  0.416100  0.612080  1.0  -0.1279
  C  C1403  1  0.467660  0.286660  0.669210  1.0  0.1092
  C  C1404  1  0.465090  0.298660  0.632460  1.0  -0.0826
  C  C1405  1  0.439730  0.325970  0.622580  1.0  -0.1165
  C  C1406  1  0.416670  0.342150  0.649420  1.0  0.0272
  C  C1407  1  0.422450  0.333000  0.686850  1.0  -0.1138
  C  C1408  1  0.447380  0.305110  0.696550  1.0  -0.1175
  C  C1409  1  0.898470  0.823020  0.110830  1.0  0.6924
  C  C1410  1  0.302350  0.622650  0.968680  1.0  0.6718
  C  C1411  1  0.105670  0.877450  0.166300  1.0  0.6636
  C  C1412  1  0.309120  0.476470  0.133250  1.0  0.6658
  C  C1413  1  0.928070  0.803680  0.131440  1.0  -0.1185
  C  C1414  1  0.960640  0.822620  0.141950  1.0  -0.1532
  C  C1415  1  0.988980  0.802250  0.158470  1.0  -0.013
  C  C1416  1  0.986510  0.764430  0.163290  1.0  0.2175
  C  C1417  1  0.954730  0.745090  0.153190  1.0  -0.1066
  C  C1418  1  0.925200  0.765050  0.137790  1.0  -0.0952
  C  C1419  1  0.082020  0.845190  0.174090  1.0  -0.0886
  C  C1420  1  0.043900  0.845180  0.165150  1.0  -0.1425
  C  C1421  1  0.024360  0.812020  0.168890  1.0  -0.0013
  C  C1422  1  0.041440  0.779690  0.179890  1.0  0.224
  C  C1423  1  0.078940  0.779240  0.189140  1.0  -0.1209
  C  C1424  1  0.098900  0.812270  0.186900  1.0  -0.0882
  C  C1425  1  0.283480  0.506480  0.123280  1.0  -0.0927
  C  C1426  1  0.287720  0.525580  0.089510  1.0  -0.1454
  C  C1427  1  0.261500  0.552210  0.080420  1.0  0.0674
  C  C1428  1  0.232270  0.560630  0.103390  1.0  0.2332
  C  C1429  1  0.227910  0.542910  0.137360  1.0  -0.1096
  C  C1430  1  0.253890  0.515850  0.147280  1.0  -0.1074
  C  C1431  1  0.274930  0.611270  0.996770  1.0  -0.1299
  C  C1432  1  0.282770  0.581770  0.021150  1.0  -0.131
  C  C1433  1  0.258730  0.575550  0.050540  1.0  0.0658
  C  C1434  1  0.227660  0.596890  0.056390  1.0  0.2168
  C  C1435  1  0.218650  0.625680  0.032320  1.0  -0.1037
  C  C1436  1  0.242390  0.632650  0.002260  1.0  -0.0955
  C  C1437  1  0.179340  0.604650  0.105440  1.0  0.1489
  C  C1438  1  0.180500  0.641840  0.116020  1.0  -0.1641
  C  C1439  1  0.149530  0.658620  0.131700  1.0  -0.1509
  C  C1440  1  0.116750  0.638390  0.137430  1.0  0.0417
  C  C1441  1  0.116390  0.600520  0.128250  1.0  -0.152
  C  C1442  1  0.147360  0.583900  0.112080  1.0  -0.129
  C  C1443  1  0.032340  0.713340  0.169210  1.0  0.1089
  C  C1444  1  0.034910  0.701340  0.132460  1.0  -0.0817
  C  C1445  1  0.060270  0.674030  0.122580  1.0  -0.1162
  C  C1446  1  0.083330  0.657850  0.149420  1.0  0.0253
  C  C1447  1  0.077550  0.667000  0.186850  1.0  -0.1124
  C  C1448  1  0.052620  0.694890  0.196550  1.0  -0.1167
  C  C1449  1  0.101530  0.323020  0.389170  1.0  0.6915
  C  C1450  1  0.697650  0.122650  0.531320  1.0  0.6722
  C  C1451  1  0.894330  0.377450  0.333700  1.0  0.664
  C  C1452  1  0.690880  0.976470  0.366750  1.0  0.6653
  C  C1453  1  0.071930  0.303680  0.368560  1.0  -0.1185
  C  C1454  1  0.039360  0.322620  0.358050  1.0  -0.1525
  C  C1455  1  0.011020  0.302250  0.341530  1.0  -0.0126
  C  C1456  1  0.013490  0.264430  0.336710  1.0  0.2185
  C  C1457  1  0.045270  0.245090  0.346810  1.0  -0.1082
  C  C1458  1  0.074800  0.265050  0.362210  1.0  -0.0961
  C  C1459  1  0.917980  0.345190  0.325910  1.0  -0.0884
  C  C1460  1  0.956100  0.345180  0.334850  1.0  -0.1413
  C  C1461  1  0.975640  0.312020  0.331110  1.0  -0.001
  C  C1462  1  0.958560  0.279690  0.320110  1.0  0.2245
  C  C1463  1  0.921060  0.279240  0.310860  1.0  -0.1208
  C  C1464  1  0.901100  0.312270  0.313100  1.0  -0.0878
  C  C1465  1  0.716520  0.006480  0.376720  1.0  -0.0924
  C  C1466  1  0.712280  0.025580  0.410490  1.0  -0.147
  C  C1467  1  0.738500  0.052210  0.419580  1.0  0.0669
  C  C1468  1  0.767730  0.060630  0.396610  1.0  0.2328
  C  C1469  1  0.772090  0.042910  0.362640  1.0  -0.1104
  C  C1470  1  0.746110  0.015850  0.352720  1.0  -0.1075
  C  C1471  1  0.725070  0.111270  0.503230  1.0  -0.1317
  C  C1472  1  0.717230  0.081770  0.478850  1.0  -0.1322
  C  C1473  1  0.741270  0.075550  0.449460  1.0  0.0676
  C  C1474  1  0.772340  0.096890  0.443610  1.0  0.2177
  C  C1475  1  0.781350  0.125680  0.467680  1.0  -0.1026
  C  C1476  1  0.757610  0.132650  0.497740  1.0  -0.0948
  C  C1477  1  0.820660  0.104650  0.394560  1.0  0.1492
  C  C1478  1  0.819500  0.141840  0.383980  1.0  -0.1645
  C  C1479  1  0.850470  0.158620  0.368300  1.0  -0.1502
  C  C1480  1  0.883250  0.138390  0.362570  1.0  0.0417
  C  C1481  1  0.883610  0.100520  0.371750  1.0  -0.1502
  C  C1482  1  0.852640  0.083900  0.387920  1.0  -0.1299
  C  C1483  1  0.967660  0.213340  0.330790  1.0  0.1088
  C  C1484  1  0.965090  0.201340  0.367540  1.0  -0.0834
  C  C1485  1  0.939730  0.174030  0.377420  1.0  -0.1158
  C  C1486  1  0.916670  0.157850  0.350580  1.0  0.0261
  C  C1487  1  0.922450  0.167000  0.313150  1.0  -0.1123
  C  C1488  1  0.947380  0.194890  0.303450  1.0  -0.1175
  N  N1489  1  0.176050  0.481270  0.250060  1.0  -0.0903
  N  N1490  1  0.088790  0.288960  0.087790  1.0  -0.0581
  N  N1491  1  0.323950  0.518730  0.750060  1.0  -0.0914
  N  N1492  1  0.411210  0.711040  0.587790  1.0  -0.0577
  N  N1493  1  0.823950  0.981270  0.249940  1.0  -0.0904
  N  N1494  1  0.911210  0.788960  0.412210  1.0  -0.0574
  N  N1495  1  0.676050  0.018730  0.749940  1.0  -0.0896
  N  N1496  1  0.588790  0.211040  0.912210  1.0  -0.0582
  N  N1497  1  0.250060  0.176050  0.481270  1.0  -0.0888
  N  N1498  1  0.087790  0.088790  0.288960  1.0  -0.0565
  N  N1499  1  0.750060  0.323950  0.518730  1.0  -0.0889
  N  N1500  1  0.587790  0.411210  0.711040  1.0  -0.0564
  N  N1501  1  0.249940  0.823950  0.981270  1.0  -0.0892
  N  N1502  1  0.412210  0.911210  0.788960  1.0  -0.0569
  N  N1503  1  0.749940  0.676050  0.018730  1.0  -0.0875
  N  N1504  1  0.912210  0.588790  0.211040  1.0  -0.057
  N  N1505  1  0.481270  0.250060  0.176050  1.0  -0.0868
  N  N1506  1  0.288960  0.087790  0.088790  1.0  -0.057
  N  N1507  1  0.518730  0.750060  0.323950  1.0  -0.0873
  N  N1508  1  0.711040  0.587790  0.411210  1.0  -0.0577
  N  N1509  1  0.981270  0.249940  0.823950  1.0  -0.0863
  N  N1510  1  0.788960  0.412210  0.911210  1.0  -0.0572
  N  N1511  1  0.018730  0.749940  0.676050  1.0  -0.0871
  N  N1512  1  0.211040  0.912210  0.588790  1.0  -0.057
  N  N1513  1  0.823950  0.518730  0.749940  1.0  -0.0909
  N  N1514  1  0.911210  0.711040  0.912210  1.0  -0.0576
  N  N1515  1  0.676050  0.481270  0.249940  1.0  -0.0894
  N  N1516  1  0.588790  0.288960  0.412210  1.0  -0.058
  N  N1517  1  0.176050  0.018730  0.750060  1.0  -0.0903
  N  N1518  1  0.088790  0.211040  0.587790  1.0  -0.0583
  N  N1519  1  0.323950  0.981270  0.250060  1.0  -0.0911
  N  N1520  1  0.411210  0.788960  0.087790  1.0  -0.0575
  N  N1521  1  0.749940  0.823950  0.518730  1.0  -0.0885
  N  N1522  1  0.912210  0.911210  0.711040  1.0  -0.0568
  N  N1523  1  0.249940  0.676050  0.481270  1.0  -0.0891
  N  N1524  1  0.412210  0.588790  0.288960  1.0  -0.057
  N  N1525  1  0.750060  0.176050  0.018730  1.0  -0.0877
  N  N1526  1  0.587790  0.088790  0.211040  1.0  -0.0566
  N  N1527  1  0.250060  0.323950  0.981270  1.0  -0.0892
  N  N1528  1  0.087790  0.411210  0.788960  1.0  -0.0564
  N  N1529  1  0.518730  0.749940  0.823950  1.0  -0.0869
  N  N1530  1  0.711040  0.912210  0.911210  1.0  -0.0575
  N  N1531  1  0.481270  0.249940  0.676050  1.0  -0.0867
  N  N1532  1  0.288960  0.412210  0.588790  1.0  -0.0568
  N  N1533  1  0.018730  0.750060  0.176050  1.0  -0.0871
  N  N1534  1  0.211040  0.587790  0.088790  1.0  -0.0573
  N  N1535  1  0.981270  0.250060  0.323950  1.0  -0.0866
  N  N1536  1  0.788960  0.087790  0.411210  1.0  -0.0574
  O  O1537  1  0.110190  0.634010  0.309520  1.0  -0.5944
  O  O1538  1  0.092800  0.594290  0.352350  1.0  -0.6056
  O  O1539  1  0.944880  0.206130  0.147110  1.0  -0.5902
  O  O1540  1  0.969540  0.165100  0.109440  1.0  -0.5947
  O  O1541  1  0.180580  0.362180  0.379080  1.0  -0.5835
  O  O1542  1  0.143990  0.405120  0.402300  1.0  -0.5994
  O  O1543  1  0.159560  0.199140  0.954710  1.0  -0.5956
  O  O1544  1  0.115430  0.160860  0.972210  1.0  -0.5933
  O  O1545  1  0.389810  0.365990  0.809520  1.0  -0.5935
  O  O1546  1  0.407200  0.405710  0.852350  1.0  -0.606
  O  O1547  1  0.555120  0.793870  0.647110  1.0  -0.589
  O  O1548  1  0.530460  0.834900  0.609440  1.0  -0.596
  O  O1549  1  0.319420  0.637820  0.879080  1.0  -0.5827
  O  O1550  1  0.356010  0.594880  0.902300  1.0  -0.5999
  O  O1551  1  0.340440  0.800860  0.454710  1.0  -0.5959
  O  O1552  1  0.384570  0.839140  0.472210  1.0  -0.5949
  O  O1553  1  0.889810  0.134010  0.190480  1.0  -0.594
  O  O1554  1  0.907200  0.094290  0.147650  1.0  -0.6056
  O  O1555  1  0.055120  0.706130  0.352890  1.0  -0.591
  O  O1556  1  0.030460  0.665100  0.390560  1.0  -0.5961
  O  O1557  1  0.819420  0.862180  0.120920  1.0  -0.582
  O  O1558  1  0.856010  0.905120  0.097700  1.0  -0.5991
  O  O1559  1  0.840440  0.699140  0.545290  1.0  -0.5963
  O  O1560  1  0.884570  0.660860  0.527790  1.0  -0.594
  O  O1561  1  0.610190  0.865990  0.690480  1.0  -0.5935
  O  O1562  1  0.592800  0.905710  0.647650  1.0  -0.606
  O  O1563  1  0.444880  0.293870  0.852890  1.0  -0.5894
  O  O1564  1  0.469540  0.334900  0.890560  1.0  -0.5958
  O  O1565  1  0.680580  0.137820  0.620920  1.0  -0.5836
  O  O1566  1  0.643990  0.094880  0.597700  1.0  -0.5984
  O  O1567  1  0.659560  0.300860  0.045290  1.0  -0.5955
  O  O1568  1  0.615430  0.339140  0.027790  1.0  -0.5944
  O  O1569  1  0.309520  0.110190  0.634010  1.0  -0.5928
  O  O1570  1  0.352350  0.092800  0.594290  1.0  -0.6046
  O  O1571  1  0.147110  0.944880  0.206130  1.0  -0.5901
  O  O1572  1  0.109440  0.969540  0.165100  1.0  -0.5953
  O  O1573  1  0.379080  0.180580  0.362180  1.0  -0.5843
  O  O1574  1  0.402300  0.143990  0.405120  1.0  -0.5986
  O  O1575  1  0.954710  0.159560  0.199140  1.0  -0.5961
  O  O1576  1  0.972210  0.115430  0.160860  1.0  -0.596
  O  O1577  1  0.809520  0.389810  0.365990  1.0  -0.5924
  O  O1578  1  0.852350  0.407200  0.405710  1.0  -0.605
  O  O1579  1  0.647110  0.555120  0.793870  1.0  -0.5886
  O  O1580  1  0.609440  0.530460  0.834900  1.0  -0.5954
  O  O1581  1  0.879080  0.319420  0.637820  1.0  -0.5824
  O  O1582  1  0.902300  0.356010  0.594880  1.0  -0.5985
  O  O1583  1  0.454710  0.340440  0.800860  1.0  -0.5956
  O  O1584  1  0.472210  0.384570  0.839140  1.0  -0.5953
  O  O1585  1  0.190480  0.889810  0.134010  1.0  -0.5919
  O  O1586  1  0.147650  0.907200  0.094290  1.0  -0.6037
  O  O1587  1  0.352890  0.055120  0.706130  1.0  -0.5899
  O  O1588  1  0.390560  0.030460  0.665100  1.0  -0.5945
  O  O1589  1  0.120920  0.819420  0.862180  1.0  -0.5824
  O  O1590  1  0.097700  0.856010  0.905120  1.0  -0.5981
  O  O1591  1  0.545290  0.840440  0.699140  1.0  -0.5945
  O  O1592  1  0.527790  0.884570  0.660860  1.0  -0.5952
  O  O1593  1  0.690480  0.610190  0.865990  1.0  -0.5932
  O  O1594  1  0.647650  0.592800  0.905710  1.0  -0.6051
  O  O1595  1  0.852890  0.444880  0.293870  1.0  -0.5875
  O  O1596  1  0.890560  0.469540  0.334900  1.0  -0.5959
  O  O1597  1  0.620920  0.680580  0.137820  1.0  -0.5836
  O  O1598  1  0.597700  0.643990  0.094880  1.0  -0.5962
  O  O1599  1  0.045290  0.659560  0.300860  1.0  -0.5942
  O  O1600  1  0.027790  0.615430  0.339140  1.0  -0.5948
  O  O1601  1  0.634010  0.309520  0.110190  1.0  -0.593
  O  O1602  1  0.594290  0.352350  0.092800  1.0  -0.6057
  O  O1603  1  0.206130  0.147110  0.944880  1.0  -0.5884
  O  O1604  1  0.165100  0.109440  0.969540  1.0  -0.5958
  O  O1605  1  0.362180  0.379080  0.180580  1.0  -0.5829
  O  O1606  1  0.405120  0.402300  0.143990  1.0  -0.5965
  O  O1607  1  0.199140  0.954710  0.159560  1.0  -0.5956
  O  O1608  1  0.160860  0.972210  0.115430  1.0  -0.5956
  O  O1609  1  0.365990  0.809520  0.389810  1.0  -0.5929
  O  O1610  1  0.405710  0.852350  0.407200  1.0  -0.6067
  O  O1611  1  0.793870  0.647110  0.555120  1.0  -0.5876
  O  O1612  1  0.834900  0.609440  0.530460  1.0  -0.5957
  O  O1613  1  0.637820  0.879080  0.319420  1.0  -0.5826
  O  O1614  1  0.594880  0.902300  0.356010  1.0  -0.5958
  O  O1615  1  0.800860  0.454710  0.340440  1.0  -0.5961
  O  O1616  1  0.839140  0.472210  0.384570  1.0  -0.596
  O  O1617  1  0.134010  0.190480  0.889810  1.0  -0.5942
  O  O1618  1  0.094290  0.147650  0.907200  1.0  -0.6037
  O  O1619  1  0.706130  0.352890  0.055120  1.0  -0.5879
  O  O1620  1  0.665100  0.390560  0.030460  1.0  -0.5962
  O  O1621  1  0.862180  0.120920  0.819420  1.0  -0.5826
  O  O1622  1  0.905120  0.097700  0.856010  1.0  -0.5975
  O  O1623  1  0.699140  0.545290  0.840440  1.0  -0.5956
  O  O1624  1  0.660860  0.527790  0.884570  1.0  -0.5938
  O  O1625  1  0.865990  0.690480  0.610190  1.0  -0.5941
  O  O1626  1  0.905710  0.647650  0.592800  1.0  -0.6068
  O  O1627  1  0.293870  0.852890  0.444880  1.0  -0.5874
  O  O1628  1  0.334900  0.890560  0.469540  1.0  -0.5969
  O  O1629  1  0.137820  0.620920  0.680580  1.0  -0.5834
  O  O1630  1  0.094880  0.597700  0.643990  1.0  -0.5956
  O  O1631  1  0.300860  0.045290  0.659560  1.0  -0.5963
  O  O1632  1  0.339140  0.027790  0.615430  1.0  -0.5975
  O  O1633  1  0.889810  0.365990  0.690480  1.0  -0.5936
  O  O1634  1  0.907200  0.405710  0.647650  1.0  -0.604
  O  O1635  1  0.055120  0.793870  0.852890  1.0  -0.5893
  O  O1636  1  0.030460  0.834900  0.890560  1.0  -0.5968
  O  O1637  1  0.819420  0.637820  0.620920  1.0  -0.5829
  O  O1638  1  0.856010  0.594880  0.597700  1.0  -0.5996
  O  O1639  1  0.840440  0.800860  0.045290  1.0  -0.5958
  O  O1640  1  0.884570  0.839140  0.027790  1.0  -0.5947
  O  O1641  1  0.610190  0.634010  0.190480  1.0  -0.5947
  O  O1642  1  0.592800  0.594290  0.147650  1.0  -0.6025
  O  O1643  1  0.444880  0.206130  0.352890  1.0  -0.5905
  O  O1644  1  0.469540  0.165100  0.390560  1.0  -0.5956
  O  O1645  1  0.680580  0.362180  0.120920  1.0  -0.584
  O  O1646  1  0.643990  0.405120  0.097700  1.0  -0.5991
  O  O1647  1  0.659560  0.199140  0.545290  1.0  -0.596
  O  O1648  1  0.615430  0.160860  0.527790  1.0  -0.5938
  O  O1649  1  0.110190  0.865990  0.809520  1.0  -0.5945
  O  O1650  1  0.092800  0.905710  0.852350  1.0  -0.6036
  O  O1651  1  0.944880  0.293870  0.647110  1.0  -0.5895
  O  O1652  1  0.969540  0.334900  0.609440  1.0  -0.5963
  O  O1653  1  0.180580  0.137820  0.879080  1.0  -0.5836
  O  O1654  1  0.143990  0.094880  0.902300  1.0  -0.5984
  O  O1655  1  0.159560  0.300860  0.454710  1.0  -0.5954
  O  O1656  1  0.115430  0.339140  0.472210  1.0  -0.5944
  O  O1657  1  0.389810  0.134010  0.309520  1.0  -0.5945
  O  O1658  1  0.407200  0.094290  0.352350  1.0  -0.6029
  O  O1659  1  0.555120  0.706130  0.147110  1.0  -0.5907
  O  O1660  1  0.530460  0.665100  0.109440  1.0  -0.5952
  O  O1661  1  0.319420  0.862180  0.379080  1.0  -0.5825
  O  O1662  1  0.356010  0.905120  0.402300  1.0  -0.5994
  O  O1663  1  0.340440  0.699140  0.954710  1.0  -0.5961
  O  O1664  1  0.384570  0.660860  0.972210  1.0  -0.5942
  O  O1665  1  0.690480  0.889810  0.365990  1.0  -0.5937
  O  O1666  1  0.647650  0.907200  0.405710  1.0  -0.6026
  O  O1667  1  0.852890  0.055120  0.793870  1.0  -0.5889
  O  O1668  1  0.890560  0.030460  0.834900  1.0  -0.5959
  O  O1669  1  0.620920  0.819420  0.637820  1.0  -0.5825
  O  O1670  1  0.597700  0.856010  0.594880  1.0  -0.5969
  O  O1671  1  0.045290  0.840440  0.800860  1.0  -0.5944
  O  O1672  1  0.027790  0.884570  0.839140  1.0  -0.5947
  O  O1673  1  0.190480  0.610190  0.634010  1.0  -0.593
  O  O1674  1  0.147650  0.592800  0.594290  1.0  -0.6017
  O  O1675  1  0.352890  0.444880  0.206130  1.0  -0.59
  O  O1676  1  0.390560  0.469540  0.165100  1.0  -0.5949
  O  O1677  1  0.120920  0.680580  0.362180  1.0  -0.584
  O  O1678  1  0.097700  0.643990  0.405120  1.0  -0.5977
  O  O1679  1  0.545290  0.659560  0.199140  1.0  -0.5949
  O  O1680  1  0.527790  0.615430  0.160860  1.0  -0.5954
  O  O1681  1  0.809520  0.110190  0.865990  1.0  -0.5934
  O  O1682  1  0.852350  0.092800  0.905710  1.0  -0.6025
  O  O1683  1  0.647110  0.944880  0.293870  1.0  -0.5874
  O  O1684  1  0.609440  0.969540  0.334900  1.0  -0.5966
  O  O1685  1  0.879080  0.180580  0.137820  1.0  -0.5842
  O  O1686  1  0.902300  0.143990  0.094880  1.0  -0.5976
  O  O1687  1  0.454710  0.159560  0.300860  1.0  -0.5955
  O  O1688  1  0.472210  0.115430  0.339140  1.0  -0.5958
  O  O1689  1  0.309520  0.389810  0.134010  1.0  -0.5925
  O  O1690  1  0.352350  0.407200  0.094290  1.0  -0.6018
  O  O1691  1  0.147110  0.555120  0.706130  1.0  -0.59
  O  O1692  1  0.109440  0.530460  0.665100  1.0  -0.5949
  O  O1693  1  0.379080  0.319420  0.862180  1.0  -0.583
  O  O1694  1  0.402300  0.356010  0.905120  1.0  -0.5985
  O  O1695  1  0.954710  0.340440  0.699140  1.0  -0.5956
  O  O1696  1  0.972210  0.384570  0.660860  1.0  -0.596
  O  O1697  1  0.365990  0.690480  0.889810  1.0  -0.594
  O  O1698  1  0.405710  0.647650  0.907200  1.0  -0.6064
  O  O1699  1  0.793870  0.852890  0.055120  1.0  -0.5861
  O  O1700  1  0.834900  0.890560  0.030460  1.0  -0.5966
  O  O1701  1  0.637820  0.620920  0.819420  1.0  -0.5837
  O  O1702  1  0.594880  0.597700  0.856010  1.0  -0.5962
  O  O1703  1  0.800860  0.045290  0.840440  1.0  -0.5956
  O  O1704  1  0.839140  0.027790  0.884570  1.0  -0.5958
  O  O1705  1  0.634010  0.190480  0.610190  1.0  -0.5946
  O  O1706  1  0.594290  0.147650  0.592800  1.0  -0.6042
  O  O1707  1  0.206130  0.352890  0.444880  1.0  -0.5887
  O  O1708  1  0.165100  0.390560  0.469540  1.0  -0.5963
  O  O1709  1  0.362180  0.120920  0.680580  1.0  -0.5834
  O  O1710  1  0.405120  0.097700  0.643990  1.0  -0.5976
  O  O1711  1  0.199140  0.545290  0.659560  1.0  -0.5955
  O  O1712  1  0.160860  0.527790  0.615430  1.0  -0.5955
  O  O1713  1  0.865990  0.809520  0.110190  1.0  -0.5933
  O  O1714  1  0.905710  0.852350  0.092800  1.0  -0.6071
  O  O1715  1  0.293870  0.647110  0.944880  1.0  -0.588
  O  O1716  1  0.334900  0.609440  0.969540  1.0  -0.5959
  O  O1717  1  0.137820  0.879080  0.180580  1.0  -0.5834
  O  O1718  1  0.094880  0.902300  0.143990  1.0  -0.595
  O  O1719  1  0.300860  0.454710  0.159560  1.0  -0.5961
  O  O1720  1  0.339140  0.472210  0.115430  1.0  -0.5978
  O  O1721  1  0.134010  0.309520  0.389810  1.0  -0.5941
  O  O1722  1  0.094290  0.352350  0.407200  1.0  -0.6057
  O  O1723  1  0.706130  0.147110  0.555120  1.0  -0.5883
  O  O1724  1  0.665100  0.109440  0.530460  1.0  -0.595
  O  O1725  1  0.862180  0.379080  0.319420  1.0  -0.5823
  O  O1726  1  0.905120  0.402300  0.356010  1.0  -0.5963
  O  O1727  1  0.699140  0.954710  0.340440  1.0  -0.5961
  O  O1728  1  0.660860  0.972210  0.384570  1.0  -0.594
