# generated using pymatgen
data_K4CoCu14H108C58S12N12ClO23
_symmetry_space_group_name_H-M   'P 1'
_cell_length_a   34.58000000
_cell_length_b   34.58000000
_cell_length_c   20.76000000
_cell_angle_alpha   90.00000000
_cell_angle_beta   90.00000000
_cell_angle_gamma   120.00000000
_symmetry_Int_Tables_number   1
_chemical_formula_structural   K4CoCu14H108C58S12N12ClO23
_chemical_formula_sum   'K24 Co6 Cu84 H648 C348 S72 N72 Cl6 O138'
_cell_volume   21498.49007505
_cell_formula_units_Z   6
loop_
 _symmetry_equiv_pos_site_id
 _symmetry_equiv_pos_as_xyz
  1  'x, y, z'
loop_
 _atom_site_type_symbol
 _atom_site_label
 _atom_site_symmetry_multiplicity
 _atom_site_fract_x
 _atom_site_fract_y
 _atom_site_fract_z
 _atom_site_occupancy
 _atom_site_charge
  K  K1  1  0.403460  0.754400  0.020000  1.0  0.8876
  K  K2  1  0.689800  0.625400  0.849500  1.0  0.8358
  K  K3  1  0.245600  0.649060  0.686670  1.0  0.889
  K  K4  1  0.374600  0.064400  0.516170  1.0  0.832
  K  K5  1  0.350940  0.596540  0.353330  1.0  0.8869
  K  K6  1  0.935600  0.310200  0.182830  1.0  0.8799
  K  K7  1  0.596540  0.245600  0.520000  1.0  0.8875
  K  K8  1  0.310200  0.374600  0.349500  1.0  0.8776
  K  K9  1  0.754400  0.350940  0.186670  1.0  0.8877
  K  K10  1  0.625400  0.935600  0.016170  1.0  0.8326
  K  K11  1  0.649060  0.403460  0.853330  1.0  0.8866
  K  K12  1  0.064400  0.689800  0.682830  1.0  0.8345
  K  K13  1  0.754400  0.403460  0.646670  1.0  0.8854
  K  K14  1  0.625400  0.689800  0.817170  1.0  0.8796
  K  K15  1  0.649060  0.245600  0.980000  1.0  0.8873
  K  K16  1  0.064400  0.374600  0.150500  1.0  0.8346
  K  K17  1  0.596540  0.350940  0.313330  1.0  0.8872
  K  K18  1  0.310200  0.935600  0.483830  1.0  0.8326
  K  K19  1  0.245600  0.596540  0.146670  1.0  0.8853
  K  K20  1  0.374600  0.310200  0.317170  1.0  0.8335
  K  K21  1  0.350940  0.754400  0.480000  1.0  0.8853
  K  K22  1  0.935600  0.625400  0.650500  1.0  0.8781
  K  K23  1  0.403460  0.649060  0.813330  1.0  0.8874
  K  K24  1  0.689800  0.064400  0.983830  1.0  0.8308
  Co  Co25  1  0.632710  0.367290  0.583330  1.0  0.8296
  Co  Co26  1  0.632710  0.265420  0.250000  1.0  0.8174
  Co  Co27  1  0.734580  0.367290  0.916670  1.0  0.8286
  Co  Co28  1  0.367290  0.632710  0.083330  1.0  0.8274
  Co  Co29  1  0.367290  0.734580  0.750000  1.0  0.8209
  Co  Co30  1  0.265420  0.632710  0.416670  1.0  0.8293
  Cu  Cu31  1  0.665780  0.687230  0.235170  1.0  0.3333
  Cu  Cu32  1  0.709620  0.639860  0.302230  1.0  0.3575
  Cu  Cu33  1  0.620120  0.552870  0.305100  1.0  0.4175
  Cu  Cu34  1  0.574480  0.599140  0.231470  1.0  0.3724
  Cu  Cu35  1  0.560260  0.704660  0.228220  1.0  0.4918
  Cu  Cu36  1  0.667660  0.600200  0.125530  1.0  0.4559
  Cu  Cu37  1  0.312770  0.978550  0.901840  1.0  0.3316
  Cu  Cu38  1  0.360140  0.069760  0.968900  1.0  0.3563
  Cu  Cu39  1  0.447130  0.067250  0.971770  1.0  0.4174
  Cu  Cu40  1  0.400860  0.975340  0.898140  1.0  0.3708
  Cu  Cu41  1  0.295340  0.855600  0.894890  1.0  0.4863
  Cu  Cu42  1  0.399800  0.067460  0.792200  1.0  0.4575
  Cu  Cu43  1  0.021450  0.334220  0.568500  1.0  0.3306
  Cu  Cu44  1  0.930240  0.290380  0.635560  1.0  0.3559
  Cu  Cu45  1  0.932750  0.379880  0.638430  1.0  0.4188
  Cu  Cu46  1  0.024660  0.425520  0.564800  1.0  0.373
  Cu  Cu47  1  0.144400  0.439740  0.561550  1.0  0.4925
  Cu  Cu48  1  0.932540  0.332340  0.458860  1.0  0.4562
  Cu  Cu49  1  0.334220  0.312770  0.735170  1.0  0.3326
  Cu  Cu50  1  0.290380  0.360140  0.802230  1.0  0.36
  Cu  Cu51  1  0.379880  0.447130  0.805100  1.0  0.4189
  Cu  Cu52  1  0.425520  0.400860  0.731470  1.0  0.3711
  Cu  Cu53  1  0.439740  0.295340  0.728220  1.0  0.4915
  Cu  Cu54  1  0.332340  0.399800  0.625530  1.0  0.4571
  Cu  Cu55  1  0.687230  0.021450  0.401840  1.0  0.3298
  Cu  Cu56  1  0.639860  0.930240  0.468900  1.0  0.3543
  Cu  Cu57  1  0.552870  0.932750  0.471770  1.0  0.4173
  Cu  Cu58  1  0.599140  0.024660  0.398140  1.0  0.3727
  Cu  Cu59  1  0.704660  0.144400  0.394890  1.0  0.4898
  Cu  Cu60  1  0.600200  0.932540  0.292200  1.0  0.4567
  Cu  Cu61  1  0.978550  0.665780  0.068500  1.0  0.3319
  Cu  Cu62  1  0.069760  0.709620  0.135560  1.0  0.3556
  Cu  Cu63  1  0.067250  0.620120  0.138430  1.0  0.4183
  Cu  Cu64  1  0.975340  0.574480  0.064800  1.0  0.3735
  Cu  Cu65  1  0.855600  0.560260  0.061550  1.0  0.4889
  Cu  Cu66  1  0.067460  0.667660  0.958860  1.0  0.4556
  Cu  Cu67  1  0.687230  0.665780  0.431500  1.0  0.3284
  Cu  Cu68  1  0.639860  0.709620  0.364440  1.0  0.3558
  Cu  Cu69  1  0.552870  0.620120  0.361570  1.0  0.4187
  Cu  Cu70  1  0.599140  0.574480  0.435200  1.0  0.3724
  Cu  Cu71  1  0.704660  0.560260  0.438450  1.0  0.4919
  Cu  Cu72  1  0.600200  0.667660  0.541140  1.0  0.4567
  Cu  Cu73  1  0.978550  0.312770  0.764830  1.0  0.3324
  Cu  Cu74  1  0.069760  0.360140  0.697770  1.0  0.3561
  Cu  Cu75  1  0.067250  0.447130  0.694900  1.0  0.4185
  Cu  Cu76  1  0.975340  0.400860  0.768530  1.0  0.3717
  Cu  Cu77  1  0.855600  0.295340  0.771780  1.0  0.4896
  Cu  Cu78  1  0.067460  0.399800  0.874470  1.0  0.4566
  Cu  Cu79  1  0.334220  0.021450  0.098160  1.0  0.3303
  Cu  Cu80  1  0.290380  0.930240  0.031100  1.0  0.3556
  Cu  Cu81  1  0.379880  0.932750  0.028230  1.0  0.4162
  Cu  Cu82  1  0.425520  0.024660  0.101860  1.0  0.3691
  Cu  Cu83  1  0.439740  0.144400  0.105110  1.0  0.4862
  Cu  Cu84  1  0.332340  0.932540  0.207800  1.0  0.4591
  Cu  Cu85  1  0.312770  0.334220  0.931500  1.0  0.3304
  Cu  Cu86  1  0.360140  0.290380  0.864440  1.0  0.3537
  Cu  Cu87  1  0.447130  0.379880  0.861570  1.0  0.4174
  Cu  Cu88  1  0.400860  0.425520  0.935200  1.0  0.3719
  Cu  Cu89  1  0.295340  0.439740  0.938450  1.0  0.4881
  Cu  Cu90  1  0.399800  0.332340  0.041140  1.0  0.457
  Cu  Cu91  1  0.021450  0.687230  0.264830  1.0  0.3307
  Cu  Cu92  1  0.930240  0.639860  0.197770  1.0  0.3597
  Cu  Cu93  1  0.932750  0.552870  0.194900  1.0  0.4169
  Cu  Cu94  1  0.024660  0.599140  0.268530  1.0  0.3693
  Cu  Cu95  1  0.144400  0.704660  0.271780  1.0  0.493
  Cu  Cu96  1  0.932540  0.600200  0.374470  1.0  0.4584
  Cu  Cu97  1  0.665780  0.978550  0.598160  1.0  0.3285
  Cu  Cu98  1  0.709620  0.069760  0.531100  1.0  0.3541
  Cu  Cu99  1  0.620120  0.067250  0.528230  1.0  0.4177
  Cu  Cu100  1  0.574480  0.975340  0.601860  1.0  0.3712
  Cu  Cu101  1  0.560260  0.855600  0.605110  1.0  0.4889
  Cu  Cu102  1  0.667660  0.067460  0.707800  1.0  0.4574
  Cu  Cu103  1  0.770270  0.770270  0.333333  1.0  0.4393
  Cu  Cu104  1  0.492690  0.492690  0.333333  1.0  0.7296
  Cu  Cu105  1  0.229730  0.000000  0.000000  1.0  0.4399
  Cu  Cu106  1  0.507310  0.000000  0.000000  1.0  0.7296
  Cu  Cu107  1  0.000000  0.229730  0.666667  1.0  0.4372
  Cu  Cu108  1  0.000000  0.507310  0.666667  1.0  0.7307
  Cu  Cu109  1  0.229730  0.229730  0.833330  1.0  0.4359
  Cu  Cu110  1  0.507310  0.507310  0.833330  1.0  0.7311
  Cu  Cu111  1  0.770270  0.000000  0.500000  1.0  0.4403
  Cu  Cu112  1  0.492690  0.000000  0.500000  1.0  0.7299
  Cu  Cu113  1  0.000000  0.770270  0.166670  1.0  0.4368
  Cu  Cu114  1  0.000000  0.492690  0.166670  1.0  0.7304
  H  H115  1  0.572800  0.764900  0.151900  1.0  0.3066
  H  H116  1  0.576500  0.782800  0.218100  1.0  0.2714
  H  H117  1  0.707200  0.489200  0.443400  1.0  0.2725
  H  H118  1  0.685000  0.491700  0.503100  1.0  0.2421
  H  H119  1  0.705900  0.644700  0.026900  1.0  0.3097
  H  H120  1  0.659700  0.611000  0.008000  1.0  0.2319
  H  H121  1  0.668900  0.541000  0.059900  1.0  0.2564
  H  H122  1  0.715300  0.571900  0.081100  1.0  0.2312
  H  H123  1  0.813900  0.831900  0.254200  1.0  0.2775
  H  H124  1  0.840800  0.810400  0.268500  1.0  0.2224
  H  H125  1  0.467400  0.416900  0.316700  1.0  0.2652
  H  H126  1  0.450900  0.433200  0.263300  1.0  0.2172
  H  H127  1  0.641100  0.778700  0.147700  1.0  0.0927
  H  H128  1  0.624700  0.803800  0.299800  1.0  0.0884
  H  H129  1  0.674800  0.843700  0.289000  1.0  0.0765
  H  H130  1  0.665600  0.801200  0.331200  1.0  0.0858
  H  H131  1  0.716300  0.794600  0.254700  1.0  0.0755
  H  H132  1  0.717200  0.826700  0.198400  1.0  0.0912
  H  H133  1  0.696600  0.774400  0.185200  1.0  0.0796
  H  H134  1  0.646800  0.458600  0.386000  1.0  0.0715
  H  H135  1  0.574600  0.484900  0.510400  1.0  0.1038
  H  H136  1  0.622900  0.494500  0.532700  1.0  0.0943
  H  H137  1  0.583200  0.444200  0.523600  1.0  0.092
  H  H138  1  0.546100  0.459100  0.403800  1.0  0.0951
  H  H139  1  0.551500  0.416300  0.414600  1.0  0.0952
  H  H140  1  0.573700  0.447600  0.353100  1.0  0.0956
  H  H141  1  0.688800  0.694300  0.058000  1.0  0.065
  H  H142  1  0.554200  0.602200  0.067300  1.0  0.0957
  H  H143  1  0.587400  0.585900  0.042000  1.0  0.0925
  H  H144  1  0.577500  0.618100  0.998300  1.0  0.0793
  H  H145  1  0.587200  0.685400  0.109100  1.0  0.1028
  H  H146  1  0.611900  0.705800  0.042100  1.0  0.092
  H  H147  1  0.640000  0.718800  0.107600  1.0  0.108
  H  H148  1  0.650600  0.503400  0.149400  1.0  0.0899
  H  H149  1  0.756200  0.604400  0.166300  1.0  0.0844
  H  H150  1  0.771100  0.570400  0.193200  1.0  0.0771
  H  H151  1  0.762400  0.601000  0.242100  1.0  0.084
  H  H152  1  0.661900  0.494200  0.259600  1.0  0.1017
  H  H153  1  0.702600  0.530900  0.301500  1.0  0.097
  H  H154  1  0.710400  0.499300  0.253200  1.0  0.0953
  H  H155  1  0.777900  0.789600  0.183900  1.0  0.0544
  H  H156  1  0.831800  0.741100  0.259300  1.0  0.0742
  H  H157  1  0.839600  0.734900  0.184900  1.0  0.0756
  H  H158  1  0.802900  0.693400  0.225500  1.0  0.0803
  H  H159  1  0.743000  0.719400  0.133300  1.0  0.0841
  H  H160  1  0.754100  0.681600  0.154900  1.0  0.0843
  H  H161  1  0.789500  0.723300  0.113300  1.0  0.0851
  H  H162  1  0.534500  0.439300  0.268700  1.0  0.0822
  H  H163  1  0.509400  0.515300  0.142800  1.0  0.0864
  H  H164  1  0.471500  0.486400  0.194600  1.0  0.0817
  H  H165  1  0.479200  0.462400  0.134000  1.0  0.0964
  H  H166  1  0.581900  0.517500  0.141200  1.0  0.0921
  H  H167  1  0.561400  0.464800  0.132100  1.0  0.0921
  H  H168  1  0.593800  0.489900  0.191500  1.0  0.0886
  H  H169  1  0.235100  0.807900  0.818570  1.0  0.3054
  H  H170  1  0.217200  0.793700  0.884770  1.0  0.271
  H  H171  1  0.510800  0.218000  0.110070  1.0  0.2692
  H  H172  1  0.508300  0.193300  0.169770  1.0  0.2418
  H  H173  1  0.355300  0.061200  0.693570  1.0  0.3057
  H  H174  1  0.389000  0.048700  0.674670  1.0  0.2341
  H  H175  1  0.459000  0.127900  0.726570  1.0  0.2563
  H  H176  1  0.428100  0.143400  0.747770  1.0  0.2376
  H  H177  1  0.168100  0.982000  0.920870  1.0  0.2739
  H  H178  1  0.189600  0.030400  0.935170  1.0  0.2157
  H  H179  1  0.583100  0.050500  0.983370  1.0  0.2634
  H  H180  1  0.566800  0.017700  0.929970  1.0  0.2196
  H  H181  1  0.221300  0.862400  0.814370  1.0  0.0939
  H  H182  1  0.196200  0.820900  0.966470  1.0  0.0893
  H  H183  1  0.156300  0.831100  0.955670  1.0  0.0748
  H  H184  1  0.198800  0.864400  0.997870  1.0  0.086
  H  H185  1  0.205400  0.921700  0.921370  1.0  0.0753
  H  H186  1  0.173300  0.890500  0.865070  1.0  0.0852
  H  H187  1  0.225600  0.922200  0.851870  1.0  0.0793
  H  H188  1  0.541400  0.188200  0.052670  1.0  0.0708
  H  H189  1  0.515100  0.089700  0.177070  1.0  0.101
  H  H190  1  0.505500  0.128400  0.199370  1.0  0.0945
  H  H191  1  0.555800  0.139000  0.190270  1.0  0.0882
  H  H192  1  0.540900  0.087000  0.070470  1.0  0.1029
  H  H193  1  0.583700  0.135200  0.081270  1.0  0.1012
  H  H194  1  0.552400  0.126100  0.019770  1.0  0.0967
  H  H195  1  0.305700  0.994500  0.724670  1.0  0.062
  H  H196  1  0.397800  0.952000  0.733970  1.0  0.0963
  H  H197  1  0.414100  0.001500  0.708670  1.0  0.0929
  H  H198  1  0.381900  0.959400  0.664970  1.0  0.079
  H  H199  1  0.314600  0.901800  0.775770  1.0  0.1045
  H  H200  1  0.294200  0.906100  0.708770  1.0  0.0916
  H  H201  1  0.281200  0.921200  0.774270  1.0  0.1062
  H  H202  1  0.496600  0.147200  0.816070  1.0  0.0907
  H  H203  1  0.395600  0.151800  0.832970  1.0  0.0842
  H  H204  1  0.429600  0.200700  0.859870  1.0  0.0785
  H  H205  1  0.399000  0.161400  0.908770  1.0  0.0838
  H  H206  1  0.505800  0.167700  0.926270  1.0  0.1028
  H  H207  1  0.469100  0.171700  0.968170  1.0  0.0956
  H  H208  1  0.500700  0.211100  0.919870  1.0  0.0969
  H  H209  1  0.210400  0.988300  0.850570  1.0  0.0588
  H  H210  1  0.258900  0.090700  0.925970  1.0  0.0761
  H  H211  1  0.265100  0.104700  0.851570  1.0  0.076
  H  H212  1  0.306600  0.109500  0.892170  1.0  0.0794
  H  H213  1  0.280600  0.023600  0.799970  1.0  0.081
  H  H214  1  0.318400  0.072500  0.821570  1.0  0.0808
  H  H215  1  0.276700  0.066200  0.779970  1.0  0.0862
  H  H216  1  0.560700  0.095200  0.935370  1.0  0.0807
  H  H217  1  0.484700  0.994100  0.809470  1.0  0.0857
  H  H218  1  0.513600  0.985100  0.861270  1.0  0.0829
  H  H219  1  0.537600  0.016800  0.800670  1.0  0.0941
  H  H220  1  0.482500  0.064400  0.807870  1.0  0.0907
  H  H221  1  0.535200  0.096600  0.798770  1.0  0.0915
  H  H222  1  0.510100  0.103900  0.858170  1.0  0.0866
  H  H223  1  0.192100  0.427200  0.485230  1.0  0.3076
  H  H224  1  0.206300  0.423500  0.551430  1.0  0.2703
  H  H225  1  0.782000  0.292800  0.776730  1.0  0.267
  H  H226  1  0.806700  0.315000  0.836430  1.0  0.2429
  H  H227  1  0.938800  0.294100  0.360230  1.0  0.301
  H  H228  1  0.951300  0.340300  0.341330  1.0  0.2335
  H  H229  1  0.872100  0.331100  0.393230  1.0  0.2587
  H  H230  1  0.856600  0.284700  0.414430  1.0  0.2314
  H  H231  1  0.018000  0.186100  0.587530  1.0  0.2809
  H  H232  1  0.969600  0.159200  0.601830  1.0  0.219
  H  H233  1  0.949500  0.532600  0.650030  1.0  0.2634
  H  H234  1  0.982300  0.549100  0.596630  1.0  0.2195
  H  H235  1  0.137600  0.358900  0.481030  1.0  0.0933
  H  H236  1  0.179100  0.375300  0.633130  1.0  0.0899
  H  H237  1  0.168900  0.325200  0.622330  1.0  0.0743
  H  H238  1  0.135600  0.334400  0.664530  1.0  0.0866
  H  H239  1  0.078300  0.283700  0.588030  1.0  0.0742
  H  H240  1  0.109500  0.282800  0.531730  1.0  0.0924
  H  H241  1  0.077800  0.303400  0.518530  1.0  0.0799
  H  H242  1  0.811800  0.353200  0.719330  1.0  0.0718
  H  H243  1  0.910300  0.425400  0.843730  1.0  0.103
  H  H244  1  0.871600  0.377100  0.866030  1.0  0.0952
  H  H245  1  0.861000  0.416800  0.856930  1.0  0.0898
  H  H246  1  0.913000  0.453900  0.737130  1.0  0.0979
  H  H247  1  0.864800  0.448500  0.747930  1.0  0.0981
  H  H248  1  0.873900  0.426300  0.686430  1.0  0.0983
  H  H249  1  0.005500  0.311200  0.391330  1.0  0.0658
  H  H250  1  0.048000  0.445800  0.400630  1.0  0.0971
  H  H251  1  0.998500  0.412600  0.375330  1.0  0.0921
  H  H252  1  0.040600  0.422500  0.331630  1.0  0.0794
  H  H253  1  0.098200  0.412800  0.442430  1.0  0.1058
  H  H254  1  0.093900  0.388100  0.375430  1.0  0.0926
  H  H255  1  0.078800  0.360000  0.440930  1.0  0.1093
  H  H256  1  0.852800  0.349400  0.482730  1.0  0.0914
  H  H257  1  0.848200  0.243800  0.499630  1.0  0.084
  H  H258  1  0.799300  0.228900  0.526530  1.0  0.0763
  H  H259  1  0.838600  0.237600  0.575430  1.0  0.083
  H  H260  1  0.832300  0.338100  0.592930  1.0  0.105
  H  H261  1  0.828300  0.297400  0.634830  1.0  0.0963
  H  H262  1  0.788900  0.289600  0.586530  1.0  0.0945
  H  H263  1  0.011700  0.222100  0.517230  1.0  0.0598
  H  H264  1  0.909300  0.168200  0.592630  1.0  0.0761
  H  H265  1  0.895300  0.160400  0.518230  1.0  0.0755
  H  H266  1  0.890500  0.197100  0.558830  1.0  0.0794
  H  H267  1  0.976400  0.257000  0.466630  1.0  0.0813
  H  H268  1  0.927500  0.245900  0.488230  1.0  0.0796
  H  H269  1  0.933800  0.210500  0.446630  1.0  0.0867
  H  H270  1  0.904800  0.465500  0.602030  1.0  0.082
  H  H271  1  0.005900  0.490600  0.476130  1.0  0.0851
  H  H272  1  0.014900  0.528500  0.527930  1.0  0.082
  H  H273  1  0.983200  0.520800  0.467330  1.0  0.0937
  H  H274  1  0.935600  0.418100  0.474530  1.0  0.0914
  H  H275  1  0.903400  0.438600  0.465430  1.0  0.0911
  H  H276  1  0.896100  0.406200  0.524830  1.0  0.0874
  H  H277  1  0.427200  0.235100  0.651900  1.0  0.3073
  H  H278  1  0.423500  0.217200  0.718100  1.0  0.2703
  H  H279  1  0.292800  0.510800  0.943400  1.0  0.2707
  H  H280  1  0.315000  0.508300  0.003100  1.0  0.2435
  H  H281  1  0.294100  0.355300  0.526900  1.0  0.3042
  H  H282  1  0.340300  0.389000  0.508000  1.0  0.2348
  H  H283  1  0.331100  0.459000  0.559900  1.0  0.2578
  H  H284  1  0.284700  0.428100  0.581100  1.0  0.2313
  H  H285  1  0.186100  0.168100  0.754200  1.0  0.2731
  H  H286  1  0.159200  0.189600  0.768500  1.0  0.2218
  H  H287  1  0.532600  0.583100  0.816700  1.0  0.2639
  H  H288  1  0.549100  0.566800  0.763300  1.0  0.2206
  H  H289  1  0.358900  0.221300  0.647700  1.0  0.0929
  H  H290  1  0.375300  0.196200  0.799800  1.0  0.0886
  H  H291  1  0.325200  0.156300  0.789000  1.0  0.0749
  H  H292  1  0.334400  0.198800  0.831200  1.0  0.0859
  H  H293  1  0.283700  0.205400  0.754700  1.0  0.0756
  H  H294  1  0.282800  0.173300  0.698400  1.0  0.0887
  H  H295  1  0.303400  0.225600  0.685200  1.0  0.0794
  H  H296  1  0.353200  0.541400  0.886000  1.0  0.0703
  H  H297  1  0.425400  0.515100  0.010400  1.0  0.1052
  H  H298  1  0.377100  0.505500  0.032700  1.0  0.0953
  H  H299  1  0.416800  0.555800  0.023600  1.0  0.091
  H  H300  1  0.453900  0.540900  0.903800  1.0  0.0965
  H  H301  1  0.448500  0.583700  0.914600  1.0  0.0985
  H  H302  1  0.426300  0.552400  0.853100  1.0  0.0947
  H  H303  1  0.311200  0.305700  0.558000  1.0  0.066
  H  H304  1  0.445800  0.397800  0.567300  1.0  0.097
  H  H305  1  0.412600  0.414100  0.542000  1.0  0.0926
  H  H306  1  0.422500  0.381900  0.498300  1.0  0.0786
  H  H307  1  0.412800  0.314600  0.609100  1.0  0.1036
  H  H308  1  0.388100  0.294200  0.542100  1.0  0.0922
  H  H309  1  0.360000  0.281200  0.607600  1.0  0.1083
  H  H310  1  0.349400  0.496600  0.649400  1.0  0.0913
  H  H311  1  0.243800  0.395600  0.666300  1.0  0.084
  H  H312  1  0.228900  0.429600  0.693200  1.0  0.075
  H  H313  1  0.237600  0.399000  0.742100  1.0  0.0841
  H  H314  1  0.338100  0.505800  0.759600  1.0  0.1017
  H  H315  1  0.297400  0.469100  0.801500  1.0  0.0968
  H  H316  1  0.289600  0.500700  0.753200  1.0  0.0951
  H  H317  1  0.222100  0.210400  0.683900  1.0  0.0565
  H  H318  1  0.168200  0.258900  0.759300  1.0  0.0747
  H  H319  1  0.160400  0.265100  0.684900  1.0  0.0734
  H  H320  1  0.197100  0.306600  0.725500  1.0  0.0812
  H  H321  1  0.257000  0.280600  0.633300  1.0  0.0833
  H  H322  1  0.245900  0.318400  0.654900  1.0  0.0846
  H  H323  1  0.210500  0.276700  0.613300  1.0  0.0856
  H  H324  1  0.465500  0.560700  0.768700  1.0  0.0809
  H  H325  1  0.490600  0.484700  0.642800  1.0  0.0863
  H  H326  1  0.528500  0.513600  0.694600  1.0  0.0817
  H  H327  1  0.520800  0.537600  0.634000  1.0  0.0961
  H  H328  1  0.418100  0.482500  0.641200  1.0  0.0916
  H  H329  1  0.438600  0.535200  0.632100  1.0  0.0926
  H  H330  1  0.406200  0.510100  0.691500  1.0  0.0869
  H  H331  1  0.764900  0.192100  0.318570  1.0  0.3057
  H  H332  1  0.782800  0.206300  0.384770  1.0  0.2712
  H  H333  1  0.489200  0.782000  0.610070  1.0  0.2679
  H  H334  1  0.491700  0.806700  0.669770  1.0  0.2414
  H  H335  1  0.644700  0.938800  0.193570  1.0  0.3077
  H  H336  1  0.611000  0.951300  0.174670  1.0  0.2325
  H  H337  1  0.541000  0.872100  0.226570  1.0  0.2558
  H  H338  1  0.571900  0.856600  0.247770  1.0  0.2351
  H  H339  1  0.831900  0.018000  0.420870  1.0  0.2749
  H  H340  1  0.810400  0.969600  0.435170  1.0  0.2158
  H  H341  1  0.416900  0.949500  0.483370  1.0  0.2639
  H  H342  1  0.433200  0.982300  0.429970  1.0  0.2185
  H  H343  1  0.778700  0.137600  0.314370  1.0  0.0931
  H  H344  1  0.803800  0.179100  0.466470  1.0  0.0896
  H  H345  1  0.843700  0.168900  0.455670  1.0  0.075
  H  H346  1  0.801200  0.135600  0.497870  1.0  0.0859
  H  H347  1  0.794600  0.078300  0.421370  1.0  0.0755
  H  H348  1  0.826700  0.109500  0.365070  1.0  0.0924
  H  H349  1  0.774400  0.077800  0.351870  1.0  0.0806
  H  H350  1  0.458600  0.811800  0.552670  1.0  0.0689
  H  H351  1  0.484900  0.910300  0.677070  1.0  0.1028
  H  H352  1  0.494500  0.871600  0.699370  1.0  0.0955
  H  H353  1  0.444200  0.861000  0.690270  1.0  0.0883
  H  H354  1  0.459100  0.913000  0.570470  1.0  0.1017
  H  H355  1  0.416300  0.864800  0.581270  1.0  0.0993
  H  H356  1  0.447600  0.873900  0.519770  1.0  0.0956
  H  H357  1  0.694300  0.005500  0.224670  1.0  0.0632
  H  H358  1  0.602200  0.048000  0.233970  1.0  0.0966
  H  H359  1  0.585900  0.998500  0.208670  1.0  0.0932
  H  H360  1  0.618100  0.040600  0.164970  1.0  0.081
  H  H361  1  0.685400  0.098200  0.275770  1.0  0.1042
  H  H362  1  0.705800  0.093900  0.208770  1.0  0.0926
  H  H363  1  0.718800  0.078800  0.274270  1.0  0.1083
  H  H364  1  0.503400  0.852800  0.316070  1.0  0.0903
  H  H365  1  0.604400  0.848200  0.332970  1.0  0.0828
  H  H366  1  0.570400  0.799300  0.359870  1.0  0.0786
  H  H367  1  0.601000  0.838600  0.408770  1.0  0.0828
  H  H368  1  0.494200  0.832300  0.426270  1.0  0.1007
  H  H369  1  0.530900  0.828300  0.468170  1.0  0.0965
  H  H370  1  0.499300  0.788900  0.419870  1.0  0.0968
  H  H371  1  0.789600  0.011700  0.350570  1.0  0.0596
  H  H372  1  0.741100  0.909300  0.425970  1.0  0.0761
  H  H373  1  0.734900  0.895300  0.351570  1.0  0.0758
  H  H374  1  0.693400  0.890500  0.392170  1.0  0.0774
  H  H375  1  0.719400  0.976400  0.299970  1.0  0.083
  H  H376  1  0.681600  0.927500  0.321570  1.0  0.0802
  H  H377  1  0.723300  0.933800  0.279970  1.0  0.0866
  H  H378  1  0.439300  0.904800  0.435370  1.0  0.0804
  H  H379  1  0.515300  0.005900  0.309470  1.0  0.0863
  H  H380  1  0.486400  0.014900  0.361270  1.0  0.082
  H  H381  1  0.462400  0.983200  0.300670  1.0  0.0952
  H  H382  1  0.517500  0.935600  0.307870  1.0  0.0908
  H  H383  1  0.464800  0.903400  0.298770  1.0  0.0916
  H  H384  1  0.489900  0.896100  0.358170  1.0  0.0874
  H  H385  1  0.807900  0.572800  0.985230  1.0  0.3072
  H  H386  1  0.793700  0.576500  0.051430  1.0  0.2698
  H  H387  1  0.218000  0.707200  0.276730  1.0  0.2687
  H  H388  1  0.193300  0.685000  0.336430  1.0  0.2424
  H  H389  1  0.061200  0.705900  0.860230  1.0  0.3011
  H  H390  1  0.048700  0.659700  0.841330  1.0  0.2329
  H  H391  1  0.127900  0.668900  0.893230  1.0  0.2576
  H  H392  1  0.143400  0.715300  0.914430  1.0  0.2322
  H  H393  1  0.982000  0.813900  0.087530  1.0  0.2766
  H  H394  1  0.030400  0.840800  0.101830  1.0  0.2176
  H  H395  1  0.050500  0.467400  0.150030  1.0  0.2632
  H  H396  1  0.017700  0.450900  0.096630  1.0  0.2193
  H  H397  1  0.862400  0.641100  0.981030  1.0  0.0936
  H  H398  1  0.820900  0.624700  0.133130  1.0  0.0907
  H  H399  1  0.831100  0.674800  0.122330  1.0  0.0742
  H  H400  1  0.864400  0.665600  0.164530  1.0  0.0856
  H  H401  1  0.921700  0.716300  0.088030  1.0  0.0746
  H  H402  1  0.890500  0.717200  0.031730  1.0  0.0887
  H  H403  1  0.922200  0.696600  0.018530  1.0  0.0794
  H  H404  1  0.188200  0.646800  0.219330  1.0  0.0718
  H  H405  1  0.089700  0.574600  0.343730  1.0  0.103
  H  H406  1  0.128400  0.622900  0.366030  1.0  0.0943
  H  H407  1  0.139000  0.583200  0.356930  1.0  0.09
  H  H408  1  0.087000  0.546100  0.237130  1.0  0.0984
  H  H409  1  0.135200  0.551500  0.247930  1.0  0.0984
  H  H410  1  0.126100  0.573700  0.186430  1.0  0.0978
  H  H411  1  0.994500  0.688800  0.891330  1.0  0.0663
  H  H412  1  0.952000  0.554200  0.900630  1.0  0.0977
  H  H413  1  0.001500  0.587400  0.875330  1.0  0.0962
  H  H414  1  0.959400  0.577500  0.831630  1.0  0.0804
  H  H415  1  0.901800  0.587200  0.942430  1.0  0.1073
  H  H416  1  0.906100  0.611900  0.875430  1.0  0.0921
  H  H417  1  0.921200  0.640000  0.940930  1.0  0.1082
  H  H418  1  0.147200  0.650600  0.982730  1.0  0.0932
  H  H419  1  0.151800  0.756200  0.999630  1.0  0.0836
  H  H420  1  0.200700  0.771100  0.026530  1.0  0.0767
  H  H421  1  0.161400  0.762400  0.075430  1.0  0.0837
  H  H422  1  0.167700  0.661900  0.092930  1.0  0.1045
  H  H423  1  0.171700  0.702600  0.134830  1.0  0.0962
  H  H424  1  0.211100  0.710400  0.086530  1.0  0.094
  H  H425  1  0.988300  0.777900  0.017230  1.0  0.0607
  H  H426  1  0.090700  0.831800  0.092630  1.0  0.0745
  H  H427  1  0.104700  0.839600  0.018230  1.0  0.0764
  H  H428  1  0.109500  0.802900  0.058830  1.0  0.0814
  H  H429  1  0.023600  0.743000  0.966630  1.0  0.081
  H  H430  1  0.072500  0.754100  0.988230  1.0  0.0801
  H  H431  1  0.066200  0.789500  0.946630  1.0  0.0861
  H  H432  1  0.095200  0.534500  0.102030  1.0  0.0812
  H  H433  1  0.994100  0.509400  0.976130  1.0  0.0849
  H  H434  1  0.985100  0.471500  0.027930  1.0  0.0821
  H  H435  1  0.016800  0.479200  0.967330  1.0  0.0929
  H  H436  1  0.064400  0.581900  0.974530  1.0  0.0906
  H  H437  1  0.096600  0.561400  0.965430  1.0  0.0925
  H  H438  1  0.103900  0.593800  0.024830  1.0  0.0869
  H  H439  1  0.764900  0.572800  0.514770  1.0  0.3057
  H  H440  1  0.782800  0.576500  0.448570  1.0  0.2701
  H  H441  1  0.489200  0.707200  0.223270  1.0  0.2672
  H  H442  1  0.491700  0.685000  0.163570  1.0  0.2419
  H  H443  1  0.644700  0.705900  0.639770  1.0  0.3023
  H  H444  1  0.611000  0.659700  0.658670  1.0  0.2333
  H  H445  1  0.541000  0.668900  0.606770  1.0  0.2592
  H  H446  1  0.571900  0.715300  0.585570  1.0  0.2321
  H  H447  1  0.831900  0.813900  0.412470  1.0  0.2812
  H  H448  1  0.810400  0.840800  0.398170  1.0  0.2187
  H  H449  1  0.416900  0.467400  0.349970  1.0  0.263
  H  H450  1  0.433200  0.450900  0.403370  1.0  0.2199
  H  H451  1  0.778700  0.641100  0.518970  1.0  0.0916
  H  H452  1  0.803800  0.624700  0.366870  1.0  0.0905
  H  H453  1  0.843700  0.674800  0.377670  1.0  0.0747
  H  H454  1  0.801200  0.665600  0.335470  1.0  0.0869
  H  H455  1  0.794600  0.716300  0.411970  1.0  0.0738
  H  H456  1  0.826700  0.717200  0.468270  1.0  0.0911
  H  H457  1  0.774400  0.696600  0.481470  1.0  0.0811
  H  H458  1  0.458600  0.646800  0.280670  1.0  0.0712
  H  H459  1  0.484900  0.574600  0.156270  1.0  0.103
  H  H460  1  0.494500  0.622900  0.133970  1.0  0.0944
  H  H461  1  0.444200  0.583200  0.143070  1.0  0.0911
  H  H462  1  0.459100  0.546100  0.262870  1.0  0.0982
  H  H463  1  0.416300  0.551500  0.252070  1.0  0.0983
  H  H464  1  0.447600  0.573700  0.313570  1.0  0.0983
  H  H465  1  0.694300  0.688800  0.608670  1.0  0.065
  H  H466  1  0.602200  0.554200  0.599370  1.0  0.0971
  H  H467  1  0.585900  0.587400  0.624670  1.0  0.0921
  H  H468  1  0.618100  0.577500  0.668370  1.0  0.0802
  H  H469  1  0.685400  0.587200  0.557570  1.0  0.1071
  H  H470  1  0.705800  0.611900  0.624570  1.0  0.0918
  H  H471  1  0.718800  0.640000  0.559070  1.0  0.1078
  H  H472  1  0.503400  0.650600  0.517270  1.0  0.0905
  H  H473  1  0.604400  0.756200  0.500370  1.0  0.084
  H  H474  1  0.570400  0.771100  0.473470  1.0  0.0762
  H  H475  1  0.601000  0.762400  0.424570  1.0  0.0831
  H  H476  1  0.494200  0.661900  0.407070  1.0  0.1017
  H  H477  1  0.530900  0.702600  0.365170  1.0  0.0953
  H  H478  1  0.499300  0.710400  0.413470  1.0  0.0948
  H  H479  1  0.789600  0.777900  0.482770  1.0  0.0614
  H  H480  1  0.741100  0.831800  0.407370  1.0  0.0764
  H  H481  1  0.734900  0.839600  0.481770  1.0  0.0755
  H  H482  1  0.693400  0.802900  0.441170  1.0  0.0782
  H  H483  1  0.719400  0.743000  0.533370  1.0  0.0816
  H  H484  1  0.681600  0.754100  0.511770  1.0  0.0801
  H  H485  1  0.723300  0.789500  0.553370  1.0  0.0875
  H  H486  1  0.439300  0.534500  0.397970  1.0  0.0818
  H  H487  1  0.515300  0.509400  0.523870  1.0  0.0849
  H  H488  1  0.486400  0.471500  0.472070  1.0  0.0824
  H  H489  1  0.462400  0.479200  0.532670  1.0  0.0942
  H  H490  1  0.517500  0.581900  0.525470  1.0  0.0913
  H  H491  1  0.464800  0.561400  0.534570  1.0  0.0908
  H  H492  1  0.489900  0.593800  0.475170  1.0  0.0868
  H  H493  1  0.807900  0.235100  0.848100  1.0  0.3061
  H  H494  1  0.793700  0.217200  0.781900  1.0  0.2711
  H  H495  1  0.218000  0.510800  0.556600  1.0  0.2715
  H  H496  1  0.193300  0.508300  0.496900  1.0  0.2434
  H  H497  1  0.061200  0.355300  0.973100  1.0  0.3088
  H  H498  1  0.048700  0.389000  0.992000  1.0  0.2329
  H  H499  1  0.127900  0.459000  0.940100  1.0  0.2563
  H  H500  1  0.143400  0.428100  0.918900  1.0  0.2302
  H  H501  1  0.982000  0.168100  0.745800  1.0  0.2761
  H  H502  1  0.030400  0.189600  0.731500  1.0  0.2211
  H  H503  1  0.050500  0.583100  0.683300  1.0  0.2659
  H  H504  1  0.017700  0.566800  0.736700  1.0  0.2181
  H  H505  1  0.862400  0.221300  0.852300  1.0  0.091
  H  H506  1  0.820900  0.196200  0.700200  1.0  0.0892
  H  H507  1  0.831100  0.156300  0.711000  1.0  0.0763
  H  H508  1  0.864400  0.198800  0.668800  1.0  0.0863
  H  H509  1  0.921700  0.205400  0.745300  1.0  0.0757
  H  H510  1  0.890500  0.173300  0.801600  1.0  0.0904
  H  H511  1  0.922200  0.225600  0.814800  1.0  0.0808
  H  H512  1  0.188200  0.541400  0.614000  1.0  0.0709
  H  H513  1  0.089700  0.515100  0.489600  1.0  0.1039
  H  H514  1  0.128400  0.505500  0.467300  1.0  0.0937
  H  H515  1  0.139000  0.555800  0.476400  1.0  0.0922
  H  H516  1  0.087000  0.540900  0.596200  1.0  0.0956
  H  H517  1  0.135200  0.583700  0.585400  1.0  0.0983
  H  H518  1  0.126100  0.552400  0.646900  1.0  0.0953
  H  H519  1  0.994500  0.305700  0.942000  1.0  0.0663
  H  H520  1  0.952000  0.397800  0.932700  1.0  0.0958
  H  H521  1  0.001500  0.414100  0.958000  1.0  0.092
  H  H522  1  0.959400  0.381900  0.001700  1.0  0.0802
  H  H523  1  0.901800  0.314600  0.890900  1.0  0.1027
  H  H524  1  0.906100  0.294200  0.957900  1.0  0.0932
  H  H525  1  0.921200  0.281200  0.892400  1.0  0.1079
  H  H526  1  0.147200  0.496600  0.850600  1.0  0.0911
  H  H527  1  0.151800  0.395600  0.833700  1.0  0.0848
  H  H528  1  0.200700  0.429600  0.806800  1.0  0.0771
  H  H529  1  0.161400  0.399000  0.757900  1.0  0.0846
  H  H530  1  0.167700  0.505800  0.740400  1.0  0.102
  H  H531  1  0.171700  0.469100  0.698500  1.0  0.0962
  H  H532  1  0.211100  0.500700  0.746800  1.0  0.0976
  H  H533  1  0.988300  0.210400  0.816100  1.0  0.0551
  H  H534  1  0.090700  0.258900  0.740700  1.0  0.0746
  H  H535  1  0.104700  0.265100  0.815100  1.0  0.077
  H  H536  1  0.109500  0.306600  0.774500  1.0  0.0804
  H  H537  1  0.023600  0.280600  0.866700  1.0  0.0846
  H  H538  1  0.072500  0.318400  0.845100  1.0  0.0842
  H  H539  1  0.066200  0.276700  0.886700  1.0  0.0879
  H  H540  1  0.095200  0.560700  0.731300  1.0  0.0813
  H  H541  1  0.994100  0.484700  0.857200  1.0  0.0863
  H  H542  1  0.985100  0.513600  0.805400  1.0  0.0823
  H  H543  1  0.016800  0.537600  0.866000  1.0  0.0955
  H  H544  1  0.064400  0.482500  0.858800  1.0  0.092
  H  H545  1  0.096600  0.535200  0.867900  1.0  0.0923
  H  H546  1  0.103900  0.510100  0.808500  1.0  0.088
  H  H547  1  0.427200  0.192100  0.181430  1.0  0.3056
  H  H548  1  0.423500  0.206300  0.115230  1.0  0.2711
  H  H549  1  0.292800  0.782000  0.889930  1.0  0.2676
  H  H550  1  0.315000  0.806700  0.830230  1.0  0.2395
  H  H551  1  0.294100  0.938800  0.306430  1.0  0.3081
  H  H552  1  0.340300  0.951300  0.325330  1.0  0.234
  H  H553  1  0.331100  0.872100  0.273430  1.0  0.2575
  H  H554  1  0.284700  0.856600  0.252230  1.0  0.2387
  H  H555  1  0.186100  0.018000  0.079130  1.0  0.276
  H  H556  1  0.159200  0.969600  0.064830  1.0  0.216
  H  H557  1  0.532600  0.949500  0.016630  1.0  0.264
  H  H558  1  0.549100  0.982300  0.070030  1.0  0.2188
  H  H559  1  0.358900  0.137600  0.185630  1.0  0.0912
  H  H560  1  0.375300  0.179100  0.033530  1.0  0.0892
  H  H561  1  0.325200  0.168900  0.044330  1.0  0.075
  H  H562  1  0.334400  0.135600  0.002130  1.0  0.0864
  H  H563  1  0.283700  0.078300  0.078630  1.0  0.0746
  H  H564  1  0.282800  0.109500  0.134930  1.0  0.0865
  H  H565  1  0.303400  0.077800  0.148130  1.0  0.0815
  H  H566  1  0.353200  0.811800  0.947330  1.0  0.0704
  H  H567  1  0.425400  0.910300  0.822930  1.0  0.1032
  H  H568  1  0.377100  0.871600  0.800630  1.0  0.0939
  H  H569  1  0.416800  0.861000  0.809730  1.0  0.0892
  H  H570  1  0.453900  0.913000  0.929530  1.0  0.1009
  H  H571  1  0.448500  0.864800  0.918730  1.0  0.1006
  H  H572  1  0.426300  0.873900  0.980230  1.0  0.096
  H  H573  1  0.311200  0.005500  0.275330  1.0  0.0619
  H  H574  1  0.445800  0.048000  0.266030  1.0  0.096
  H  H575  1  0.412600  0.998500  0.291330  1.0  0.0932
  H  H576  1  0.422500  0.040600  0.335030  1.0  0.08
  H  H577  1  0.412800  0.098200  0.224230  1.0  0.105
  H  H578  1  0.388100  0.093900  0.291230  1.0  0.0922
  H  H579  1  0.360000  0.078800  0.225730  1.0  0.1079
  H  H580  1  0.349400  0.852800  0.183930  1.0  0.0911
  H  H581  1  0.243800  0.848200  0.167030  1.0  0.0833
  H  H582  1  0.228900  0.799300  0.140130  1.0  0.0798
  H  H583  1  0.237600  0.838600  0.091230  1.0  0.0835
  H  H584  1  0.338100  0.832300  0.073730  1.0  0.1032
  H  H585  1  0.297400  0.828300  0.031830  1.0  0.0955
  H  H586  1  0.289600  0.788900  0.080130  1.0  0.099
  H  H587  1  0.222100  0.011700  0.149430  1.0  0.0583
  H  H588  1  0.168200  0.909300  0.074030  1.0  0.0767
  H  H589  1  0.160400  0.895300  0.148430  1.0  0.0774
  H  H590  1  0.197100  0.890500  0.107830  1.0  0.0776
  H  H591  1  0.257000  0.976400  0.200030  1.0  0.0819
  H  H592  1  0.245900  0.927500  0.178430  1.0  0.0803
  H  H593  1  0.210500  0.933800  0.220030  1.0  0.0882
  H  H594  1  0.465500  0.904800  0.064630  1.0  0.0799
  H  H595  1  0.490600  0.005900  0.190530  1.0  0.0855
  H  H596  1  0.528500  0.014900  0.138730  1.0  0.0833
  H  H597  1  0.520800  0.983200  0.199330  1.0  0.094
  H  H598  1  0.418100  0.935600  0.192130  1.0  0.0912
  H  H599  1  0.438600  0.903400  0.201230  1.0  0.0916
  H  H600  1  0.406200  0.896100  0.141830  1.0  0.0867
  H  H601  1  0.235100  0.427200  0.014770  1.0  0.3061
  H  H602  1  0.217200  0.423500  0.948570  1.0  0.2706
  H  H603  1  0.510800  0.292800  0.723270  1.0  0.2673
  H  H604  1  0.508300  0.315000  0.663570  1.0  0.2423
  H  H605  1  0.355300  0.294100  0.139770  1.0  0.3022
  H  H606  1  0.389000  0.340300  0.158670  1.0  0.2336
  H  H607  1  0.459000  0.331100  0.106770  1.0  0.2583
  H  H608  1  0.428100  0.284700  0.085570  1.0  0.2324
  H  H609  1  0.168100  0.186100  0.912470  1.0  0.2789
  H  H610  1  0.189600  0.159200  0.898170  1.0  0.2173
  H  H611  1  0.583100  0.532600  0.849970  1.0  0.264
  H  H612  1  0.566800  0.549100  0.903370  1.0  0.218
  H  H613  1  0.221300  0.358900  0.018970  1.0  0.0924
  H  H614  1  0.196200  0.375300  0.866870  1.0  0.0911
  H  H615  1  0.156300  0.325200  0.877670  1.0  0.0741
  H  H616  1  0.198800  0.334400  0.835470  1.0  0.0865
  H  H617  1  0.205400  0.283700  0.911970  1.0  0.0742
  H  H618  1  0.173300  0.282800  0.968270  1.0  0.0917
  H  H619  1  0.225600  0.303400  0.981470  1.0  0.0809
  H  H620  1  0.541400  0.353200  0.780670  1.0  0.0715
  H  H621  1  0.515100  0.425400  0.656270  1.0  0.1034
  H  H622  1  0.505500  0.377100  0.633970  1.0  0.094
  H  H623  1  0.555800  0.416800  0.643070  1.0  0.0904
  H  H624  1  0.540900  0.453900  0.762870  1.0  0.0981
  H  H625  1  0.583700  0.448500  0.752070  1.0  0.0991
  H  H626  1  0.552400  0.426300  0.813570  1.0  0.0971
  H  H627  1  0.305700  0.311200  0.108670  1.0  0.0668
  H  H628  1  0.397800  0.445800  0.099370  1.0  0.0982
  H  H629  1  0.414100  0.412600  0.124670  1.0  0.0954
  H  H630  1  0.381900  0.422500  0.168370  1.0  0.0806
  H  H631  1  0.314600  0.412800  0.057570  1.0  0.1064
  H  H632  1  0.294200  0.388100  0.124570  1.0  0.0928
  H  H633  1  0.281200  0.360000  0.059070  1.0  0.1093
  H  H634  1  0.496600  0.349400  0.017270  1.0  0.0925
  H  H635  1  0.395600  0.243800  0.000370  1.0  0.0832
  H  H636  1  0.429600  0.228900  0.973470  1.0  0.0778
  H  H637  1  0.399000  0.237600  0.924570  1.0  0.0835
  H  H638  1  0.505800  0.338100  0.907070  1.0  0.104
  H  H639  1  0.469100  0.297400  0.865170  1.0  0.0955
  H  H640  1  0.500700  0.289600  0.913470  1.0  0.0945
  H  H641  1  0.210400  0.222100  0.982770  1.0  0.0601
  H  H642  1  0.258900  0.168200  0.907370  1.0  0.076
  H  H643  1  0.265100  0.160400  0.981770  1.0  0.0762
  H  H644  1  0.306600  0.197100  0.941170  1.0  0.0811
  H  H645  1  0.280600  0.257000  0.033370  1.0  0.0816
  H  H646  1  0.318400  0.245900  0.011770  1.0  0.0802
  H  H647  1  0.276700  0.210500  0.053370  1.0  0.0885
  H  H648  1  0.560700  0.465500  0.897970  1.0  0.0807
  H  H649  1  0.484700  0.490600  0.023870  1.0  0.084
  H  H650  1  0.513600  0.528500  0.972070  1.0  0.0826
  H  H651  1  0.537600  0.520800  0.032670  1.0  0.0927
  H  H652  1  0.482500  0.418100  0.025470  1.0  0.0909
  H  H653  1  0.535200  0.438600  0.034570  1.0  0.092
  H  H654  1  0.510100  0.406200  0.975170  1.0  0.087
  H  H655  1  0.192100  0.764900  0.348100  1.0  0.3059
  H  H656  1  0.206300  0.782800  0.281900  1.0  0.2699
  H  H657  1  0.782000  0.489200  0.056600  1.0  0.2694
  H  H658  1  0.806700  0.491700  0.996900  1.0  0.2417
  H  H659  1  0.938800  0.644700  0.473100  1.0  0.3053
  H  H660  1  0.951300  0.611000  0.492000  1.0  0.2345
  H  H661  1  0.872100  0.541000  0.440100  1.0  0.2588
  H  H662  1  0.856600  0.571900  0.418900  1.0  0.2325
  H  H663  1  0.018000  0.831900  0.245800  1.0  0.2808
  H  H664  1  0.969600  0.810400  0.231500  1.0  0.2238
  H  H665  1  0.949500  0.416900  0.183300  1.0  0.2649
  H  H666  1  0.982300  0.433200  0.236700  1.0  0.2202
  H  H667  1  0.137600  0.778700  0.352300  1.0  0.0908
  H  H668  1  0.179100  0.803800  0.200200  1.0  0.0887
  H  H669  1  0.168900  0.843700  0.211000  1.0  0.0756
  H  H670  1  0.135600  0.801200  0.168800  1.0  0.0869
  H  H671  1  0.078300  0.794600  0.245300  1.0  0.0753
  H  H672  1  0.109500  0.826700  0.301600  1.0  0.0901
  H  H673  1  0.077800  0.774400  0.314800  1.0  0.0809
  H  H674  1  0.811800  0.458600  0.114000  1.0  0.071
  H  H675  1  0.910300  0.484900  0.989600  1.0  0.1055
  H  H676  1  0.871600  0.494500  0.967300  1.0  0.0944
  H  H677  1  0.861000  0.444200  0.976400  1.0  0.0909
  H  H678  1  0.913000  0.459100  0.096200  1.0  0.0963
  H  H679  1  0.864800  0.416300  0.085400  1.0  0.0961
  H  H680  1  0.873900  0.447600  0.146900  1.0  0.0953
  H  H681  1  0.005500  0.694300  0.442000  1.0  0.0656
  H  H682  1  0.048000  0.602200  0.432700  1.0  0.0974
  H  H683  1  0.998500  0.585900  0.458000  1.0  0.0921
  H  H684  1  0.040600  0.618100  0.501700  1.0  0.0796
  H  H685  1  0.098200  0.685400  0.390900  1.0  0.1044
  H  H686  1  0.093900  0.705800  0.457900  1.0  0.0919
  H  H687  1  0.078800  0.718800  0.392400  1.0  0.1093
  H  H688  1  0.852800  0.503400  0.350600  1.0  0.0911
  H  H689  1  0.848200  0.604400  0.333700  1.0  0.0831
  H  H690  1  0.799300  0.570400  0.306800  1.0  0.0755
  H  H691  1  0.838600  0.601000  0.257900  1.0  0.0835
  H  H692  1  0.832300  0.494200  0.240400  1.0  0.1018
  H  H693  1  0.828300  0.530900  0.198500  1.0  0.0962
  H  H694  1  0.788900  0.499300  0.246800  1.0  0.0952
  H  H695  1  0.011700  0.789600  0.316100  1.0  0.0565
  H  H696  1  0.909300  0.741100  0.240700  1.0  0.0747
  H  H697  1  0.895300  0.734900  0.315100  1.0  0.0739
  H  H698  1  0.890500  0.693400  0.274500  1.0  0.0806
  H  H699  1  0.976400  0.719400  0.366700  1.0  0.0835
  H  H700  1  0.927500  0.681600  0.345100  1.0  0.0846
  H  H701  1  0.933800  0.723300  0.386700  1.0  0.0866
  H  H702  1  0.904800  0.439300  0.231300  1.0  0.0811
  H  H703  1  0.005900  0.515300  0.357200  1.0  0.0856
  H  H704  1  0.014900  0.486400  0.305400  1.0  0.0821
  H  H705  1  0.983200  0.462400  0.366000  1.0  0.0973
  H  H706  1  0.935600  0.517500  0.358800  1.0  0.0925
  H  H707  1  0.903400  0.464800  0.367900  1.0  0.092
  H  H708  1  0.896100  0.489900  0.308500  1.0  0.0866
  H  H709  1  0.572800  0.807900  0.681430  1.0  0.3053
  H  H710  1  0.576500  0.793700  0.615230  1.0  0.2708
  H  H711  1  0.707200  0.218000  0.389930  1.0  0.268
  H  H712  1  0.685000  0.193300  0.330230  1.0  0.2409
  H  H713  1  0.705900  0.061200  0.806430  1.0  0.3067
  H  H714  1  0.659700  0.048700  0.825330  1.0  0.2329
  H  H715  1  0.668900  0.127900  0.773430  1.0  0.2563
  H  H716  1  0.715300  0.143400  0.752230  1.0  0.2338
  H  H717  1  0.813900  0.982000  0.579130  1.0  0.2755
  H  H718  1  0.840800  0.030400  0.564830  1.0  0.2167
  H  H719  1  0.467400  0.050500  0.516630  1.0  0.2638
  H  H720  1  0.450900  0.017700  0.570030  1.0  0.217
  H  H721  1  0.641100  0.862400  0.685630  1.0  0.0925
  H  H722  1  0.624700  0.820900  0.533530  1.0  0.0902
  H  H723  1  0.674800  0.831100  0.544330  1.0  0.0754
  H  H724  1  0.665600  0.864400  0.502130  1.0  0.0868
  H  H725  1  0.716300  0.921700  0.578630  1.0  0.0752
  H  H726  1  0.717200  0.890500  0.634930  1.0  0.089
  H  H727  1  0.696600  0.922200  0.648130  1.0  0.0815
  H  H728  1  0.646800  0.188200  0.447330  1.0  0.0687
  H  H729  1  0.574600  0.089700  0.322930  1.0  0.1013
  H  H730  1  0.622900  0.128400  0.300630  1.0  0.0947
  H  H731  1  0.583200  0.139000  0.309730  1.0  0.0887
  H  H732  1  0.546100  0.087000  0.429530  1.0  0.1008
  H  H733  1  0.551500  0.135200  0.418730  1.0  0.1002
  H  H734  1  0.573700  0.126100  0.480230  1.0  0.096
  H  H735  1  0.688800  0.994500  0.775330  1.0  0.0642
  H  H736  1  0.554200  0.952000  0.766030  1.0  0.0964
  H  H737  1  0.587400  0.001500  0.791330  1.0  0.0923
  H  H738  1  0.577500  0.959400  0.835030  1.0  0.0815
  H  H739  1  0.587200  0.901800  0.724230  1.0  0.1048
  H  H740  1  0.611900  0.906100  0.791230  1.0  0.092
  H  H741  1  0.640000  0.921200  0.725730  1.0  0.1075
  H  H742  1  0.650600  0.147200  0.683930  1.0  0.0905
  H  H743  1  0.756200  0.151800  0.667030  1.0  0.0832
  H  H744  1  0.771100  0.200700  0.640130  1.0  0.0795
  H  H745  1  0.762400  0.161400  0.591230  1.0  0.0834
  H  H746  1  0.661900  0.167700  0.573730  1.0  0.1007
  H  H747  1  0.702600  0.171700  0.531830  1.0  0.0956
  H  H748  1  0.710400  0.211100  0.580130  1.0  0.0994
  H  H749  1  0.777900  0.988300  0.649430  1.0  0.0616
  H  H750  1  0.831800  0.090700  0.574030  1.0  0.0767
  H  H751  1  0.839600  0.104700  0.648430  1.0  0.0763
  H  H752  1  0.802900  0.109500  0.607830  1.0  0.0783
  H  H753  1  0.743000  0.023600  0.700030  1.0  0.0823
  H  H754  1  0.754100  0.072500  0.678430  1.0  0.0804
  H  H755  1  0.789500  0.066200  0.720030  1.0  0.0882
  H  H756  1  0.534500  0.095200  0.564630  1.0  0.0803
  H  H757  1  0.509400  0.994100  0.690530  1.0  0.0862
  H  H758  1  0.471500  0.985100  0.638730  1.0  0.0821
  H  H759  1  0.479200  0.016800  0.699330  1.0  0.0958
  H  H760  1  0.581900  0.064400  0.692130  1.0  0.0917
  H  H761  1  0.561400  0.096600  0.701230  1.0  0.0911
  H  H762  1  0.593800  0.103900  0.641830  1.0  0.0865
  C  C763  1  0.659300  0.789300  0.236000  1.0  0.1122
  C  C764  1  0.633900  0.791100  0.186400  1.0  -0.0577
  C  C765  1  0.655800  0.811300  0.293700  1.0  -0.3752
  C  C766  1  0.700200  0.796800  0.217300  1.0  -0.3721
  C  C767  1  0.609560  0.475930  0.437900  1.0  0.068
  C  C768  1  0.642120  0.460850  0.433100  1.0  0.0332
  C  C769  1  0.626300  0.418300  0.458200  1.0  0.4456
  C  C770  1  0.596400  0.474800  0.507200  1.0  -0.372
  C  C771  1  0.566200  0.447100  0.398800  1.0  -0.3979
  C  C772  1  0.622610  0.653470  0.075300  1.0  -0.0219
  C  C773  1  0.664000  0.666667  0.038130  1.0  0.0077
  C  C774  1  0.656600  0.677900  0.968380  1.0  0.4522
  C  C775  1  0.581400  0.610800  0.042600  1.0  -0.3805
  C  C776  1  0.614600  0.694900  0.084400  1.0  -0.3643
  C  C777  1  0.705300  0.548850  0.207100  1.0  0.1394
  C  C778  1  0.683110  0.523500  0.140500  1.0  0.0134
  C  C779  1  0.700600  0.494600  0.121300  1.0  0.6571
  C  C780  1  0.752750  0.584130  0.201700  1.0  -0.3555
  C  C781  1  0.694060  0.515430  0.259900  1.0  -0.3744
  C  C782  1  0.785700  0.736730  0.202300  1.0  0.0316
  C  C783  1  0.802840  0.785800  0.200900  1.0  -0.0024
  C  C784  1  0.841970  0.810100  0.152400  1.0  0.4705
  C  C785  1  0.817200  0.725700  0.219200  1.0  -0.4036
  C  C786  1  0.766700  0.713700  0.147100  1.0  -0.4098
  C  C787  1  0.529040  0.479870  0.205700  1.0  0.1256
  C  C788  1  0.510300  0.438820  0.241900  1.0  -0.0458
  C  C789  1  0.491500  0.395400  0.191100  1.0  0.5273
  C  C790  1  0.493950  0.486640  0.165500  1.0  -0.368
  C  C791  1  0.570400  0.488900  0.163700  1.0  -0.3745
  C  C792  1  0.210700  0.870000  0.902670  1.0  0.1144
  C  C793  1  0.208900  0.842800  0.853070  1.0  -0.0625
  C  C794  1  0.188700  0.844500  0.960370  1.0  -0.375
  C  C795  1  0.203200  0.903400  0.883970  1.0  -0.3711
  C  C796  1  0.524070  0.133630  0.104570  1.0  0.0658
  C  C797  1  0.539150  0.181270  0.099770  1.0  0.0345
  C  C798  1  0.581700  0.208000  0.124870  1.0  0.4444
  C  C799  1  0.525200  0.121600  0.173870  1.0  -0.37
  C  C800  1  0.552900  0.119100  0.065470  1.0  -0.401
  C  C801  1  0.346530  0.969140  0.741970  1.0  -0.0218
  C  C802  1  0.333280  0.997280  0.704800  1.0  0.0048
  C  C803  1  0.322100  0.978700  0.635050  1.0  0.453
  C  C804  1  0.389200  0.970600  0.709270  1.0  -0.3784
  C  C805  1  0.305100  0.919700  0.751070  1.0  -0.3649
  C  C806  1  0.451150  0.156450  0.873770  1.0  0.1401
  C  C807  1  0.476500  0.159610  0.807170  1.0  0.0141
  C  C808  1  0.505400  0.206000  0.787970  1.0  0.6438
  C  C809  1  0.415870  0.168620  0.868370  1.0  -0.3551
  C  C810  1  0.484570  0.178630  0.926570  1.0  -0.3744
  C  C811  1  0.263270  0.048970  0.868970  1.0  0.0337
  C  C812  1  0.214200  0.017040  0.867570  1.0  -0.0054
  C  C813  1  0.189900  0.031870  0.819070  1.0  0.4716
  C  C814  1  0.274300  0.091500  0.885870  1.0  -0.4054
  C  C815  1  0.286300  0.053000  0.813770  1.0  -0.4111
  C  C816  1  0.520130  0.049170  0.872370  1.0  0.1235
  C  C817  1  0.561180  0.071480  0.908570  1.0  -0.0457
  C  C818  1  0.604600  0.096100  0.857770  1.0  0.5244
  C  C819  1  0.513360  0.007310  0.832170  1.0  -0.3686
  C  C820  1  0.511100  0.081500  0.830370  1.0  -0.3706
  C  C821  1  0.130000  0.340700  0.569330  1.0  0.1136
  C  C822  1  0.157200  0.366100  0.519730  1.0  -0.0583
  C  C823  1  0.155500  0.344200  0.627030  1.0  -0.3743
  C  C824  1  0.096600  0.299800  0.550630  1.0  -0.3689
  C  C825  1  0.866370  0.390440  0.771230  1.0  0.0664
  C  C826  1  0.818730  0.357880  0.766430  1.0  0.0314
  C  C827  1  0.792000  0.373700  0.791530  1.0  0.4393
  C  C828  1  0.878400  0.403600  0.840530  1.0  -0.3707
  C  C829  1  0.880900  0.433800  0.732130  1.0  -0.4008
  C  C830  1  0.030860  0.377390  0.408630  1.0  -0.0242
  C  C831  1  0.002720  0.336000  0.371460  1.0  0.0038
  C  C832  1  0.021300  0.343400  0.301710  1.0  0.4522
  C  C833  1  0.029400  0.418600  0.375930  1.0  -0.3788
  C  C834  1  0.080300  0.385400  0.417730  1.0  -0.3676
  C  C835  1  0.843550  0.294700  0.540430  1.0  0.1398
  C  C836  1  0.840390  0.316890  0.473830  1.0  0.0149
  C  C837  1  0.794000  0.299400  0.454630  1.0  0.6494
  C  C838  1  0.831380  0.247250  0.535030  1.0  -0.3545
  C  C839  1  0.821370  0.305940  0.593230  1.0  -0.3734
  C  C840  1  0.951030  0.214300  0.535630  1.0  0.0337
  C  C841  1  0.982960  0.197160  0.534230  1.0  -0.0051
  C  C842  1  0.968130  0.158030  0.485730  1.0  0.4678
  C  C843  1  0.908500  0.182800  0.552530  1.0  -0.404
  C  C844  1  0.947000  0.233300  0.480430  1.0  -0.409
  C  C845  1  0.950830  0.470960  0.539030  1.0  0.1249
  C  C846  1  0.928520  0.489700  0.575230  1.0  -0.0499
  C  C847  1  0.903900  0.508500  0.524430  1.0  0.5265
  C  C848  1  0.992690  0.506050  0.498830  1.0  -0.3717
  C  C849  1  0.918500  0.429600  0.497030  1.0  -0.374
  C  C850  1  0.340700  0.210700  0.736000  1.0  0.1141
  C  C851  1  0.366100  0.208900  0.686400  1.0  -0.0594
  C  C852  1  0.344200  0.188700  0.793700  1.0  -0.3756
  C  C853  1  0.299800  0.203200  0.717300  1.0  -0.3713
  C  C854  1  0.390440  0.524070  0.937900  1.0  0.0659
  C  C855  1  0.357880  0.539150  0.933100  1.0  0.0325
  C  C856  1  0.373700  0.581700  0.958200  1.0  0.4465
  C  C857  1  0.403600  0.525200  0.007200  1.0  -0.3721
  C  C858  1  0.433800  0.552900  0.898800  1.0  -0.3979
  C  C859  1  0.377390  0.346530  0.575300  1.0  -0.0245
  C  C860  1  0.336000  0.333280  0.538130  1.0  0.0071
  C  C861  1  0.343400  0.322100  0.468380  1.0  0.4538
  C  C862  1  0.418600  0.389200  0.542600  1.0  -0.3796
  C  C863  1  0.385400  0.305100  0.584400  1.0  -0.3662
  C  C864  1  0.294700  0.451150  0.707100  1.0  0.1397
  C  C865  1  0.316890  0.476500  0.640500  1.0  0.0151
  C  C866  1  0.299400  0.505400  0.621300  1.0  0.6598
  C  C867  1  0.247250  0.415870  0.701700  1.0  -0.3552
  C  C868  1  0.305940  0.484570  0.759900  1.0  -0.3737
  C  C869  1  0.214300  0.263270  0.702300  1.0  0.0325
  C  C870  1  0.197160  0.214200  0.700900  1.0  -0.0033
  C  C871  1  0.158030  0.189900  0.652400  1.0  0.4727
  C  C872  1  0.182800  0.274300  0.719200  1.0  -0.4049
  C  C873  1  0.233300  0.286300  0.647100  1.0  -0.4116
  C  C874  1  0.470960  0.520130  0.705700  1.0  0.1263
  C  C875  1  0.489700  0.561180  0.741900  1.0  -0.0482
  C  C876  1  0.508500  0.604600  0.691100  1.0  0.5224
  C  C877  1  0.506050  0.513360  0.665500  1.0  -0.3694
  C  C878  1  0.429600  0.511100  0.663700  1.0  -0.3742
  C  C879  1  0.789300  0.130000  0.402670  1.0  0.1116
  C  C880  1  0.791100  0.157200  0.353070  1.0  -0.0596
  C  C881  1  0.811300  0.155500  0.460370  1.0  -0.3758
  C  C882  1  0.796800  0.096600  0.383970  1.0  -0.3724
  C  C883  1  0.475930  0.866370  0.604570  1.0  0.0661
  C  C884  1  0.460850  0.818730  0.599770  1.0  0.0335
  C  C885  1  0.418300  0.792000  0.624870  1.0  0.4446
  C  C886  1  0.474800  0.878400  0.673870  1.0  -0.3699
  C  C887  1  0.447100  0.880900  0.565470  1.0  -0.4023
  C  C888  1  0.653470  0.030860  0.241970  1.0  -0.0188
  C  C889  1  0.666667  0.002720  0.204800  1.0  0.0047
  C  C890  1  0.677900  0.021300  0.135050  1.0  0.4511
  C  C891  1  0.610800  0.029400  0.209270  1.0  -0.3792
  C  C892  1  0.694900  0.080300  0.251070  1.0  -0.3659
  C  C893  1  0.548850  0.843550  0.373770  1.0  0.1392
  C  C894  1  0.523500  0.840390  0.307170  1.0  0.0133
  C  C895  1  0.494600  0.794000  0.287970  1.0  0.6486
  C  C896  1  0.584130  0.831380  0.368370  1.0  -0.3561
  C  C897  1  0.515430  0.821370  0.426570  1.0  -0.3749
  C  C898  1  0.736730  0.951030  0.368970  1.0  0.0332
  C  C899  1  0.785800  0.982960  0.367570  1.0  -0.0033
  C  C900  1  0.810100  0.968130  0.319070  1.0  0.4689
  C  C901  1  0.725700  0.908500  0.385870  1.0  -0.4052
  C  C902  1  0.713700  0.947000  0.313770  1.0  -0.4092
  C  C903  1  0.479870  0.950830  0.372370  1.0  0.1252
  C  C904  1  0.438820  0.928520  0.408570  1.0  -0.0445
  C  C905  1  0.395400  0.903900  0.357770  1.0  0.5258
  C  C906  1  0.486640  0.992690  0.332170  1.0  -0.3678
  C  C907  1  0.488900  0.918500  0.330370  1.0  -0.3718
  C  C908  1  0.870000  0.659300  0.069330  1.0  0.1133
  C  C909  1  0.842800  0.633900  0.019730  1.0  -0.0584
  C  C910  1  0.844500  0.655800  0.127030  1.0  -0.3737
  C  C911  1  0.903400  0.700200  0.050630  1.0  -0.3693
  C  C912  1  0.133630  0.609560  0.271230  1.0  0.0657
  C  C913  1  0.181270  0.642120  0.266430  1.0  0.0328
  C  C914  1  0.208000  0.626300  0.291530  1.0  0.4388
  C  C915  1  0.121600  0.596400  0.340530  1.0  -0.3715
  C  C916  1  0.119100  0.566200  0.232130  1.0  -0.4001
  C  C917  1  0.969140  0.622610  0.908630  1.0  -0.0224
  C  C918  1  0.997280  0.664000  0.871460  1.0  0.0063
  C  C919  1  0.978700  0.656600  0.801710  1.0  0.4549
  C  C920  1  0.970600  0.581400  0.875930  1.0  -0.3794
  C  C921  1  0.919700  0.614600  0.917730  1.0  -0.3665
  C  C922  1  0.156450  0.705300  0.040430  1.0  0.1395
  C  C923  1  0.159610  0.683110  0.973830  1.0  0.0145
  C  C924  1  0.206000  0.700600  0.954630  1.0  0.6455
  C  C925  1  0.168620  0.752750  0.035030  1.0  -0.3544
  C  C926  1  0.178630  0.694060  0.093230  1.0  -0.3737
  C  C927  1  0.048970  0.785700  0.035630  1.0  0.0324
  C  C928  1  0.017040  0.802840  0.034230  1.0  -0.0044
  C  C929  1  0.031870  0.841970  0.985730  1.0  0.4674
  C  C930  1  0.091500  0.817200  0.052530  1.0  -0.4045
  C  C931  1  0.053000  0.766700  0.980430  1.0  -0.4109
  C  C932  1  0.049170  0.529040  0.039030  1.0  0.1265
  C  C933  1  0.071480  0.510300  0.075230  1.0  -0.0478
  C  C934  1  0.096100  0.491500  0.024430  1.0  0.5307
  C  C935  1  0.007310  0.493950  0.998830  1.0  -0.3708
  C  C936  1  0.081500  0.570400  0.997030  1.0  -0.3749
  C  C937  1  0.789300  0.659300  0.430670  1.0  0.1104
  C  C938  1  0.791100  0.633900  0.480270  1.0  -0.0612
  C  C939  1  0.811300  0.655800  0.372970  1.0  -0.3741
  C  C940  1  0.796800  0.700200  0.449370  1.0  -0.3704
  C  C941  1  0.475930  0.609560  0.228770  1.0  0.0671
  C  C942  1  0.460850  0.642120  0.233570  1.0  0.0311
  C  C943  1  0.418300  0.626300  0.208470  1.0  0.4388
  C  C944  1  0.474800  0.596400  0.159470  1.0  -0.372
  C  C945  1  0.447100  0.566200  0.267870  1.0  -0.4009
  C  C946  1  0.653470  0.622610  0.591370  1.0  -0.0243
  C  C947  1  0.666667  0.664000  0.628540  1.0  0.0052
  C  C948  1  0.677900  0.656600  0.698290  1.0  0.4504
  C  C949  1  0.610800  0.581400  0.624070  1.0  -0.3778
  C  C950  1  0.694900  0.614600  0.582270  1.0  -0.3691
  C  C951  1  0.548850  0.705300  0.459570  1.0  0.1397
  C  C952  1  0.523500  0.683110  0.526170  1.0  0.0142
  C  C953  1  0.494600  0.700600  0.545370  1.0  0.6486
  C  C954  1  0.584130  0.752750  0.464970  1.0  -0.3546
  C  C955  1  0.515430  0.694060  0.406770  1.0  -0.3744
  C  C956  1  0.736730  0.785700  0.464370  1.0  0.0306
  C  C957  1  0.785800  0.802840  0.465770  1.0  -0.0037
  C  C958  1  0.810100  0.841970  0.514270  1.0  0.4624
  C  C959  1  0.725700  0.817200  0.447470  1.0  -0.4031
  C  C960  1  0.713700  0.766700  0.519570  1.0  -0.4094
  C  C961  1  0.479870  0.529040  0.460970  1.0  0.1275
  C  C962  1  0.438820  0.510300  0.424770  1.0  -0.0503
  C  C963  1  0.395400  0.491500  0.475570  1.0  0.5265
  C  C964  1  0.486640  0.493950  0.501170  1.0  -0.3719
  C  C965  1  0.488900  0.570400  0.502970  1.0  -0.3732
  C  C966  1  0.870000  0.210700  0.764000  1.0  0.1108
  C  C967  1  0.842800  0.208900  0.813600  1.0  -0.0582
  C  C968  1  0.844500  0.188700  0.706300  1.0  -0.3755
  C  C969  1  0.903400  0.203200  0.782700  1.0  -0.372
  C  C970  1  0.133630  0.524070  0.562100  1.0  0.0671
  C  C971  1  0.181270  0.539150  0.566900  1.0  0.0335
  C  C972  1  0.208000  0.581700  0.541800  1.0  0.4444
  C  C973  1  0.121600  0.525200  0.492800  1.0  -0.3722
  C  C974  1  0.119100  0.552900  0.601200  1.0  -0.3979
  C  C975  1  0.969140  0.346530  0.924700  1.0  -0.0235
  C  C976  1  0.997280  0.333280  0.961870  1.0  0.0077
  C  C977  1  0.978700  0.322100  0.031620  1.0  0.4498
  C  C978  1  0.970600  0.389200  0.957400  1.0  -0.3808
  C  C979  1  0.919700  0.305100  0.915600  1.0  -0.366
  C  C980  1  0.156450  0.451150  0.792900  1.0  0.1383
  C  C981  1  0.159610  0.476500  0.859500  1.0  0.0135
  C  C982  1  0.206000  0.505400  0.878700  1.0  0.6589
  C  C983  1  0.168620  0.415870  0.798300  1.0  -0.3564
  C  C984  1  0.178630  0.484570  0.740100  1.0  -0.3744
  C  C985  1  0.048970  0.263270  0.797700  1.0  0.0292
  C  C986  1  0.017040  0.214200  0.799100  1.0  -0.0033
  C  C987  1  0.031870  0.189900  0.847600  1.0  0.4693
  C  C988  1  0.091500  0.274300  0.780800  1.0  -0.402
  C  C989  1  0.053000  0.286300  0.852900  1.0  -0.4106
  C  C990  1  0.049170  0.520130  0.794300  1.0  0.1254
  C  C991  1  0.071480  0.561180  0.758100  1.0  -0.0461
  C  C992  1  0.096100  0.604600  0.808900  1.0  0.5253
  C  C993  1  0.007310  0.513360  0.834500  1.0  -0.3686
  C  C994  1  0.081500  0.511100  0.836300  1.0  -0.3749
  C  C995  1  0.340700  0.130000  0.097330  1.0  0.1118
  C  C996  1  0.366100  0.157200  0.146930  1.0  -0.0621
  C  C997  1  0.344200  0.155500  0.039630  1.0  -0.3755
  C  C998  1  0.299800  0.096600  0.116030  1.0  -0.372
  C  C999  1  0.390440  0.866370  0.895430  1.0  0.0677
  C  C1000  1  0.357880  0.818730  0.900230  1.0  0.0336
  C  C1001  1  0.373700  0.792000  0.875130  1.0  0.4474
  C  C1002  1  0.403600  0.878400  0.826130  1.0  -0.3716
  C  C1003  1  0.433800  0.880900  0.934530  1.0  -0.4009
  C  C1004  1  0.377390  0.030860  0.258030  1.0  -0.0228
  C  C1005  1  0.336000  0.002720  0.295200  1.0  0.0047
  C  C1006  1  0.343400  0.021300  0.364950  1.0  0.4488
  C  C1007  1  0.418600  0.029400  0.290730  1.0  -0.3796
  C  C1008  1  0.385400  0.080300  0.248930  1.0  -0.3663
  C  C1009  1  0.294700  0.843550  0.126230  1.0  0.1387
  C  C1010  1  0.316890  0.840390  0.192830  1.0  0.0147
  C  C1011  1  0.299400  0.794000  0.212030  1.0  0.6473
  C  C1012  1  0.247250  0.831380  0.131630  1.0  -0.3565
  C  C1013  1  0.305940  0.821370  0.073430  1.0  -0.3749
  C  C1014  1  0.214300  0.951030  0.131030  1.0  0.0313
  C  C1015  1  0.197160  0.982960  0.132430  1.0  -0.005
  C  C1016  1  0.158030  0.968130  0.180930  1.0  0.4728
  C  C1017  1  0.182800  0.908500  0.114130  1.0  -0.4035
  C  C1018  1  0.233300  0.947000  0.186230  1.0  -0.4101
  C  C1019  1  0.470960  0.950830  0.127630  1.0  0.1237
  C  C1020  1  0.489700  0.928520  0.091430  1.0  -0.0454
  C  C1021  1  0.508500  0.903900  0.142230  1.0  0.5271
  C  C1022  1  0.506050  0.992690  0.167830  1.0  -0.3685
  C  C1023  1  0.429600  0.918500  0.169630  1.0  -0.3714
  C  C1024  1  0.210700  0.340700  0.930670  1.0  0.1123
  C  C1025  1  0.208900  0.366100  0.980270  1.0  -0.0592
  C  C1026  1  0.188700  0.344200  0.872970  1.0  -0.3745
  C  C1027  1  0.203200  0.299800  0.949370  1.0  -0.3694
  C  C1028  1  0.524070  0.390440  0.728770  1.0  0.0681
  C  C1029  1  0.539150  0.357880  0.733570  1.0  0.033
  C  C1030  1  0.581700  0.373700  0.708470  1.0  0.4395
  C  C1031  1  0.525200  0.403600  0.659470  1.0  -0.372
  C  C1032  1  0.552900  0.433800  0.767870  1.0  -0.4012
  C  C1033  1  0.346530  0.377390  0.091370  1.0  -0.023
  C  C1034  1  0.333280  0.336000  0.128540  1.0  0.0049
  C  C1035  1  0.322100  0.343400  0.198290  1.0  0.4501
  C  C1036  1  0.389200  0.418600  0.124070  1.0  -0.3798
  C  C1037  1  0.305100  0.385400  0.082270  1.0  -0.3672
  C  C1038  1  0.451150  0.294700  0.959570  1.0  0.1374
  C  C1039  1  0.476500  0.316890  0.026170  1.0  0.0141
  C  C1040  1  0.505400  0.299400  0.045370  1.0  0.6481
  C  C1041  1  0.415870  0.247250  0.964970  1.0  -0.355
  C  C1042  1  0.484570  0.305940  0.906770  1.0  -0.3737
  C  C1043  1  0.263270  0.214300  0.964370  1.0  0.0301
  C  C1044  1  0.214200  0.197160  0.965770  1.0  -0.0055
  C  C1045  1  0.189900  0.158030  0.014270  1.0  0.4682
  C  C1046  1  0.274300  0.182800  0.947470  1.0  -0.4024
  C  C1047  1  0.286300  0.233300  0.019570  1.0  -0.4102
  C  C1048  1  0.520130  0.470960  0.960970  1.0  0.125
  C  C1049  1  0.561180  0.489700  0.924770  1.0  -0.048
  C  C1050  1  0.604600  0.508500  0.975570  1.0  0.5313
  C  C1051  1  0.513360  0.506050  0.001170  1.0  -0.3709
  C  C1052  1  0.511100  0.429600  0.002970  1.0  -0.3753
  C  C1053  1  0.130000  0.789300  0.264000  1.0  0.1106
  C  C1054  1  0.157200  0.791100  0.313600  1.0  -0.0612
  C  C1055  1  0.155500  0.811300  0.206300  1.0  -0.3757
  C  C1056  1  0.096600  0.796800  0.282700  1.0  -0.3722
  C  C1057  1  0.866370  0.475930  0.062100  1.0  0.0698
  C  C1058  1  0.818730  0.460850  0.066900  1.0  0.0316
  C  C1059  1  0.792000  0.418300  0.041800  1.0  0.4456
  C  C1060  1  0.878400  0.474800  0.992800  1.0  -0.373
  C  C1061  1  0.880900  0.447100  0.101200  1.0  -0.3982
  C  C1062  1  0.030860  0.653470  0.424700  1.0  -0.019
  C  C1063  1  0.002720  0.666667  0.461870  1.0  0.0065
  C  C1064  1  0.021300  0.677900  0.531620  1.0  0.4501
  C  C1065  1  0.029400  0.610800  0.457400  1.0  -0.3789
  C  C1066  1  0.080300  0.694900  0.415600  1.0  -0.3667
  C  C1067  1  0.843550  0.548850  0.292900  1.0  0.1391
  C  C1068  1  0.840390  0.523500  0.359500  1.0  0.0148
  C  C1069  1  0.794000  0.494600  0.378700  1.0  0.6581
  C  C1070  1  0.831380  0.584130  0.298300  1.0  -0.3549
  C  C1071  1  0.821370  0.515430  0.240100  1.0  -0.3741
  C  C1072  1  0.951030  0.736730  0.297700  1.0  0.0297
  C  C1073  1  0.982960  0.785800  0.299100  1.0  -0.001
  C  C1074  1  0.968130  0.810100  0.347600  1.0  0.47
  C  C1075  1  0.908500  0.725700  0.280800  1.0  -0.4031
  C  C1076  1  0.947000  0.713700  0.352900  1.0  -0.4112
  C  C1077  1  0.950830  0.479870  0.294300  1.0  0.1265
  C  C1078  1  0.928520  0.438820  0.258100  1.0  -0.0477
  C  C1079  1  0.903900  0.395400  0.308900  1.0  0.5241
  C  C1080  1  0.992690  0.486640  0.334500  1.0  -0.3689
  C  C1081  1  0.918500  0.488900  0.336300  1.0  -0.374
  C  C1082  1  0.659300  0.870000  0.597330  1.0  0.1095
  C  C1083  1  0.633900  0.842800  0.646930  1.0  -0.0605
  C  C1084  1  0.655800  0.844500  0.539630  1.0  -0.3762
  C  C1085  1  0.700200  0.903400  0.616030  1.0  -0.373
  C  C1086  1  0.609560  0.133630  0.395430  1.0  0.0674
  C  C1087  1  0.642120  0.181270  0.400230  1.0  0.0335
  C  C1088  1  0.626300  0.208000  0.375130  1.0  0.4459
  C  C1089  1  0.596400  0.121600  0.326130  1.0  -0.3703
  C  C1090  1  0.566200  0.119100  0.434530  1.0  -0.4024
  C  C1091  1  0.622610  0.969140  0.758030  1.0  -0.0246
  C  C1092  1  0.664000  0.997280  0.795200  1.0  0.0063
  C  C1093  1  0.656600  0.978700  0.864950  1.0  0.4508
  C  C1094  1  0.581400  0.970600  0.790730  1.0  -0.3789
  C  C1095  1  0.614600  0.919700  0.748930  1.0  -0.3661
  C  C1096  1  0.705300  0.156450  0.626230  1.0  0.1377
  C  C1097  1  0.683110  0.159610  0.692830  1.0  0.0123
  C  C1098  1  0.700600  0.206000  0.712030  1.0  0.6527
  C  C1099  1  0.752750  0.168620  0.631630  1.0  -0.3558
  C  C1100  1  0.694060  0.178630  0.573430  1.0  -0.3742
  C  C1101  1  0.785700  0.048970  0.631030  1.0  0.0287
  C  C1102  1  0.802840  0.017040  0.632430  1.0  -0.0034
  C  C1103  1  0.841970  0.031870  0.680930  1.0  0.4695
  C  C1104  1  0.817200  0.091500  0.614130  1.0  -0.4032
  C  C1105  1  0.766700  0.053000  0.686230  1.0  -0.4105
  C  C1106  1  0.529040  0.049170  0.627630  1.0  0.1255
  C  C1107  1  0.510300  0.071480  0.591430  1.0  -0.0456
  C  C1108  1  0.491500  0.096100  0.642230  1.0  0.5252
  C  C1109  1  0.493950  0.007310  0.667830  1.0  -0.3678
  C  C1110  1  0.570400  0.081500  0.669630  1.0  -0.3712
  S  S1111  1  0.631200  0.727830  0.260420  1.0  0.1261
  S  S1112  1  0.633450  0.534560  0.407090  1.0  0.033
  S  S1113  1  0.630270  0.634170  0.156380  1.0  0.07
  S  S1114  1  0.676180  0.582260  0.228330  1.0  0.0657
  S  S1115  1  0.738300  0.712680  0.262830  1.0  0.1031
  S  S1116  1  0.550090  0.526880  0.264580  1.0  0.0801
  S  S1117  1  0.272170  0.903370  0.927090  1.0  0.1269
  S  S1118  1  0.465440  0.098890  0.073760  1.0  0.0303
  S  S1119  1  0.365830  0.996100  0.823050  1.0  0.0702
  S  S1120  1  0.417740  0.093920  0.895000  1.0  0.0634
  S  S1121  1  0.287320  0.025620  0.929500  1.0  0.103
  S  S1122  1  0.473120  0.023210  0.931250  1.0  0.0796
  S  S1123  1  0.096630  0.368800  0.593750  1.0  0.1277
  S  S1124  1  0.901110  0.366550  0.740420  1.0  0.0315
  S  S1125  1  0.003900  0.369730  0.489710  1.0  0.0705
  S  S1126  1  0.906080  0.323820  0.561660  1.0  0.0659
  S  S1127  1  0.974380  0.261700  0.596160  1.0  0.1055
  S  S1128  1  0.976790  0.449910  0.597910  1.0  0.0783
  S  S1129  1  0.368800  0.272170  0.760420  1.0  0.1293
  S  S1130  1  0.366550  0.465440  0.907090  1.0  0.0301
  S  S1131  1  0.369730  0.365830  0.656380  1.0  0.0707
  S  S1132  1  0.323820  0.417740  0.728330  1.0  0.0636
  S  S1133  1  0.261700  0.287320  0.762830  1.0  0.1043
  S  S1134  1  0.449910  0.473120  0.764580  1.0  0.0768
  S  S1135  1  0.727830  0.096630  0.427090  1.0  0.124
  S  S1136  1  0.534560  0.901110  0.573760  1.0  0.03
  S  S1137  1  0.634170  0.003900  0.323050  1.0  0.0707
  S  S1138  1  0.582260  0.906080  0.395000  1.0  0.0664
  S  S1139  1  0.712680  0.974380  0.429500  1.0  0.1046
  S  S1140  1  0.526880  0.976790  0.431250  1.0  0.0797
  S  S1141  1  0.903370  0.631200  0.093750  1.0  0.1252
  S  S1142  1  0.098890  0.633450  0.240420  1.0  0.0331
  S  S1143  1  0.996100  0.630270  0.989710  1.0  0.0701
  S  S1144  1  0.093920  0.676180  0.061660  1.0  0.0655
  S  S1145  1  0.025620  0.738300  0.096160  1.0  0.1028
  S  S1146  1  0.023210  0.550090  0.097910  1.0  0.0788
  S  S1147  1  0.727830  0.631200  0.406250  1.0  0.1246
  S  S1148  1  0.534560  0.633450  0.259580  1.0  0.0311
  S  S1149  1  0.634170  0.630270  0.510290  1.0  0.0725
  S  S1150  1  0.582260  0.676180  0.438340  1.0  0.0648
  S  S1151  1  0.712680  0.738300  0.403840  1.0  0.1035
  S  S1152  1  0.526880  0.550090  0.402090  1.0  0.0784
  S  S1153  1  0.903370  0.272170  0.739580  1.0  0.1283
  S  S1154  1  0.098890  0.465440  0.592910  1.0  0.0311
  S  S1155  1  0.996100  0.365830  0.843620  1.0  0.0722
  S  S1156  1  0.093920  0.417740  0.771670  1.0  0.0652
  S  S1157  1  0.025620  0.287320  0.737170  1.0  0.1042
  S  S1158  1  0.023210  0.473120  0.735420  1.0  0.0763
  S  S1159  1  0.368800  0.096630  0.072910  1.0  0.1243
  S  S1160  1  0.366550  0.901110  0.926240  1.0  0.0315
  S  S1161  1  0.369730  0.003900  0.176950  1.0  0.0723
  S  S1162  1  0.323820  0.906080  0.105000  1.0  0.0656
  S  S1163  1  0.261700  0.974380  0.070500  1.0  0.1043
  S  S1164  1  0.449910  0.976790  0.068750  1.0  0.0798
  S  S1165  1  0.272170  0.368800  0.906250  1.0  0.1276
  S  S1166  1  0.465440  0.366550  0.759580  1.0  0.0342
  S  S1167  1  0.365830  0.369730  0.010290  1.0  0.0724
  S  S1168  1  0.417740  0.323820  0.938340  1.0  0.0662
  S  S1169  1  0.287320  0.261700  0.903840  1.0  0.1043
  S  S1170  1  0.473120  0.449910  0.902090  1.0  0.0766
  S  S1171  1  0.096630  0.727830  0.239580  1.0  0.1267
  S  S1172  1  0.901110  0.534560  0.092910  1.0  0.0328
  S  S1173  1  0.003900  0.634170  0.343620  1.0  0.0727
  S  S1174  1  0.906080  0.582260  0.271670  1.0  0.0652
  S  S1175  1  0.974380  0.712680  0.237170  1.0  0.1022
  S  S1176  1  0.976790  0.526880  0.235420  1.0  0.0767
  S  S1177  1  0.631200  0.903370  0.572910  1.0  0.1268
  S  S1178  1  0.633450  0.098890  0.426240  1.0  0.0292
  S  S1179  1  0.630270  0.996100  0.676950  1.0  0.0727
  S  S1180  1  0.676180  0.093920  0.605000  1.0  0.0645
  S  S1181  1  0.738300  0.025620  0.570500  1.0  0.1036
  S  S1182  1  0.550090  0.023210  0.568750  1.0  0.078
  N  N1183  1  0.584950  0.766860  0.192000  1.0  -0.6344
  N  N1184  1  0.685630  0.494920  0.459000  1.0  -0.6039
  N  N1185  1  0.676380  0.632000  0.038700  1.0  -0.6111
  N  N1186  1  0.686220  0.555960  0.095000  1.0  -0.6216
  N  N1187  1  0.812600  0.804700  0.257800  1.0  -0.6007
  N  N1188  1  0.475800  0.439600  0.287300  1.0  -0.5999
  N  N1189  1  0.233140  0.818090  0.858670  1.0  -0.6346
  N  N1190  1  0.505080  0.190710  0.125670  1.0  -0.6051
  N  N1191  1  0.368000  0.044380  0.705370  1.0  -0.6072
  N  N1192  1  0.444040  0.130260  0.761670  1.0  -0.623
  N  N1193  1  0.195300  0.007900  0.924470  1.0  -0.6031
  N  N1194  1  0.560400  0.036200  0.953970  1.0  -0.5969
  N  N1195  1  0.181910  0.415050  0.525330  1.0  -0.633
  N  N1196  1  0.809290  0.314370  0.792330  1.0  -0.6057
  N  N1197  1  0.955620  0.323620  0.372030  1.0  -0.6131
  N  N1198  1  0.869740  0.313780  0.428330  1.0  -0.6202
  N  N1199  1  0.992100  0.187400  0.591130  1.0  -0.6019
  N  N1200  1  0.963800  0.524200  0.620630  1.0  -0.5986
  N  N1201  1  0.415050  0.233140  0.692000  1.0  -0.6305
  N  N1202  1  0.314370  0.505080  0.959000  1.0  -0.6065
  N  N1203  1  0.323620  0.368000  0.538700  1.0  -0.6127
  N  N1204  1  0.313780  0.444040  0.595000  1.0  -0.6218
  N  N1205  1  0.187400  0.195300  0.757800  1.0  -0.6028
  N  N1206  1  0.524200  0.560400  0.787300  1.0  -0.599
  N  N1207  1  0.766860  0.181910  0.358670  1.0  -0.6352
  N  N1208  1  0.494920  0.809290  0.625670  1.0  -0.6052
  N  N1209  1  0.632000  0.955620  0.205370  1.0  -0.6125
  N  N1210  1  0.555960  0.869740  0.261670  1.0  -0.6214
  N  N1211  1  0.804700  0.992100  0.424470  1.0  -0.6056
  N  N1212  1  0.439600  0.963800  0.453970  1.0  -0.5986
  N  N1213  1  0.818090  0.584950  0.025330  1.0  -0.6336
  N  N1214  1  0.190710  0.685630  0.292330  1.0  -0.6049
  N  N1215  1  0.044380  0.676380  0.872030  1.0  -0.6084
  N  N1216  1  0.130260  0.686220  0.928330  1.0  -0.6219
  N  N1217  1  0.007900  0.812600  0.091130  1.0  -0.6014
  N  N1218  1  0.036200  0.475800  0.120630  1.0  -0.6008
  N  N1219  1  0.766860  0.584950  0.474670  1.0  -0.6342
  N  N1220  1  0.494920  0.685630  0.207670  1.0  -0.6032
  N  N1221  1  0.632000  0.676380  0.627970  1.0  -0.609
  N  N1222  1  0.555960  0.686220  0.571670  1.0  -0.6194
  N  N1223  1  0.804700  0.812600  0.408870  1.0  -0.6013
  N  N1224  1  0.439600  0.475800  0.379370  1.0  -0.5992
  N  N1225  1  0.818090  0.233140  0.808000  1.0  -0.6351
  N  N1226  1  0.190710  0.505080  0.541000  1.0  -0.6048
  N  N1227  1  0.044380  0.368000  0.961300  1.0  -0.6105
  N  N1228  1  0.130260  0.444040  0.905000  1.0  -0.6188
  N  N1229  1  0.007900  0.195300  0.742200  1.0  -0.6015
  N  N1230  1  0.036200  0.560400  0.712700  1.0  -0.6
  N  N1231  1  0.415050  0.181910  0.141330  1.0  -0.636
  N  N1232  1  0.314370  0.809290  0.874330  1.0  -0.6059
  N  N1233  1  0.323620  0.955620  0.294630  1.0  -0.608
  N  N1234  1  0.313780  0.869740  0.238330  1.0  -0.6205
  N  N1235  1  0.187400  0.992100  0.075530  1.0  -0.601
  N  N1236  1  0.524200  0.963800  0.046030  1.0  -0.5977
  N  N1237  1  0.233140  0.415050  0.974670  1.0  -0.6355
  N  N1238  1  0.505080  0.314370  0.707670  1.0  -0.6056
  N  N1239  1  0.368000  0.323620  0.127970  1.0  -0.6093
  N  N1240  1  0.444040  0.313780  0.071670  1.0  -0.6202
  N  N1241  1  0.195300  0.187400  0.908870  1.0  -0.5998
  N  N1242  1  0.560400  0.524200  0.879370  1.0  -0.6025
  N  N1243  1  0.181910  0.766860  0.308000  1.0  -0.6322
  N  N1244  1  0.809290  0.494920  0.041000  1.0  -0.6049
  N  N1245  1  0.955620  0.632000  0.461300  1.0  -0.6111
  N  N1246  1  0.869740  0.555960  0.405000  1.0  -0.6206
  N  N1247  1  0.992100  0.804700  0.242200  1.0  -0.6
  N  N1248  1  0.963800  0.439600  0.212700  1.0  -0.5994
  N  N1249  1  0.584950  0.818090  0.641330  1.0  -0.6341
  N  N1250  1  0.685630  0.190710  0.374330  1.0  -0.604
  N  N1251  1  0.676380  0.044380  0.794630  1.0  -0.6086
  N  N1252  1  0.686220  0.130260  0.738330  1.0  -0.6198
  N  N1253  1  0.812600  0.007900  0.575530  1.0  -0.6039
  N  N1254  1  0.475800  0.036200  0.546030  1.0  -0.5986
  Cl  Cl1255  1  0.631180  0.631180  0.333333  1.0  -0.5317
  Cl  Cl1256  1  0.368820  0.000000  0.000000  1.0  -0.5311
  Cl  Cl1257  1  0.000000  0.368820  0.666667  1.0  -0.5322
  Cl  Cl1258  1  0.368820  0.368820  0.833330  1.0  -0.5318
  Cl  Cl1259  1  0.631180  0.000000  0.500000  1.0  -0.5312
  Cl  Cl1260  1  0.000000  0.631180  0.166670  1.0  -0.5317
  O  O1261  1  0.642810  0.420310  0.521300  1.0  -0.6406
  O  O1262  1  0.600280  0.382200  0.434800  1.0  -0.6528
  O  O1263  1  0.645700  0.648000  0.926600  1.0  -0.7119
  O  O1264  1  0.671300  0.721100  0.963800  1.0  -0.5407
  O  O1265  1  0.735500  0.513260  0.084100  1.0  -0.5967
  O  O1266  1  0.684670  0.455190  0.141000  1.0  -0.577
  O  O1267  1  0.876600  0.828300  0.171900  1.0  -0.4149
  O  O1268  1  0.831400  0.812700  0.095800  1.0  -0.5034
  O  O1269  1  0.450500  0.373300  0.191500  1.0  -0.6113
  O  O1270  1  0.520200  0.390300  0.168400  1.0  -0.5444
  O  O1271  1  0.683800  0.418600  0.647400  1.0  -0.6499
  O  O1272  1  0.579690  0.222500  0.187970  1.0  -0.6406
  O  O1273  1  0.617800  0.218080  0.101470  1.0  -0.6479
  O  O1274  1  0.352000  0.997700  0.593270  1.0  -0.7127
  O  O1275  1  0.278900  0.950200  0.630470  1.0  -0.5448
  O  O1276  1  0.486740  0.222240  0.750770  1.0  -0.5991
  O  O1277  1  0.544810  0.229480  0.807670  1.0  -0.5776
  O  O1278  1  0.171700  0.048300  0.838570  1.0  -0.4233
  O  O1279  1  0.187300  0.018700  0.762470  1.0  -0.5131
  O  O1280  1  0.626700  0.077200  0.858170  1.0  -0.6084
  O  O1281  1  0.609700  0.129900  0.835070  1.0  -0.5437
  O  O1282  1  0.581400  0.265200  0.314070  1.0  -0.6512
  O  O1283  1  0.777500  0.357190  0.854630  1.0  -0.6375
  O  O1284  1  0.781920  0.399720  0.768130  1.0  -0.6477
  O  O1285  1  0.002300  0.354300  0.259930  1.0  -0.7133
  O  O1286  1  0.049800  0.328700  0.297130  1.0  -0.5435
  O  O1287  1  0.777760  0.264500  0.417430  1.0  -0.5994
  O  O1288  1  0.770520  0.315330  0.474330  1.0  -0.5745
  O  O1289  1  0.951700  0.123400  0.505230  1.0  -0.4148
  O  O1290  1  0.981300  0.168600  0.429130  1.0  -0.5057
  O  O1291  1  0.922800  0.549500  0.524830  1.0  -0.612
  O  O1292  1  0.870100  0.479800  0.501730  1.0  -0.5429
  O  O1293  1  0.734800  0.316200  0.980730  1.0  -0.6511
  O  O1294  1  0.357190  0.579690  0.021300  1.0  -0.6414
  O  O1295  1  0.399720  0.617800  0.934800  1.0  -0.6513
  O  O1296  1  0.354300  0.352000  0.426600  1.0  -0.7118
  O  O1297  1  0.328700  0.278900  0.463800  1.0  -0.5476
  O  O1298  1  0.264500  0.486740  0.584100  1.0  -0.5956
  O  O1299  1  0.315330  0.544810  0.641000  1.0  -0.5799
  O  O1300  1  0.123400  0.171700  0.671900  1.0  -0.4175
  O  O1301  1  0.168600  0.187300  0.595800  1.0  -0.5057
  O  O1302  1  0.549500  0.626700  0.691500  1.0  -0.6146
  O  O1303  1  0.479800  0.609700  0.668400  1.0  -0.5453
  O  O1304  1  0.316200  0.581400  0.147400  1.0  -0.6509
  O  O1305  1  0.420310  0.777500  0.687970  1.0  -0.6398
  O  O1306  1  0.382200  0.781920  0.601470  1.0  -0.6505
  O  O1307  1  0.648000  0.002300  0.093270  1.0  -0.7119
  O  O1308  1  0.721100  0.049800  0.130470  1.0  -0.5386
  O  O1309  1  0.513260  0.777760  0.250770  1.0  -0.5992
  O  O1310  1  0.455190  0.770520  0.307670  1.0  -0.5721
  O  O1311  1  0.828300  0.951700  0.338570  1.0  -0.4238
  O  O1312  1  0.812700  0.981300  0.262470  1.0  -0.5048
  O  O1313  1  0.373300  0.922800  0.358170  1.0  -0.6108
  O  O1314  1  0.390300  0.870100  0.335070  1.0  -0.5453
  O  O1315  1  0.418600  0.734800  0.814070  1.0  -0.6507
  O  O1316  1  0.222500  0.642810  0.354630  1.0  -0.6384
  O  O1317  1  0.218080  0.600280  0.268130  1.0  -0.6454
  O  O1318  1  0.997700  0.645700  0.759930  1.0  -0.7139
  O  O1319  1  0.950200  0.671300  0.797130  1.0  -0.5462
  O  O1320  1  0.222240  0.735500  0.917430  1.0  -0.5961
  O  O1321  1  0.229480  0.684670  0.974330  1.0  -0.5767
  O  O1322  1  0.048300  0.876600  0.005230  1.0  -0.4149
  O  O1323  1  0.018700  0.831400  0.929130  1.0  -0.508
  O  O1324  1  0.077200  0.450500  0.024830  1.0  -0.6116
  O  O1325  1  0.129900  0.520200  0.001730  1.0  -0.5426
  O  O1326  1  0.265200  0.683800  0.480730  1.0  -0.6499
  O  O1327  1  0.420310  0.642810  0.145370  1.0  -0.6367
  O  O1328  1  0.382200  0.600280  0.231870  1.0  -0.6477
  O  O1329  1  0.648000  0.645700  0.740070  1.0  -0.7104
  O  O1330  1  0.721100  0.671300  0.702870  1.0  -0.5395
  O  O1331  1  0.513260  0.735500  0.582570  1.0  -0.597
  O  O1332  1  0.455190  0.684670  0.525670  1.0  -0.573
  O  O1333  1  0.828300  0.876600  0.494770  1.0  -0.414
  O  O1334  1  0.812700  0.831400  0.570870  1.0  -0.5046
  O  O1335  1  0.373300  0.450500  0.475170  1.0  -0.6142
  O  O1336  1  0.390300  0.520200  0.498270  1.0  -0.5429
  O  O1337  1  0.418600  0.683800  0.019270  1.0  -0.6508
  O  O1338  1  0.222500  0.579690  0.478700  1.0  -0.6406
  O  O1339  1  0.218080  0.617800  0.565200  1.0  -0.6509
  O  O1340  1  0.997700  0.352000  0.073400  1.0  -0.7087
  O  O1341  1  0.950200  0.278900  0.036200  1.0  -0.5519
  O  O1342  1  0.222240  0.486740  0.915900  1.0  -0.5935
  O  O1343  1  0.229480  0.544810  0.859000  1.0  -0.5789
  O  O1344  1  0.048300  0.171700  0.828100  1.0  -0.4179
  O  O1345  1  0.018700  0.187300  0.904200  1.0  -0.5067
  O  O1346  1  0.077200  0.626700  0.808500  1.0  -0.6188
  O  O1347  1  0.129900  0.609700  0.831600  1.0  -0.542
  O  O1348  1  0.265200  0.581400  0.352600  1.0  -0.65
  O  O1349  1  0.357190  0.777500  0.812030  1.0  -0.6389
  O  O1350  1  0.399720  0.781920  0.898530  1.0  -0.6483
  O  O1351  1  0.354300  0.002300  0.406730  1.0  -0.7099
  O  O1352  1  0.328700  0.049800  0.369530  1.0  -0.5439
  O  O1353  1  0.264500  0.777760  0.249230  1.0  -0.597
  O  O1354  1  0.315330  0.770520  0.192330  1.0  -0.5741
  O  O1355  1  0.123400  0.951700  0.161430  1.0  -0.4154
  O  O1356  1  0.168600  0.981300  0.237530  1.0  -0.5061
  O  O1357  1  0.549500  0.922800  0.141830  1.0  -0.6144
  O  O1358  1  0.479800  0.870100  0.164930  1.0  -0.5435
  O  O1359  1  0.316200  0.734800  0.685930  1.0  -0.6515
  O  O1360  1  0.579690  0.357190  0.645370  1.0  -0.6367
  O  O1361  1  0.617800  0.399720  0.731870  1.0  -0.645
  O  O1362  1  0.352000  0.354300  0.240070  1.0  -0.7106
  O  O1363  1  0.278900  0.328700  0.202870  1.0  -0.5458
  O  O1364  1  0.486740  0.264500  0.082570  1.0  -0.5957
  O  O1365  1  0.544810  0.315330  0.025670  1.0  -0.5764
  O  O1366  1  0.171700  0.123400  0.994770  1.0  -0.4132
  O  O1367  1  0.187300  0.168600  0.070870  1.0  -0.5117
  O  O1368  1  0.626700  0.549500  0.975170  1.0  -0.614
  O  O1369  1  0.609700  0.479800  0.998270  1.0  -0.542
  O  O1370  1  0.581400  0.316200  0.519270  1.0  -0.6507
  O  O1371  1  0.777500  0.420310  0.978700  1.0  -0.6385
  O  O1372  1  0.781920  0.382200  0.065200  1.0  -0.6522
  O  O1373  1  0.002300  0.648000  0.573400  1.0  -0.7113
  O  O1374  1  0.049800  0.721100  0.536200  1.0  -0.5401
  O  O1375  1  0.777760  0.513260  0.415900  1.0  -0.5944
  O  O1376  1  0.770520  0.455190  0.359000  1.0  -0.5766
  O  O1377  1  0.951700  0.828300  0.328100  1.0  -0.4216
  O  O1378  1  0.981300  0.812700  0.404200  1.0  -0.5095
  O  O1379  1  0.922800  0.373300  0.308500  1.0  -0.6159
  O  O1380  1  0.870100  0.390300  0.331600  1.0  -0.5433
  O  O1381  1  0.734800  0.418600  0.852600  1.0  -0.651
  O  O1382  1  0.642810  0.222500  0.312030  1.0  -0.6389
  O  O1383  1  0.600280  0.218080  0.398530  1.0  -0.6493
  O  O1384  1  0.645700  0.997700  0.906730  1.0  -0.7095
  O  O1385  1  0.671300  0.950200  0.869530  1.0  -0.5475
  O  O1386  1  0.735500  0.222240  0.749230  1.0  -0.5964
  O  O1387  1  0.684670  0.229480  0.692330  1.0  -0.5752
  O  O1388  1  0.876600  0.048300  0.661430  1.0  -0.4138
  O  O1389  1  0.831400  0.018700  0.737530  1.0  -0.5041
  O  O1390  1  0.450500  0.077200  0.641830  1.0  -0.6135
  O  O1391  1  0.520200  0.129900  0.664930  1.0  -0.5431
  O  O1392  1  0.683800  0.265200  0.185930  1.0  -0.6507
  O  O1393  1  0.664300  0.664300  0.833330  1.0  -0.7934
  O  O1394  1  0.335700  0.000000  0.500000  1.0  -0.7899
  O  O1395  1  0.000000  0.335700  0.166670  1.0  -0.7917
  O  O1396  1  0.335700  0.335700  0.333333  1.0  -0.7904
  O  O1397  1  0.664300  0.000000  0.000000  1.0  -0.792
  O  O1398  1  0.000000  0.664300  0.666667  1.0  -0.7925
