# generated using pymatgen
data_La4Ag8H111Pd6C62S12N12O29
_symmetry_space_group_name_H-M   'P 1'
_cell_length_a   24.92700000
_cell_length_b   24.92700000
_cell_length_c   46.04500000
_cell_angle_alpha   90.00000000
_cell_angle_beta   90.00000000
_cell_angle_gamma   90.00000000
_symmetry_Int_Tables_number   1
_chemical_formula_structural   La4Ag8H111Pd6C62S12N12O29
_chemical_formula_sum   'La32 Ag64 H888 Pd48 C496 S96 N96 O232'
_cell_volume   28610.30612380
_cell_formula_units_Z   8
loop_
 _symmetry_equiv_pos_site_id
 _symmetry_equiv_pos_as_xyz
  1  'x, y, z'
loop_
 _atom_site_type_symbol
 _atom_site_label
 _atom_site_symmetry_multiplicity
 _atom_site_fract_x
 _atom_site_fract_y
 _atom_site_fract_z
 _atom_site_occupancy
 _atom_site_charge
  La  La1  1  0.922070  0.377860  0.111820  1.0  2.1443
  La  La2  1  0.894900  0.047800  0.273600  1.0  2.0458
  La  La3  1  0.842600  0.101700  0.304300  1.0  1.9091
  La  La4  1  0.077930  0.622140  0.611820  1.0  2.1465
  La  La5  1  0.105100  0.952200  0.773600  1.0  2.0443
  La  La6  1  0.157400  0.898300  0.804300  1.0  1.9079
  La  La7  1  0.122140  0.422070  0.361820  1.0  2.1436
  La  La8  1  0.452200  0.394900  0.523600  1.0  2.0434
  La  La9  1  0.398300  0.342600  0.554300  1.0  1.9059
  La  La10  1  0.877860  0.577930  0.861820  1.0  2.1441
  La  La11  1  0.547800  0.605100  0.023600  1.0  2.0447
  La  La12  1  0.601700  0.657400  0.054300  1.0  1.9084
  La  La13  1  0.577930  0.877860  0.138180  1.0  2.1433
  La  La14  1  0.605100  0.547800  0.976400  1.0  2.044
  La  La15  1  0.657400  0.601700  0.945700  1.0  1.9088
  La  La16  1  0.422070  0.122140  0.638180  1.0  2.1458
  La  La17  1  0.394900  0.452200  0.476400  1.0  2.0446
  La  La18  1  0.342600  0.398300  0.445700  1.0  1.9089
  La  La19  1  0.377860  0.922070  0.888180  1.0  2.1433
  La  La20  1  0.047800  0.894900  0.726400  1.0  2.0429
  La  La21  1  0.101700  0.842600  0.695700  1.0  1.9079
  La  La22  1  0.622140  0.077930  0.388180  1.0  2.1427
  La  La23  1  0.952200  0.105100  0.226400  1.0  2.0429
  La  La24  1  0.898300  0.157400  0.195700  1.0  1.9076
  La  La25  1  0.614030  0.614030  0.500000  1.0  1.6744
  La  La26  1  0.385970  0.385970  0.000000  1.0  1.6739
  La  La27  1  0.885970  0.114030  0.750000  1.0  1.6742
  La  La28  1  0.114030  0.885970  0.250000  1.0  1.6741
  La  La29  1  0.866550  0.133450  0.250000  1.0  1.9474
  La  La30  1  0.133450  0.866550  0.750000  1.0  1.9504
  La  La31  1  0.366550  0.366550  0.500000  1.0  1.9473
  La  La32  1  0.633450  0.633450  0.000000  1.0  1.9504
  Ag  Ag33  1  0.712080  0.656040  0.227850  1.0  0.2503
  Ag  Ag34  1  0.845850  0.610150  0.248730  1.0  0.169
  Ag  Ag35  1  0.810200  0.500380  0.288490  1.0  0.2326
  Ag  Ag36  1  0.674790  0.557740  0.273820  1.0  0.112
  Ag  Ag37  1  0.729250  0.732150  0.290470  1.0  0.1922
  Ag  Ag38  1  0.871100  0.713980  0.309860  1.0  0.1787
  Ag  Ag39  1  0.800610  0.591390  0.344500  1.0  0.1887
  Ag  Ag40  1  0.650670  0.640090  0.346840  1.0  0.1447
  Ag  Ag41  1  0.287920  0.343960  0.727850  1.0  0.2503
  Ag  Ag42  1  0.154150  0.389850  0.748730  1.0  0.1689
  Ag  Ag43  1  0.189800  0.499620  0.788490  1.0  0.2292
  Ag  Ag44  1  0.325210  0.442260  0.773820  1.0  0.1113
  Ag  Ag45  1  0.270750  0.267850  0.790470  1.0  0.1965
  Ag  Ag46  1  0.128900  0.286020  0.809860  1.0  0.1794
  Ag  Ag47  1  0.199390  0.408610  0.844500  1.0  0.1878
  Ag  Ag48  1  0.349330  0.359910  0.846840  1.0  0.1465
  Ag  Ag49  1  0.843960  0.212080  0.477850  1.0  0.2509
  Ag  Ag50  1  0.889850  0.345850  0.498730  1.0  0.1678
  Ag  Ag51  1  0.999620  0.310200  0.538490  1.0  0.2305
  Ag  Ag52  1  0.942260  0.174790  0.523820  1.0  0.1139
  Ag  Ag53  1  0.767850  0.229250  0.540470  1.0  0.1991
  Ag  Ag54  1  0.786020  0.371100  0.559860  1.0  0.18
  Ag  Ag55  1  0.908610  0.300610  0.594500  1.0  0.1881
  Ag  Ag56  1  0.859910  0.150670  0.596840  1.0  0.1476
  Ag  Ag57  1  0.156040  0.787920  0.977850  1.0  0.25
  Ag  Ag58  1  0.110150  0.654150  0.998730  1.0  0.1692
  Ag  Ag59  1  0.000380  0.689800  0.038490  1.0  0.2303
  Ag  Ag60  1  0.057740  0.825210  0.023820  1.0  0.1111
  Ag  Ag61  1  0.232150  0.770750  0.040470  1.0  0.1955
  Ag  Ag62  1  0.213980  0.628900  0.059860  1.0  0.1806
  Ag  Ag63  1  0.091390  0.699390  0.094500  1.0  0.189
  Ag  Ag64  1  0.140090  0.849330  0.096840  1.0  0.1485
  Ag  Ag65  1  0.787920  0.156040  0.022150  1.0  0.2407
  Ag  Ag66  1  0.654150  0.110150  0.001270  1.0  0.1644
  Ag  Ag67  1  0.689800  0.000380  0.961510  1.0  0.2315
  Ag  Ag68  1  0.825210  0.057740  0.976180  1.0  0.1143
  Ag  Ag69  1  0.770750  0.232150  0.959530  1.0  0.1931
  Ag  Ag70  1  0.628900  0.213980  0.940140  1.0  0.1787
  Ag  Ag71  1  0.699390  0.091390  0.905500  1.0  0.196
  Ag  Ag72  1  0.849330  0.140090  0.903160  1.0  0.1463
  Ag  Ag73  1  0.212080  0.843960  0.522150  1.0  0.2413
  Ag  Ag74  1  0.345850  0.889850  0.501270  1.0  0.1655
  Ag  Ag75  1  0.310200  0.999620  0.461510  1.0  0.2295
  Ag  Ag76  1  0.174790  0.942260  0.476180  1.0  0.1104
  Ag  Ag77  1  0.229250  0.767850  0.459530  1.0  0.1973
  Ag  Ag78  1  0.371100  0.786020  0.440140  1.0  0.1785
  Ag  Ag79  1  0.300610  0.908610  0.405500  1.0  0.1929
  Ag  Ag80  1  0.150670  0.859910  0.403160  1.0  0.1439
  Ag  Ag81  1  0.656040  0.712080  0.772150  1.0  0.2415
  Ag  Ag82  1  0.610150  0.845850  0.751270  1.0  0.1626
  Ag  Ag83  1  0.500380  0.810200  0.711510  1.0  0.2298
  Ag  Ag84  1  0.557740  0.674790  0.726180  1.0  0.1133
  Ag  Ag85  1  0.732150  0.729250  0.709530  1.0  0.197
  Ag  Ag86  1  0.713980  0.871100  0.690140  1.0  0.18
  Ag  Ag87  1  0.591390  0.800610  0.655500  1.0  0.1934
  Ag  Ag88  1  0.640090  0.650670  0.653160  1.0  0.1478
  Ag  Ag89  1  0.343960  0.287920  0.272150  1.0  0.241
  Ag  Ag90  1  0.389850  0.154150  0.251270  1.0  0.1643
  Ag  Ag91  1  0.499620  0.189800  0.211510  1.0  0.2306
  Ag  Ag92  1  0.442260  0.325210  0.226180  1.0  0.1109
  Ag  Ag93  1  0.267850  0.270750  0.209530  1.0  0.1976
  Ag  Ag94  1  0.286020  0.128900  0.190140  1.0  0.1798
  Ag  Ag95  1  0.408610  0.199390  0.155500  1.0  0.1946
  Ag  Ag96  1  0.359910  0.349330  0.153160  1.0  0.1472
  H  H97  1  0.717100  0.474800  0.155100  1.0  0.2852
  H  H98  1  0.681000  0.451100  0.177300  1.0  0.234
  H  H99  1  0.785100  0.404100  0.189000  1.0  0.2723
  H  H100  1  0.814900  0.442600  0.170600  1.0  0.225
  H  H101  1  0.815300  0.808900  0.176900  1.0  0.2921
  H  H102  1  0.868100  0.781300  0.176400  1.0  0.2209
  H  H103  1  0.892600  0.849700  0.221700  1.0  0.2784
  H  H104  1  0.837200  0.871200  0.223300  1.0  0.2255
  H  H105  1  0.044900  0.609600  0.320800  1.0  0.2373
  H  H106  1  0.046200  0.582700  0.292000  1.0  0.2588
  H  H107  1  0.020900  0.498600  0.327400  1.0  0.2906
  H  H108  1  0.996200  0.519900  0.354500  1.0  0.2215
  H  H109  1  0.679100  0.377100  0.357300  1.0  0.2195
  H  H110  1  0.632500  0.392700  0.339000  1.0  0.2182
  H  H111  1  0.619000  0.461500  0.389800  1.0  0.2718
  H  H112  1  0.672700  0.445700  0.400900  1.0  0.2184
  H  H113  1  0.479000  0.687900  0.291900  1.0  0.2482
  H  H114  1  0.479400  0.642400  0.271200  1.0  0.2506
  H  H115  1  0.509100  0.721600  0.235100  1.0  0.2908
  H  H116  1  0.527700  0.765700  0.254300  1.0  0.2561
  H  H117  1  0.711800  0.796100  0.413600  1.0  0.2946
  H  H118  1  0.723200  0.834600  0.389800  1.0  0.2553
  H  H119  1  0.825500  0.802500  0.406100  1.0  0.282
  H  H120  1  0.816100  0.751600  0.422100  1.0  0.2229
  H  H121  1  0.679400  0.554500  0.157500  1.0  0.0777
  H  H122  1  0.628100  0.467300  0.212300  1.0  0.0473
  H  H123  1  0.575400  0.490900  0.197100  1.0  0.0662
  H  H124  1  0.592500  0.511200  0.228800  1.0  0.0532
  H  H125  1  0.624700  0.620900  0.183400  1.0  0.1037
  H  H126  1  0.589100  0.605500  0.211000  1.0  0.0978
  H  H127  1  0.572400  0.584500  0.179500  1.0  0.0917
  H  H128  1  0.845200  0.401300  0.223300  1.0  0.0875
  H  H129  1  0.872100  0.515800  0.178100  1.0  0.0742
  H  H130  1  0.930400  0.491200  0.183900  1.0  0.0937
  H  H131  1  0.912700  0.545700  0.199600  1.0  0.0919
  H  H132  1  0.905300  0.450100  0.258200  1.0  0.1041
  H  H133  1  0.933200  0.505500  0.249400  1.0  0.102
  H  H134  1  0.951800  0.450700  0.234300  1.0  0.0873
  H  H135  1  0.768200  0.735500  0.166300  1.0  0.0639
  H  H136  1  0.903000  0.700900  0.186900  1.0  0.0783
  H  H137  1  0.894900  0.667600  0.157500  1.0  0.0855
  H  H138  1  0.895400  0.637200  0.188100  1.0  0.0933
  H  H139  1  0.756300  0.638600  0.169700  1.0  0.0876
  H  H140  1  0.804500  0.599400  0.178400  1.0  0.0743
  H  H141  1  0.804700  0.628600  0.147500  1.0  0.0834
  H  H142  1  0.904100  0.847500  0.269300  1.0  0.0809
  H  H143  1  0.742200  0.859700  0.283900  1.0  0.0766
  H  H144  1  0.765200  0.868600  0.251800  1.0  0.0687
  H  H145  1  0.777400  0.911700  0.276700  1.0  0.0786
  H  H146  1  0.863000  0.829900  0.320100  1.0  0.1039
  H  H147  1  0.799600  0.834600  0.324900  1.0  0.1063
  H  H148  1  0.834700  0.887500  0.319700  1.0  0.0838
  H  H149  1  0.008000  0.684600  0.304000  1.0  0.0784
  H  H150  1  0.999800  0.586000  0.250300  1.0  0.0784
  H  H151  1  0.024900  0.634200  0.231800  1.0  0.0827
  H  H152  1  0.963100  0.618400  0.227800  1.0  0.0826
  H  H153  1  0.957700  0.738700  0.266700  1.0  0.1017
  H  H154  1  0.937000  0.709800  0.237800  1.0  0.0858
  H  H155  1  0.999000  0.725300  0.241200  1.0  0.0881
  H  H156  1  0.947000  0.448400  0.316800  1.0  0.0795
  H  H157  1  0.930100  0.524700  0.381000  1.0  0.082
  H  H158  1  0.913200  0.466900  0.393000  1.0  0.0864
  H  H159  1  0.868100  0.510900  0.386100  1.0  0.0784
  H  H160  1  0.855800  0.419300  0.326600  1.0  0.103
  H  H161  1  0.822200  0.445100  0.352700  1.0  0.0892
  H  H162  1  0.867500  0.401300  0.359300  1.0  0.0889
  H  H163  1  0.735500  0.374800  0.320700  1.0  0.0672
  H  H164  1  0.629700  0.443600  0.265400  1.0  0.0753
  H  H165  1  0.612700  0.431400  0.298300  1.0  0.0771
  H  H166  1  0.620400  0.383000  0.275800  1.0  0.0685
  H  H167  1  0.763100  0.396100  0.270700  1.0  0.0897
  H  H168  1  0.722400  0.426600  0.249500  1.0  0.0879
  H  H169  1  0.713300  0.364500  0.257000  1.0  0.0821
  H  H170  1  0.628700  0.548900  0.400500  1.0  0.0842
  H  H171  1  0.760000  0.487400  0.401200  1.0  0.0835
  H  H172  1  0.761800  0.519200  0.431400  1.0  0.0873
  H  H173  1  0.792600  0.542500  0.403600  1.0  0.0855
  H  H174  1  0.680400  0.630900  0.408600  1.0  0.1032
  H  H175  1  0.744600  0.629200  0.408900  1.0  0.101
  H  H176  1  0.711400  0.607600  0.436300  1.0  0.0922
  H  H177  1  0.511500  0.640200  0.328500  1.0  0.0717
  H  H178  1  0.557400  0.517600  0.276400  1.0  0.07
  H  H179  1  0.527700  0.568100  0.262000  1.0  0.0814
  H  H180  1  0.494500  0.526600  0.281500  1.0  0.0816
  H  H181  1  0.580600  0.517000  0.326400  1.0  0.097
  H  H182  1  0.519900  0.524000  0.337000  1.0  0.0907
  H  H183  1  0.564800  0.565400  0.347600  1.0  0.0948
  H  H184  1  0.583700  0.724400  0.207200  1.0  0.0859
  H  H185  1  0.591500  0.815400  0.266800  1.0  0.0797
  H  H186  1  0.609500  0.854000  0.240800  1.0  0.0874
  H  H187  1  0.653200  0.832300  0.263400  1.0  0.0937
  H  H188  1  0.677600  0.751300  0.198800  1.0  0.1015
  H  H189  1  0.707300  0.792300  0.220200  1.0  0.092
  H  H190  1  0.662600  0.813700  0.198100  1.0  0.092
  H  H191  1  0.638300  0.763200  0.392700  1.0  0.0829
  H  H192  1  0.650100  0.866300  0.338300  1.0  0.0915
  H  H193  1  0.678200  0.829500  0.314200  1.0  0.0791
  H  H194  1  0.710500  0.846400  0.342900  1.0  0.076
  H  H195  1  0.574600  0.800300  0.340400  1.0  0.098
  H  H196  1  0.589000  0.738000  0.343500  1.0  0.1038
  H  H197  1  0.606100  0.770200  0.314800  1.0  0.0926
  H  H198  1  0.893300  0.766400  0.377800  1.0  0.0775
  H  H199  1  0.861300  0.615400  0.402900  1.0  0.0937
  H  H200  1  0.826600  0.661900  0.417700  1.0  0.0743
  H  H201  1  0.888300  0.654200  0.426400  1.0  0.0805
  H  H202  1  0.926800  0.632400  0.367900  1.0  0.0999
  H  H203  1  0.959400  0.673100  0.388200  1.0  0.0842
  H  H204  1  0.939200  0.691900  0.356800  1.0  0.0967
  H  H205  1  0.795500  0.449000  0.038800  1.0  0.1273
  H  H206  1  0.841700  0.435400  0.015800  1.0  0.1053
  H  H207  1  0.841000  0.492400  0.031700  1.0  0.1325
  H  H208  1  0.282900  0.525200  0.655100  1.0  0.2852
  H  H209  1  0.319000  0.548900  0.677300  1.0  0.2349
  H  H210  1  0.214900  0.595900  0.689000  1.0  0.2712
  H  H211  1  0.185100  0.557400  0.670600  1.0  0.2255
  H  H212  1  0.184700  0.191100  0.676900  1.0  0.2938
  H  H213  1  0.131900  0.218700  0.676400  1.0  0.2184
  H  H214  1  0.107400  0.150300  0.721700  1.0  0.2769
  H  H215  1  0.162800  0.128800  0.723300  1.0  0.2241
  H  H216  1  0.955100  0.390400  0.820800  1.0  0.2364
  H  H217  1  0.953800  0.417300  0.792000  1.0  0.2586
  H  H218  1  0.979100  0.501400  0.827400  1.0  0.2903
  H  H219  1  0.003800  0.480100  0.854500  1.0  0.2216
  H  H220  1  0.320900  0.622900  0.857300  1.0  0.2182
  H  H221  1  0.367500  0.607300  0.839000  1.0  0.2212
  H  H222  1  0.381000  0.538500  0.889800  1.0  0.2738
  H  H223  1  0.327300  0.554300  0.900900  1.0  0.2183
  H  H224  1  0.521000  0.312100  0.791900  1.0  0.2466
  H  H225  1  0.520600  0.357600  0.771200  1.0  0.2505
  H  H226  1  0.490900  0.278400  0.735100  1.0  0.2936
  H  H227  1  0.472300  0.234300  0.754300  1.0  0.2565
  H  H228  1  0.288200  0.203900  0.913600  1.0  0.2946
  H  H229  1  0.276800  0.165400  0.889800  1.0  0.2567
  H  H230  1  0.174500  0.197500  0.906100  1.0  0.2791
  H  H231  1  0.183900  0.248400  0.922100  1.0  0.2225
  H  H232  1  0.320600  0.445500  0.657500  1.0  0.0768
  H  H233  1  0.371900  0.532700  0.712300  1.0  0.0481
  H  H234  1  0.424600  0.509100  0.697100  1.0  0.0651
  H  H235  1  0.407500  0.488800  0.728800  1.0  0.0539
  H  H236  1  0.375300  0.379100  0.683400  1.0  0.1038
  H  H237  1  0.410900  0.394500  0.711000  1.0  0.0975
  H  H238  1  0.427600  0.415500  0.679500  1.0  0.0943
  H  H239  1  0.154800  0.598700  0.723300  1.0  0.0864
  H  H240  1  0.127900  0.484200  0.678100  1.0  0.0746
  H  H241  1  0.069600  0.508800  0.683900  1.0  0.0927
  H  H242  1  0.087300  0.454300  0.699600  1.0  0.0926
  H  H243  1  0.094700  0.549900  0.758200  1.0  0.1045
  H  H244  1  0.066800  0.494500  0.749400  1.0  0.102
  H  H245  1  0.048200  0.549300  0.734300  1.0  0.0884
  H  H246  1  0.231800  0.264500  0.666300  1.0  0.0637
  H  H247  1  0.097000  0.299100  0.686900  1.0  0.0801
  H  H248  1  0.105100  0.332400  0.657500  1.0  0.0854
  H  H249  1  0.104600  0.362800  0.688100  1.0  0.0929
  H  H250  1  0.243700  0.361400  0.669700  1.0  0.0887
  H  H251  1  0.195500  0.400600  0.678400  1.0  0.0741
  H  H252  1  0.195300  0.371400  0.647500  1.0  0.0849
  H  H253  1  0.095900  0.152500  0.769300  1.0  0.0758
  H  H254  1  0.257800  0.140300  0.783900  1.0  0.077
  H  H255  1  0.234800  0.131400  0.751800  1.0  0.0678
  H  H256  1  0.222600  0.088300  0.776700  1.0  0.0788
  H  H257  1  0.137000  0.170100  0.820100  1.0  0.1044
  H  H258  1  0.200400  0.165400  0.824900  1.0  0.1066
  H  H259  1  0.165300  0.112500  0.819700  1.0  0.0836
  H  H260  1  0.992000  0.315400  0.804000  1.0  0.0777
  H  H261  1  0.000200  0.414000  0.750300  1.0  0.0769
  H  H262  1  0.975100  0.365800  0.731800  1.0  0.0834
  H  H263  1  0.036900  0.381600  0.727800  1.0  0.083
  H  H264  1  0.042300  0.261300  0.766700  1.0  0.1022
  H  H265  1  0.063000  0.290200  0.737800  1.0  0.0869
  H  H266  1  0.001000  0.274700  0.741200  1.0  0.0884
  H  H267  1  0.053000  0.551600  0.816800  1.0  0.0796
  H  H268  1  0.069900  0.475300  0.881000  1.0  0.0833
  H  H269  1  0.086800  0.533100  0.893000  1.0  0.0853
  H  H270  1  0.131900  0.489100  0.886100  1.0  0.0801
  H  H271  1  0.144200  0.580700  0.826600  1.0  0.1028
  H  H272  1  0.177800  0.554900  0.852700  1.0  0.0909
  H  H273  1  0.132500  0.598700  0.859300  1.0  0.0881
  H  H274  1  0.264500  0.625200  0.820700  1.0  0.0683
  H  H275  1  0.370300  0.556400  0.765400  1.0  0.0745
  H  H276  1  0.387300  0.568600  0.798300  1.0  0.077
  H  H277  1  0.379600  0.617000  0.775800  1.0  0.0681
  H  H278  1  0.236900  0.603900  0.770700  1.0  0.0906
  H  H279  1  0.277600  0.573400  0.749500  1.0  0.0876
  H  H280  1  0.286700  0.635500  0.757000  1.0  0.083
  H  H281  1  0.371300  0.451100  0.900500  1.0  0.0858
  H  H282  1  0.240000  0.512600  0.901200  1.0  0.0822
  H  H283  1  0.238200  0.480800  0.931400  1.0  0.0867
  H  H284  1  0.207400  0.457500  0.903600  1.0  0.0858
  H  H285  1  0.319600  0.369100  0.908600  1.0  0.1031
  H  H286  1  0.255400  0.370800  0.908900  1.0  0.1008
  H  H287  1  0.288600  0.392400  0.936300  1.0  0.0919
  H  H288  1  0.488500  0.359800  0.828500  1.0  0.0719
  H  H289  1  0.442600  0.482400  0.776400  1.0  0.0692
  H  H290  1  0.472300  0.431900  0.762000  1.0  0.0817
  H  H291  1  0.505500  0.473400  0.781500  1.0  0.0822
  H  H292  1  0.419400  0.483000  0.826400  1.0  0.098
  H  H293  1  0.480100  0.476000  0.837000  1.0  0.0889
  H  H294  1  0.435200  0.434600  0.847600  1.0  0.0948
  H  H295  1  0.416300  0.275600  0.707200  1.0  0.0875
  H  H296  1  0.408500  0.184600  0.766800  1.0  0.079
  H  H297  1  0.390500  0.146000  0.740800  1.0  0.0874
  H  H298  1  0.346800  0.167700  0.763400  1.0  0.0928
  H  H299  1  0.322400  0.248700  0.698800  1.0  0.1025
  H  H300  1  0.292700  0.207700  0.720200  1.0  0.0898
  H  H301  1  0.337400  0.186300  0.698100  1.0  0.0921
  H  H302  1  0.361700  0.236800  0.892700  1.0  0.0819
  H  H303  1  0.349900  0.133700  0.838300  1.0  0.089
  H  H304  1  0.321800  0.170500  0.814200  1.0  0.0788
  H  H305  1  0.289500  0.153600  0.842900  1.0  0.0758
  H  H306  1  0.425400  0.199700  0.840400  1.0  0.0989
  H  H307  1  0.411000  0.262000  0.843500  1.0  0.105
  H  H308  1  0.393900  0.229800  0.814800  1.0  0.0923
  H  H309  1  0.106700  0.233600  0.877800  1.0  0.0774
  H  H310  1  0.138700  0.384600  0.902900  1.0  0.095
  H  H311  1  0.173400  0.338100  0.917700  1.0  0.0751
  H  H312  1  0.111700  0.345800  0.926400  1.0  0.0813
  H  H313  1  0.073200  0.367600  0.867900  1.0  0.1014
  H  H314  1  0.040600  0.326900  0.888200  1.0  0.0842
  H  H315  1  0.060800  0.308100  0.856800  1.0  0.0963
  H  H316  1  0.204500  0.551000  0.538800  1.0  0.1256
  H  H317  1  0.158300  0.564600  0.515800  1.0  0.1061
  H  H318  1  0.159000  0.507600  0.531700  1.0  0.1351
  H  H319  1  0.025200  0.217100  0.405100  1.0  0.2844
  H  H320  1  0.048900  0.181000  0.427300  1.0  0.2336
  H  H321  1  0.095900  0.285100  0.439000  1.0  0.2715
  H  H322  1  0.057400  0.314900  0.420600  1.0  0.2273
  H  H323  1  0.691100  0.315300  0.426900  1.0  0.2934
  H  H324  1  0.718700  0.368100  0.426400  1.0  0.2164
  H  H325  1  0.650300  0.392600  0.471700  1.0  0.2772
  H  H326  1  0.628800  0.337200  0.473300  1.0  0.2242
  H  H327  1  0.890400  0.544900  0.570800  1.0  0.2366
  H  H328  1  0.917300  0.546200  0.542000  1.0  0.2588
  H  H329  1  0.001400  0.520900  0.577400  1.0  0.2836
  H  H330  1  0.980100  0.496200  0.604500  1.0  0.2203
  H  H331  1  0.122900  0.179100  0.607300  1.0  0.219
  H  H332  1  0.107300  0.132500  0.589000  1.0  0.2181
  H  H333  1  0.038500  0.119000  0.639800  1.0  0.2636
  H  H334  1  0.054300  0.172700  0.650900  1.0  0.2159
  H  H335  1  0.812100  0.979000  0.541900  1.0  0.2475
  H  H336  1  0.857600  0.979400  0.521200  1.0  0.2512
  H  H337  1  0.778400  0.009100  0.485100  1.0  0.2922
  H  H338  1  0.734300  0.027700  0.504300  1.0  0.2568
  H  H339  1  0.703900  0.211800  0.663600  1.0  0.2957
  H  H340  1  0.665400  0.223200  0.639800  1.0  0.2578
  H  H341  1  0.697500  0.325500  0.656100  1.0  0.2872
  H  H342  1  0.748400  0.316100  0.672100  1.0  0.2235
  H  H343  1  0.945500  0.179400  0.407500  1.0  0.0756
  H  H344  1  0.032700  0.128100  0.462300  1.0  0.048
  H  H345  1  0.009100  0.075400  0.447100  1.0  0.067
  H  H346  1  0.988800  0.092500  0.478800  1.0  0.0557
  H  H347  1  0.879100  0.124700  0.433400  1.0  0.1022
  H  H348  1  0.894500  0.089100  0.461000  1.0  0.0988
  H  H349  1  0.915500  0.072400  0.429500  1.0  0.0951
  H  H350  1  0.098700  0.345200  0.473300  1.0  0.0869
  H  H351  1  0.984200  0.372100  0.428100  1.0  0.0758
  H  H352  1  0.008800  0.430400  0.433900  1.0  0.0938
  H  H353  1  0.954300  0.412700  0.449600  1.0  0.0898
  H  H354  1  0.049900  0.405300  0.508200  1.0  0.1044
  H  H355  1  0.994500  0.433200  0.499400  1.0  0.101
  H  H356  1  0.049300  0.451800  0.484300  1.0  0.0848
  H  H357  1  0.764500  0.268200  0.416300  1.0  0.0637
  H  H358  1  0.799100  0.403000  0.436900  1.0  0.0784
  H  H359  1  0.832400  0.394900  0.407500  1.0  0.0848
  H  H360  1  0.862800  0.395400  0.438100  1.0  0.0934
  H  H361  1  0.861400  0.256300  0.419700  1.0  0.0888
  H  H362  1  0.900600  0.304500  0.428400  1.0  0.0718
  H  H363  1  0.871400  0.304700  0.397500  1.0  0.0818
  H  H364  1  0.652500  0.404100  0.519300  1.0  0.0799
  H  H365  1  0.640300  0.242200  0.533900  1.0  0.0783
  H  H366  1  0.631400  0.265200  0.501800  1.0  0.0691
  H  H367  1  0.588300  0.277400  0.526700  1.0  0.0778
  H  H368  1  0.670100  0.363000  0.570100  1.0  0.105
  H  H369  1  0.665400  0.299600  0.574900  1.0  0.1066
  H  H370  1  0.612500  0.334700  0.569700  1.0  0.0849
  H  H371  1  0.815400  0.508000  0.554000  1.0  0.0769
  H  H372  1  0.914000  0.499800  0.500300  1.0  0.0765
  H  H373  1  0.865800  0.524900  0.481800  1.0  0.0833
  H  H374  1  0.881600  0.463100  0.477800  1.0  0.0846
  H  H375  1  0.761300  0.457700  0.516700  1.0  0.1024
  H  H376  1  0.790200  0.437000  0.487800  1.0  0.087
  H  H377  1  0.774700  0.499000  0.491200  1.0  0.0889
  H  H378  1  0.051600  0.447000  0.566800  1.0  0.0801
  H  H379  1  0.975300  0.430100  0.631000  1.0  0.0824
  H  H380  1  0.033100  0.413200  0.643000  1.0  0.0845
  H  H381  1  0.989100  0.368100  0.636100  1.0  0.0783
  H  H382  1  0.080700  0.355800  0.576600  1.0  0.1049
  H  H383  1  0.054900  0.322200  0.602700  1.0  0.0936
  H  H384  1  0.098700  0.367500  0.609300  1.0  0.088
  H  H385  1  0.125200  0.235500  0.570700  1.0  0.0694
  H  H386  1  0.056400  0.129700  0.515400  1.0  0.0747
  H  H387  1  0.068600  0.112700  0.548300  1.0  0.0775
  H  H388  1  0.117000  0.120400  0.525800  1.0  0.0696
  H  H389  1  0.103900  0.263100  0.520700  1.0  0.0943
  H  H390  1  0.073400  0.222400  0.499500  1.0  0.0874
  H  H391  1  0.135500  0.213300  0.507000  1.0  0.0813
  H  H392  1  0.951100  0.128700  0.650500  1.0  0.0825
  H  H393  1  0.012600  0.260000  0.651200  1.0  0.0831
  H  H394  1  0.980800  0.261800  0.681400  1.0  0.0881
  H  H395  1  0.957500  0.292600  0.653600  1.0  0.0865
  H  H396  1  0.869100  0.180400  0.658600  1.0  0.1033
  H  H397  1  0.870800  0.244600  0.658900  1.0  0.1004
  H  H398  1  0.892400  0.211400  0.686300  1.0  0.0929
  H  H399  1  0.859800  0.011500  0.578500  1.0  0.0707
  H  H400  1  0.982400  0.057400  0.526400  1.0  0.0686
  H  H401  1  0.931900  0.027700  0.512000  1.0  0.0808
  H  H402  1  0.973400  0.994500  0.531500  1.0  0.0793
  H  H403  1  0.983000  0.080600  0.576400  1.0  0.0985
  H  H404  1  0.976000  0.019900  0.587000  1.0  0.0902
  H  H405  1  0.934600  0.064800  0.597600  1.0  0.0947
  H  H406  1  0.775600  0.083700  0.457200  1.0  0.0865
  H  H407  1  0.684600  0.091500  0.516800  1.0  0.0804
  H  H408  1  0.646000  0.109500  0.490800  1.0  0.0872
  H  H409  1  0.667700  0.153200  0.513400  1.0  0.094
  H  H410  1  0.748700  0.177600  0.448800  1.0  0.1007
  H  H411  1  0.707700  0.207300  0.470200  1.0  0.0952
  H  H412  1  0.686300  0.162600  0.448100  1.0  0.0913
  H  H413  1  0.736800  0.138300  0.642700  1.0  0.0824
  H  H414  1  0.633700  0.150100  0.588300  1.0  0.0917
  H  H415  1  0.670500  0.178200  0.564200  1.0  0.0811
  H  H416  1  0.653600  0.210500  0.592900  1.0  0.0779
  H  H417  1  0.699700  0.074600  0.590400  1.0  0.0991
  H  H418  1  0.762000  0.089000  0.593500  1.0  0.0985
  H  H419  1  0.729800  0.106100  0.564800  1.0  0.0928
  H  H420  1  0.733600  0.393300  0.627800  1.0  0.0779
  H  H421  1  0.884600  0.361300  0.652900  1.0  0.0922
  H  H422  1  0.838100  0.326600  0.667700  1.0  0.077
  H  H423  1  0.845800  0.388300  0.676400  1.0  0.0815
  H  H424  1  0.867600  0.426800  0.617900  1.0  0.1001
  H  H425  1  0.826900  0.459400  0.638200  1.0  0.0841
  H  H426  1  0.808100  0.439200  0.606800  1.0  0.0958
  H  H427  1  0.051000  0.295500  0.288800  1.0  0.1268
  H  H428  1  0.064600  0.341700  0.265800  1.0  0.1077
  H  H429  1  0.007600  0.341000  0.281700  1.0  0.1322
  H  H430  1  0.974800  0.782900  0.905100  1.0  0.2838
  H  H431  1  0.951100  0.819000  0.927300  1.0  0.2319
  H  H432  1  0.904100  0.714900  0.939000  1.0  0.2699
  H  H433  1  0.942600  0.685100  0.920600  1.0  0.2271
  H  H434  1  0.308900  0.684700  0.926900  1.0  0.2943
  H  H435  1  0.281300  0.631900  0.926400  1.0  0.2173
  H  H436  1  0.349700  0.607400  0.971700  1.0  0.2775
  H  H437  1  0.371200  0.662800  0.973300  1.0  0.2248
  H  H438  1  0.109600  0.455100  0.070800  1.0  0.2373
  H  H439  1  0.082700  0.453800  0.042000  1.0  0.2588
  H  H440  1  0.998600  0.479100  0.077400  1.0  0.2872
  H  H441  1  0.019900  0.503800  0.104500  1.0  0.2211
  H  H442  1  0.877100  0.820900  0.107300  1.0  0.219
  H  H443  1  0.892700  0.867500  0.089000  1.0  0.2192
  H  H444  1  0.961500  0.881000  0.139800  1.0  0.2625
  H  H445  1  0.945700  0.827300  0.150900  1.0  0.2162
  H  H446  1  0.187900  0.021000  0.041900  1.0  0.2514
  H  H447  1  0.142400  0.020600  0.021200  1.0  0.2517
  H  H448  1  0.221600  0.990900  0.985100  1.0  0.2929
  H  H449  1  0.265700  0.972300  0.004300  1.0  0.2569
  H  H450  1  0.296100  0.788200  0.163600  1.0  0.2942
  H  H451  1  0.334600  0.776800  0.139800  1.0  0.2565
  H  H452  1  0.302500  0.674500  0.156100  1.0  0.2943
  H  H453  1  0.251600  0.683900  0.172100  1.0  0.2227
  H  H454  1  0.054500  0.820600  0.907500  1.0  0.0773
  H  H455  1  0.967300  0.871900  0.962300  1.0  0.0472
  H  H456  1  0.990900  0.924600  0.947100  1.0  0.0683
  H  H457  1  0.011200  0.907500  0.978800  1.0  0.056
  H  H458  1  0.120900  0.875300  0.933400  1.0  0.1031
  H  H459  1  0.105500  0.910900  0.961000  1.0  0.0988
  H  H460  1  0.084500  0.927600  0.929500  1.0  0.096
  H  H461  1  0.901300  0.654800  0.973300  1.0  0.0863
  H  H462  1  0.015800  0.627900  0.928100  1.0  0.0755
  H  H463  1  0.991200  0.569600  0.933900  1.0  0.094
  H  H464  1  0.045700  0.587300  0.949600  1.0  0.092
  H  H465  1  0.950100  0.594700  0.008200  1.0  0.1046
  H  H466  1  0.005500  0.566800  0.999400  1.0  0.1022
  H  H467  1  0.950700  0.548200  0.984300  1.0  0.0826
  H  H468  1  0.235500  0.731800  0.916300  1.0  0.0652
  H  H469  1  0.200900  0.597000  0.936900  1.0  0.0795
  H  H470  1  0.167600  0.605100  0.907500  1.0  0.0859
  H  H471  1  0.137200  0.604600  0.938100  1.0  0.0932
  H  H472  1  0.138600  0.743700  0.919700  1.0  0.0914
  H  H473  1  0.099400  0.695500  0.928400  1.0  0.07
  H  H474  1  0.128600  0.695300  0.897500  1.0  0.0826
  H  H475  1  0.347500  0.595900  0.019300  1.0  0.0807
  H  H476  1  0.359700  0.757800  0.033900  1.0  0.0765
  H  H477  1  0.368600  0.734800  0.001800  1.0  0.0701
  H  H478  1  0.411700  0.722600  0.026700  1.0  0.0786
  H  H479  1  0.329900  0.637000  0.070100  1.0  0.1056
  H  H480  1  0.334600  0.700400  0.074900  1.0  0.1069
  H  H481  1  0.387500  0.665300  0.069700  1.0  0.0858
  H  H482  1  0.184600  0.492000  0.054000  1.0  0.0776
  H  H483  1  0.086000  0.500200  0.000300  1.0  0.0769
  H  H484  1  0.134200  0.475100  0.981800  1.0  0.0827
  H  H485  1  0.118400  0.536900  0.977800  1.0  0.0839
  H  H486  1  0.238700  0.542300  0.016700  1.0  0.1019
  H  H487  1  0.209800  0.563000  0.987800  1.0  0.0879
  H  H488  1  0.225300  0.501000  0.991200  1.0  0.0884
  H  H489  1  0.948400  0.553000  0.066800  1.0  0.0798
  H  H490  1  0.024700  0.569900  0.131000  1.0  0.0824
  H  H491  1  0.966900  0.586800  0.143000  1.0  0.0852
  H  H492  1  0.010900  0.631900  0.136100  1.0  0.0779
  H  H493  1  0.919300  0.644200  0.076600  1.0  0.1038
  H  H494  1  0.945100  0.677800  0.102700  1.0  0.0942
  H  H495  1  0.901300  0.632500  0.109300  1.0  0.0867
  H  H496  1  0.874800  0.764500  0.070700  1.0  0.0654
  H  H497  1  0.943600  0.870300  0.015400  1.0  0.074
  H  H498  1  0.931400  0.887300  0.048300  1.0  0.0767
  H  H499  1  0.883000  0.879600  0.025800  1.0  0.0679
  H  H500  1  0.896100  0.736900  0.020700  1.0  0.093
  H  H501  1  0.926600  0.777600  0.999500  1.0  0.0879
  H  H502  1  0.864500  0.786700  0.007000  1.0  0.0806
  H  H503  1  0.048900  0.871300  0.150500  1.0  0.0836
  H  H504  1  0.987400  0.740000  0.151200  1.0  0.0813
  H  H505  1  0.019200  0.738200  0.181400  1.0  0.0875
  H  H506  1  0.042500  0.707400  0.153600  1.0  0.0869
  H  H507  1  0.130900  0.819600  0.158600  1.0  0.1037
  H  H508  1  0.129200  0.755400  0.158900  1.0  0.1012
  H  H509  1  0.107600  0.788600  0.186300  1.0  0.0919
  H  H510  1  0.140200  0.988500  0.078500  1.0  0.0714
  H  H511  1  0.017600  0.942600  0.026400  1.0  0.0707
  H  H512  1  0.068100  0.972300  0.012000  1.0  0.0813
  H  H513  1  0.026600  0.005500  0.031500  1.0  0.0802
  H  H514  1  0.017000  0.919400  0.076400  1.0  0.0994
  H  H515  1  0.024000  0.980100  0.087000  1.0  0.0892
  H  H516  1  0.065400  0.935200  0.097600  1.0  0.095
  H  H517  1  0.224400  0.916300  0.957200  1.0  0.087
  H  H518  1  0.315400  0.908500  0.016800  1.0  0.0804
  H  H519  1  0.354000  0.890500  0.990800  1.0  0.0886
  H  H520  1  0.332300  0.846800  0.013400  1.0  0.0948
  H  H521  1  0.251300  0.822400  0.948800  1.0  0.0988
  H  H522  1  0.292300  0.792700  0.970200  1.0  0.0952
  H  H523  1  0.313700  0.837400  0.948100  1.0  0.0914
  H  H524  1  0.263200  0.861700  0.142700  1.0  0.0808
  H  H525  1  0.366300  0.849900  0.088300  1.0  0.0914
  H  H526  1  0.329500  0.821800  0.064200  1.0  0.0809
  H  H527  1  0.346400  0.789500  0.092900  1.0  0.0793
  H  H528  1  0.300300  0.925400  0.090400  1.0  0.0982
  H  H529  1  0.238000  0.911000  0.093500  1.0  0.1007
  H  H530  1  0.270200  0.893900  0.064800  1.0  0.0928
  H  H531  1  0.266400  0.606700  0.127800  1.0  0.0775
  H  H532  1  0.115400  0.638700  0.152900  1.0  0.0901
  H  H533  1  0.161900  0.673400  0.167700  1.0  0.0767
  H  H534  1  0.154200  0.611700  0.176400  1.0  0.0816
  H  H535  1  0.132400  0.573200  0.117900  1.0  0.0979
  H  H536  1  0.173100  0.540600  0.138200  1.0  0.0851
  H  H537  1  0.191900  0.560800  0.106800  1.0  0.0958
  H  H538  1  0.949000  0.704500  0.788800  1.0  0.1292
  H  H539  1  0.935400  0.658300  0.765800  1.0  0.108
  H  H540  1  0.992400  0.659000  0.781700  1.0  0.1338
  H  H541  1  0.782900  0.974800  0.094900  1.0  0.285
  H  H542  1  0.819000  0.951100  0.072700  1.0  0.2335
  H  H543  1  0.714900  0.904100  0.061000  1.0  0.2714
  H  H544  1  0.685100  0.942600  0.079400  1.0  0.2272
  H  H545  1  0.684700  0.308900  0.073100  1.0  0.2903
  H  H546  1  0.631900  0.281300  0.073600  1.0  0.2196
  H  H547  1  0.607400  0.349700  0.028300  1.0  0.2771
  H  H548  1  0.662800  0.371200  0.026700  1.0  0.2241
  H  H549  1  0.455100  0.109600  0.929200  1.0  0.237
  H  H550  1  0.453800  0.082700  0.958000  1.0  0.2582
  H  H551  1  0.479100  0.998600  0.922600  1.0  0.2898
  H  H552  1  0.503800  0.019900  0.895500  1.0  0.2227
  H  H553  1  0.820900  0.877100  0.892700  1.0  0.2208
  H  H554  1  0.867500  0.892700  0.911000  1.0  0.221
  H  H555  1  0.881000  0.961500  0.860200  1.0  0.2738
  H  H556  1  0.827300  0.945700  0.849100  1.0  0.2182
  H  H557  1  0.021000  0.187900  0.958100  1.0  0.247
  H  H558  1  0.020600  0.142400  0.978800  1.0  0.25
  H  H559  1  0.990900  0.221600  0.014900  1.0  0.2926
  H  H560  1  0.972300  0.265700  0.995700  1.0  0.2564
  H  H561  1  0.788200  0.296100  0.836400  1.0  0.2943
  H  H562  1  0.776800  0.334600  0.860200  1.0  0.2571
  H  H563  1  0.674500  0.302500  0.843900  1.0  0.2835
  H  H564  1  0.683900  0.251600  0.827900  1.0  0.2229
  H  H565  1  0.820600  0.054500  0.092500  1.0  0.0763
  H  H566  1  0.871900  0.967300  0.037700  1.0  0.0477
  H  H567  1  0.924600  0.990900  0.052900  1.0  0.0652
  H  H568  1  0.907500  0.011200  0.021200  1.0  0.0545
  H  H569  1  0.875300  0.120900  0.066600  1.0  0.1044
  H  H570  1  0.910900  0.105500  0.039000  1.0  0.0971
  H  H571  1  0.927600  0.084500  0.070500  1.0  0.0928
  H  H572  1  0.654800  0.901300  0.026700  1.0  0.0875
  H  H573  1  0.627900  0.015800  0.071900  1.0  0.0746
  H  H574  1  0.569600  0.991200  0.066100  1.0  0.0926
  H  H575  1  0.587300  0.045700  0.050400  1.0  0.0919
  H  H576  1  0.594700  0.950100  0.991800  1.0  0.103
  H  H577  1  0.566800  0.005500  0.000600  1.0  0.1024
  H  H578  1  0.548200  0.950700  0.015700  1.0  0.0889
  H  H579  1  0.731800  0.235500  0.083700  1.0  0.063
  H  H580  1  0.597000  0.200900  0.063100  1.0  0.0797
  H  H581  1  0.605100  0.167600  0.092500  1.0  0.0848
  H  H582  1  0.604600  0.137200  0.061900  1.0  0.0937
  H  H583  1  0.743700  0.138600  0.080300  1.0  0.0872
  H  H584  1  0.695500  0.099400  0.071600  1.0  0.0736
  H  H585  1  0.695300  0.128600  0.102500  1.0  0.0826
  H  H586  1  0.595900  0.347500  0.980700  1.0  0.0777
  H  H587  1  0.757800  0.359700  0.966100  1.0  0.0773
  H  H588  1  0.734800  0.368600  0.998200  1.0  0.0669
  H  H589  1  0.722600  0.411700  0.973300  1.0  0.0782
  H  H590  1  0.637000  0.329900  0.929900  1.0  0.1036
  H  H591  1  0.700400  0.334600  0.925100  1.0  0.1067
  H  H592  1  0.665300  0.387500  0.930300  1.0  0.0852
  H  H593  1  0.492000  0.184600  0.946000  1.0  0.0785
  H  H594  1  0.500200  0.086000  0.999700  1.0  0.0773
  H  H595  1  0.475100  0.134200  0.018200  1.0  0.084
  H  H596  1  0.536900  0.118400  0.022200  1.0  0.0825
  H  H597  1  0.542300  0.238700  0.983300  1.0  0.1011
  H  H598  1  0.563000  0.209800  0.012200  1.0  0.0865
  H  H599  1  0.501000  0.225300  0.008800  1.0  0.0873
  H  H600  1  0.553000  0.948400  0.933200  1.0  0.0793
  H  H601  1  0.569900  0.024700  0.869000  1.0  0.0834
  H  H602  1  0.586800  0.966900  0.857000  1.0  0.0856
  H  H603  1  0.631900  0.010900  0.863900  1.0  0.0796
  H  H604  1  0.644200  0.919300  0.923400  1.0  0.1034
  H  H605  1  0.677800  0.945100  0.897300  1.0  0.0913
  H  H606  1  0.632500  0.901300  0.890700  1.0  0.0886
  H  H607  1  0.764500  0.874800  0.929300  1.0  0.0688
  H  H608  1  0.870300  0.943600  0.984600  1.0  0.0749
  H  H609  1  0.887300  0.931400  0.951700  1.0  0.0779
  H  H610  1  0.879600  0.883000  0.974200  1.0  0.0684
  H  H611  1  0.736900  0.896100  0.979300  1.0  0.0907
  H  H612  1  0.777600  0.926600  0.000500  1.0  0.0872
  H  H613  1  0.786700  0.864500  0.993000  1.0  0.0844
  H  H614  1  0.871300  0.048900  0.849500  1.0  0.0848
  H  H615  1  0.740000  0.987400  0.848800  1.0  0.0827
  H  H616  1  0.738200  0.019200  0.818600  1.0  0.0869
  H  H617  1  0.707400  0.042500  0.846400  1.0  0.0861
  H  H618  1  0.819600  0.130900  0.841400  1.0  0.1034
  H  H619  1  0.755400  0.129200  0.841100  1.0  0.1
  H  H620  1  0.788600  0.107600  0.813700  1.0  0.0921
  H  H621  1  0.988500  0.140200  0.921500  1.0  0.0712
  H  H622  1  0.942600  0.017600  0.973600  1.0  0.0695
  H  H623  1  0.972300  0.068100  0.988000  1.0  0.0816
  H  H624  1  0.005500  0.026600  0.968500  1.0  0.0823
  H  H625  1  0.919400  0.017000  0.923600  1.0  0.0971
  H  H626  1  0.980100  0.024000  0.913000  1.0  0.0884
  H  H627  1  0.935200  0.065400  0.902400  1.0  0.0949
  H  H628  1  0.916300  0.224400  0.042800  1.0  0.0876
  H  H629  1  0.908500  0.315400  0.983200  1.0  0.0801
  H  H630  1  0.890500  0.354000  0.009200  1.0  0.0875
  H  H631  1  0.846800  0.332300  0.986600  1.0  0.0936
  H  H632  1  0.822400  0.251300  0.051200  1.0  0.1018
  H  H633  1  0.792700  0.292300  0.029800  1.0  0.091
  H  H634  1  0.837400  0.313700  0.051900  1.0  0.0919
  H  H635  1  0.861700  0.263200  0.857300  1.0  0.0832
  H  H636  1  0.849900  0.366300  0.911700  1.0  0.0905
  H  H637  1  0.821800  0.329500  0.935800  1.0  0.08
  H  H638  1  0.789500  0.346400  0.907100  1.0  0.0753
  H  H639  1  0.925400  0.300300  0.909600  1.0  0.099
  H  H640  1  0.911000  0.238000  0.906500  1.0  0.105
  H  H641  1  0.893900  0.270200  0.935200  1.0  0.0931
  H  H642  1  0.606700  0.266400  0.872200  1.0  0.0772
  H  H643  1  0.638700  0.115400  0.847100  1.0  0.0926
  H  H644  1  0.673400  0.161900  0.832300  1.0  0.0755
  H  H645  1  0.611700  0.154200  0.823600  1.0  0.0795
  H  H646  1  0.573200  0.132400  0.882100  1.0  0.1004
  H  H647  1  0.540600  0.173100  0.861800  1.0  0.0849
  H  H648  1  0.560800  0.191900  0.893200  1.0  0.0965
  H  H649  1  0.704500  0.949000  0.211200  1.0  0.1271
  H  H650  1  0.658300  0.935400  0.234200  1.0  0.1071
  H  H651  1  0.659000  0.992400  0.218300  1.0  0.1338
  H  H652  1  0.217100  0.025200  0.594900  1.0  0.2851
  H  H653  1  0.181000  0.048900  0.572700  1.0  0.2336
  H  H654  1  0.285100  0.095900  0.561000  1.0  0.271
  H  H655  1  0.314900  0.057400  0.579400  1.0  0.2273
  H  H656  1  0.315300  0.691100  0.573100  1.0  0.2938
  H  H657  1  0.368100  0.718700  0.573600  1.0  0.2219
  H  H658  1  0.392600  0.650300  0.528300  1.0  0.2778
  H  H659  1  0.337200  0.628800  0.526700  1.0  0.2256
  H  H660  1  0.544900  0.890400  0.429200  1.0  0.2381
  H  H661  1  0.546200  0.917300  0.458000  1.0  0.2584
  H  H662  1  0.520900  0.001400  0.422600  1.0  0.2901
  H  H663  1  0.496200  0.980100  0.395500  1.0  0.2228
  H  H664  1  0.179100  0.122900  0.392700  1.0  0.2216
  H  H665  1  0.132500  0.107300  0.411000  1.0  0.2185
  H  H666  1  0.119000  0.038500  0.360200  1.0  0.2714
  H  H667  1  0.172700  0.054300  0.349100  1.0  0.2178
  H  H668  1  0.979000  0.812100  0.458100  1.0  0.2474
  H  H669  1  0.979400  0.857600  0.478800  1.0  0.2507
  H  H670  1  0.009100  0.778400  0.514900  1.0  0.29
  H  H671  1  0.027700  0.734300  0.495700  1.0  0.2543
  H  H672  1  0.211800  0.703900  0.336400  1.0  0.2947
  H  H673  1  0.223200  0.665400  0.360200  1.0  0.2557
  H  H674  1  0.325500  0.697500  0.343900  1.0  0.2786
  H  H675  1  0.316100  0.748400  0.327900  1.0  0.2229
  H  H676  1  0.179400  0.945500  0.592500  1.0  0.0781
  H  H677  1  0.128100  0.032700  0.537700  1.0  0.0475
  H  H678  1  0.075400  0.009100  0.552900  1.0  0.065
  H  H679  1  0.092500  0.988800  0.521200  1.0  0.0546
  H  H680  1  0.124700  0.879100  0.566600  1.0  0.1047
  H  H681  1  0.089100  0.894500  0.539000  1.0  0.0978
  H  H682  1  0.072400  0.915500  0.570500  1.0  0.0932
  H  H683  1  0.345200  0.098700  0.526700  1.0  0.0867
  H  H684  1  0.372100  0.984200  0.571900  1.0  0.0739
  H  H685  1  0.430400  0.008800  0.566100  1.0  0.093
  H  H686  1  0.412700  0.954300  0.550400  1.0  0.0929
  H  H687  1  0.405300  0.049900  0.491800  1.0  0.1024
  H  H688  1  0.433200  0.994500  0.500600  1.0  0.1028
  H  H689  1  0.451800  0.049300  0.515700  1.0  0.0885
  H  H690  1  0.268200  0.764500  0.583700  1.0  0.0648
  H  H691  1  0.403000  0.799100  0.563100  1.0  0.0794
  H  H692  1  0.394900  0.832400  0.592500  1.0  0.0843
  H  H693  1  0.395400  0.862800  0.561900  1.0  0.0936
  H  H694  1  0.256300  0.861400  0.580300  1.0  0.0868
  H  H695  1  0.304500  0.900600  0.571600  1.0  0.0749
  H  H696  1  0.304700  0.871400  0.602500  1.0  0.0835
  H  H697  1  0.404100  0.652500  0.480700  1.0  0.081
  H  H698  1  0.242200  0.640300  0.466100  1.0  0.0769
  H  H699  1  0.265200  0.631400  0.498200  1.0  0.0669
  H  H700  1  0.277400  0.588300  0.473300  1.0  0.0771
  H  H701  1  0.363000  0.670100  0.429900  1.0  0.1042
  H  H702  1  0.299600  0.665400  0.425100  1.0  0.1075
  H  H703  1  0.334700  0.612500  0.430300  1.0  0.0835
  H  H704  1  0.508000  0.815400  0.446000  1.0  0.078
  H  H705  1  0.499800  0.914000  0.499700  1.0  0.077
  H  H706  1  0.524900  0.865800  0.518200  1.0  0.0836
  H  H707  1  0.463100  0.881600  0.522200  1.0  0.0831
  H  H708  1  0.457700  0.761300  0.483300  1.0  0.1012
  H  H709  1  0.437000  0.790200  0.512200  1.0  0.0857
  H  H710  1  0.499000  0.774700  0.508800  1.0  0.088
  H  H711  1  0.447000  0.051600  0.433200  1.0  0.0794
  H  H712  1  0.430100  0.975300  0.369000  1.0  0.0823
  H  H713  1  0.413200  0.033100  0.357000  1.0  0.0853
  H  H714  1  0.368100  0.989100  0.363900  1.0  0.078
  H  H715  1  0.355800  0.080700  0.423400  1.0  0.1028
  H  H716  1  0.322200  0.054900  0.397300  1.0  0.0896
  H  H717  1  0.367500  0.098700  0.390700  1.0  0.0884
  H  H718  1  0.235500  0.125200  0.429300  1.0  0.0685
  H  H719  1  0.129700  0.056400  0.484600  1.0  0.0757
  H  H720  1  0.112700  0.068600  0.451700  1.0  0.0783
  H  H721  1  0.120400  0.117000  0.474200  1.0  0.0682
  H  H722  1  0.263100  0.103900  0.479300  1.0  0.0895
  H  H723  1  0.222400  0.073400  0.500500  1.0  0.0881
  H  H724  1  0.213300  0.135500  0.493000  1.0  0.0819
  H  H725  1  0.128700  0.951100  0.349500  1.0  0.085
  H  H726  1  0.260000  0.012600  0.348800  1.0  0.0834
  H  H727  1  0.261800  0.980800  0.318600  1.0  0.0876
  H  H728  1  0.292600  0.957500  0.346400  1.0  0.0857
  H  H729  1  0.180400  0.869100  0.341400  1.0  0.1032
  H  H730  1  0.244600  0.870800  0.341100  1.0  0.1001
  H  H731  1  0.211400  0.892400  0.313700  1.0  0.0915
  H  H732  1  0.011500  0.859800  0.421500  1.0  0.071
  H  H733  1  0.057400  0.982400  0.473600  1.0  0.0696
  H  H734  1  0.027700  0.931900  0.488000  1.0  0.0819
  H  H735  1  0.994500  0.973400  0.468500  1.0  0.0811
  H  H736  1  0.080600  0.983000  0.423600  1.0  0.0979
  H  H737  1  0.019900  0.976000  0.413000  1.0  0.0876
  H  H738  1  0.064800  0.934600  0.402400  1.0  0.0947
  H  H739  1  0.083700  0.775600  0.542800  1.0  0.0869
  H  H740  1  0.091500  0.684600  0.483200  1.0  0.0802
  H  H741  1  0.109500  0.646000  0.509200  1.0  0.0875
  H  H742  1  0.153200  0.667700  0.486600  1.0  0.0943
  H  H743  1  0.177600  0.748700  0.551200  1.0  0.1017
  H  H744  1  0.207300  0.707700  0.529800  1.0  0.0928
  H  H745  1  0.162600  0.686300  0.551900  1.0  0.0927
  H  H746  1  0.138300  0.736800  0.357300  1.0  0.0826
  H  H747  1  0.150100  0.633700  0.411700  1.0  0.0875
  H  H748  1  0.178200  0.670500  0.435800  1.0  0.0794
  H  H749  1  0.210500  0.653600  0.407100  1.0  0.0765
  H  H750  1  0.074600  0.699700  0.409600  1.0  0.0973
  H  H751  1  0.089000  0.762000  0.406500  1.0  0.1064
  H  H752  1  0.106100  0.729800  0.435200  1.0  0.0936
  H  H753  1  0.393300  0.733600  0.372200  1.0  0.077
  H  H754  1  0.361300  0.884600  0.347100  1.0  0.0951
  H  H755  1  0.326600  0.838100  0.332300  1.0  0.074
  H  H756  1  0.388300  0.845800  0.323600  1.0  0.0804
  H  H757  1  0.426800  0.867600  0.382100  1.0  0.1007
  H  H758  1  0.459400  0.826900  0.361800  1.0  0.085
  H  H759  1  0.439200  0.808100  0.393200  1.0  0.0963
  H  H760  1  0.295500  0.051000  0.711200  1.0  0.128
  H  H761  1  0.341700  0.064600  0.734200  1.0  0.1077
  H  H762  1  0.341000  0.007600  0.718300  1.0  0.1341
  H  H763  1  0.474800  0.717100  0.844900  1.0  0.2837
  H  H764  1  0.451100  0.681000  0.822700  1.0  0.2331
  H  H765  1  0.404100  0.785100  0.811000  1.0  0.2689
  H  H766  1  0.442600  0.814900  0.829400  1.0  0.2289
  H  H767  1  0.808900  0.815300  0.823100  1.0  0.294
  H  H768  1  0.781300  0.868100  0.823600  1.0  0.2165
  H  H769  1  0.849700  0.892600  0.778300  1.0  0.2761
  H  H770  1  0.871200  0.837200  0.776700  1.0  0.2246
  H  H771  1  0.609600  0.044900  0.679200  1.0  0.2378
  H  H772  1  0.582700  0.046200  0.708000  1.0  0.2587
  H  H773  1  0.498600  0.020900  0.672600  1.0  0.283
  H  H774  1  0.519900  0.996200  0.645500  1.0  0.2218
  H  H775  1  0.377100  0.679100  0.642700  1.0  0.2204
  H  H776  1  0.392700  0.632500  0.661000  1.0  0.2177
  H  H777  1  0.461500  0.619000  0.610200  1.0  0.2631
  H  H778  1  0.445700  0.672700  0.599100  1.0  0.2152
  H  H779  1  0.687900  0.479000  0.708100  1.0  0.251
  H  H780  1  0.642400  0.479400  0.728800  1.0  0.2507
  H  H781  1  0.721600  0.509100  0.764900  1.0  0.2924
  H  H782  1  0.765700  0.527700  0.745700  1.0  0.2569
  H  H783  1  0.796100  0.711800  0.586400  1.0  0.2946
  H  H784  1  0.834600  0.723200  0.610200  1.0  0.2585
  H  H785  1  0.802500  0.825500  0.593900  1.0  0.2951
  H  H786  1  0.751600  0.816100  0.577900  1.0  0.223
  H  H787  1  0.554500  0.679400  0.842500  1.0  0.076
  H  H788  1  0.467300  0.628100  0.787700  1.0  0.0481
  H  H789  1  0.490900  0.575400  0.802900  1.0  0.0681
  H  H790  1  0.511200  0.592500  0.771200  1.0  0.0574
  H  H791  1  0.620900  0.624700  0.816600  1.0  0.1029
  H  H792  1  0.605500  0.589100  0.789000  1.0  0.0978
  H  H793  1  0.584500  0.572400  0.820500  1.0  0.0961
  H  H794  1  0.401300  0.845200  0.776700  1.0  0.0871
  H  H795  1  0.515800  0.872100  0.821900  1.0  0.0758
  H  H796  1  0.491200  0.930400  0.816100  1.0  0.0936
  H  H797  1  0.545700  0.912700  0.800400  1.0  0.0912
  H  H798  1  0.450100  0.905300  0.741800  1.0  0.1029
  H  H799  1  0.505500  0.933200  0.750600  1.0  0.1028
  H  H800  1  0.450700  0.951800  0.765700  1.0  0.085
  H  H801  1  0.735500  0.768200  0.833700  1.0  0.0648
  H  H802  1  0.700900  0.903000  0.813100  1.0  0.0789
  H  H803  1  0.667600  0.894900  0.842500  1.0  0.085
  H  H804  1  0.637200  0.895400  0.811900  1.0  0.094
  H  H805  1  0.638600  0.756300  0.830300  1.0  0.0883
  H  H806  1  0.599400  0.804500  0.821600  1.0  0.07
  H  H807  1  0.628600  0.804700  0.852500  1.0  0.0822
  H  H808  1  0.847500  0.904100  0.730700  1.0  0.0806
  H  H809  1  0.859700  0.742200  0.716100  1.0  0.0788
  H  H810  1  0.868600  0.765200  0.748200  1.0  0.0687
  H  H811  1  0.911700  0.777400  0.723300  1.0  0.0782
  H  H812  1  0.829900  0.863000  0.679900  1.0  0.1056
  H  H813  1  0.834600  0.799600  0.675100  1.0  0.1077
  H  H814  1  0.887500  0.834700  0.680300  1.0  0.0872
  H  H815  1  0.684600  0.008000  0.696000  1.0  0.0788
  H  H816  1  0.586000  0.999800  0.749700  1.0  0.0771
  H  H817  1  0.634200  0.024900  0.768200  1.0  0.0833
  H  H818  1  0.618400  0.963100  0.772200  1.0  0.0842
  H  H819  1  0.738700  0.957700  0.733300  1.0  0.1017
  H  H820  1  0.709800  0.937000  0.762200  1.0  0.0874
  H  H821  1  0.725300  0.999000  0.758800  1.0  0.0875
  H  H822  1  0.448400  0.947000  0.683200  1.0  0.0793
  H  H823  1  0.524700  0.930100  0.619000  1.0  0.0822
  H  H824  1  0.466900  0.913200  0.607000  1.0  0.0848
  H  H825  1  0.510900  0.868100  0.613900  1.0  0.079
  H  H826  1  0.419300  0.855800  0.673400  1.0  0.1044
  H  H827  1  0.445100  0.822200  0.647300  1.0  0.0932
  H  H828  1  0.401300  0.867500  0.640700  1.0  0.0868
  H  H829  1  0.374800  0.735500  0.679300  1.0  0.0702
  H  H830  1  0.443600  0.629700  0.734600  1.0  0.0748
  H  H831  1  0.431400  0.612700  0.701700  1.0  0.0779
  H  H832  1  0.383000  0.620400  0.724200  1.0  0.0683
  H  H833  1  0.396100  0.763100  0.729300  1.0  0.0946
  H  H834  1  0.426600  0.722400  0.750500  1.0  0.0863
  H  H835  1  0.364500  0.713300  0.743000  1.0  0.083
  H  H836  1  0.548900  0.628700  0.599500  1.0  0.0829
  H  H837  1  0.487400  0.760000  0.598800  1.0  0.0811
  H  H838  1  0.519200  0.761800  0.568600  1.0  0.0885
  H  H839  1  0.542500  0.792600  0.596400  1.0  0.0868
  H  H840  1  0.630900  0.680400  0.591400  1.0  0.1032
  H  H841  1  0.629200  0.744600  0.591100  1.0  0.1001
  H  H842  1  0.607600  0.711400  0.563700  1.0  0.0928
  H  H843  1  0.640200  0.511500  0.671500  1.0  0.0699
  H  H844  1  0.517600  0.557400  0.723600  1.0  0.071
  H  H845  1  0.568100  0.527700  0.738000  1.0  0.0813
  H  H846  1  0.526600  0.494500  0.718500  1.0  0.0803
  H  H847  1  0.517000  0.580600  0.673600  1.0  0.1003
  H  H848  1  0.524000  0.519900  0.663000  1.0  0.0881
  H  H849  1  0.565400  0.564800  0.652400  1.0  0.0945
  H  H850  1  0.724400  0.583700  0.792800  1.0  0.088
  H  H851  1  0.815400  0.591500  0.733200  1.0  0.0811
  H  H852  1  0.854000  0.609500  0.759200  1.0  0.0886
  H  H853  1  0.832300  0.653200  0.736600  1.0  0.0942
  H  H854  1  0.751300  0.677600  0.801200  1.0  0.0987
  H  H855  1  0.792300  0.707300  0.779800  1.0  0.0959
  H  H856  1  0.813700  0.662600  0.801900  1.0  0.0912
  H  H857  1  0.763200  0.638300  0.607300  1.0  0.0812
  H  H858  1  0.866300  0.650100  0.661700  1.0  0.0915
  H  H859  1  0.829500  0.678200  0.685800  1.0  0.0806
  H  H860  1  0.846400  0.710500  0.657100  1.0  0.0787
  H  H861  1  0.800300  0.574600  0.659600  1.0  0.099
  H  H862  1  0.738000  0.589000  0.656500  1.0  0.1013
  H  H863  1  0.770200  0.606100  0.685200  1.0  0.0938
  H  H864  1  0.766400  0.893300  0.622200  1.0  0.0767
  H  H865  1  0.615400  0.861300  0.597100  1.0  0.0894
  H  H866  1  0.661900  0.826600  0.582300  1.0  0.0757
  H  H867  1  0.654200  0.888300  0.573600  1.0  0.0806
  H  H868  1  0.632400  0.926800  0.632100  1.0  0.0987
  H  H869  1  0.673100  0.959400  0.611800  1.0  0.0855
  H  H870  1  0.691900  0.939200  0.643200  1.0  0.0958
  H  H871  1  0.449000  0.795500  0.961200  1.0  0.1268
  H  H872  1  0.435400  0.841700  0.984200  1.0  0.1094
  H  H873  1  0.492400  0.841000  0.968300  1.0  0.1342
  H  H874  1  0.525200  0.282900  0.344900  1.0  0.2837
  H  H875  1  0.548900  0.319000  0.322700  1.0  0.2331
  H  H876  1  0.595900  0.214900  0.311000  1.0  0.2708
  H  H877  1  0.557400  0.185100  0.329400  1.0  0.228
  H  H878  1  0.191100  0.184700  0.323100  1.0  0.2924
  H  H879  1  0.218700  0.131900  0.323600  1.0  0.217
  H  H880  1  0.150300  0.107400  0.278300  1.0  0.2768
  H  H881  1  0.128800  0.162800  0.276700  1.0  0.2243
  H  H882  1  0.390400  0.955100  0.179200  1.0  0.2361
  H  H883  1  0.417300  0.953800  0.208000  1.0  0.2582
  H  H884  1  0.501400  0.979100  0.172600  1.0  0.2866
  H  H885  1  0.480100  0.003800  0.145500  1.0  0.2223
  H  H886  1  0.622900  0.320900  0.142700  1.0  0.2211
  H  H887  1  0.607300  0.367500  0.161000  1.0  0.219
  H  H888  1  0.538500  0.381000  0.110200  1.0  0.2637
  H  H889  1  0.554300  0.327300  0.099100  1.0  0.2152
  H  H890  1  0.312100  0.521000  0.208100  1.0  0.2487
  H  H891  1  0.357600  0.520600  0.228800  1.0  0.2516
  H  H892  1  0.278400  0.490900  0.264900  1.0  0.2912
  H  H893  1  0.234300  0.472300  0.245700  1.0  0.2558
  H  H894  1  0.203900  0.288200  0.086400  1.0  0.2957
  H  H895  1  0.165400  0.276800  0.110200  1.0  0.2567
  H  H896  1  0.197500  0.174500  0.093900  1.0  0.2876
  H  H897  1  0.248400  0.183900  0.077900  1.0  0.2226
  H  H898  1  0.445500  0.320600  0.342500  1.0  0.0762
  H  H899  1  0.532700  0.371900  0.287700  1.0  0.0467
  H  H900  1  0.509100  0.424600  0.302900  1.0  0.0668
  H  H901  1  0.488800  0.407500  0.271200  1.0  0.0566
  H  H902  1  0.379100  0.375300  0.316600  1.0  0.1034
  H  H903  1  0.394500  0.410900  0.289000  1.0  0.0984
  H  H904  1  0.415500  0.427600  0.320500  1.0  0.095
  H  H905  1  0.598700  0.154800  0.276700  1.0  0.0877
  H  H906  1  0.484200  0.127900  0.321900  1.0  0.0757
  H  H907  1  0.508800  0.069600  0.316100  1.0  0.0939
  H  H908  1  0.454300  0.087300  0.300400  1.0  0.09
  H  H909  1  0.549900  0.094700  0.241800  1.0  0.103
  H  H910  1  0.494500  0.066800  0.250600  1.0  0.1013
  H  H911  1  0.549300  0.048200  0.265700  1.0  0.0832
  H  H912  1  0.264500  0.231800  0.333700  1.0  0.0654
  H  H913  1  0.299100  0.097000  0.313100  1.0  0.0796
  H  H914  1  0.332400  0.105100  0.342500  1.0  0.0842
  H  H915  1  0.362800  0.104600  0.311900  1.0  0.0943
  H  H916  1  0.361400  0.243700  0.330300  1.0  0.0898
  H  H917  1  0.400600  0.195500  0.321600  1.0  0.0718
  H  H918  1  0.371400  0.195300  0.352500  1.0  0.0821
  H  H919  1  0.152500  0.095900  0.230700  1.0  0.0804
  H  H920  1  0.140300  0.257800  0.216100  1.0  0.0775
  H  H921  1  0.131400  0.234800  0.248200  1.0  0.0682
  H  H922  1  0.088300  0.222600  0.223300  1.0  0.0782
  H  H923  1  0.170100  0.137000  0.179900  1.0  0.1049
  H  H924  1  0.165400  0.200400  0.175100  1.0  0.1072
  H  H925  1  0.112500  0.165300  0.180300  1.0  0.0852
  H  H926  1  0.315400  0.992000  0.196000  1.0  0.0778
  H  H927  1  0.414000  0.000200  0.249700  1.0  0.0764
  H  H928  1  0.365800  0.975100  0.268200  1.0  0.0845
  H  H929  1  0.381600  0.036900  0.272200  1.0  0.0847
  H  H930  1  0.261300  0.042300  0.233300  1.0  0.1006
  H  H931  1  0.290200  0.063000  0.262200  1.0  0.0874
  H  H932  1  0.274700  0.001000  0.258800  1.0  0.0883
  H  H933  1  0.551600  0.053000  0.183200  1.0  0.0793
  H  H934  1  0.475300  0.069900  0.119000  1.0  0.0814
  H  H935  1  0.533100  0.086800  0.107000  1.0  0.0846
  H  H936  1  0.489100  0.131900  0.113900  1.0  0.0778
  H  H937  1  0.580700  0.144200  0.173400  1.0  0.1041
  H  H938  1  0.554900  0.177800  0.147300  1.0  0.0936
  H  H939  1  0.598700  0.132500  0.140700  1.0  0.0879
  H  H940  1  0.625200  0.264500  0.179300  1.0  0.0665
  H  H941  1  0.556400  0.370300  0.234600  1.0  0.0748
  H  H942  1  0.568600  0.387300  0.201700  1.0  0.0783
  H  H943  1  0.617000  0.379600  0.224200  1.0  0.0697
  H  H944  1  0.603900  0.236900  0.229300  1.0  0.0937
  H  H945  1  0.573400  0.277600  0.250500  1.0  0.0864
  H  H946  1  0.635500  0.286700  0.243000  1.0  0.0799
  H  H947  1  0.451100  0.371300  0.099500  1.0  0.0832
  H  H948  1  0.512600  0.240000  0.098800  1.0  0.0837
  H  H949  1  0.480800  0.238200  0.068600  1.0  0.0881
  H  H950  1  0.457500  0.207400  0.096400  1.0  0.0869
  H  H951  1  0.369100  0.319600  0.091400  1.0  0.104
  H  H952  1  0.370800  0.255400  0.091100  1.0  0.1
  H  H953  1  0.392400  0.288600  0.063700  1.0  0.091
  H  H954  1  0.359800  0.488500  0.171500  1.0  0.07
  H  H955  1  0.482400  0.442600  0.223600  1.0  0.0692
  H  H956  1  0.431900  0.472300  0.238000  1.0  0.0807
  H  H957  1  0.473400  0.505500  0.218500  1.0  0.0782
  H  H958  1  0.483000  0.419400  0.173600  1.0  0.0977
  H  H959  1  0.476000  0.480100  0.163000  1.0  0.0882
  H  H960  1  0.434600  0.435200  0.152400  1.0  0.0946
  H  H961  1  0.275600  0.416300  0.292800  1.0  0.087
  H  H962  1  0.184600  0.408500  0.233200  1.0  0.0815
  H  H963  1  0.146000  0.390500  0.259200  1.0  0.0865
  H  H964  1  0.167700  0.346800  0.236600  1.0  0.0947
  H  H965  1  0.248700  0.322400  0.301200  1.0  0.1006
  H  H966  1  0.207700  0.292700  0.279800  1.0  0.0941
  H  H967  1  0.186300  0.337400  0.301900  1.0  0.0908
  H  H968  1  0.236800  0.361700  0.107300  1.0  0.0837
  H  H969  1  0.133700  0.349900  0.161700  1.0  0.0918
  H  H970  1  0.170500  0.321800  0.185800  1.0  0.0822
  H  H971  1  0.153600  0.289500  0.157100  1.0  0.0787
  H  H972  1  0.199700  0.425400  0.159600  1.0  0.0988
  H  H973  1  0.262000  0.411000  0.156500  1.0  0.0987
  H  H974  1  0.229800  0.393900  0.185200  1.0  0.0933
  H  H975  1  0.233600  0.106700  0.122200  1.0  0.0774
  H  H976  1  0.384600  0.138700  0.097100  1.0  0.0916
  H  H977  1  0.338100  0.173400  0.082300  1.0  0.0765
  H  H978  1  0.345800  0.111700  0.073600  1.0  0.0816
  H  H979  1  0.367600  0.073200  0.132100  1.0  0.0999
  H  H980  1  0.326900  0.040600  0.111800  1.0  0.085
  H  H981  1  0.308100  0.060800  0.143200  1.0  0.0965
  H  H982  1  0.551000  0.204500  0.461200  1.0  0.1285
  H  H983  1  0.564600  0.158300  0.484200  1.0  0.1096
  H  H984  1  0.507600  0.159000  0.468300  1.0  0.1318
  Pd  Pd985  1  0.755500  0.497100  0.203830  1.0  0.4242
  Pd  Pd986  1  0.830750  0.771100  0.226250  1.0  0.3825
  Pd  Pd987  1  0.954100  0.570410  0.312280  1.0  0.3938
  Pd  Pd988  1  0.684920  0.476760  0.349350  1.0  0.4157
  Pd  Pd989  1  0.571060  0.682220  0.271090  1.0  0.457
  Pd  Pd990  1  0.765510  0.745810  0.375380  1.0  0.4065
  Pd  Pd991  1  0.244500  0.502900  0.703830  1.0  0.4266
  Pd  Pd992  1  0.169250  0.228900  0.726250  1.0  0.3776
  Pd  Pd993  1  0.045900  0.429590  0.812280  1.0  0.3916
  Pd  Pd994  1  0.315080  0.523240  0.849350  1.0  0.4201
  Pd  Pd995  1  0.428940  0.317780  0.771090  1.0  0.4596
  Pd  Pd996  1  0.234490  0.254190  0.875380  1.0  0.4046
  Pd  Pd997  1  0.002900  0.255500  0.453830  1.0  0.4286
  Pd  Pd998  1  0.728900  0.330750  0.476250  1.0  0.3763
  Pd  Pd999  1  0.929590  0.454100  0.562280  1.0  0.3921
  Pd  Pd1000  1  0.023240  0.184920  0.599350  1.0  0.4205
  Pd  Pd1001  1  0.817780  0.071060  0.521090  1.0  0.4533
  Pd  Pd1002  1  0.754190  0.265510  0.625380  1.0  0.4044
  Pd  Pd1003  1  0.997100  0.744500  0.953830  1.0  0.4262
  Pd  Pd1004  1  0.271100  0.669250  0.976250  1.0  0.3826
  Pd  Pd1005  1  0.070410  0.545900  0.062280  1.0  0.3885
  Pd  Pd1006  1  0.976760  0.815080  0.099350  1.0  0.4189
  Pd  Pd1007  1  0.182220  0.928940  0.021090  1.0  0.453
  Pd  Pd1008  1  0.245810  0.734490  0.125380  1.0  0.4078
  Pd  Pd1009  1  0.744500  0.997100  0.046170  1.0  0.4244
  Pd  Pd1010  1  0.669250  0.271100  0.023750  1.0  0.3827
  Pd  Pd1011  1  0.545900  0.070410  0.937720  1.0  0.3912
  Pd  Pd1012  1  0.815080  0.976760  0.900650  1.0  0.417
  Pd  Pd1013  1  0.928940  0.182220  0.978910  1.0  0.46
  Pd  Pd1014  1  0.734490  0.245810  0.874620  1.0  0.4053
  Pd  Pd1015  1  0.255500  0.002900  0.546170  1.0  0.4263
  Pd  Pd1016  1  0.330750  0.728900  0.523750  1.0  0.3832
  Pd  Pd1017  1  0.454100  0.929590  0.437720  1.0  0.3929
  Pd  Pd1018  1  0.184920  0.023240  0.400650  1.0  0.4187
  Pd  Pd1019  1  0.071060  0.817780  0.478910  1.0  0.4578
  Pd  Pd1020  1  0.265510  0.754190  0.374620  1.0  0.4049
  Pd  Pd1021  1  0.497100  0.755500  0.796170  1.0  0.4256
  Pd  Pd1022  1  0.771100  0.830750  0.773750  1.0  0.3856
  Pd  Pd1023  1  0.570410  0.954100  0.687720  1.0  0.3899
  Pd  Pd1024  1  0.476760  0.684920  0.650650  1.0  0.4203
  Pd  Pd1025  1  0.682220  0.571060  0.728910  1.0  0.455
  Pd  Pd1026  1  0.745810  0.765510  0.624620  1.0  0.4073
  Pd  Pd1027  1  0.502900  0.244500  0.296170  1.0  0.4277
  Pd  Pd1028  1  0.228900  0.169250  0.273750  1.0  0.3782
  Pd  Pd1029  1  0.429590  0.045900  0.187720  1.0  0.3894
  Pd  Pd1030  1  0.523240  0.315080  0.150650  1.0  0.419
  Pd  Pd1031  1  0.317780  0.428940  0.228910  1.0  0.4521
  Pd  Pd1032  1  0.254190  0.234490  0.124620  1.0  0.4043
  C  C1033  1  0.637300  0.541400  0.196900  1.0  0.1286
  C  C1034  1  0.661400  0.523400  0.167100  1.0  0.0208
  C  C1035  1  0.614700  0.500100  0.146300  1.0  0.6241
  C  C1036  1  0.605800  0.499300  0.209800  1.0  -0.3864
  C  C1037  1  0.602600  0.592900  0.192300  1.0  -0.4103
  C  C1038  1  0.878400  0.478800  0.217900  1.0  0.1049
  C  C1039  1  0.854600  0.424400  0.206300  1.0  0.0186
  C  C1040  1  0.893100  0.392600  0.186200  1.0  0.5742
  C  C1041  1  0.900300  0.510700  0.192600  1.0  -0.3705
  C  C1042  1  0.921100  0.470500  0.242200  1.0  -0.4082
  C  C1043  1  0.824000  0.677600  0.180500  1.0  0.1023
  C  C1044  1  0.808200  0.731600  0.166300  1.0  -0.0169
  C  C1045  1  0.830100  0.735700  0.134200  1.0  0.5257
  C  C1046  1  0.884800  0.670100  0.178100  1.0  -0.3845
  C  C1047  1  0.795000  0.632300  0.168000  1.0  -0.3992
  C  C1048  1  0.821300  0.844100  0.280400  1.0  0.1153
  C  C1049  1  0.869800  0.863100  0.261800  1.0  0.0175
  C  C1050  1  0.874200  0.928400  0.259400  1.0  0.4479
  C  C1051  1  0.772500  0.873400  0.272500  1.0  -0.3755
  C  C1052  1  0.830500  0.849500  0.314600  1.0  -0.3909
  C  C1053  1  0.977800  0.659300  0.264900  1.0  0.0789
  C  C1054  1  0.021900  0.659800  0.288700  1.0  -0.0453
  C  C1055  1  0.074100  0.683300  0.279500  1.0  0.6625
  C  C1056  1  0.992600  0.621300  0.241800  1.0  -0.3846
  C  C1057  1  0.967000  0.712900  0.251500  1.0  -0.3913
  C  C1058  1  0.899000  0.475900  0.349600  1.0  0.1367
  C  C1059  1  0.952800  0.461200  0.337200  1.0  0.0297
  C  C1060  1  0.981600  0.415500  0.354300  1.0  0.6097
  C  C1061  1  0.902900  0.496400  0.380100  1.0  -0.3859
  C  C1062  1  0.857400  0.431400  0.346800  1.0  -0.4053
  C  C1063  1  0.691900  0.414400  0.290100  1.0  0.1099
  C  C1064  1  0.696500  0.376400  0.315600  1.0  -0.0018
  C  C1065  1  0.679800  0.318500  0.307700  1.0  0.6432
  C  C1066  1  0.633600  0.418500  0.281700  1.0  -0.3737
  C  C1067  1  0.725500  0.399100  0.264700  1.0  -0.4022
  C  C1068  1  0.710600  0.553900  0.401500  1.0  0.0972
  C  C1069  1  0.658300  0.525300  0.407700  1.0  -0.052
  C  C1070  1  0.648400  0.516000  0.441100  1.0  0.3208
  C  C1071  1  0.760700  0.523000  0.410200  1.0  -0.3842
  C  C1072  1  0.711900  0.610600  0.415100  1.0  -0.4005
  C  C1073  1  0.541400  0.577600  0.305800  1.0  0.1039
  C  C1074  1  0.499700  0.619500  0.311100  1.0  -0.001
  C  C1075  1  0.446900  0.597000  0.317900  1.0  0.5978
  C  C1076  1  0.529200  0.544600  0.279100  1.0  -0.3921
  C  C1077  1  0.552600  0.543000  0.331400  1.0  -0.4057
  C  C1078  1  0.630000  0.774300  0.233500  1.0  0.1401
  C  C1079  1  0.575900  0.755800  0.220000  1.0  -0.022
  C  C1080  1  0.550400  0.800300  0.200600  1.0  0.6534
  C  C1081  1  0.620100  0.823500  0.252900  1.0  -0.388
  C  C1082  1  0.673200  0.783700  0.210600  1.0  -0.4029
  C  C1083  1  0.655200  0.787600  0.350200  1.0  0.12
  C  C1084  1  0.654900  0.795400  0.383400  1.0  -0.0041
  C  C1085  1  0.623500  0.846300  0.393000  1.0  0.6003
  C  C1086  1  0.675200  0.836700  0.335100  1.0  -0.3907
  C  C1087  1  0.601300  0.772700  0.335900  1.0  -0.4011
  C  C1088  1  0.878100  0.689300  0.387100  1.0  0.0925
  C  C1089  1  0.882000  0.745700  0.395400  1.0  -0.0727
  C  C1090  1  0.922800  0.755900  0.418900  1.0  0.5521
  C  C1091  1  0.862300  0.652100  0.410500  1.0  -0.3829
  C  C1092  1  0.930600  0.670000  0.373800  1.0  -0.392
  C  C1093  1  0.870300  0.429900  0.059800  1.0  0.4368
  C  C1094  1  0.833500  0.454000  0.034000  1.0  -0.4418
  C  C1095  1  0.362700  0.458600  0.696900  1.0  0.1293
  C  C1096  1  0.338600  0.476600  0.667100  1.0  0.0202
  C  C1097  1  0.385300  0.499900  0.646300  1.0  0.6224
  C  C1098  1  0.394200  0.500700  0.709800  1.0  -0.3845
  C  C1099  1  0.397400  0.407100  0.692300  1.0  -0.4101
  C  C1100  1  0.121600  0.521200  0.717900  1.0  0.1048
  C  C1101  1  0.145400  0.575600  0.706300  1.0  0.0194
  C  C1102  1  0.106900  0.607400  0.686200  1.0  0.572
  C  C1103  1  0.099700  0.489300  0.692600  1.0  -0.3702
  C  C1104  1  0.078900  0.529500  0.742200  1.0  -0.4073
  C  C1105  1  0.176000  0.322400  0.680500  1.0  0.1026
  C  C1106  1  0.191800  0.268400  0.666300  1.0  -0.016
  C  C1107  1  0.169900  0.264300  0.634200  1.0  0.5297
  C  C1108  1  0.115200  0.329900  0.678100  1.0  -0.3852
  C  C1109  1  0.205000  0.367700  0.668000  1.0  -0.3981
  C  C1110  1  0.178700  0.155900  0.780400  1.0  0.1155
  C  C1111  1  0.130200  0.136900  0.761800  1.0  0.0147
  C  C1112  1  0.125800  0.071600  0.759400  1.0  0.4476
  C  C1113  1  0.227500  0.126600  0.772500  1.0  -0.3763
  C  C1114  1  0.169500  0.150500  0.814600  1.0  -0.3912
  C  C1115  1  0.022200  0.340700  0.764900  1.0  0.078
  C  C1116  1  0.978100  0.340200  0.788700  1.0  -0.0469
  C  C1117  1  0.925900  0.316700  0.779500  1.0  0.6619
  C  C1118  1  0.007400  0.378700  0.741800  1.0  -0.3838
  C  C1119  1  0.033000  0.287100  0.751500  1.0  -0.3927
  C  C1120  1  0.101000  0.524100  0.849600  1.0  0.1387
  C  C1121  1  0.047200  0.538800  0.837200  1.0  0.03
  C  C1122  1  0.018400  0.584500  0.854300  1.0  0.6097
  C  C1123  1  0.097100  0.503600  0.880100  1.0  -0.3856
  C  C1124  1  0.142600  0.568600  0.846800  1.0  -0.4049
  C  C1125  1  0.308100  0.585600  0.790100  1.0  0.109
  C  C1126  1  0.303500  0.623600  0.815600  1.0  -0.0031
  C  C1127  1  0.320200  0.681500  0.807700  1.0  0.6459
  C  C1128  1  0.366400  0.581500  0.781700  1.0  -0.3744
  C  C1129  1  0.274500  0.600900  0.764700  1.0  -0.402
  C  C1130  1  0.289400  0.446100  0.901500  1.0  0.0968
  C  C1131  1  0.341700  0.474700  0.907700  1.0  -0.0499
  C  C1132  1  0.351600  0.484000  0.941100  1.0  0.3206
  C  C1133  1  0.239300  0.477000  0.910200  1.0  -0.3842
  C  C1134  1  0.288100  0.389400  0.915100  1.0  -0.4003
  C  C1135  1  0.458600  0.422400  0.805800  1.0  0.105
  C  C1136  1  0.500300  0.380500  0.811100  1.0  -0.0025
  C  C1137  1  0.553100  0.403000  0.817900  1.0  0.6011
  C  C1138  1  0.470800  0.455400  0.779100  1.0  -0.3924
  C  C1139  1  0.447400  0.457000  0.831400  1.0  -0.4058
  C  C1140  1  0.370000  0.225700  0.733500  1.0  0.1418
  C  C1141  1  0.424100  0.244200  0.720000  1.0  -0.023
  C  C1142  1  0.449600  0.199700  0.700600  1.0  0.6502
  C  C1143  1  0.379900  0.176500  0.752900  1.0  -0.3882
  C  C1144  1  0.326800  0.216300  0.710600  1.0  -0.4017
  C  C1145  1  0.344800  0.212400  0.850200  1.0  0.1206
  C  C1146  1  0.345100  0.204600  0.883400  1.0  -0.0016
  C  C1147  1  0.376500  0.153700  0.893000  1.0  0.6008
  C  C1148  1  0.324800  0.163300  0.835100  1.0  -0.3903
  C  C1149  1  0.398700  0.227300  0.835900  1.0  -0.3994
  C  C1150  1  0.121900  0.310700  0.887100  1.0  0.0919
  C  C1151  1  0.118000  0.254300  0.895400  1.0  -0.072
  C  C1152  1  0.077200  0.244100  0.918900  1.0  0.5522
  C  C1153  1  0.137700  0.347900  0.910500  1.0  -0.3829
  C  C1154  1  0.069400  0.330000  0.873800  1.0  -0.3914
  C  C1155  1  0.129700  0.570100  0.559800  1.0  0.4372
  C  C1156  1  0.166500  0.546000  0.534000  1.0  -0.4433
  C  C1157  1  0.958600  0.137300  0.446900  1.0  0.1295
  C  C1158  1  0.976600  0.161400  0.417100  1.0  0.0193
  C  C1159  1  0.999900  0.114700  0.396300  1.0  0.6239
  C  C1160  1  0.000700  0.105800  0.459800  1.0  -0.3861
  C  C1161  1  0.907100  0.102600  0.442300  1.0  -0.4114
  C  C1162  1  0.021200  0.378400  0.467900  1.0  0.1034
  C  C1163  1  0.075600  0.354600  0.456300  1.0  0.0207
  C  C1164  1  0.107400  0.393100  0.436200  1.0  0.566
  C  C1165  1  0.989300  0.400300  0.442600  1.0  -0.3687
  C  C1166  1  0.029500  0.421100  0.492200  1.0  -0.4082
  C  C1167  1  0.822400  0.324000  0.430500  1.0  0.1023
  C  C1168  1  0.768400  0.308200  0.416300  1.0  -0.0149
  C  C1169  1  0.764300  0.330100  0.384200  1.0  0.5269
  C  C1170  1  0.829900  0.384800  0.428100  1.0  -0.3856
  C  C1171  1  0.867700  0.295000  0.418000  1.0  -0.3978
  C  C1172  1  0.655900  0.321300  0.530400  1.0  0.1164
  C  C1173  1  0.636900  0.369800  0.511800  1.0  0.0151
  C  C1174  1  0.571600  0.374200  0.509400  1.0  0.4483
  C  C1175  1  0.626600  0.272500  0.522500  1.0  -0.3763
  C  C1176  1  0.650500  0.330500  0.564600  1.0  -0.3895
  C  C1177  1  0.840700  0.477800  0.514900  1.0  0.0777
  C  C1178  1  0.840200  0.521900  0.538700  1.0  -0.0469
  C  C1179  1  0.816700  0.574100  0.529500  1.0  0.6633
  C  C1180  1  0.878700  0.492600  0.491800  1.0  -0.3854
  C  C1181  1  0.787100  0.467000  0.501500  1.0  -0.3933
  C  C1182  1  0.024100  0.399000  0.599600  1.0  0.1392
  C  C1183  1  0.038800  0.452800  0.587200  1.0  0.0278
  C  C1184  1  0.084500  0.481600  0.604300  1.0  0.6106
  C  C1185  1  0.003600  0.402900  0.630100  1.0  -0.3855
  C  C1186  1  0.068600  0.357400  0.596800  1.0  -0.4075
  C  C1187  1  0.085600  0.191900  0.540100  1.0  0.1081
  C  C1188  1  0.123600  0.196500  0.565600  1.0  -0.0022
  C  C1189  1  0.181500  0.179800  0.557700  1.0  0.6492
  C  C1190  1  0.081500  0.133600  0.531700  1.0  -0.3743
  C  C1191  1  0.100900  0.225500  0.514700  1.0  -0.3976
  C  C1192  1  0.946100  0.210600  0.651500  1.0  0.0971
  C  C1193  1  0.974700  0.158300  0.657700  1.0  -0.0495
  C  C1194  1  0.984000  0.148400  0.691100  1.0  0.3165
  C  C1195  1  0.977000  0.260700  0.660200  1.0  -0.3867
  C  C1196  1  0.889400  0.211900  0.665100  1.0  -0.4017
  C  C1197  1  0.922400  0.041400  0.555800  1.0  0.1042
  C  C1198  1  0.880500  0.999700  0.561100  1.0  -0.0016
  C  C1199  1  0.903000  0.946900  0.567900  1.0  0.607
  C  C1200  1  0.955400  0.029200  0.529100  1.0  -0.3921
  C  C1201  1  0.957000  0.052600  0.581400  1.0  -0.4062
  C  C1202  1  0.725700  0.130000  0.483500  1.0  0.1409
  C  C1203  1  0.744200  0.075900  0.470000  1.0  -0.0212
  C  C1204  1  0.699700  0.050400  0.450600  1.0  0.644
  C  C1205  1  0.676500  0.120100  0.502900  1.0  -0.3878
  C  C1206  1  0.716300  0.173200  0.460600  1.0  -0.4029
  C  C1207  1  0.712400  0.155200  0.600200  1.0  0.1199
  C  C1208  1  0.704600  0.154900  0.633400  1.0  0.0005
  C  C1209  1  0.653700  0.123500  0.643000  1.0  0.6001
  C  C1210  1  0.663300  0.175200  0.585100  1.0  -0.3909
  C  C1211  1  0.727300  0.101300  0.585900  1.0  -0.3977
  C  C1212  1  0.810700  0.378100  0.637100  1.0  0.0918
  C  C1213  1  0.754300  0.382000  0.645400  1.0  -0.0745
  C  C1214  1  0.744100  0.422800  0.668900  1.0  0.5511
  C  C1215  1  0.847900  0.362300  0.660500  1.0  -0.3827
  C  C1216  1  0.830000  0.430600  0.623800  1.0  -0.3923
  C  C1217  1  0.070100  0.370300  0.309800  1.0  0.4371
  C  C1218  1  0.046000  0.333500  0.284000  1.0  -0.4428
  C  C1219  1  0.041400  0.862700  0.946900  1.0  0.1308
  C  C1220  1  0.023400  0.838600  0.917100  1.0  0.0212
  C  C1221  1  0.000100  0.885300  0.896300  1.0  0.6251
  C  C1222  1  0.999300  0.894200  0.959800  1.0  -0.3846
  C  C1223  1  0.092900  0.897400  0.942300  1.0  -0.4089
  C  C1224  1  0.978800  0.621600  0.967900  1.0  0.1047
  C  C1225  1  0.924400  0.645400  0.956300  1.0  0.0156
  C  C1226  1  0.892600  0.606900  0.936200  1.0  0.5664
  C  C1227  1  0.010700  0.599700  0.942600  1.0  -0.3703
  C  C1228  1  0.970500  0.578900  0.992200  1.0  -0.4078
  C  C1229  1  0.177600  0.676000  0.930500  1.0  0.1023
  C  C1230  1  0.231600  0.691800  0.916300  1.0  -0.0145
  C  C1231  1  0.235700  0.669900  0.884200  1.0  0.5262
  C  C1232  1  0.170100  0.615200  0.928100  1.0  -0.3862
  C  C1233  1  0.132300  0.705000  0.918000  1.0  -0.3974
  C  C1234  1  0.344100  0.678700  0.030400  1.0  0.1153
  C  C1235  1  0.363100  0.630200  0.011800  1.0  0.0155
  C  C1236  1  0.428400  0.625800  0.009400  1.0  0.4506
  C  C1237  1  0.373400  0.727500  0.022500  1.0  -0.3769
  C  C1238  1  0.349500  0.669500  0.064600  1.0  -0.3907
  C  C1239  1  0.159300  0.522200  0.014900  1.0  0.0778
  C  C1240  1  0.159800  0.478100  0.038700  1.0  -0.048
  C  C1241  1  0.183300  0.425900  0.029500  1.0  0.6651
  C  C1242  1  0.121300  0.507400  0.991800  1.0  -0.3854
  C  C1243  1  0.212900  0.533000  0.001500  1.0  -0.3931
  C  C1244  1  0.975900  0.601000  0.099600  1.0  0.137
  C  C1245  1  0.961200  0.547200  0.087200  1.0  0.0282
  C  C1246  1  0.915500  0.518400  0.104300  1.0  0.6071
  C  C1247  1  0.996400  0.597100  0.130100  1.0  -0.3865
  C  C1248  1  0.931400  0.642600  0.096800  1.0  -0.4053
  C  C1249  1  0.914400  0.808100  0.040100  1.0  0.1091
  C  C1250  1  0.876400  0.803500  0.065600  1.0  -0.0038
  C  C1251  1  0.818500  0.820200  0.057700  1.0  0.6438
  C  C1252  1  0.918500  0.866400  0.031700  1.0  -0.3739
  C  C1253  1  0.899100  0.774500  0.014700  1.0  -0.3983
  C  C1254  1  0.053900  0.789400  0.151500  1.0  0.0976
  C  C1255  1  0.025300  0.841700  0.157700  1.0  -0.0495
  C  C1256  1  0.016000  0.851600  0.191100  1.0  0.3157
  C  C1257  1  0.023000  0.739300  0.160200  1.0  -0.3859
  C  C1258  1  0.110600  0.788100  0.165100  1.0  -0.4003
  C  C1259  1  0.077600  0.958600  0.055800  1.0  0.1046
  C  C1260  1  0.119500  0.000300  0.061100  1.0  -0.0006
  C  C1261  1  0.097000  0.053100  0.067900  1.0  0.6081
  C  C1262  1  0.044600  0.970800  0.029100  1.0  -0.3915
  C  C1263  1  0.043000  0.947400  0.081400  1.0  -0.4052
  C  C1264  1  0.274300  0.870000  0.983500  1.0  0.1408
  C  C1265  1  0.255800  0.924100  0.970000  1.0  -0.0208
  C  C1266  1  0.300300  0.949600  0.950600  1.0  0.6419
  C  C1267  1  0.323500  0.879900  0.002900  1.0  -0.3869
  C  C1268  1  0.283700  0.826800  0.960600  1.0  -0.4044
  C  C1269  1  0.287600  0.844800  0.100200  1.0  0.1193
  C  C1270  1  0.295400  0.845100  0.133400  1.0  -0.0008
  C  C1271  1  0.346300  0.876500  0.143000  1.0  0.5997
  C  C1272  1  0.336700  0.824800  0.085100  1.0  -0.3911
  C  C1273  1  0.272700  0.898700  0.085900  1.0  -0.3966
  C  C1274  1  0.189300  0.621900  0.137100  1.0  0.0911
  C  C1275  1  0.245700  0.618000  0.145400  1.0  -0.0744
  C  C1276  1  0.255900  0.577200  0.168900  1.0  0.5541
  C  C1277  1  0.152100  0.637700  0.160500  1.0  -0.3818
  C  C1278  1  0.170000  0.569400  0.123800  1.0  -0.3927
  C  C1279  1  0.929900  0.629700  0.809800  1.0  0.438
  C  C1280  1  0.954000  0.666500  0.784000  1.0  -0.4426
  C  C1281  1  0.862700  0.041400  0.053100  1.0  0.1268
  C  C1282  1  0.838600  0.023400  0.082900  1.0  0.0185
  C  C1283  1  0.885300  0.000100  0.103700  1.0  0.6196
  C  C1284  1  0.894200  0.999300  0.040200  1.0  -0.3853
  C  C1285  1  0.897400  0.092900  0.057700  1.0  -0.411
  C  C1286  1  0.621600  0.978800  0.032100  1.0  0.1033
  C  C1287  1  0.645400  0.924400  0.043700  1.0  0.0181
  C  C1288  1  0.606900  0.892600  0.063800  1.0  0.5698
  C  C1289  1  0.599700  0.010700  0.057400  1.0  -0.3703
  C  C1290  1  0.578900  0.970500  0.007800  1.0  -0.4074
  C  C1291  1  0.676000  0.177600  0.069500  1.0  0.1006
  C  C1292  1  0.691800  0.231600  0.083700  1.0  -0.0142
  C  C1293  1  0.669900  0.235700  0.115800  1.0  0.5262
  C  C1294  1  0.615200  0.170100  0.071900  1.0  -0.3851
  C  C1295  1  0.705000  0.132300  0.082000  1.0  -0.3976
  C  C1296  1  0.678700  0.344100  0.969600  1.0  0.1153
  C  C1297  1  0.630200  0.363100  0.988200  1.0  0.0148
  C  C1298  1  0.625800  0.428400  0.990600  1.0  0.4477
  C  C1299  1  0.727500  0.373400  0.977500  1.0  -0.3763
  C  C1300  1  0.669500  0.349500  0.935400  1.0  -0.3908
  C  C1301  1  0.522200  0.159300  0.985100  1.0  0.0747
  C  C1302  1  0.478100  0.159800  0.961300  1.0  -0.0455
  C  C1303  1  0.425900  0.183300  0.970500  1.0  0.663
  C  C1304  1  0.507400  0.121300  0.008200  1.0  -0.3846
  C  C1305  1  0.533000  0.212900  0.998500  1.0  -0.3923
  C  C1306  1  0.601000  0.975900  0.900400  1.0  0.1398
  C  C1307  1  0.547200  0.961200  0.912800  1.0  0.0289
  C  C1308  1  0.518400  0.915500  0.895700  1.0  0.6092
  C  C1309  1  0.597100  0.996400  0.869900  1.0  -0.3843
  C  C1310  1  0.642600  0.931400  0.903200  1.0  -0.4057
  C  C1311  1  0.808100  0.914400  0.959900  1.0  0.1097
  C  C1312  1  0.803500  0.876400  0.934400  1.0  -0.0046
  C  C1313  1  0.820200  0.818500  0.942300  1.0  0.6429
  C  C1314  1  0.866400  0.918500  0.968300  1.0  -0.3744
  C  C1315  1  0.774500  0.899100  0.985300  1.0  -0.4045
  C  C1316  1  0.789400  0.053900  0.848500  1.0  0.0989
  C  C1317  1  0.841700  0.025300  0.842300  1.0  -0.0514
  C  C1318  1  0.851600  0.016000  0.808900  1.0  0.3238
  C  C1319  1  0.739300  0.023000  0.839800  1.0  -0.3842
  C  C1320  1  0.788100  0.110600  0.834900  1.0  -0.4017
  C  C1321  1  0.958600  0.077600  0.944200  1.0  0.1041
  C  C1322  1  0.000300  0.119500  0.938900  1.0  -0.002
  C  C1323  1  0.053100  0.097000  0.932100  1.0  0.6037
  C  C1324  1  0.970800  0.044600  0.970900  1.0  -0.3931
  C  C1325  1  0.947400  0.043000  0.918600  1.0  -0.4049
  C  C1326  1  0.870000  0.274300  0.016500  1.0  0.1379
  C  C1327  1  0.924100  0.255800  0.030000  1.0  -0.0223
  C  C1328  1  0.949600  0.300300  0.049400  1.0  0.6517
  C  C1329  1  0.879900  0.323500  0.997100  1.0  -0.3881
  C  C1330  1  0.826800  0.283700  0.039400  1.0  -0.4025
  C  C1331  1  0.844800  0.287600  0.899800  1.0  0.1187
  C  C1332  1  0.845100  0.295400  0.866600  1.0  -0.0033
  C  C1333  1  0.876500  0.346300  0.857000  1.0  0.5999
  C  C1334  1  0.824800  0.336700  0.914900  1.0  -0.3914
  C  C1335  1  0.898700  0.272700  0.914100  1.0  -0.3999
  C  C1336  1  0.621900  0.189300  0.862900  1.0  0.095
  C  C1337  1  0.618000  0.245700  0.854600  1.0  -0.0728
  C  C1338  1  0.577200  0.255900  0.831100  1.0  0.5523
  C  C1339  1  0.637700  0.152100  0.839500  1.0  -0.383
  C  C1340  1  0.569400  0.170000  0.876200  1.0  -0.3918
  C  C1341  1  0.629700  0.929900  0.190200  1.0  0.4386
  C  C1342  1  0.666500  0.954000  0.216000  1.0  -0.4436
  C  C1343  1  0.137300  0.958600  0.553100  1.0  0.1291
  C  C1344  1  0.161400  0.976600  0.582900  1.0  0.02
  C  C1345  1  0.114700  0.999900  0.603700  1.0  0.6178
  C  C1346  1  0.105800  0.000700  0.540200  1.0  -0.385
  C  C1347  1  0.102600  0.907100  0.557700  1.0  -0.4098
  C  C1348  1  0.378400  0.021200  0.532100  1.0  0.104
  C  C1349  1  0.354600  0.075600  0.543700  1.0  0.0195
  C  C1350  1  0.393100  0.107400  0.563800  1.0  0.5716
  C  C1351  1  0.400300  0.989300  0.557400  1.0  -0.3706
  C  C1352  1  0.421100  0.029500  0.507800  1.0  -0.4079
  C  C1353  1  0.324000  0.822400  0.569500  1.0  0.102
  C  C1354  1  0.308200  0.768400  0.583700  1.0  -0.017
  C  C1355  1  0.330100  0.764300  0.615800  1.0  0.5227
  C  C1356  1  0.384800  0.829900  0.571900  1.0  -0.3844
  C  C1357  1  0.295000  0.867700  0.582000  1.0  -0.3982
  C  C1358  1  0.321300  0.655900  0.469600  1.0  0.1141
  C  C1359  1  0.369800  0.636900  0.488200  1.0  0.0175
  C  C1360  1  0.374200  0.571600  0.490600  1.0  0.4508
  C  C1361  1  0.272500  0.626600  0.477500  1.0  -0.377
  C  C1362  1  0.330500  0.650500  0.435400  1.0  -0.3926
  C  C1363  1  0.477800  0.840700  0.485100  1.0  0.075
  C  C1364  1  0.521900  0.840200  0.461300  1.0  -0.0468
  C  C1365  1  0.574100  0.816700  0.470500  1.0  0.6644
  C  C1366  1  0.492600  0.878700  0.508200  1.0  -0.3848
  C  C1367  1  0.467000  0.787100  0.498500  1.0  -0.3918
  C  C1368  1  0.399000  0.024100  0.400400  1.0  0.1412
  C  C1369  1  0.452800  0.038800  0.412800  1.0  0.0295
  C  C1370  1  0.481600  0.084500  0.395700  1.0  0.6096
  C  C1371  1  0.402900  0.003600  0.369900  1.0  -0.3859
  C  C1372  1  0.357400  0.068600  0.403200  1.0  -0.4059
  C  C1373  1  0.191900  0.085600  0.459900  1.0  0.1078
  C  C1374  1  0.196500  0.123600  0.434400  1.0  0.0006
  C  C1375  1  0.179800  0.181500  0.442300  1.0  0.6442
  C  C1376  1  0.133600  0.081500  0.468300  1.0  -0.3741
  C  C1377  1  0.225500  0.100900  0.485300  1.0  -0.403
  C  C1378  1  0.210600  0.946100  0.348500  1.0  0.0998
  C  C1379  1  0.158300  0.974700  0.342300  1.0  -0.0529
  C  C1380  1  0.148400  0.984000  0.308900  1.0  0.3252
  C  C1381  1  0.260700  0.977000  0.339800  1.0  -0.3829
  C  C1382  1  0.211900  0.889400  0.334900  1.0  -0.4013
  C  C1383  1  0.041400  0.922400  0.444200  1.0  0.1029
  C  C1384  1  0.999700  0.880500  0.438900  1.0  -0.0021
  C  C1385  1  0.946900  0.903000  0.432100  1.0  0.6006
  C  C1386  1  0.029200  0.955400  0.470900  1.0  -0.3925
  C  C1387  1  0.052600  0.957000  0.418600  1.0  -0.4061
  C  C1388  1  0.130000  0.725700  0.516500  1.0  0.1398
  C  C1389  1  0.075900  0.744200  0.530000  1.0  -0.0221
  C  C1390  1  0.050400  0.699700  0.549400  1.0  0.651
  C  C1391  1  0.120100  0.676500  0.497100  1.0  -0.388
  C  C1392  1  0.173200  0.716300  0.539400  1.0  -0.4024
  C  C1393  1  0.155200  0.712400  0.399800  1.0  0.1214
  C  C1394  1  0.154900  0.704600  0.366600  1.0  -0.0031
  C  C1395  1  0.123500  0.653700  0.357000  1.0  0.6015
  C  C1396  1  0.175200  0.663300  0.414900  1.0  -0.3901
  C  C1397  1  0.101300  0.727300  0.414100  1.0  -0.4003
  C  C1398  1  0.378100  0.810700  0.362900  1.0  0.0955
  C  C1399  1  0.382000  0.754300  0.354600  1.0  -0.0727
  C  C1400  1  0.422800  0.744100  0.331100  1.0  0.5529
  C  C1401  1  0.362300  0.847900  0.339500  1.0  -0.3817
  C  C1402  1  0.430600  0.830000  0.376200  1.0  -0.3914
  C  C1403  1  0.370300  0.070100  0.690200  1.0  0.4388
  C  C1404  1  0.333500  0.046000  0.716000  1.0  -0.4425
  C  C1405  1  0.541400  0.637300  0.803100  1.0  0.1301
  C  C1406  1  0.523400  0.661400  0.832900  1.0  0.0192
  C  C1407  1  0.500100  0.614700  0.853700  1.0  0.6216
  C  C1408  1  0.499300  0.605800  0.790200  1.0  -0.3849
  C  C1409  1  0.592900  0.602600  0.807700  1.0  -0.4096
  C  C1410  1  0.478800  0.878400  0.782100  1.0  0.103
  C  C1411  1  0.424400  0.854600  0.793700  1.0  0.0164
  C  C1412  1  0.392600  0.893100  0.813800  1.0  0.5673
  C  C1413  1  0.510700  0.900300  0.807400  1.0  -0.3701
  C  C1414  1  0.470500  0.921100  0.757800  1.0  -0.4068
  C  C1415  1  0.677600  0.824000  0.819500  1.0  0.1013
  C  C1416  1  0.731600  0.808200  0.833700  1.0  -0.0145
  C  C1417  1  0.735700  0.830100  0.865800  1.0  0.5235
  C  C1418  1  0.670100  0.884800  0.821900  1.0  -0.385
  C  C1419  1  0.632300  0.795000  0.832000  1.0  -0.3972
  C  C1420  1  0.844100  0.821300  0.719600  1.0  0.1142
  C  C1421  1  0.863100  0.869800  0.738200  1.0  0.0159
  C  C1422  1  0.928400  0.874200  0.740600  1.0  0.4508
  C  C1423  1  0.873400  0.772500  0.727500  1.0  -0.3774
  C  C1424  1  0.849500  0.830500  0.685400  1.0  -0.39
  C  C1425  1  0.659300  0.977800  0.735100  1.0  0.0746
  C  C1426  1  0.659800  0.021900  0.711300  1.0  -0.0476
  C  C1427  1  0.683300  0.074100  0.720500  1.0  0.6635
  C  C1428  1  0.621300  0.992600  0.758200  1.0  -0.3851
  C  C1429  1  0.712900  0.967000  0.748500  1.0  -0.3947
  C  C1430  1  0.475900  0.899000  0.650400  1.0  0.1409
  C  C1431  1  0.461200  0.952800  0.662800  1.0  0.0274
  C  C1432  1  0.415500  0.981600  0.645700  1.0  0.6079
  C  C1433  1  0.496400  0.902900  0.619900  1.0  -0.386
  C  C1434  1  0.431400  0.857400  0.653200  1.0  -0.407
  C  C1435  1  0.414400  0.691900  0.709900  1.0  0.1073
  C  C1436  1  0.376400  0.696500  0.684400  1.0  -0.002
  C  C1437  1  0.318500  0.679800  0.692300  1.0  0.6467
  C  C1438  1  0.418500  0.633600  0.718300  1.0  -0.3758
  C  C1439  1  0.399100  0.725500  0.735300  1.0  -0.399
  C  C1440  1  0.553900  0.710600  0.598500  1.0  0.1004
  C  C1441  1  0.525300  0.658300  0.592300  1.0  -0.0519
  C  C1442  1  0.516000  0.648400  0.558900  1.0  0.3226
  C  C1443  1  0.523000  0.760700  0.589800  1.0  -0.385
  C  C1444  1  0.610600  0.711900  0.584900  1.0  -0.4016
  C  C1445  1  0.577600  0.541400  0.694200  1.0  0.1031
  C  C1446  1  0.619500  0.499700  0.688900  1.0  -0.0016
  C  C1447  1  0.597000  0.446900  0.682100  1.0  0.6104
  C  C1448  1  0.544600  0.529200  0.720900  1.0  -0.3922
  C  C1449  1  0.543000  0.552600  0.668600  1.0  -0.4052
  C  C1450  1  0.774300  0.630000  0.766500  1.0  0.1389
  C  C1451  1  0.755800  0.575900  0.780000  1.0  -0.0215
  C  C1452  1  0.800300  0.550400  0.799400  1.0  0.6432
  C  C1453  1  0.823500  0.620100  0.747100  1.0  -0.3868
  C  C1454  1  0.783700  0.673200  0.789400  1.0  -0.4033
  C  C1455  1  0.787600  0.655200  0.649800  1.0  0.1178
  C  C1456  1  0.795400  0.654900  0.616600  1.0  -0.0008
  C  C1457  1  0.846300  0.623500  0.607000  1.0  0.6016
  C  C1458  1  0.836700  0.675200  0.664900  1.0  -0.3907
  C  C1459  1  0.772700  0.601300  0.664100  1.0  -0.3977
  C  C1460  1  0.689300  0.878100  0.612900  1.0  0.0944
  C  C1461  1  0.745700  0.882000  0.604600  1.0  -0.0747
  C  C1462  1  0.755900  0.922800  0.581100  1.0  0.5514
  C  C1463  1  0.652100  0.862300  0.589500  1.0  -0.38
  C  C1464  1  0.670000  0.930600  0.626200  1.0  -0.3921
  C  C1465  1  0.429900  0.870300  0.940200  1.0  0.4383
  C  C1466  1  0.454000  0.833500  0.966000  1.0  -0.4432
  C  C1467  1  0.458600  0.362700  0.303100  1.0  0.1278
  C  C1468  1  0.476600  0.338600  0.332900  1.0  0.0181
  C  C1469  1  0.499900  0.385300  0.353700  1.0  0.619
  C  C1470  1  0.500700  0.394200  0.290200  1.0  -0.3844
  C  C1471  1  0.407100  0.397400  0.307700  1.0  -0.4115
  C  C1472  1  0.521200  0.121600  0.282100  1.0  0.1026
  C  C1473  1  0.575600  0.145400  0.293700  1.0  0.0197
  C  C1474  1  0.607400  0.106900  0.313800  1.0  0.5672
  C  C1475  1  0.489300  0.099700  0.307400  1.0  -0.3695
  C  C1476  1  0.529500  0.078900  0.257800  1.0  -0.4087
  C  C1477  1  0.322400  0.176000  0.319500  1.0  0.1017
  C  C1478  1  0.268400  0.191800  0.333700  1.0  -0.0145
  C  C1479  1  0.264300  0.169900  0.365800  1.0  0.5214
  C  C1480  1  0.329900  0.115200  0.321900  1.0  -0.386
  C  C1481  1  0.367700  0.205000  0.332000  1.0  -0.3956
  C  C1482  1  0.155900  0.178700  0.219600  1.0  0.116
  C  C1483  1  0.136900  0.130200  0.238200  1.0  0.0137
  C  C1484  1  0.071600  0.125800  0.240600  1.0  0.4486
  C  C1485  1  0.126600  0.227500  0.227500  1.0  -0.376
  C  C1486  1  0.150500  0.169500  0.185400  1.0  -0.3908
  C  C1487  1  0.340700  0.022200  0.235100  1.0  0.075
  C  C1488  1  0.340200  0.978100  0.211300  1.0  -0.047
  C  C1489  1  0.316700  0.925900  0.220500  1.0  0.6625
  C  C1490  1  0.378700  0.007400  0.258200  1.0  -0.3853
  C  C1491  1  0.287100  0.033000  0.248500  1.0  -0.3945
  C  C1492  1  0.524100  0.101000  0.150400  1.0  0.1415
  C  C1493  1  0.538800  0.047200  0.162800  1.0  0.0275
  C  C1494  1  0.584500  0.018400  0.145700  1.0  0.6103
  C  C1495  1  0.503600  0.097100  0.119900  1.0  -0.3847
  C  C1496  1  0.568600  0.142600  0.153200  1.0  -0.4074
  C  C1497  1  0.585600  0.308100  0.209900  1.0  0.1099
  C  C1498  1  0.623600  0.303500  0.184400  1.0  -0.004
  C  C1499  1  0.681500  0.320200  0.192300  1.0  0.6496
  C  C1500  1  0.581500  0.366400  0.218300  1.0  -0.374
  C  C1501  1  0.600900  0.274500  0.235300  1.0  -0.3997
  C  C1502  1  0.446100  0.289400  0.098500  1.0  0.099
  C  C1503  1  0.474700  0.341700  0.092300  1.0  -0.0502
  C  C1504  1  0.484000  0.351600  0.058900  1.0  0.3212
  C  C1505  1  0.477000  0.239300  0.089800  1.0  -0.3874
  C  C1506  1  0.389400  0.288100  0.084900  1.0  -0.4021
  C  C1507  1  0.422400  0.458600  0.194200  1.0  0.1039
  C  C1508  1  0.380500  0.500300  0.188900  1.0  -0.0013
  C  C1509  1  0.403000  0.553100  0.182100  1.0  0.6098
  C  C1510  1  0.455400  0.470800  0.220900  1.0  -0.3929
  C  C1511  1  0.457000  0.447400  0.168600  1.0  -0.4063
  C  C1512  1  0.225700  0.370000  0.266500  1.0  0.1387
  C  C1513  1  0.244200  0.424100  0.280000  1.0  -0.0207
  C  C1514  1  0.199700  0.449600  0.299400  1.0  0.6388
  C  C1515  1  0.176500  0.379900  0.247100  1.0  -0.3866
  C  C1516  1  0.216300  0.326800  0.289400  1.0  -0.4042
  C  C1517  1  0.212400  0.344800  0.149800  1.0  0.1192
  C  C1518  1  0.204600  0.345100  0.116600  1.0  0.0002
  C  C1519  1  0.153700  0.376500  0.107000  1.0  0.599
  C  C1520  1  0.163300  0.324800  0.164900  1.0  -0.3915
  C  C1521  1  0.227300  0.398700  0.164100  1.0  -0.3969
  C  C1522  1  0.310700  0.121900  0.112900  1.0  0.0941
  C  C1523  1  0.254300  0.118000  0.104600  1.0  -0.0753
  C  C1524  1  0.244100  0.077200  0.081100  1.0  0.5544
  C  C1525  1  0.347900  0.137700  0.089500  1.0  -0.3817
  C  C1526  1  0.330000  0.069400  0.126200  1.0  -0.3933
  C  C1527  1  0.570100  0.129700  0.440200  1.0  0.4403
  C  C1528  1  0.546000  0.166500  0.466000  1.0  -0.4433
  S  S1529  1  0.695170  0.559100  0.219630  1.0  0.028
  S  S1530  1  0.822940  0.515060  0.235710  1.0  0.0526
  S  S1531  1  0.805550  0.685320  0.218440  1.0  -0.0075
  S  S1532  1  0.817620  0.770510  0.275010  1.0  0.0562
  S  S1533  1  0.917060  0.635880  0.284070  1.0  0.0791
  S  S1534  1  0.875310  0.531890  0.325610  1.0  0.045
  S  S1535  1  0.715300  0.480880  0.302950  1.0  0.0522
  S  S1536  1  0.709810  0.561620  0.361310  1.0  0.0355
  S  S1537  1  0.605500  0.615290  0.299270  1.0  0.0297
  S  S1538  1  0.651580  0.714630  0.255810  1.0  0.0577
  S  S1539  1  0.699270  0.728830  0.342720  1.0  0.0351
  S  S1540  1  0.826570  0.686580  0.357050  1.0  0.0315
  S  S1541  1  0.304830  0.440900  0.719630  1.0  0.0281
  S  S1542  1  0.177060  0.484940  0.735710  1.0  0.052
  S  S1543  1  0.194450  0.314680  0.718440  1.0  -0.0071
  S  S1544  1  0.182380  0.229490  0.775010  1.0  0.0575
  S  S1545  1  0.082940  0.364120  0.784070  1.0  0.0812
  S  S1546  1  0.124690  0.468110  0.825610  1.0  0.0406
  S  S1547  1  0.284700  0.519120  0.802950  1.0  0.0455
  S  S1548  1  0.290190  0.438380  0.861310  1.0  0.0362
  S  S1549  1  0.394500  0.384710  0.799270  1.0  0.0281
  S  S1550  1  0.348420  0.285370  0.755810  1.0  0.0606
  S  S1551  1  0.300730  0.271170  0.842720  1.0  0.0409
  S  S1552  1  0.173430  0.313420  0.857050  1.0  0.0315
  S  S1553  1  0.940900  0.195170  0.469630  1.0  0.0291
  S  S1554  1  0.984940  0.322940  0.485710  1.0  0.0501
  S  S1555  1  0.814680  0.305550  0.468440  1.0  -0.0074
  S  S1556  1  0.729490  0.317620  0.525010  1.0  0.0559
  S  S1557  1  0.864120  0.417060  0.534070  1.0  0.0733
  S  S1558  1  0.968110  0.375310  0.575610  1.0  0.0422
  S  S1559  1  0.019120  0.215300  0.552950  1.0  0.049
  S  S1560  1  0.938380  0.209810  0.611310  1.0  0.0365
  S  S1561  1  0.884710  0.105500  0.549270  1.0  0.0363
  S  S1562  1  0.785370  0.151580  0.505810  1.0  0.0581
  S  S1563  1  0.771170  0.199270  0.592720  1.0  0.0357
  S  S1564  1  0.813420  0.326570  0.607050  1.0  0.0283
  S  S1565  1  0.059100  0.804830  0.969630  1.0  0.0275
  S  S1566  1  0.015060  0.677060  0.985710  1.0  0.0545
  S  S1567  1  0.185320  0.694450  0.968440  1.0  -0.0089
  S  S1568  1  0.270510  0.682380  0.025010  1.0  0.0576
  S  S1569  1  0.135880  0.582940  0.034070  1.0  0.0817
  S  S1570  1  0.031890  0.624690  0.075610  1.0  0.0444
  S  S1571  1  0.980880  0.784700  0.052950  1.0  0.0465
  S  S1572  1  0.061620  0.790190  0.111310  1.0  0.0353
  S  S1573  1  0.115290  0.894500  0.049270  1.0  0.0288
  S  S1574  1  0.214630  0.848420  0.005810  1.0  0.0571
  S  S1575  1  0.228830  0.800730  0.092720  1.0  0.0345
  S  S1576  1  0.186580  0.673430  0.107050  1.0  0.0324
  S  S1577  1  0.804830  0.059100  0.030370  1.0  0.0287
  S  S1578  1  0.677060  0.015060  0.014290  1.0  0.0541
  S  S1579  1  0.694450  0.185320  0.031560  1.0  -0.0069
  S  S1580  1  0.682380  0.270510  0.974990  1.0  0.0543
  S  S1581  1  0.582940  0.135880  0.965930  1.0  0.0799
  S  S1582  1  0.624690  0.031890  0.924390  1.0  0.045
  S  S1583  1  0.784700  0.980880  0.947050  1.0  0.0514
  S  S1584  1  0.790190  0.061620  0.888690  1.0  0.0362
  S  S1585  1  0.894500  0.115290  0.950730  1.0  0.0321
  S  S1586  1  0.848420  0.214630  0.994190  1.0  0.0563
  S  S1587  1  0.800730  0.228830  0.907280  1.0  0.0359
  S  S1588  1  0.673430  0.186580  0.892950  1.0  0.0317
  S  S1589  1  0.195170  0.940900  0.530370  1.0  0.0277
  S  S1590  1  0.322940  0.984940  0.514290  1.0  0.0518
  S  S1591  1  0.305550  0.814680  0.531560  1.0  -0.007
  S  S1592  1  0.317620  0.729490  0.474990  1.0  0.0586
  S  S1593  1  0.417060  0.864120  0.465930  1.0  0.0791
  S  S1594  1  0.375310  0.968110  0.424390  1.0  0.0414
  S  S1595  1  0.215300  0.019120  0.447050  1.0  0.0454
  S  S1596  1  0.209810  0.938380  0.388690  1.0  0.0355
  S  S1597  1  0.105500  0.884710  0.450730  1.0  0.026
  S  S1598  1  0.151580  0.785370  0.494190  1.0  0.0602
  S  S1599  1  0.199270  0.771170  0.407280  1.0  0.0396
  S  S1600  1  0.326570  0.813420  0.392950  1.0  0.0311
  S  S1601  1  0.559100  0.695170  0.780370  1.0  0.0298
  S  S1602  1  0.515060  0.822940  0.764290  1.0  0.0522
  S  S1603  1  0.685320  0.805550  0.781560  1.0  -0.0075
  S  S1604  1  0.770510  0.817620  0.724990  1.0  0.0565
  S  S1605  1  0.635880  0.917060  0.715930  1.0  0.0747
  S  S1606  1  0.531890  0.875310  0.674390  1.0  0.0431
  S  S1607  1  0.480880  0.715300  0.697050  1.0  0.0488
  S  S1608  1  0.561620  0.709810  0.638690  1.0  0.0358
  S  S1609  1  0.615290  0.605500  0.700730  1.0  0.0347
  S  S1610  1  0.714630  0.651580  0.744190  1.0  0.0576
  S  S1611  1  0.728830  0.699270  0.657280  1.0  0.0387
  S  S1612  1  0.686580  0.826570  0.642950  1.0  0.0288
  S  S1613  1  0.440900  0.304830  0.280370  1.0  0.0264
  S  S1614  1  0.484940  0.177060  0.264290  1.0  0.0549
  S  S1615  1  0.314680  0.194450  0.281560  1.0  -0.0078
  S  S1616  1  0.229490  0.182380  0.224990  1.0  0.0553
  S  S1617  1  0.364120  0.082940  0.215930  1.0  0.0795
  S  S1618  1  0.468110  0.124690  0.174390  1.0  0.0438
  S  S1619  1  0.519120  0.284700  0.197050  1.0  0.0455
  S  S1620  1  0.438380  0.290190  0.138690  1.0  0.0365
  S  S1621  1  0.384710  0.394500  0.200730  1.0  0.0301
  S  S1622  1  0.285370  0.348420  0.244190  1.0  0.0557
  S  S1623  1  0.271170  0.300730  0.157280  1.0  0.034
  S  S1624  1  0.313420  0.173430  0.142950  1.0  0.0335
  N  N1625  1  0.699400  0.481700  0.172200  1.0  -0.6014
  N  N1626  1  0.805100  0.435100  0.189400  1.0  -0.5772
  N  N1627  1  0.832900  0.778000  0.182200  1.0  -0.627
  N  N1628  1  0.860700  0.847200  0.231600  1.0  -0.5946
  N  N1629  1  0.026500  0.605400  0.303600  1.0  -0.5675
  N  N1630  1  0.989000  0.508300  0.335900  1.0  -0.6344
  N  N1631  1  0.668900  0.397000  0.341400  1.0  -0.5941
  N  N1632  1  0.654400  0.471800  0.390800  1.0  -0.5991
  N  N1633  1  0.497900  0.658100  0.286200  1.0  -0.605
  N  N1634  1  0.538900  0.736500  0.243600  1.0  -0.5452
  N  N1635  1  0.711400  0.800400  0.393700  1.0  -0.5896
  N  N1636  1  0.824700  0.765800  0.404200  1.0  -0.5351
  N  N1637  1  0.300600  0.518300  0.672200  1.0  -0.6024
  N  N1638  1  0.194900  0.564900  0.689400  1.0  -0.5754
  N  N1639  1  0.167100  0.222000  0.682200  1.0  -0.6276
  N  N1640  1  0.139300  0.152800  0.731600  1.0  -0.5929
  N  N1641  1  0.973500  0.394600  0.803600  1.0  -0.5681
  N  N1642  1  0.011000  0.491700  0.835900  1.0  -0.6328
  N  N1643  1  0.331100  0.603000  0.841400  1.0  -0.5925
  N  N1644  1  0.345600  0.528200  0.890800  1.0  -0.6
  N  N1645  1  0.502100  0.341900  0.786200  1.0  -0.6061
  N  N1646  1  0.461100  0.263500  0.743600  1.0  -0.5433
  N  N1647  1  0.288600  0.199600  0.893700  1.0  -0.5892
  N  N1648  1  0.175300  0.234200  0.904200  1.0  -0.5381
  N  N1649  1  0.018300  0.199400  0.422200  1.0  -0.5991
  N  N1650  1  0.064900  0.305100  0.439400  1.0  -0.5754
  N  N1651  1  0.722000  0.332900  0.432200  1.0  -0.6275
  N  N1652  1  0.652800  0.360700  0.481600  1.0  -0.5914
  N  N1653  1  0.894600  0.526500  0.553600  1.0  -0.5683
  N  N1654  1  0.991700  0.489000  0.585900  1.0  -0.6319
  N  N1655  1  0.103000  0.168900  0.591400  1.0  -0.5932
  N  N1656  1  0.028200  0.154400  0.640800  1.0  -0.599
  N  N1657  1  0.841900  0.997900  0.536200  1.0  -0.6073
  N  N1658  1  0.763500  0.038900  0.493600  1.0  -0.5459
  N  N1659  1  0.699600  0.211400  0.643700  1.0  -0.5869
  N  N1660  1  0.734200  0.324700  0.654200  1.0  -0.5343
  N  N1661  1  0.981700  0.800600  0.922200  1.0  -0.6041
  N  N1662  1  0.935100  0.694900  0.939400  1.0  -0.5737
  N  N1663  1  0.278000  0.667100  0.932200  1.0  -0.6257
  N  N1664  1  0.347200  0.639300  0.981600  1.0  -0.5927
  N  N1665  1  0.105400  0.473500  0.053600  1.0  -0.5701
  N  N1666  1  0.008300  0.511000  0.085900  1.0  -0.632
  N  N1667  1  0.897000  0.831100  0.091400  1.0  -0.5928
  N  N1668  1  0.971800  0.845600  0.140800  1.0  -0.6015
  N  N1669  1  0.158100  0.002100  0.036200  1.0  -0.6066
  N  N1670  1  0.236500  0.961100  0.993600  1.0  -0.5466
  N  N1671  1  0.300400  0.788600  0.143700  1.0  -0.5871
  N  N1672  1  0.265800  0.675300  0.154200  1.0  -0.5346
  N  N1673  1  0.800600  0.981700  0.077800  1.0  -0.6005
  N  N1674  1  0.694900  0.935100  0.060600  1.0  -0.5775
  N  N1675  1  0.667100  0.278000  0.067800  1.0  -0.6274
  N  N1676  1  0.639300  0.347200  0.018400  1.0  -0.594
  N  N1677  1  0.473500  0.105400  0.946400  1.0  -0.5677
  N  N1678  1  0.511000  0.008300  0.914100  1.0  -0.6324
  N  N1679  1  0.831100  0.897000  0.908600  1.0  -0.5923
  N  N1680  1  0.845600  0.971800  0.859200  1.0  -0.5994
  N  N1681  1  0.002100  0.158100  0.963800  1.0  -0.6051
  N  N1682  1  0.961100  0.236500  0.006400  1.0  -0.542
  N  N1683  1  0.788600  0.300400  0.856300  1.0  -0.589
  N  N1684  1  0.675300  0.265800  0.845800  1.0  -0.5369
  N  N1685  1  0.199400  0.018300  0.577800  1.0  -0.6013
  N  N1686  1  0.305100  0.064900  0.560600  1.0  -0.5749
  N  N1687  1  0.332900  0.722000  0.567800  1.0  -0.6263
  N  N1688  1  0.360700  0.652800  0.518400  1.0  -0.595
  N  N1689  1  0.526500  0.894600  0.446400  1.0  -0.5654
  N  N1690  1  0.489000  0.991700  0.414100  1.0  -0.6341
  N  N1691  1  0.168900  0.103000  0.408600  1.0  -0.5929
  N  N1692  1  0.154400  0.028200  0.359200  1.0  -0.5985
  N  N1693  1  0.997900  0.841900  0.463800  1.0  -0.6056
  N  N1694  1  0.038900  0.763500  0.506400  1.0  -0.5455
  N  N1695  1  0.211400  0.699600  0.356300  1.0  -0.5888
  N  N1696  1  0.324700  0.734200  0.345800  1.0  -0.5368
  N  N1697  1  0.481700  0.699400  0.827800  1.0  -0.6027
  N  N1698  1  0.435100  0.805100  0.810600  1.0  -0.5749
  N  N1699  1  0.778000  0.832900  0.817800  1.0  -0.627
  N  N1700  1  0.847200  0.860700  0.768400  1.0  -0.5933
  N  N1701  1  0.605400  0.026500  0.696400  1.0  -0.5682
  N  N1702  1  0.508300  0.989000  0.664100  1.0  -0.6308
  N  N1703  1  0.397000  0.668900  0.658600  1.0  -0.5908
  N  N1704  1  0.471800  0.654400  0.609200  1.0  -0.6007
  N  N1705  1  0.658100  0.497900  0.713800  1.0  -0.6062
  N  N1706  1  0.736500  0.538900  0.756400  1.0  -0.5439
  N  N1707  1  0.800400  0.711400  0.606300  1.0  -0.5884
  N  N1708  1  0.765800  0.824700  0.595800  1.0  -0.535
  N  N1709  1  0.518300  0.300600  0.327800  1.0  -0.6001
  N  N1710  1  0.564900  0.194900  0.310600  1.0  -0.5763
  N  N1711  1  0.222000  0.167100  0.317800  1.0  -0.6259
  N  N1712  1  0.152800  0.139300  0.268400  1.0  -0.5933
  N  N1713  1  0.394600  0.973500  0.196400  1.0  -0.5683
  N  N1714  1  0.491700  0.011000  0.164100  1.0  -0.6324
  N  N1715  1  0.603000  0.331100  0.158600  1.0  -0.5929
  N  N1716  1  0.528200  0.345600  0.109200  1.0  -0.6002
  N  N1717  1  0.341900  0.502100  0.213800  1.0  -0.6071
  N  N1718  1  0.263500  0.461100  0.256400  1.0  -0.5459
  N  N1719  1  0.199600  0.288600  0.106300  1.0  -0.5871
  N  N1720  1  0.234200  0.175300  0.095800  1.0  -0.5333
  O  O1721  1  0.608900  0.451400  0.146400  1.0  -0.5723
  O  O1722  1  0.589900  0.534400  0.131700  1.0  -0.576
  O  O1723  1  0.882600  0.391300  0.160230  1.0  -0.6307
  O  O1724  1  0.934200  0.372900  0.199600  1.0  -0.558
  O  O1725  1  0.871000  0.756500  0.129000  1.0  -0.5346
  O  O1726  1  0.794600  0.713700  0.117400  1.0  -0.6017
  O  O1727  1  0.855100  0.954900  0.241400  1.0  -0.5518
  O  O1728  1  0.900100  0.940600  0.284400  1.0  -0.6742
  O  O1729  1  0.110700  0.649700  0.274500  1.0  -0.5662
  O  O1730  1  0.076100  0.732500  0.277100  1.0  -0.5287
  O  O1731  1  0.022600  0.429800  0.369010  1.0  -0.6728
  O  O1732  1  0.961500  0.369900  0.353500  1.0  -0.6124
  O  O1733  1  0.634600  0.302800  0.317000  1.0  -0.5948
  O  O1734  1  0.710200  0.291400  0.292900  1.0  -0.5817
  O  O1735  1  0.667500  0.468700  0.451200  1.0  -0.6117
  O  O1736  1  0.624300  0.556200  0.455200  1.0  -0.6993
  O  O1737  1  0.414300  0.586800  0.297700  1.0  -0.6001
  O  O1738  1  0.435100  0.585500  0.345400  1.0  -0.5439
  O  O1739  1  0.509200  0.821800  0.208550  1.0  -0.5409
  O  O1740  1  0.575200  0.810100  0.177290  1.0  -0.6786
  O  O1741  1  0.646600  0.886100  0.398900  1.0  -0.4818
  O  O1742  1  0.571300  0.839300  0.393800  1.0  -0.5853
  O  O1743  1  0.905000  0.765300  0.443400  1.0  -0.5059
  O  O1744  1  0.968600  0.757600  0.414600  1.0  -0.5234
  O  O1745  1  0.916800  0.430200  0.061000  1.0  -0.6312
  O  O1746  1  0.840700  0.410300  0.083500  1.0  -0.7161
  O  O1747  1  0.846700  0.002800  0.328300  1.0  -0.6799
  O  O1748  1  0.794200  0.052900  0.256400  1.0  -0.7398
  O  O1749  1  0.848300  0.187700  0.276100  1.0  -0.7213
  O  O1750  1  0.391100  0.548600  0.646400  1.0  -0.5735
  O  O1751  1  0.410100  0.465600  0.631700  1.0  -0.5731
  O  O1752  1  0.117400  0.608700  0.660230  1.0  -0.6294
  O  O1753  1  0.065800  0.627100  0.699600  1.0  -0.5583
  O  O1754  1  0.129000  0.243500  0.629000  1.0  -0.534
  O  O1755  1  0.205400  0.286300  0.617400  1.0  -0.5976
  O  O1756  1  0.144900  0.045100  0.741400  1.0  -0.5531
  O  O1757  1  0.099900  0.059400  0.784400  1.0  -0.6738
  O  O1758  1  0.889300  0.350300  0.774500  1.0  -0.566
  O  O1759  1  0.923900  0.267500  0.777100  1.0  -0.5301
  O  O1760  1  0.977400  0.570200  0.869010  1.0  -0.672
  O  O1761  1  0.038500  0.630100  0.853500  1.0  -0.6092
  O  O1762  1  0.365400  0.697200  0.817000  1.0  -0.5956
  O  O1763  1  0.289800  0.708600  0.792900  1.0  -0.5785
  O  O1764  1  0.332500  0.531300  0.951200  1.0  -0.6136
  O  O1765  1  0.375700  0.443800  0.955200  1.0  -0.7027
  O  O1766  1  0.585700  0.413200  0.797700  1.0  -0.601
  O  O1767  1  0.564900  0.414500  0.845400  1.0  -0.5437
  O  O1768  1  0.490800  0.178200  0.708550  1.0  -0.5382
  O  O1769  1  0.424800  0.189900  0.677290  1.0  -0.6781
  O  O1770  1  0.353400  0.113900  0.898900  1.0  -0.4836
  O  O1771  1  0.428700  0.160700  0.893800  1.0  -0.5844
  O  O1772  1  0.095000  0.234700  0.943400  1.0  -0.5061
  O  O1773  1  0.031400  0.242400  0.914600  1.0  -0.5248
  O  O1774  1  0.083200  0.569800  0.561000  1.0  -0.6331
  O  O1775  1  0.159300  0.589700  0.583500  1.0  -0.718
  O  O1776  1  0.153300  0.997200  0.828300  1.0  -0.6804
  O  O1777  1  0.205800  0.947100  0.756400  1.0  -0.7385
  O  O1778  1  0.151700  0.812300  0.776100  1.0  -0.722
  O  O1779  1  0.048600  0.108900  0.396400  1.0  -0.5768
  O  O1780  1  0.965600  0.089900  0.381700  1.0  -0.5838
  O  O1781  1  0.108700  0.382600  0.410230  1.0  -0.6268
  O  O1782  1  0.127100  0.434200  0.449600  1.0  -0.5547
  O  O1783  1  0.743500  0.371000  0.379000  1.0  -0.5345
  O  O1784  1  0.786300  0.294600  0.367400  1.0  -0.6046
  O  O1785  1  0.545100  0.355100  0.491400  1.0  -0.5516
  O  O1786  1  0.559400  0.400100  0.534400  1.0  -0.6737
  O  O1787  1  0.850300  0.610700  0.524500  1.0  -0.5668
  O  O1788  1  0.767500  0.576100  0.527100  1.0  -0.5283
  O  O1789  1  0.070200  0.522600  0.619010  1.0  -0.6732
  O  O1790  1  0.130100  0.461500  0.603500  1.0  -0.6048
  O  O1791  1  0.197200  0.134600  0.567000  1.0  -0.595
  O  O1792  1  0.208600  0.210200  0.542900  1.0  -0.5766
  O  O1793  1  0.031300  0.167500  0.701200  1.0  -0.6208
  O  O1794  1  0.943800  0.124300  0.705200  1.0  -0.7098
  O  O1795  1  0.913200  0.914300  0.547700  1.0  -0.6006
  O  O1796  1  0.914500  0.935100  0.595400  1.0  -0.5451
  O  O1797  1  0.678200  0.009200  0.458550  1.0  -0.5398
  O  O1798  1  0.689900  0.075200  0.427290  1.0  -0.6774
  O  O1799  1  0.613900  0.146600  0.648900  1.0  -0.4805
  O  O1800  1  0.660700  0.071300  0.643800  1.0  -0.5828
  O  O1801  1  0.734700  0.405000  0.693400  1.0  -0.5055
  O  O1802  1  0.742400  0.468600  0.664600  1.0  -0.5213
  O  O1803  1  0.069800  0.416800  0.311000  1.0  -0.6312
  O  O1804  1  0.089700  0.340700  0.333500  1.0  -0.7151
  O  O1805  1  0.497200  0.346700  0.578300  1.0  -0.681
  O  O1806  1  0.447100  0.294200  0.506400  1.0  -0.7397
  O  O1807  1  0.312300  0.348300  0.526100  1.0  -0.7215
  O  O1808  1  0.951400  0.891100  0.896400  1.0  -0.5714
  O  O1809  1  0.034400  0.910100  0.881700  1.0  -0.5766
  O  O1810  1  0.891300  0.617400  0.910230  1.0  -0.6298
  O  O1811  1  0.872900  0.565800  0.949600  1.0  -0.5515
  O  O1812  1  0.256500  0.629000  0.879000  1.0  -0.5317
  O  O1813  1  0.213700  0.705400  0.867400  1.0  -0.6028
  O  O1814  1  0.454900  0.644900  0.991400  1.0  -0.553
  O  O1815  1  0.440600  0.599900  0.034400  1.0  -0.6765
  O  O1816  1  0.149700  0.389300  0.024500  1.0  -0.5698
  O  O1817  1  0.232500  0.423900  0.027100  1.0  -0.5276
  O  O1818  1  0.929800  0.477400  0.119010  1.0  -0.6744
  O  O1819  1  0.869900  0.538500  0.103500  1.0  -0.6051
  O  O1820  1  0.802800  0.865400  0.067000  1.0  -0.5952
  O  O1821  1  0.791400  0.789800  0.042900  1.0  -0.5788
  O  O1822  1  0.968700  0.832500  0.201200  1.0  -0.6169
  O  O1823  1  0.056200  0.875700  0.205200  1.0  -0.7063
  O  O1824  1  0.086800  0.085700  0.047700  1.0  -0.6009
  O  O1825  1  0.085500  0.064900  0.095400  1.0  -0.5445
  O  O1826  1  0.321800  0.990800  0.958550  1.0  -0.5387
  O  O1827  1  0.310100  0.924800  0.927290  1.0  -0.6793
  O  O1828  1  0.386100  0.853400  0.148900  1.0  -0.4801
  O  O1829  1  0.339300  0.928700  0.143800  1.0  -0.5834
  O  O1830  1  0.265300  0.595000  0.193400  1.0  -0.5046
  O  O1831  1  0.257600  0.531400  0.164600  1.0  -0.5211
  O  O1832  1  0.930200  0.583200  0.811000  1.0  -0.6321
  O  O1833  1  0.910300  0.659300  0.833500  1.0  -0.7178
  O  O1834  1  0.502800  0.653300  0.078300  1.0  -0.6802
  O  O1835  1  0.552900  0.705800  0.006400  1.0  -0.7393
  O  O1836  1  0.687700  0.651700  0.026100  1.0  -0.7213
  O  O1837  1  0.891100  0.951400  0.103600  1.0  -0.5726
  O  O1838  1  0.910100  0.034400  0.118300  1.0  -0.5764
  O  O1839  1  0.617400  0.891300  0.089770  1.0  -0.6331
  O  O1840  1  0.565800  0.872900  0.050400  1.0  -0.5574
  O  O1841  1  0.629000  0.256500  0.121000  1.0  -0.535
  O  O1842  1  0.705400  0.213700  0.132600  1.0  -0.603
  O  O1843  1  0.644900  0.454900  0.008600  1.0  -0.5519
  O  O1844  1  0.599900  0.440600  0.965600  1.0  -0.6754
  O  O1845  1  0.389300  0.149700  0.975500  1.0  -0.5656
  O  O1846  1  0.423900  0.232500  0.972900  1.0  -0.5301
  O  O1847  1  0.477400  0.929800  0.880990  1.0  -0.6711
  O  O1848  1  0.538500  0.869900  0.896500  1.0  -0.6103
  O  O1849  1  0.865400  0.802800  0.933000  1.0  -0.5929
  O  O1850  1  0.789800  0.791400  0.957100  1.0  -0.5811
  O  O1851  1  0.832500  0.968700  0.798800  1.0  -0.6115
  O  O1852  1  0.875700  0.056200  0.794800  1.0  -0.7034
  O  O1853  1  0.085700  0.086800  0.952300  1.0  -0.5997
  O  O1854  1  0.064900  0.085500  0.904600  1.0  -0.5279
  O  O1855  1  0.990800  0.321800  0.041450  1.0  -0.5395
  O  O1856  1  0.924800  0.310100  0.072710  1.0  -0.6823
  O  O1857  1  0.853400  0.386100  0.851100  1.0  -0.4821
  O  O1858  1  0.928700  0.339300  0.856200  1.0  -0.5842
  O  O1859  1  0.595000  0.265300  0.806600  1.0  -0.4999
  O  O1860  1  0.531400  0.257600  0.835400  1.0  -0.5253
  O  O1861  1  0.583200  0.930200  0.189000  1.0  -0.6333
  O  O1862  1  0.659300  0.910300  0.166500  1.0  -0.7158
  O  O1863  1  0.653300  0.502800  0.921700  1.0  -0.678
  O  O1864  1  0.705800  0.552900  0.993600  1.0  -0.7391
  O  O1865  1  0.651700  0.687700  0.973900  1.0  -0.7204
  O  O1866  1  0.108900  0.048600  0.603600  1.0  -0.573
  O  O1867  1  0.089900  0.965600  0.618300  1.0  -0.5746
  O  O1868  1  0.382600  0.108700  0.589770  1.0  -0.6298
  O  O1869  1  0.434200  0.127100  0.550400  1.0  -0.5589
  O  O1870  1  0.371000  0.743500  0.621000  1.0  -0.5351
  O  O1871  1  0.294600  0.786300  0.632600  1.0  -0.6013
  O  O1872  1  0.355100  0.545100  0.508600  1.0  -0.5542
  O  O1873  1  0.400100  0.559400  0.465600  1.0  -0.6722
  O  O1874  1  0.610700  0.850300  0.475500  1.0  -0.5655
  O  O1875  1  0.576100  0.767500  0.472900  1.0  -0.531
  O  O1876  1  0.522600  0.070200  0.380990  1.0  -0.6699
  O  O1877  1  0.461500  0.130100  0.396500  1.0  -0.6092
  O  O1878  1  0.134600  0.197200  0.433000  1.0  -0.5935
  O  O1879  1  0.210200  0.208600  0.457100  1.0  -0.5782
  O  O1880  1  0.167500  0.031300  0.298800  1.0  -0.6123
  O  O1881  1  0.124300  0.943800  0.294800  1.0  -0.7026
  O  O1882  1  0.914300  0.913200  0.452300  1.0  -0.5991
  O  O1883  1  0.935100  0.914500  0.404600  1.0  -0.5297
  O  O1884  1  0.009200  0.678200  0.541450  1.0  -0.5404
  O  O1885  1  0.075200  0.689900  0.572710  1.0  -0.6826
  O  O1886  1  0.146600  0.613900  0.351100  1.0  -0.4841
  O  O1887  1  0.071300  0.660700  0.356200  1.0  -0.5849
  O  O1888  1  0.405000  0.734700  0.306600  1.0  -0.5009
  O  O1889  1  0.468600  0.742400  0.335400  1.0  -0.5238
  O  O1890  1  0.416800  0.069800  0.689000  1.0  -0.6312
  O  O1891  1  0.340700  0.089700  0.666500  1.0  -0.7146
  O  O1892  1  0.346700  0.497200  0.421700  1.0  -0.6774
  O  O1893  1  0.294200  0.447100  0.493600  1.0  -0.739
  O  O1894  1  0.348300  0.312300  0.473900  1.0  -0.7208
  O  O1895  1  0.451400  0.608900  0.853600  1.0  -0.5722
  O  O1896  1  0.534400  0.589900  0.868300  1.0  -0.5842
  O  O1897  1  0.391300  0.882600  0.839770  1.0  -0.6297
  O  O1898  1  0.372900  0.934200  0.800400  1.0  -0.5545
  O  O1899  1  0.756500  0.871000  0.871000  1.0  -0.534
  O  O1900  1  0.713700  0.794600  0.882600  1.0  -0.6067
  O  O1901  1  0.954900  0.855100  0.758600  1.0  -0.5527
  O  O1902  1  0.940600  0.900100  0.715600  1.0  -0.6767
  O  O1903  1  0.649700  0.110700  0.725500  1.0  -0.5659
  O  O1904  1  0.732500  0.076100  0.722900  1.0  -0.5277
  O  O1905  1  0.429800  0.022600  0.630990  1.0  -0.6697
  O  O1906  1  0.369900  0.961500  0.646500  1.0  -0.6053
  O  O1907  1  0.302800  0.634600  0.683000  1.0  -0.5954
  O  O1908  1  0.291400  0.710200  0.707100  1.0  -0.5789
  O  O1909  1  0.468700  0.667500  0.548800  1.0  -0.6197
  O  O1910  1  0.556200  0.624300  0.544800  1.0  -0.7074
  O  O1911  1  0.586800  0.414300  0.702300  1.0  -0.6
  O  O1912  1  0.585500  0.435100  0.654600  1.0  -0.5275
  O  O1913  1  0.821800  0.509200  0.791450  1.0  -0.5402
  O  O1914  1  0.810100  0.575200  0.822710  1.0  -0.6821
  O  O1915  1  0.886100  0.646600  0.601100  1.0  -0.4792
  O  O1916  1  0.839300  0.571300  0.606200  1.0  -0.5819
  O  O1917  1  0.765300  0.905000  0.556600  1.0  -0.4995
  O  O1918  1  0.757600  0.968600  0.585400  1.0  -0.522
  O  O1919  1  0.430200  0.916800  0.939000  1.0  -0.6322
  O  O1920  1  0.410300  0.840700  0.916500  1.0  -0.7122
  O  O1921  1  0.002800  0.846700  0.671700  1.0  -0.6777
  O  O1922  1  0.052900  0.794200  0.743600  1.0  -0.7398
  O  O1923  1  0.187700  0.848300  0.723900  1.0  -0.7199
  O  O1924  1  0.548600  0.391100  0.353600  1.0  -0.5759
  O  O1925  1  0.465600  0.410100  0.368300  1.0  -0.5788
  O  O1926  1  0.608700  0.117400  0.339770  1.0  -0.6278
  O  O1927  1  0.627100  0.065800  0.300400  1.0  -0.5501
  O  O1928  1  0.243500  0.129000  0.371000  1.0  -0.5328
  O  O1929  1  0.286300  0.205400  0.382600  1.0  -0.6032
  O  O1930  1  0.045100  0.144900  0.258600  1.0  -0.5512
  O  O1931  1  0.059400  0.099900  0.215600  1.0  -0.6758
  O  O1932  1  0.350300  0.889300  0.225500  1.0  -0.5682
  O  O1933  1  0.267500  0.923900  0.222900  1.0  -0.5253
  O  O1934  1  0.570200  0.977400  0.130990  1.0  -0.6732
  O  O1935  1  0.630100  0.038500  0.146500  1.0  -0.6049
  O  O1936  1  0.697200  0.365400  0.183000  1.0  -0.5953
  O  O1937  1  0.708600  0.289800  0.207100  1.0  -0.5778
  O  O1938  1  0.531300  0.332500  0.048800  1.0  -0.619
  O  O1939  1  0.443800  0.375700  0.044800  1.0  -0.7086
  O  O1940  1  0.413200  0.585700  0.202300  1.0  -0.6013
  O  O1941  1  0.414500  0.564900  0.154600  1.0  -0.5312
  O  O1942  1  0.178200  0.490800  0.291450  1.0  -0.5375
  O  O1943  1  0.189900  0.424800  0.322710  1.0  -0.6829
  O  O1944  1  0.113900  0.353400  0.101100  1.0  -0.48
  O  O1945  1  0.160700  0.428700  0.106200  1.0  -0.584
  O  O1946  1  0.234700  0.095000  0.056600  1.0  -0.4997
  O  O1947  1  0.242400  0.031400  0.085400  1.0  -0.5214
  O  O1948  1  0.569800  0.083200  0.439000  1.0  -0.6317
  O  O1949  1  0.589700  0.159300  0.416500  1.0  -0.7161
  O  O1950  1  0.997200  0.153300  0.171700  1.0  -0.6785
  O  O1951  1  0.947100  0.205800  0.243600  1.0  -0.7396
  O  O1952  1  0.812300  0.151700  0.223900  1.0  -0.7203
