# generated using pymatgen
data_Fe4H16C32N24Cl
_symmetry_space_group_name_H-M   'P 1'
_cell_length_a   38.06800000
_cell_length_b   38.06800000
_cell_length_c   38.06800000
_cell_angle_alpha   90.00000000
_cell_angle_beta   90.00000000
_cell_angle_gamma   90.00000000
_symmetry_Int_Tables_number   1
_chemical_formula_structural   Fe4H16C32N24Cl
_chemical_formula_sum   'Fe96 H384 C768 N576 Cl24'
_cell_volume   55167.10345043
_cell_formula_units_Z   24
loop_
 _symmetry_equiv_pos_site_id
 _symmetry_equiv_pos_as_xyz
  1  'x, y, z'
loop_
 _atom_site_type_symbol
 _atom_site_label
 _atom_site_symmetry_multiplicity
 _atom_site_fract_x
 _atom_site_fract_y
 _atom_site_fract_z
 _atom_site_occupancy
 _atom_site_charge
  Fe  Fe1  1  0.681800  0.500000  0.254060  1.0  0.8724
  Fe  Fe2  1  0.681800  0.000000  0.754060  1.0  0.8724
  Fe  Fe3  1  0.181800  0.500000  0.754060  1.0  0.8724
  Fe  Fe4  1  0.181800  0.000000  0.254060  1.0  0.8724
  Fe  Fe5  1  0.318200  0.500000  0.254060  1.0  0.873
  Fe  Fe6  1  0.318200  0.000000  0.754060  1.0  0.873
  Fe  Fe7  1  0.818200  0.500000  0.754060  1.0  0.873
  Fe  Fe8  1  0.818200  0.000000  0.254060  1.0  0.873
  Fe  Fe9  1  0.318200  0.500000  0.745940  1.0  0.8736
  Fe  Fe10  1  0.318200  0.000000  0.245940  1.0  0.8736
  Fe  Fe11  1  0.818200  0.500000  0.245940  1.0  0.8736
  Fe  Fe12  1  0.818200  0.000000  0.745940  1.0  0.8736
  Fe  Fe13  1  0.681800  0.500000  0.745940  1.0  0.8726
  Fe  Fe14  1  0.681800  0.000000  0.245940  1.0  0.8726
  Fe  Fe15  1  0.181800  0.500000  0.245940  1.0  0.8726
  Fe  Fe16  1  0.181800  0.000000  0.745940  1.0  0.8726
  Fe  Fe17  1  0.254060  0.681800  0.500000  1.0  0.8723
  Fe  Fe18  1  0.254060  0.181800  0.000000  1.0  0.8723
  Fe  Fe19  1  0.754060  0.681800  0.000000  1.0  0.8723
  Fe  Fe20  1  0.754060  0.181800  0.500000  1.0  0.8723
  Fe  Fe21  1  0.254060  0.318200  0.500000  1.0  0.8722
  Fe  Fe22  1  0.254060  0.818200  0.000000  1.0  0.8722
  Fe  Fe23  1  0.754060  0.318200  0.000000  1.0  0.8722
  Fe  Fe24  1  0.754060  0.818200  0.500000  1.0  0.8722
  Fe  Fe25  1  0.745940  0.318200  0.500000  1.0  0.8717
  Fe  Fe26  1  0.745940  0.818200  0.000000  1.0  0.8717
  Fe  Fe27  1  0.245940  0.318200  0.000000  1.0  0.8717
  Fe  Fe28  1  0.245940  0.818200  0.500000  1.0  0.8717
  Fe  Fe29  1  0.745940  0.681800  0.500000  1.0  0.8719
  Fe  Fe30  1  0.745940  0.181800  0.000000  1.0  0.8719
  Fe  Fe31  1  0.245940  0.681800  0.000000  1.0  0.8719
  Fe  Fe32  1  0.245940  0.181800  0.500000  1.0  0.8719
  Fe  Fe33  1  0.500000  0.254060  0.681800  1.0  0.8726
  Fe  Fe34  1  0.500000  0.754060  0.181800  1.0  0.8726
  Fe  Fe35  1  0.000000  0.254060  0.181800  1.0  0.8726
  Fe  Fe36  1  0.000000  0.754060  0.681800  1.0  0.8726
  Fe  Fe37  1  0.500000  0.254060  0.318200  1.0  0.8721
  Fe  Fe38  1  0.500000  0.754060  0.818200  1.0  0.8721
  Fe  Fe39  1  0.000000  0.254060  0.818200  1.0  0.8721
  Fe  Fe40  1  0.000000  0.754060  0.318200  1.0  0.8721
  Fe  Fe41  1  0.500000  0.745940  0.318200  1.0  0.8719
  Fe  Fe42  1  0.500000  0.245940  0.818200  1.0  0.8719
  Fe  Fe43  1  0.000000  0.745940  0.818200  1.0  0.8719
  Fe  Fe44  1  0.000000  0.245940  0.318200  1.0  0.8719
  Fe  Fe45  1  0.500000  0.745940  0.681800  1.0  0.8722
  Fe  Fe46  1  0.500000  0.245940  0.181800  1.0  0.8722
  Fe  Fe47  1  0.000000  0.745940  0.181800  1.0  0.8722
  Fe  Fe48  1  0.000000  0.245940  0.681800  1.0  0.8722
  Fe  Fe49  1  0.000000  0.181800  0.245940  1.0  0.873
  Fe  Fe50  1  0.000000  0.681800  0.745940  1.0  0.873
  Fe  Fe51  1  0.500000  0.181800  0.745940  1.0  0.873
  Fe  Fe52  1  0.500000  0.681800  0.245940  1.0  0.873
  Fe  Fe53  1  0.000000  0.818200  0.245940  1.0  0.8728
  Fe  Fe54  1  0.000000  0.318200  0.745940  1.0  0.8728
  Fe  Fe55  1  0.500000  0.818200  0.745940  1.0  0.8728
  Fe  Fe56  1  0.500000  0.318200  0.245940  1.0  0.8728
  Fe  Fe57  1  0.000000  0.818200  0.754060  1.0  0.8725
  Fe  Fe58  1  0.000000  0.318200  0.254060  1.0  0.8725
  Fe  Fe59  1  0.500000  0.818200  0.254060  1.0  0.8725
  Fe  Fe60  1  0.500000  0.318200  0.754060  1.0  0.8725
  Fe  Fe61  1  0.000000  0.181800  0.754060  1.0  0.8728
  Fe  Fe62  1  0.000000  0.681800  0.254060  1.0  0.8728
  Fe  Fe63  1  0.500000  0.181800  0.254060  1.0  0.8728
  Fe  Fe64  1  0.500000  0.681800  0.754060  1.0  0.8728
  Fe  Fe65  1  0.181800  0.754060  0.000000  1.0  0.8725
  Fe  Fe66  1  0.181800  0.254060  0.500000  1.0  0.8725
  Fe  Fe67  1  0.681800  0.754060  0.500000  1.0  0.8725
  Fe  Fe68  1  0.681800  0.254060  0.000000  1.0  0.8725
  Fe  Fe69  1  0.818200  0.754060  0.000000  1.0  0.8733
  Fe  Fe70  1  0.818200  0.254060  0.500000  1.0  0.8733
  Fe  Fe71  1  0.318200  0.754060  0.500000  1.0  0.8733
  Fe  Fe72  1  0.318200  0.254060  0.000000  1.0  0.8733
  Fe  Fe73  1  0.818200  0.245940  0.000000  1.0  0.8731
  Fe  Fe74  1  0.818200  0.745940  0.500000  1.0  0.8731
  Fe  Fe75  1  0.318200  0.245940  0.500000  1.0  0.8731
  Fe  Fe76  1  0.318200  0.745940  0.000000  1.0  0.8731
  Fe  Fe77  1  0.181800  0.245940  0.000000  1.0  0.8723
  Fe  Fe78  1  0.181800  0.745940  0.500000  1.0  0.8723
  Fe  Fe79  1  0.681800  0.245940  0.500000  1.0  0.8723
  Fe  Fe80  1  0.681800  0.745940  0.000000  1.0  0.8723
  Fe  Fe81  1  0.754060  0.000000  0.818200  1.0  0.8715
  Fe  Fe82  1  0.754060  0.500000  0.318200  1.0  0.8715
  Fe  Fe83  1  0.254060  0.000000  0.318200  1.0  0.8715
  Fe  Fe84  1  0.254060  0.500000  0.818200  1.0  0.8715
  Fe  Fe85  1  0.754060  0.000000  0.181800  1.0  0.8718
  Fe  Fe86  1  0.754060  0.500000  0.681800  1.0  0.8718
  Fe  Fe87  1  0.254060  0.000000  0.681800  1.0  0.8718
  Fe  Fe88  1  0.254060  0.500000  0.181800  1.0  0.8718
  Fe  Fe89  1  0.245940  0.000000  0.181800  1.0  0.8718
  Fe  Fe90  1  0.245940  0.500000  0.681800  1.0  0.8718
  Fe  Fe91  1  0.745940  0.000000  0.681800  1.0  0.8718
  Fe  Fe92  1  0.745940  0.500000  0.181800  1.0  0.8718
  Fe  Fe93  1  0.245940  0.000000  0.818200  1.0  0.8712
  Fe  Fe94  1  0.245940  0.500000  0.318200  1.0  0.8712
  Fe  Fe95  1  0.745940  0.000000  0.318200  1.0  0.8712
  Fe  Fe96  1  0.745940  0.500000  0.818200  1.0  0.8712
  H  H97  1  0.724800  0.574800  0.356300  1.0  0.1048
  H  H98  1  0.697200  0.624500  0.380400  1.0  0.1044
  H  H99  1  0.724800  0.074800  0.856300  1.0  0.1048
  H  H100  1  0.697200  0.124500  0.880400  1.0  0.1044
  H  H101  1  0.224800  0.574800  0.856300  1.0  0.1048
  H  H102  1  0.197200  0.624500  0.880400  1.0  0.1044
  H  H103  1  0.224800  0.074800  0.356300  1.0  0.1048
  H  H104  1  0.197200  0.124500  0.380400  1.0  0.1044
  H  H105  1  0.275200  0.425200  0.356300  1.0  0.1043
  H  H106  1  0.302800  0.375500  0.380400  1.0  0.1047
  H  H107  1  0.275200  0.925200  0.856300  1.0  0.1043
  H  H108  1  0.302800  0.875500  0.880400  1.0  0.1047
  H  H109  1  0.775200  0.425200  0.856300  1.0  0.1043
  H  H110  1  0.802800  0.375500  0.880400  1.0  0.1047
  H  H111  1  0.775200  0.925200  0.356300  1.0  0.1043
  H  H112  1  0.802800  0.875500  0.380400  1.0  0.1047
  H  H113  1  0.275200  0.574800  0.643700  1.0  0.1042
  H  H114  1  0.302800  0.624500  0.619600  1.0  0.1048
  H  H115  1  0.275200  0.074800  0.143700  1.0  0.1042
  H  H116  1  0.302800  0.124500  0.119600  1.0  0.1048
  H  H117  1  0.775200  0.574800  0.143700  1.0  0.1042
  H  H118  1  0.802800  0.624500  0.119600  1.0  0.1048
  H  H119  1  0.775200  0.074800  0.643700  1.0  0.1042
  H  H120  1  0.802800  0.124500  0.619600  1.0  0.1048
  H  H121  1  0.724800  0.425200  0.643700  1.0  0.1042
  H  H122  1  0.697200  0.375500  0.619600  1.0  0.1042
  H  H123  1  0.724800  0.925200  0.143700  1.0  0.1042
  H  H124  1  0.697200  0.875500  0.119600  1.0  0.1042
  H  H125  1  0.224800  0.425200  0.143700  1.0  0.1042
  H  H126  1  0.197200  0.375500  0.119600  1.0  0.1042
  H  H127  1  0.224800  0.925200  0.643700  1.0  0.1042
  H  H128  1  0.197200  0.875500  0.619600  1.0  0.1042
  H  H129  1  0.356300  0.724800  0.574800  1.0  0.1036
  H  H130  1  0.380400  0.697200  0.624500  1.0  0.1042
  H  H131  1  0.356300  0.224800  0.074800  1.0  0.1036
  H  H132  1  0.380400  0.197200  0.124500  1.0  0.1042
  H  H133  1  0.856300  0.724800  0.074800  1.0  0.1036
  H  H134  1  0.880400  0.697200  0.124500  1.0  0.1042
  H  H135  1  0.856300  0.224800  0.574800  1.0  0.1036
  H  H136  1  0.880400  0.197200  0.624500  1.0  0.1042
  H  H137  1  0.356300  0.275200  0.425200  1.0  0.1034
  H  H138  1  0.380400  0.302800  0.375500  1.0  0.1049
  H  H139  1  0.356300  0.775200  0.925200  1.0  0.1034
  H  H140  1  0.380400  0.802800  0.875500  1.0  0.1049
  H  H141  1  0.856300  0.275200  0.925200  1.0  0.1034
  H  H142  1  0.880400  0.302800  0.875500  1.0  0.1049
  H  H143  1  0.856300  0.775200  0.425200  1.0  0.1034
  H  H144  1  0.880400  0.802800  0.375500  1.0  0.1049
  H  H145  1  0.643700  0.275200  0.574800  1.0  0.1035
  H  H146  1  0.619600  0.302800  0.624500  1.0  0.1046
  H  H147  1  0.643700  0.775200  0.074800  1.0  0.1035
  H  H148  1  0.619600  0.802800  0.124500  1.0  0.1046
  H  H149  1  0.143700  0.275200  0.074800  1.0  0.1035
  H  H150  1  0.119600  0.302800  0.124500  1.0  0.1046
  H  H151  1  0.143700  0.775200  0.574800  1.0  0.1035
  H  H152  1  0.119600  0.802800  0.624500  1.0  0.1046
  H  H153  1  0.643700  0.724800  0.425200  1.0  0.104
  H  H154  1  0.619600  0.697200  0.375500  1.0  0.1048
  H  H155  1  0.643700  0.224800  0.925200  1.0  0.104
  H  H156  1  0.619600  0.197200  0.875500  1.0  0.1048
  H  H157  1  0.143700  0.724800  0.925200  1.0  0.104
  H  H158  1  0.119600  0.697200  0.875500  1.0  0.1048
  H  H159  1  0.143700  0.224800  0.425200  1.0  0.104
  H  H160  1  0.119600  0.197200  0.375500  1.0  0.1048
  H  H161  1  0.574800  0.356300  0.724800  1.0  0.1028
  H  H162  1  0.624500  0.380400  0.697200  1.0  0.1061
  H  H163  1  0.574800  0.856300  0.224800  1.0  0.1028
  H  H164  1  0.624500  0.880400  0.197200  1.0  0.1061
  H  H165  1  0.074800  0.356300  0.224800  1.0  0.1028
  H  H166  1  0.124500  0.380400  0.197200  1.0  0.1061
  H  H167  1  0.074800  0.856300  0.724800  1.0  0.1028
  H  H168  1  0.124500  0.880400  0.697200  1.0  0.1061
  H  H169  1  0.425200  0.356300  0.275200  1.0  0.1034
  H  H170  1  0.375500  0.380400  0.302800  1.0  0.1057
  H  H171  1  0.425200  0.856300  0.775200  1.0  0.1034
  H  H172  1  0.375500  0.880400  0.802800  1.0  0.1057
  H  H173  1  0.925200  0.356300  0.775200  1.0  0.1034
  H  H174  1  0.875500  0.380400  0.802800  1.0  0.1057
  H  H175  1  0.925200  0.856300  0.275200  1.0  0.1034
  H  H176  1  0.875500  0.880400  0.302800  1.0  0.1057
  H  H177  1  0.574800  0.643700  0.275200  1.0  0.1031
  H  H178  1  0.624500  0.619600  0.302800  1.0  0.1063
  H  H179  1  0.574800  0.143700  0.775200  1.0  0.1031
  H  H180  1  0.624500  0.119600  0.802800  1.0  0.1063
  H  H181  1  0.074800  0.643700  0.775200  1.0  0.1031
  H  H182  1  0.124500  0.619600  0.802800  1.0  0.1063
  H  H183  1  0.074800  0.143700  0.275200  1.0  0.1031
  H  H184  1  0.124500  0.119600  0.302800  1.0  0.1063
  H  H185  1  0.425200  0.643700  0.724800  1.0  0.103
  H  H186  1  0.375500  0.619600  0.697200  1.0  0.1063
  H  H187  1  0.425200  0.143700  0.224800  1.0  0.103
  H  H188  1  0.375500  0.119600  0.197200  1.0  0.1063
  H  H189  1  0.925200  0.643700  0.224800  1.0  0.103
  H  H190  1  0.875500  0.619600  0.197200  1.0  0.1063
  H  H191  1  0.925200  0.143700  0.724800  1.0  0.103
  H  H192  1  0.875500  0.119600  0.697200  1.0  0.1063
  H  H193  1  0.074800  0.224800  0.143700  1.0  0.1037
  H  H194  1  0.124500  0.197200  0.119600  1.0  0.1047
  H  H195  1  0.074800  0.724800  0.643700  1.0  0.1037
  H  H196  1  0.124500  0.697200  0.619600  1.0  0.1047
  H  H197  1  0.574800  0.224800  0.643700  1.0  0.1037
  H  H198  1  0.624500  0.197200  0.619600  1.0  0.1047
  H  H199  1  0.574800  0.724800  0.143700  1.0  0.1037
  H  H200  1  0.624500  0.697200  0.119600  1.0  0.1047
  H  H201  1  0.925200  0.775200  0.143700  1.0  0.1034
  H  H202  1  0.875500  0.802800  0.119600  1.0  0.1048
  H  H203  1  0.925200  0.275200  0.643700  1.0  0.1034
  H  H204  1  0.875500  0.302800  0.619600  1.0  0.1048
  H  H205  1  0.425200  0.775200  0.643700  1.0  0.1034
  H  H206  1  0.375500  0.802800  0.619600  1.0  0.1048
  H  H207  1  0.425200  0.275200  0.143700  1.0  0.1034
  H  H208  1  0.375500  0.302800  0.119600  1.0  0.1048
  H  H209  1  0.074800  0.775200  0.856300  1.0  0.1039
  H  H210  1  0.124500  0.802800  0.880400  1.0  0.1047
  H  H211  1  0.074800  0.275200  0.356300  1.0  0.1039
  H  H212  1  0.124500  0.302800  0.380400  1.0  0.1047
  H  H213  1  0.574800  0.775200  0.356300  1.0  0.1039
  H  H214  1  0.624500  0.802800  0.380400  1.0  0.1047
  H  H215  1  0.574800  0.275200  0.856300  1.0  0.1039
  H  H216  1  0.624500  0.302800  0.880400  1.0  0.1047
  H  H217  1  0.925200  0.224800  0.856300  1.0  0.1042
  H  H218  1  0.875500  0.197200  0.880400  1.0  0.1044
  H  H219  1  0.925200  0.724800  0.356300  1.0  0.1042
  H  H220  1  0.875500  0.697200  0.380400  1.0  0.1044
  H  H221  1  0.425200  0.224800  0.356300  1.0  0.1042
  H  H222  1  0.375500  0.197200  0.380400  1.0  0.1044
  H  H223  1  0.425200  0.724800  0.856300  1.0  0.1042
  H  H224  1  0.375500  0.697200  0.880400  1.0  0.1044
  H  H225  1  0.224800  0.856300  0.925200  1.0  0.105
  H  H226  1  0.197200  0.880400  0.875500  1.0  0.1043
  H  H227  1  0.224800  0.356300  0.425200  1.0  0.105
  H  H228  1  0.197200  0.380400  0.375500  1.0  0.1043
  H  H229  1  0.724800  0.856300  0.425200  1.0  0.105
  H  H230  1  0.697200  0.880400  0.375500  1.0  0.1043
  H  H231  1  0.724800  0.356300  0.925200  1.0  0.105
  H  H232  1  0.697200  0.380400  0.875500  1.0  0.1043
  H  H233  1  0.775200  0.856300  0.074800  1.0  0.1047
  H  H234  1  0.802800  0.880400  0.124500  1.0  0.1049
  H  H235  1  0.775200  0.356300  0.574800  1.0  0.1047
  H  H236  1  0.802800  0.380400  0.624500  1.0  0.1049
  H  H237  1  0.275200  0.856300  0.574800  1.0  0.1047
  H  H238  1  0.302800  0.880400  0.624500  1.0  0.1049
  H  H239  1  0.275200  0.356300  0.074800  1.0  0.1047
  H  H240  1  0.302800  0.380400  0.124500  1.0  0.1049
  H  H241  1  0.775200  0.143700  0.925200  1.0  0.1048
  H  H242  1  0.802800  0.119600  0.875500  1.0  0.1055
  H  H243  1  0.775200  0.643700  0.425200  1.0  0.1048
  H  H244  1  0.802800  0.619600  0.375500  1.0  0.1055
  H  H245  1  0.275200  0.143700  0.425200  1.0  0.1048
  H  H246  1  0.302800  0.119600  0.375500  1.0  0.1055
  H  H247  1  0.275200  0.643700  0.925200  1.0  0.1048
  H  H248  1  0.302800  0.619600  0.875500  1.0  0.1055
  H  H249  1  0.224800  0.143700  0.074800  1.0  0.1048
  H  H250  1  0.197200  0.119600  0.124500  1.0  0.1045
  H  H251  1  0.224800  0.643700  0.574800  1.0  0.1048
  H  H252  1  0.197200  0.619600  0.624500  1.0  0.1045
  H  H253  1  0.724800  0.143700  0.574800  1.0  0.1048
  H  H254  1  0.697200  0.119600  0.624500  1.0  0.1045
  H  H255  1  0.724800  0.643700  0.074800  1.0  0.1048
  H  H256  1  0.697200  0.619600  0.124500  1.0  0.1045
  H  H257  1  0.856300  0.074800  0.775200  1.0  0.1024
  H  H258  1  0.880400  0.124500  0.802800  1.0  0.1058
  H  H259  1  0.856300  0.574800  0.275200  1.0  0.1024
  H  H260  1  0.880400  0.624500  0.302800  1.0  0.1058
  H  H261  1  0.356300  0.074800  0.275200  1.0  0.1024
  H  H262  1  0.380400  0.124500  0.302800  1.0  0.1058
  H  H263  1  0.356300  0.574800  0.775200  1.0  0.1024
  H  H264  1  0.380400  0.624500  0.802800  1.0  0.1058
  H  H265  1  0.856300  0.925200  0.224800  1.0  0.1021
  H  H266  1  0.880400  0.875500  0.197200  1.0  0.1056
  H  H267  1  0.856300  0.425200  0.724800  1.0  0.1021
  H  H268  1  0.880400  0.375500  0.697200  1.0  0.1056
  H  H269  1  0.356300  0.925200  0.724800  1.0  0.1021
  H  H270  1  0.380400  0.875500  0.697200  1.0  0.1056
  H  H271  1  0.356300  0.425200  0.224800  1.0  0.1021
  H  H272  1  0.380400  0.375500  0.197200  1.0  0.1056
  H  H273  1  0.143700  0.074800  0.224800  1.0  0.1027
  H  H274  1  0.119600  0.124500  0.197200  1.0  0.106
  H  H275  1  0.143700  0.574800  0.724800  1.0  0.1027
  H  H276  1  0.119600  0.624500  0.697200  1.0  0.106
  H  H277  1  0.643700  0.074800  0.724800  1.0  0.1027
  H  H278  1  0.619600  0.124500  0.697200  1.0  0.106
  H  H279  1  0.643700  0.574800  0.224800  1.0  0.1027
  H  H280  1  0.619600  0.624500  0.197200  1.0  0.106
  H  H281  1  0.143700  0.925200  0.775200  1.0  0.1027
  H  H282  1  0.119600  0.875500  0.802800  1.0  0.1056
  H  H283  1  0.143700  0.425200  0.275200  1.0  0.1027
  H  H284  1  0.119600  0.375500  0.302800  1.0  0.1056
  H  H285  1  0.643700  0.925200  0.275200  1.0  0.1027
  H  H286  1  0.619600  0.875500  0.302800  1.0  0.1056
  H  H287  1  0.643700  0.425200  0.775200  1.0  0.1027
  H  H288  1  0.619600  0.375500  0.802800  1.0  0.1056
  H  H289  1  0.275200  0.425200  0.643700  1.0  0.1041
  H  H290  1  0.302800  0.375500  0.619600  1.0  0.1048
  H  H291  1  0.275200  0.925200  0.143700  1.0  0.1041
  H  H292  1  0.302800  0.875500  0.119600  1.0  0.1048
  H  H293  1  0.775200  0.425200  0.143700  1.0  0.1041
  H  H294  1  0.802800  0.375500  0.119600  1.0  0.1048
  H  H295  1  0.775200  0.925200  0.643700  1.0  0.1041
  H  H296  1  0.802800  0.875500  0.619600  1.0  0.1048
  H  H297  1  0.724800  0.574800  0.643700  1.0  0.1043
  H  H298  1  0.697200  0.624500  0.619600  1.0  0.1043
  H  H299  1  0.724800  0.074800  0.143700  1.0  0.1043
  H  H300  1  0.697200  0.124500  0.119600  1.0  0.1043
  H  H301  1  0.224800  0.574800  0.143700  1.0  0.1043
  H  H302  1  0.197200  0.624500  0.119600  1.0  0.1043
  H  H303  1  0.224800  0.074800  0.643700  1.0  0.1043
  H  H304  1  0.197200  0.124500  0.619600  1.0  0.1043
  H  H305  1  0.724800  0.425200  0.356300  1.0  0.1049
  H  H306  1  0.697200  0.375500  0.380400  1.0  0.1042
  H  H307  1  0.724800  0.925200  0.856300  1.0  0.1049
  H  H308  1  0.697200  0.875500  0.880400  1.0  0.1042
  H  H309  1  0.224800  0.425200  0.856300  1.0  0.1049
  H  H310  1  0.197200  0.375500  0.880400  1.0  0.1042
  H  H311  1  0.224800  0.925200  0.356300  1.0  0.1049
  H  H312  1  0.197200  0.875500  0.380400  1.0  0.1042
  H  H313  1  0.275200  0.574800  0.356300  1.0  0.1044
  H  H314  1  0.302800  0.624500  0.380400  1.0  0.1048
  H  H315  1  0.275200  0.074800  0.856300  1.0  0.1044
  H  H316  1  0.302800  0.124500  0.880400  1.0  0.1048
  H  H317  1  0.775200  0.574800  0.856300  1.0  0.1044
  H  H318  1  0.802800  0.624500  0.880400  1.0  0.1048
  H  H319  1  0.775200  0.074800  0.356300  1.0  0.1044
  H  H320  1  0.802800  0.124500  0.380400  1.0  0.1048
  H  H321  1  0.643700  0.275200  0.425200  1.0  0.1038
  H  H322  1  0.619600  0.302800  0.375500  1.0  0.1049
  H  H323  1  0.643700  0.775200  0.925200  1.0  0.1038
  H  H324  1  0.619600  0.802800  0.875500  1.0  0.1049
  H  H325  1  0.143700  0.275200  0.925200  1.0  0.1038
  H  H326  1  0.119600  0.302800  0.875500  1.0  0.1049
  H  H327  1  0.143700  0.775200  0.425200  1.0  0.1038
  H  H328  1  0.119600  0.802800  0.375500  1.0  0.1049
  H  H329  1  0.643700  0.724800  0.574800  1.0  0.1039
  H  H330  1  0.619600  0.697200  0.624500  1.0  0.1047
  H  H331  1  0.643700  0.224800  0.074800  1.0  0.1039
  H  H332  1  0.619600  0.197200  0.124500  1.0  0.1047
  H  H333  1  0.143700  0.724800  0.074800  1.0  0.1039
  H  H334  1  0.119600  0.697200  0.124500  1.0  0.1047
  H  H335  1  0.143700  0.224800  0.574800  1.0  0.1039
  H  H336  1  0.119600  0.197200  0.624500  1.0  0.1047
  H  H337  1  0.356300  0.724800  0.425200  1.0  0.1037
  H  H338  1  0.380400  0.697200  0.375500  1.0  0.1043
  H  H339  1  0.356300  0.224800  0.925200  1.0  0.1037
  H  H340  1  0.380400  0.197200  0.875500  1.0  0.1043
  H  H341  1  0.856300  0.724800  0.925200  1.0  0.1037
  H  H342  1  0.880400  0.697200  0.875500  1.0  0.1043
  H  H343  1  0.856300  0.224800  0.425200  1.0  0.1037
  H  H344  1  0.880400  0.197200  0.375500  1.0  0.1043
  H  H345  1  0.356300  0.275200  0.574800  1.0  0.1032
  H  H346  1  0.380400  0.302800  0.624500  1.0  0.1046
  H  H347  1  0.356300  0.775200  0.074800  1.0  0.1032
  H  H348  1  0.380400  0.802800  0.124500  1.0  0.1046
  H  H349  1  0.856300  0.275200  0.074800  1.0  0.1032
  H  H350  1  0.880400  0.302800  0.124500  1.0  0.1046
  H  H351  1  0.856300  0.775200  0.574800  1.0  0.1032
  H  H352  1  0.880400  0.802800  0.624500  1.0  0.1046
  H  H353  1  0.425200  0.643700  0.275200  1.0  0.103
  H  H354  1  0.375500  0.619600  0.302800  1.0  0.1062
  H  H355  1  0.425200  0.143700  0.775200  1.0  0.103
  H  H356  1  0.375500  0.119600  0.802800  1.0  0.1062
  H  H357  1  0.925200  0.643700  0.775200  1.0  0.103
  H  H358  1  0.875500  0.619600  0.802800  1.0  0.1062
  H  H359  1  0.925200  0.143700  0.275200  1.0  0.103
  H  H360  1  0.875500  0.119600  0.302800  1.0  0.1062
  H  H361  1  0.574800  0.643700  0.724800  1.0  0.1032
  H  H362  1  0.624500  0.619600  0.697200  1.0  0.1065
  H  H363  1  0.574800  0.143700  0.224800  1.0  0.1032
  H  H364  1  0.624500  0.119600  0.197200  1.0  0.1065
  H  H365  1  0.074800  0.643700  0.224800  1.0  0.1032
  H  H366  1  0.124500  0.619600  0.197200  1.0  0.1065
  H  H367  1  0.074800  0.143700  0.724800  1.0  0.1032
  H  H368  1  0.124500  0.119600  0.697200  1.0  0.1065
  H  H369  1  0.425200  0.356300  0.724800  1.0  0.1029
  H  H370  1  0.375500  0.380400  0.697200  1.0  0.1059
  H  H371  1  0.425200  0.856300  0.224800  1.0  0.1029
  H  H372  1  0.375500  0.880400  0.197200  1.0  0.1059
  H  H373  1  0.925200  0.356300  0.224800  1.0  0.1029
  H  H374  1  0.875500  0.380400  0.197200  1.0  0.1059
  H  H375  1  0.925200  0.856300  0.724800  1.0  0.1029
  H  H376  1  0.875500  0.880400  0.697200  1.0  0.1059
  H  H377  1  0.574800  0.356300  0.275200  1.0  0.1032
  H  H378  1  0.624500  0.380400  0.302800  1.0  0.1058
  H  H379  1  0.574800  0.856300  0.775200  1.0  0.1032
  H  H380  1  0.624500  0.880400  0.802800  1.0  0.1058
  H  H381  1  0.074800  0.356300  0.775200  1.0  0.1032
  H  H382  1  0.124500  0.380400  0.802800  1.0  0.1058
  H  H383  1  0.074800  0.856300  0.275200  1.0  0.1032
  H  H384  1  0.124500  0.880400  0.302800  1.0  0.1058
  H  H385  1  0.925200  0.775200  0.856300  1.0  0.1039
  H  H386  1  0.875500  0.802800  0.880400  1.0  0.1048
  H  H387  1  0.925200  0.275200  0.356300  1.0  0.1039
  H  H388  1  0.875500  0.302800  0.380400  1.0  0.1048
  H  H389  1  0.425200  0.775200  0.356300  1.0  0.1039
  H  H390  1  0.375500  0.802800  0.380400  1.0  0.1048
  H  H391  1  0.425200  0.275200  0.856300  1.0  0.1039
  H  H392  1  0.375500  0.302800  0.880400  1.0  0.1048
  H  H393  1  0.074800  0.224800  0.856300  1.0  0.1039
  H  H394  1  0.124500  0.197200  0.880400  1.0  0.1047
  H  H395  1  0.074800  0.724800  0.356300  1.0  0.1039
  H  H396  1  0.124500  0.697200  0.380400  1.0  0.1047
  H  H397  1  0.574800  0.224800  0.356300  1.0  0.1039
  H  H398  1  0.624500  0.197200  0.380400  1.0  0.1047
  H  H399  1  0.574800  0.724800  0.856300  1.0  0.1039
  H  H400  1  0.624500  0.697200  0.880400  1.0  0.1047
  H  H401  1  0.925200  0.224800  0.143700  1.0  0.1038
  H  H402  1  0.875500  0.197200  0.119600  1.0  0.1045
  H  H403  1  0.925200  0.724800  0.643700  1.0  0.1038
  H  H404  1  0.875500  0.697200  0.619600  1.0  0.1045
  H  H405  1  0.425200  0.224800  0.643700  1.0  0.1038
  H  H406  1  0.375500  0.197200  0.619600  1.0  0.1045
  H  H407  1  0.425200  0.724800  0.143700  1.0  0.1038
  H  H408  1  0.375500  0.697200  0.119600  1.0  0.1045
  H  H409  1  0.074800  0.775200  0.143700  1.0  0.1036
  H  H410  1  0.124500  0.802800  0.119600  1.0  0.1047
  H  H411  1  0.074800  0.275200  0.643700  1.0  0.1036
  H  H412  1  0.124500  0.302800  0.619600  1.0  0.1047
  H  H413  1  0.574800  0.775200  0.643700  1.0  0.1036
  H  H414  1  0.624500  0.802800  0.619600  1.0  0.1047
  H  H415  1  0.574800  0.275200  0.143700  1.0  0.1036
  H  H416  1  0.624500  0.302800  0.119600  1.0  0.1047
  H  H417  1  0.775200  0.143700  0.074800  1.0  0.1045
  H  H418  1  0.802800  0.119600  0.124500  1.0  0.1051
  H  H419  1  0.775200  0.643700  0.574800  1.0  0.1045
  H  H420  1  0.802800  0.619600  0.624500  1.0  0.1051
  H  H421  1  0.275200  0.143700  0.574800  1.0  0.1045
  H  H422  1  0.302800  0.119600  0.624500  1.0  0.1051
  H  H423  1  0.275200  0.643700  0.074800  1.0  0.1045
  H  H424  1  0.302800  0.619600  0.124500  1.0  0.1051
  H  H425  1  0.224800  0.143700  0.925200  1.0  0.1051
  H  H426  1  0.197200  0.119600  0.875500  1.0  0.105
  H  H427  1  0.224800  0.643700  0.425200  1.0  0.1051
  H  H428  1  0.197200  0.619600  0.375500  1.0  0.105
  H  H429  1  0.724800  0.143700  0.425200  1.0  0.1051
  H  H430  1  0.697200  0.119600  0.375500  1.0  0.105
  H  H431  1  0.724800  0.643700  0.925200  1.0  0.1051
  H  H432  1  0.697200  0.619600  0.875500  1.0  0.105
  H  H433  1  0.224800  0.856300  0.074800  1.0  0.1049
  H  H434  1  0.197200  0.880400  0.124500  1.0  0.1041
  H  H435  1  0.224800  0.356300  0.574800  1.0  0.1049
  H  H436  1  0.197200  0.380400  0.624500  1.0  0.1041
  H  H437  1  0.724800  0.856300  0.574800  1.0  0.1049
  H  H438  1  0.697200  0.880400  0.624500  1.0  0.1041
  H  H439  1  0.724800  0.356300  0.074800  1.0  0.1049
  H  H440  1  0.697200  0.380400  0.124500  1.0  0.1041
  H  H441  1  0.775200  0.856300  0.925200  1.0  0.1048
  H  H442  1  0.802800  0.880400  0.875500  1.0  0.1051
  H  H443  1  0.775200  0.356300  0.425200  1.0  0.1048
  H  H444  1  0.802800  0.380400  0.375500  1.0  0.1051
  H  H445  1  0.275200  0.856300  0.425200  1.0  0.1048
  H  H446  1  0.302800  0.880400  0.375500  1.0  0.1051
  H  H447  1  0.275200  0.356300  0.925200  1.0  0.1048
  H  H448  1  0.302800  0.380400  0.875500  1.0  0.1051
  H  H449  1  0.143700  0.925200  0.224800  1.0  0.1027
  H  H450  1  0.119600  0.875500  0.197200  1.0  0.1058
  H  H451  1  0.143700  0.425200  0.724800  1.0  0.1027
  H  H452  1  0.119600  0.375500  0.697200  1.0  0.1058
  H  H453  1  0.643700  0.925200  0.724800  1.0  0.1027
  H  H454  1  0.619600  0.875500  0.697200  1.0  0.1058
  H  H455  1  0.643700  0.425200  0.224800  1.0  0.1027
  H  H456  1  0.619600  0.375500  0.197200  1.0  0.1058
  H  H457  1  0.143700  0.074800  0.775200  1.0  0.1027
  H  H458  1  0.119600  0.124500  0.802800  1.0  0.1059
  H  H459  1  0.143700  0.574800  0.275200  1.0  0.1027
  H  H460  1  0.119600  0.624500  0.302800  1.0  0.1059
  H  H461  1  0.643700  0.074800  0.275200  1.0  0.1027
  H  H462  1  0.619600  0.124500  0.302800  1.0  0.1059
  H  H463  1  0.643700  0.574800  0.775200  1.0  0.1027
  H  H464  1  0.619600  0.624500  0.802800  1.0  0.1059
  H  H465  1  0.856300  0.925200  0.775200  1.0  0.1026
  H  H466  1  0.880400  0.875500  0.802800  1.0  0.1054
  H  H467  1  0.856300  0.425200  0.275200  1.0  0.1026
  H  H468  1  0.880400  0.375500  0.302800  1.0  0.1054
  H  H469  1  0.356300  0.925200  0.275200  1.0  0.1026
  H  H470  1  0.380400  0.875500  0.302800  1.0  0.1054
  H  H471  1  0.356300  0.425200  0.775200  1.0  0.1026
  H  H472  1  0.380400  0.375500  0.802800  1.0  0.1054
  H  H473  1  0.856300  0.074800  0.224800  1.0  0.102
  H  H474  1  0.880400  0.124500  0.197200  1.0  0.1059
  H  H475  1  0.856300  0.574800  0.724800  1.0  0.102
  H  H476  1  0.880400  0.624500  0.697200  1.0  0.1059
  H  H477  1  0.356300  0.074800  0.724800  1.0  0.102
  H  H478  1  0.380400  0.124500  0.697200  1.0  0.1059
  H  H479  1  0.356300  0.574800  0.224800  1.0  0.102
  H  H480  1  0.380400  0.624500  0.197200  1.0  0.1059
  C  C481  1  0.679820  0.585130  0.326250  1.0  0.0519
  C  C482  1  0.709900  0.567810  0.337520  1.0  -0.012
  C  C483  1  0.676700  0.633500  0.369400  1.0  -0.0724
  C  C484  1  0.663220  0.616880  0.339740  1.0  -0.0244
  C  C485  1  0.679820  0.085130  0.826250  1.0  0.0519
  C  C486  1  0.709900  0.067810  0.837520  1.0  -0.012
  C  C487  1  0.676700  0.133500  0.869400  1.0  -0.0724
  C  C488  1  0.663220  0.116880  0.839740  1.0  -0.0244
  C  C489  1  0.179820  0.585130  0.826250  1.0  0.0519
  C  C490  1  0.209900  0.567810  0.837520  1.0  -0.012
  C  C491  1  0.176700  0.633500  0.869400  1.0  -0.0724
  C  C492  1  0.163220  0.616880  0.839740  1.0  -0.0244
  C  C493  1  0.179820  0.085130  0.326250  1.0  0.0519
  C  C494  1  0.209900  0.067810  0.337520  1.0  -0.012
  C  C495  1  0.176700  0.133500  0.369400  1.0  -0.0724
  C  C496  1  0.163220  0.116880  0.339740  1.0  -0.0244
  C  C497  1  0.320180  0.414870  0.326250  1.0  0.0526
  C  C498  1  0.290100  0.432190  0.337520  1.0  -0.012
  C  C499  1  0.323300  0.366500  0.369400  1.0  -0.0727
  C  C500  1  0.336780  0.383120  0.339740  1.0  -0.0247
  C  C501  1  0.320180  0.914870  0.826250  1.0  0.0526
  C  C502  1  0.290100  0.932190  0.837520  1.0  -0.012
  C  C503  1  0.323300  0.866500  0.869400  1.0  -0.0727
  C  C504  1  0.336780  0.883120  0.839740  1.0  -0.0247
  C  C505  1  0.820180  0.414870  0.826250  1.0  0.0526
  C  C506  1  0.790100  0.432190  0.837520  1.0  -0.012
  C  C507  1  0.823300  0.366500  0.869400  1.0  -0.0727
  C  C508  1  0.836780  0.383120  0.839740  1.0  -0.0247
  C  C509  1  0.820180  0.914870  0.326250  1.0  0.0526
  C  C510  1  0.790100  0.932190  0.337520  1.0  -0.012
  C  C511  1  0.823300  0.866500  0.369400  1.0  -0.0727
  C  C512  1  0.836780  0.883120  0.339740  1.0  -0.0247
  C  C513  1  0.320180  0.585130  0.673750  1.0  0.0527
  C  C514  1  0.290100  0.567810  0.662480  1.0  -0.0116
  C  C515  1  0.323300  0.633500  0.630600  1.0  -0.0727
  C  C516  1  0.336780  0.616880  0.660260  1.0  -0.0246
  C  C517  1  0.320180  0.085130  0.173750  1.0  0.0527
  C  C518  1  0.290100  0.067810  0.162480  1.0  -0.0116
  C  C519  1  0.323300  0.133500  0.130600  1.0  -0.0727
  C  C520  1  0.336780  0.116880  0.160260  1.0  -0.0246
  C  C521  1  0.820180  0.585130  0.173750  1.0  0.0527
  C  C522  1  0.790100  0.567810  0.162480  1.0  -0.0116
  C  C523  1  0.823300  0.633500  0.130600  1.0  -0.0727
  C  C524  1  0.836780  0.616880  0.160260  1.0  -0.0246
  C  C525  1  0.820180  0.085130  0.673750  1.0  0.0527
  C  C526  1  0.790100  0.067810  0.662480  1.0  -0.0116
  C  C527  1  0.823300  0.133500  0.630600  1.0  -0.0727
  C  C528  1  0.836780  0.116880  0.660260  1.0  -0.0246
  C  C529  1  0.679820  0.414870  0.673750  1.0  0.0512
  C  C530  1  0.709900  0.432190  0.662480  1.0  -0.0113
  C  C531  1  0.676700  0.366500  0.630600  1.0  -0.0718
  C  C532  1  0.663220  0.383120  0.660260  1.0  -0.0245
  C  C533  1  0.679820  0.914870  0.173750  1.0  0.0512
  C  C534  1  0.709900  0.932190  0.162480  1.0  -0.0113
  C  C535  1  0.676700  0.866500  0.130600  1.0  -0.0718
  C  C536  1  0.663220  0.883120  0.160260  1.0  -0.0245
  C  C537  1  0.179820  0.414870  0.173750  1.0  0.0512
  C  C538  1  0.209900  0.432190  0.162480  1.0  -0.0113
  C  C539  1  0.176700  0.366500  0.130600  1.0  -0.0718
  C  C540  1  0.163220  0.383120  0.160260  1.0  -0.0245
  C  C541  1  0.179820  0.914870  0.673750  1.0  0.0512
  C  C542  1  0.209900  0.932190  0.662480  1.0  -0.0113
  C  C543  1  0.176700  0.866500  0.630600  1.0  -0.0718
  C  C544  1  0.163220  0.883120  0.660260  1.0  -0.0245
  C  C545  1  0.326250  0.679820  0.585130  1.0  0.0542
  C  C546  1  0.337520  0.709900  0.567810  1.0  -0.012
  C  C547  1  0.369400  0.676700  0.633500  1.0  -0.0702
  C  C548  1  0.339740  0.663220  0.616880  1.0  -0.0354
  C  C549  1  0.326250  0.179820  0.085130  1.0  0.0542
  C  C550  1  0.337520  0.209900  0.067810  1.0  -0.012
  C  C551  1  0.369400  0.176700  0.133500  1.0  -0.0702
  C  C552  1  0.339740  0.163220  0.116880  1.0  -0.0354
  C  C553  1  0.826250  0.679820  0.085130  1.0  0.0542
  C  C554  1  0.837520  0.709900  0.067810  1.0  -0.012
  C  C555  1  0.869400  0.676700  0.133500  1.0  -0.0702
  C  C556  1  0.839740  0.663220  0.116880  1.0  -0.0354
  C  C557  1  0.826250  0.179820  0.585130  1.0  0.0542
  C  C558  1  0.837520  0.209900  0.567810  1.0  -0.012
  C  C559  1  0.869400  0.176700  0.633500  1.0  -0.0702
  C  C560  1  0.839740  0.163220  0.616880  1.0  -0.0354
  C  C561  1  0.326250  0.320180  0.414870  1.0  0.054
  C  C562  1  0.337520  0.290100  0.432190  1.0  -0.0119
  C  C563  1  0.369400  0.323300  0.366500  1.0  -0.0697
  C  C564  1  0.339740  0.336780  0.383120  1.0  -0.0353
  C  C565  1  0.326250  0.820180  0.914870  1.0  0.054
  C  C566  1  0.337520  0.790100  0.932190  1.0  -0.0119
  C  C567  1  0.369400  0.823300  0.866500  1.0  -0.0697
  C  C568  1  0.339740  0.836780  0.883120  1.0  -0.0353
  C  C569  1  0.826250  0.320180  0.914870  1.0  0.054
  C  C570  1  0.837520  0.290100  0.932190  1.0  -0.0119
  C  C571  1  0.869400  0.323300  0.866500  1.0  -0.0697
  C  C572  1  0.839740  0.336780  0.883120  1.0  -0.0353
  C  C573  1  0.826250  0.820180  0.414870  1.0  0.054
  C  C574  1  0.837520  0.790100  0.432190  1.0  -0.0119
  C  C575  1  0.869400  0.823300  0.366500  1.0  -0.0697
  C  C576  1  0.839740  0.836780  0.383120  1.0  -0.0353
  C  C577  1  0.673750  0.320180  0.585130  1.0  0.0536
  C  C578  1  0.662480  0.290100  0.567810  1.0  -0.012
  C  C579  1  0.630600  0.323300  0.633500  1.0  -0.0693
  C  C580  1  0.660260  0.336780  0.616880  1.0  -0.0352
  C  C581  1  0.673750  0.820180  0.085130  1.0  0.0536
  C  C582  1  0.662480  0.790100  0.067810  1.0  -0.012
  C  C583  1  0.630600  0.823300  0.133500  1.0  -0.0693
  C  C584  1  0.660260  0.836780  0.116880  1.0  -0.0352
  C  C585  1  0.173750  0.320180  0.085130  1.0  0.0536
  C  C586  1  0.162480  0.290100  0.067810  1.0  -0.012
  C  C587  1  0.130600  0.323300  0.133500  1.0  -0.0693
  C  C588  1  0.160260  0.336780  0.116880  1.0  -0.0352
  C  C589  1  0.173750  0.820180  0.585130  1.0  0.0536
  C  C590  1  0.162480  0.790100  0.567810  1.0  -0.012
  C  C591  1  0.130600  0.823300  0.633500  1.0  -0.0693
  C  C592  1  0.160260  0.836780  0.616880  1.0  -0.0352
  C  C593  1  0.673750  0.679820  0.414870  1.0  0.0532
  C  C594  1  0.662480  0.709900  0.432190  1.0  -0.0114
  C  C595  1  0.630600  0.676700  0.366500  1.0  -0.0692
  C  C596  1  0.660260  0.663220  0.383120  1.0  -0.0354
  C  C597  1  0.673750  0.179820  0.914870  1.0  0.0532
  C  C598  1  0.662480  0.209900  0.932190  1.0  -0.0114
  C  C599  1  0.630600  0.176700  0.866500  1.0  -0.0692
  C  C600  1  0.660260  0.163220  0.883120  1.0  -0.0354
  C  C601  1  0.173750  0.679820  0.914870  1.0  0.0532
  C  C602  1  0.162480  0.709900  0.932190  1.0  -0.0114
  C  C603  1  0.130600  0.676700  0.866500  1.0  -0.0692
  C  C604  1  0.160260  0.663220  0.883120  1.0  -0.0354
  C  C605  1  0.173750  0.179820  0.414870  1.0  0.0532
  C  C606  1  0.162480  0.209900  0.432190  1.0  -0.0114
  C  C607  1  0.130600  0.176700  0.366500  1.0  -0.0692
  C  C608  1  0.160260  0.163220  0.383120  1.0  -0.0354
  C  C609  1  0.585130  0.326250  0.679820  1.0  0.0536
  C  C610  1  0.567810  0.337520  0.709900  1.0  -0.0123
  C  C611  1  0.633500  0.369400  0.676700  1.0  -0.071
  C  C612  1  0.616880  0.339740  0.663220  1.0  -0.0364
  C  C613  1  0.585130  0.826250  0.179820  1.0  0.0536
  C  C614  1  0.567810  0.837520  0.209900  1.0  -0.0123
  C  C615  1  0.633500  0.869400  0.176700  1.0  -0.071
  C  C616  1  0.616880  0.839740  0.163220  1.0  -0.0364
  C  C617  1  0.085130  0.326250  0.179820  1.0  0.0536
  C  C618  1  0.067810  0.337520  0.209900  1.0  -0.0123
  C  C619  1  0.133500  0.369400  0.176700  1.0  -0.071
  C  C620  1  0.116880  0.339740  0.163220  1.0  -0.0364
  C  C621  1  0.085130  0.826250  0.679820  1.0  0.0536
  C  C622  1  0.067810  0.837520  0.709900  1.0  -0.0123
  C  C623  1  0.133500  0.869400  0.676700  1.0  -0.071
  C  C624  1  0.116880  0.839740  0.663220  1.0  -0.0364
  C  C625  1  0.414870  0.326250  0.320180  1.0  0.053
  C  C626  1  0.432190  0.337520  0.290100  1.0  -0.0121
  C  C627  1  0.366500  0.369400  0.323300  1.0  -0.071
  C  C628  1  0.383120  0.339740  0.336780  1.0  -0.0345
  C  C629  1  0.414870  0.826250  0.820180  1.0  0.053
  C  C630  1  0.432190  0.837520  0.790100  1.0  -0.0121
  C  C631  1  0.366500  0.869400  0.823300  1.0  -0.071
  C  C632  1  0.383120  0.839740  0.836780  1.0  -0.0345
  C  C633  1  0.914870  0.326250  0.820180  1.0  0.053
  C  C634  1  0.932190  0.337520  0.790100  1.0  -0.0121
  C  C635  1  0.866500  0.369400  0.823300  1.0  -0.071
  C  C636  1  0.883120  0.339740  0.836780  1.0  -0.0345
  C  C637  1  0.914870  0.826250  0.320180  1.0  0.053
  C  C638  1  0.932190  0.837520  0.290100  1.0  -0.0121
  C  C639  1  0.866500  0.869400  0.323300  1.0  -0.071
  C  C640  1  0.883120  0.839740  0.336780  1.0  -0.0345
  C  C641  1  0.585130  0.673750  0.320180  1.0  0.0538
  C  C642  1  0.567810  0.662480  0.290100  1.0  -0.0122
  C  C643  1  0.633500  0.630600  0.323300  1.0  -0.0713
  C  C644  1  0.616880  0.660260  0.336780  1.0  -0.036
  C  C645  1  0.585130  0.173750  0.820180  1.0  0.0538
  C  C646  1  0.567810  0.162480  0.790100  1.0  -0.0122
  C  C647  1  0.633500  0.130600  0.823300  1.0  -0.0713
  C  C648  1  0.616880  0.160260  0.836780  1.0  -0.036
  C  C649  1  0.085130  0.673750  0.820180  1.0  0.0538
  C  C650  1  0.067810  0.662480  0.790100  1.0  -0.0122
  C  C651  1  0.133500  0.630600  0.823300  1.0  -0.0713
  C  C652  1  0.116880  0.660260  0.836780  1.0  -0.036
  C  C653  1  0.085130  0.173750  0.320180  1.0  0.0538
  C  C654  1  0.067810  0.162480  0.290100  1.0  -0.0122
  C  C655  1  0.133500  0.130600  0.323300  1.0  -0.0713
  C  C656  1  0.116880  0.160260  0.336780  1.0  -0.036
  C  C657  1  0.414870  0.673750  0.679820  1.0  0.0526
  C  C658  1  0.432190  0.662480  0.709900  1.0  -0.0122
  C  C659  1  0.366500  0.630600  0.676700  1.0  -0.0699
  C  C660  1  0.383120  0.660260  0.663220  1.0  -0.0345
  C  C661  1  0.414870  0.173750  0.179820  1.0  0.0526
  C  C662  1  0.432190  0.162480  0.209900  1.0  -0.0122
  C  C663  1  0.366500  0.130600  0.176700  1.0  -0.0699
  C  C664  1  0.383120  0.160260  0.163220  1.0  -0.0345
  C  C665  1  0.914870  0.673750  0.179820  1.0  0.0526
  C  C666  1  0.932190  0.662480  0.209900  1.0  -0.0122
  C  C667  1  0.866500  0.630600  0.176700  1.0  -0.0699
  C  C668  1  0.883120  0.660260  0.163220  1.0  -0.0345
  C  C669  1  0.914870  0.173750  0.679820  1.0  0.0526
  C  C670  1  0.932190  0.162480  0.709900  1.0  -0.0122
  C  C671  1  0.866500  0.130600  0.676700  1.0  -0.0699
  C  C672  1  0.883120  0.160260  0.663220  1.0  -0.0345
  C  C673  1  0.085130  0.179820  0.173750  1.0  0.0515
  C  C674  1  0.067810  0.209900  0.162480  1.0  -0.0121
  C  C675  1  0.133500  0.176700  0.130600  1.0  -0.0708
  C  C676  1  0.116880  0.163220  0.160260  1.0  -0.0269
  C  C677  1  0.085130  0.679820  0.673750  1.0  0.0515
  C  C678  1  0.067810  0.709900  0.662480  1.0  -0.0121
  C  C679  1  0.133500  0.676700  0.630600  1.0  -0.0708
  C  C680  1  0.116880  0.663220  0.660260  1.0  -0.0269
  C  C681  1  0.585130  0.179820  0.673750  1.0  0.0515
  C  C682  1  0.567810  0.209900  0.662480  1.0  -0.0121
  C  C683  1  0.633500  0.176700  0.630600  1.0  -0.0708
  C  C684  1  0.616880  0.163220  0.660260  1.0  -0.0269
  C  C685  1  0.585130  0.679820  0.173750  1.0  0.0515
  C  C686  1  0.567810  0.709900  0.162480  1.0  -0.0121
  C  C687  1  0.633500  0.676700  0.130600  1.0  -0.0708
  C  C688  1  0.616880  0.663220  0.160260  1.0  -0.0269
  C  C689  1  0.914870  0.820180  0.173750  1.0  0.0504
  C  C690  1  0.932190  0.790100  0.162480  1.0  -0.0123
  C  C691  1  0.866500  0.823300  0.130600  1.0  -0.07
  C  C692  1  0.883120  0.836780  0.160260  1.0  -0.0248
  C  C693  1  0.914870  0.320180  0.673750  1.0  0.0504
  C  C694  1  0.932190  0.290100  0.662480  1.0  -0.0123
  C  C695  1  0.866500  0.323300  0.630600  1.0  -0.07
  C  C696  1  0.883120  0.336780  0.660260  1.0  -0.0248
  C  C697  1  0.414870  0.820180  0.673750  1.0  0.0504
  C  C698  1  0.432190  0.790100  0.662480  1.0  -0.0123
  C  C699  1  0.366500  0.823300  0.630600  1.0  -0.07
  C  C700  1  0.383120  0.836780  0.660260  1.0  -0.0248
  C  C701  1  0.414870  0.320180  0.173750  1.0  0.0504
  C  C702  1  0.432190  0.290100  0.162480  1.0  -0.0123
  C  C703  1  0.366500  0.323300  0.130600  1.0  -0.07
  C  C704  1  0.383120  0.336780  0.160260  1.0  -0.0248
  C  C705  1  0.085130  0.820180  0.826250  1.0  0.0514
  C  C706  1  0.067810  0.790100  0.837520  1.0  -0.0122
  C  C707  1  0.133500  0.823300  0.869400  1.0  -0.0707
  C  C708  1  0.116880  0.836780  0.839740  1.0  -0.0269
  C  C709  1  0.085130  0.320180  0.326250  1.0  0.0514
  C  C710  1  0.067810  0.290100  0.337520  1.0  -0.0122
  C  C711  1  0.133500  0.323300  0.369400  1.0  -0.0707
  C  C712  1  0.116880  0.336780  0.339740  1.0  -0.0269
  C  C713  1  0.585130  0.820180  0.326250  1.0  0.0514
  C  C714  1  0.567810  0.790100  0.337520  1.0  -0.0122
  C  C715  1  0.633500  0.823300  0.369400  1.0  -0.0707
  C  C716  1  0.616880  0.836780  0.339740  1.0  -0.0269
  C  C717  1  0.585130  0.320180  0.826250  1.0  0.0514
  C  C718  1  0.567810  0.290100  0.837520  1.0  -0.0122
  C  C719  1  0.633500  0.323300  0.869400  1.0  -0.0707
  C  C720  1  0.616880  0.336780  0.839740  1.0  -0.0269
  C  C721  1  0.914870  0.179820  0.826250  1.0  0.0504
  C  C722  1  0.932190  0.209900  0.837520  1.0  -0.0134
  C  C723  1  0.866500  0.176700  0.869400  1.0  -0.0706
  C  C724  1  0.883120  0.163220  0.839740  1.0  -0.0251
  C  C725  1  0.914870  0.679820  0.326250  1.0  0.0504
  C  C726  1  0.932190  0.709900  0.337520  1.0  -0.0134
  C  C727  1  0.866500  0.676700  0.369400  1.0  -0.0706
  C  C728  1  0.883120  0.663220  0.339740  1.0  -0.0251
  C  C729  1  0.414870  0.179820  0.326250  1.0  0.0504
  C  C730  1  0.432190  0.209900  0.337520  1.0  -0.0134
  C  C731  1  0.366500  0.176700  0.369400  1.0  -0.0706
  C  C732  1  0.383120  0.163220  0.339740  1.0  -0.0251
  C  C733  1  0.414870  0.679820  0.826250  1.0  0.0504
  C  C734  1  0.432190  0.709900  0.837520  1.0  -0.0134
  C  C735  1  0.366500  0.676700  0.869400  1.0  -0.0706
  C  C736  1  0.383120  0.663220  0.839740  1.0  -0.0251
  C  C737  1  0.179820  0.826250  0.914870  1.0  0.0532
  C  C738  1  0.209900  0.837520  0.932190  1.0  -0.0122
  C  C739  1  0.176700  0.869400  0.866500  1.0  -0.0711
  C  C740  1  0.163220  0.839740  0.883120  1.0  -0.0351
  C  C741  1  0.179820  0.326250  0.414870  1.0  0.0532
  C  C742  1  0.209900  0.337520  0.432190  1.0  -0.0122
  C  C743  1  0.176700  0.369400  0.366500  1.0  -0.0711
  C  C744  1  0.163220  0.339740  0.383120  1.0  -0.0351
  C  C745  1  0.679820  0.826250  0.414870  1.0  0.0532
  C  C746  1  0.709900  0.837520  0.432190  1.0  -0.0122
  C  C747  1  0.676700  0.869400  0.366500  1.0  -0.0711
  C  C748  1  0.663220  0.839740  0.383120  1.0  -0.0351
  C  C749  1  0.679820  0.326250  0.914870  1.0  0.0532
  C  C750  1  0.709900  0.337520  0.932190  1.0  -0.0122
  C  C751  1  0.676700  0.369400  0.866500  1.0  -0.0711
  C  C752  1  0.663220  0.339740  0.883120  1.0  -0.0351
  C  C753  1  0.820180  0.826250  0.085130  1.0  0.0544
  C  C754  1  0.790100  0.837520  0.067810  1.0  -0.0124
  C  C755  1  0.823300  0.869400  0.133500  1.0  -0.0717
  C  C756  1  0.836780  0.839740  0.116880  1.0  -0.0356
  C  C757  1  0.820180  0.326250  0.585130  1.0  0.0544
  C  C758  1  0.790100  0.337520  0.567810  1.0  -0.0124
  C  C759  1  0.823300  0.369400  0.633500  1.0  -0.0717
  C  C760  1  0.836780  0.339740  0.616880  1.0  -0.0356
  C  C761  1  0.320180  0.826250  0.585130  1.0  0.0544
  C  C762  1  0.290100  0.837520  0.567810  1.0  -0.0124
  C  C763  1  0.323300  0.869400  0.633500  1.0  -0.0717
  C  C764  1  0.336780  0.839740  0.616880  1.0  -0.0356
  C  C765  1  0.320180  0.326250  0.085130  1.0  0.0544
  C  C766  1  0.290100  0.337520  0.067810  1.0  -0.0124
  C  C767  1  0.323300  0.369400  0.133500  1.0  -0.0717
  C  C768  1  0.336780  0.339740  0.116880  1.0  -0.0356
  C  C769  1  0.820180  0.173750  0.914870  1.0  0.0541
  C  C770  1  0.790100  0.162480  0.932190  1.0  -0.0116
  C  C771  1  0.823300  0.130600  0.866500  1.0  -0.0712
  C  C772  1  0.836780  0.160260  0.883120  1.0  -0.0352
  C  C773  1  0.820180  0.673750  0.414870  1.0  0.0541
  C  C774  1  0.790100  0.662480  0.432190  1.0  -0.0116
  C  C775  1  0.823300  0.630600  0.366500  1.0  -0.0712
  C  C776  1  0.836780  0.660260  0.383120  1.0  -0.0352
  C  C777  1  0.320180  0.173750  0.414870  1.0  0.0541
  C  C778  1  0.290100  0.162480  0.432190  1.0  -0.0116
  C  C779  1  0.323300  0.130600  0.366500  1.0  -0.0712
  C  C780  1  0.336780  0.160260  0.383120  1.0  -0.0352
  C  C781  1  0.320180  0.673750  0.914870  1.0  0.0541
  C  C782  1  0.290100  0.662480  0.932190  1.0  -0.0116
  C  C783  1  0.323300  0.630600  0.866500  1.0  -0.0712
  C  C784  1  0.336780  0.660260  0.883120  1.0  -0.0352
  C  C785  1  0.179820  0.173750  0.085130  1.0  0.053
  C  C786  1  0.209900  0.162480  0.067810  1.0  -0.0124
  C  C787  1  0.176700  0.130600  0.133500  1.0  -0.0715
  C  C788  1  0.163220  0.160260  0.116880  1.0  -0.0351
  C  C789  1  0.179820  0.673750  0.585130  1.0  0.053
  C  C790  1  0.209900  0.662480  0.567810  1.0  -0.0124
  C  C791  1  0.176700  0.630600  0.633500  1.0  -0.0715
  C  C792  1  0.163220  0.660260  0.616880  1.0  -0.0351
  C  C793  1  0.679820  0.173750  0.585130  1.0  0.053
  C  C794  1  0.709900  0.162480  0.567810  1.0  -0.0124
  C  C795  1  0.676700  0.130600  0.633500  1.0  -0.0715
  C  C796  1  0.663220  0.160260  0.616880  1.0  -0.0351
  C  C797  1  0.679820  0.673750  0.085130  1.0  0.053
  C  C798  1  0.709900  0.662480  0.067810  1.0  -0.0124
  C  C799  1  0.676700  0.630600  0.133500  1.0  -0.0715
  C  C800  1  0.663220  0.660260  0.116880  1.0  -0.0351
  C  C801  1  0.826250  0.085130  0.820180  1.0  0.0552
  C  C802  1  0.837520  0.067810  0.790100  1.0  -0.0116
  C  C803  1  0.869400  0.133500  0.823300  1.0  -0.0717
  C  C804  1  0.839740  0.116880  0.836780  1.0  -0.0337
  C  C805  1  0.826250  0.585130  0.320180  1.0  0.0552
  C  C806  1  0.837520  0.567810  0.290100  1.0  -0.0116
  C  C807  1  0.869400  0.633500  0.323300  1.0  -0.0717
  C  C808  1  0.839740  0.616880  0.336780  1.0  -0.0337
  C  C809  1  0.326250  0.085130  0.320180  1.0  0.0552
  C  C810  1  0.337520  0.067810  0.290100  1.0  -0.0116
  C  C811  1  0.369400  0.133500  0.323300  1.0  -0.0717
  C  C812  1  0.339740  0.116880  0.336780  1.0  -0.0337
  C  C813  1  0.326250  0.585130  0.820180  1.0  0.0552
  C  C814  1  0.337520  0.567810  0.790100  1.0  -0.0116
  C  C815  1  0.369400  0.633500  0.823300  1.0  -0.0717
  C  C816  1  0.339740  0.616880  0.836780  1.0  -0.0337
  C  C817  1  0.826250  0.914870  0.179820  1.0  0.0543
  C  C818  1  0.837520  0.932190  0.209900  1.0  -0.0107
  C  C819  1  0.869400  0.866500  0.176700  1.0  -0.0707
  C  C820  1  0.839740  0.883120  0.163220  1.0  -0.0335
  C  C821  1  0.826250  0.414870  0.679820  1.0  0.0543
  C  C822  1  0.837520  0.432190  0.709900  1.0  -0.0107
  C  C823  1  0.869400  0.366500  0.676700  1.0  -0.0707
  C  C824  1  0.839740  0.383120  0.663220  1.0  -0.0335
  C  C825  1  0.326250  0.914870  0.679820  1.0  0.0543
  C  C826  1  0.337520  0.932190  0.709900  1.0  -0.0107
  C  C827  1  0.369400  0.866500  0.676700  1.0  -0.0707
  C  C828  1  0.339740  0.883120  0.663220  1.0  -0.0335
  C  C829  1  0.326250  0.414870  0.179820  1.0  0.0543
  C  C830  1  0.337520  0.432190  0.209900  1.0  -0.0107
  C  C831  1  0.369400  0.366500  0.176700  1.0  -0.0707
  C  C832  1  0.339740  0.383120  0.163220  1.0  -0.0335
  C  C833  1  0.173750  0.085130  0.179820  1.0  0.0541
  C  C834  1  0.162480  0.067810  0.209900  1.0  -0.011
  C  C835  1  0.130600  0.133500  0.176700  1.0  -0.0703
  C  C836  1  0.160260  0.116880  0.163220  1.0  -0.034
  C  C837  1  0.173750  0.585130  0.679820  1.0  0.0541
  C  C838  1  0.162480  0.567810  0.709900  1.0  -0.011
  C  C839  1  0.130600  0.633500  0.676700  1.0  -0.0703
  C  C840  1  0.160260  0.616880  0.663220  1.0  -0.034
  C  C841  1  0.673750  0.085130  0.679820  1.0  0.0541
  C  C842  1  0.662480  0.067810  0.709900  1.0  -0.011
  C  C843  1  0.630600  0.133500  0.676700  1.0  -0.0703
  C  C844  1  0.660260  0.116880  0.663220  1.0  -0.034
  C  C845  1  0.673750  0.585130  0.179820  1.0  0.0541
  C  C846  1  0.662480  0.567810  0.209900  1.0  -0.011
  C  C847  1  0.630600  0.633500  0.176700  1.0  -0.0703
  C  C848  1  0.660260  0.616880  0.163220  1.0  -0.034
  C  C849  1  0.173750  0.914870  0.820180  1.0  0.0537
  C  C850  1  0.162480  0.932190  0.790100  1.0  -0.0109
  C  C851  1  0.130600  0.866500  0.823300  1.0  -0.0706
  C  C852  1  0.160260  0.883120  0.836780  1.0  -0.0337
  C  C853  1  0.173750  0.414870  0.320180  1.0  0.0537
  C  C854  1  0.162480  0.432190  0.290100  1.0  -0.0109
  C  C855  1  0.130600  0.366500  0.323300  1.0  -0.0706
  C  C856  1  0.160260  0.383120  0.336780  1.0  -0.0337
  C  C857  1  0.673750  0.914870  0.320180  1.0  0.0537
  C  C858  1  0.662480  0.932190  0.290100  1.0  -0.0109
  C  C859  1  0.630600  0.866500  0.323300  1.0  -0.0706
  C  C860  1  0.660260  0.883120  0.336780  1.0  -0.0337
  C  C861  1  0.673750  0.414870  0.820180  1.0  0.0537
  C  C862  1  0.662480  0.432190  0.790100  1.0  -0.0109
  C  C863  1  0.630600  0.366500  0.823300  1.0  -0.0706
  C  C864  1  0.660260  0.383120  0.836780  1.0  -0.0337
  C  C865  1  0.320180  0.414870  0.673750  1.0  0.0525
  C  C866  1  0.290100  0.432190  0.662480  1.0  -0.0114
  C  C867  1  0.323300  0.366500  0.630600  1.0  -0.0724
  C  C868  1  0.336780  0.383120  0.660260  1.0  -0.0247
  C  C869  1  0.320180  0.914870  0.173750  1.0  0.0525
  C  C870  1  0.290100  0.932190  0.162480  1.0  -0.0114
  C  C871  1  0.323300  0.866500  0.130600  1.0  -0.0724
  C  C872  1  0.336780  0.883120  0.160260  1.0  -0.0247
  C  C873  1  0.820180  0.414870  0.173750  1.0  0.0525
  C  C874  1  0.790100  0.432190  0.162480  1.0  -0.0114
  C  C875  1  0.823300  0.366500  0.130600  1.0  -0.0724
  C  C876  1  0.836780  0.383120  0.160260  1.0  -0.0247
  C  C877  1  0.820180  0.914870  0.673750  1.0  0.0525
  C  C878  1  0.790100  0.932190  0.662480  1.0  -0.0114
  C  C879  1  0.823300  0.866500  0.630600  1.0  -0.0724
  C  C880  1  0.836780  0.883120  0.660260  1.0  -0.0247
  C  C881  1  0.679820  0.585130  0.673750  1.0  0.0518
  C  C882  1  0.709900  0.567810  0.662480  1.0  -0.0117
  C  C883  1  0.676700  0.633500  0.630600  1.0  -0.0725
  C  C884  1  0.663220  0.616880  0.660260  1.0  -0.0244
  C  C885  1  0.679820  0.085130  0.173750  1.0  0.0518
  C  C886  1  0.709900  0.067810  0.162480  1.0  -0.0117
  C  C887  1  0.676700  0.133500  0.130600  1.0  -0.0725
  C  C888  1  0.663220  0.116880  0.160260  1.0  -0.0244
  C  C889  1  0.179820  0.585130  0.173750  1.0  0.0518
  C  C890  1  0.209900  0.567810  0.162480  1.0  -0.0117
  C  C891  1  0.176700  0.633500  0.130600  1.0  -0.0725
  C  C892  1  0.163220  0.616880  0.160260  1.0  -0.0244
  C  C893  1  0.179820  0.085130  0.673750  1.0  0.0518
  C  C894  1  0.209900  0.067810  0.662480  1.0  -0.0117
  C  C895  1  0.176700  0.133500  0.630600  1.0  -0.0725
  C  C896  1  0.163220  0.116880  0.660260  1.0  -0.0244
  C  C897  1  0.679820  0.414870  0.326250  1.0  0.0514
  C  C898  1  0.709900  0.432190  0.337520  1.0  -0.0119
  C  C899  1  0.676700  0.366500  0.369400  1.0  -0.0719
  C  C900  1  0.663220  0.383120  0.339740  1.0  -0.0244
  C  C901  1  0.679820  0.914870  0.826250  1.0  0.0514
  C  C902  1  0.709900  0.932190  0.837520  1.0  -0.0119
  C  C903  1  0.676700  0.866500  0.869400  1.0  -0.0719
  C  C904  1  0.663220  0.883120  0.839740  1.0  -0.0244
  C  C905  1  0.179820  0.414870  0.826250  1.0  0.0514
  C  C906  1  0.209900  0.432190  0.837520  1.0  -0.0119
  C  C907  1  0.176700  0.366500  0.869400  1.0  -0.0719
  C  C908  1  0.163220  0.383120  0.839740  1.0  -0.0244
  C  C909  1  0.179820  0.914870  0.326250  1.0  0.0514
  C  C910  1  0.209900  0.932190  0.337520  1.0  -0.0119
  C  C911  1  0.176700  0.866500  0.369400  1.0  -0.0719
  C  C912  1  0.163220  0.883120  0.339740  1.0  -0.0244
  C  C913  1  0.320180  0.585130  0.326250  1.0  0.0528
  C  C914  1  0.290100  0.567810  0.337520  1.0  -0.012
  C  C915  1  0.323300  0.633500  0.369400  1.0  -0.0728
  C  C916  1  0.336780  0.616880  0.339740  1.0  -0.0247
  C  C917  1  0.320180  0.085130  0.826250  1.0  0.0528
  C  C918  1  0.290100  0.067810  0.837520  1.0  -0.012
  C  C919  1  0.323300  0.133500  0.869400  1.0  -0.0728
  C  C920  1  0.336780  0.116880  0.839740  1.0  -0.0247
  C  C921  1  0.820180  0.585130  0.826250  1.0  0.0528
  C  C922  1  0.790100  0.567810  0.837520  1.0  -0.012
  C  C923  1  0.823300  0.633500  0.869400  1.0  -0.0728
  C  C924  1  0.836780  0.616880  0.839740  1.0  -0.0247
  C  C925  1  0.820180  0.085130  0.326250  1.0  0.0528
  C  C926  1  0.790100  0.067810  0.337520  1.0  -0.012
  C  C927  1  0.823300  0.133500  0.369400  1.0  -0.0728
  C  C928  1  0.836780  0.116880  0.339740  1.0  -0.0247
  C  C929  1  0.673750  0.320180  0.414870  1.0  0.0535
  C  C930  1  0.662480  0.290100  0.432190  1.0  -0.0114
  C  C931  1  0.630600  0.323300  0.366500  1.0  -0.0692
  C  C932  1  0.660260  0.336780  0.383120  1.0  -0.0354
  C  C933  1  0.673750  0.820180  0.914870  1.0  0.0535
  C  C934  1  0.662480  0.790100  0.932190  1.0  -0.0114
  C  C935  1  0.630600  0.823300  0.866500  1.0  -0.0692
  C  C936  1  0.660260  0.836780  0.883120  1.0  -0.0354
  C  C937  1  0.173750  0.320180  0.914870  1.0  0.0535
  C  C938  1  0.162480  0.290100  0.932190  1.0  -0.0114
  C  C939  1  0.130600  0.323300  0.866500  1.0  -0.0692
  C  C940  1  0.160260  0.336780  0.883120  1.0  -0.0354
  C  C941  1  0.173750  0.820180  0.414870  1.0  0.0535
  C  C942  1  0.162480  0.790100  0.432190  1.0  -0.0114
  C  C943  1  0.130600  0.823300  0.366500  1.0  -0.0692
  C  C944  1  0.160260  0.836780  0.383120  1.0  -0.0354
  C  C945  1  0.673750  0.679820  0.585130  1.0  0.0532
  C  C946  1  0.662480  0.709900  0.567810  1.0  -0.0118
  C  C947  1  0.630600  0.676700  0.633500  1.0  -0.0693
  C  C948  1  0.660260  0.663220  0.616880  1.0  -0.0352
  C  C949  1  0.673750  0.179820  0.085130  1.0  0.0532
  C  C950  1  0.662480  0.209900  0.067810  1.0  -0.0118
  C  C951  1  0.630600  0.176700  0.133500  1.0  -0.0693
  C  C952  1  0.660260  0.163220  0.116880  1.0  -0.0352
  C  C953  1  0.173750  0.679820  0.085130  1.0  0.0532
  C  C954  1  0.162480  0.709900  0.067810  1.0  -0.0118
  C  C955  1  0.130600  0.676700  0.133500  1.0  -0.0693
  C  C956  1  0.160260  0.663220  0.116880  1.0  -0.0352
  C  C957  1  0.173750  0.179820  0.585130  1.0  0.0532
  C  C958  1  0.162480  0.209900  0.567810  1.0  -0.0118
  C  C959  1  0.130600  0.176700  0.633500  1.0  -0.0693
  C  C960  1  0.160260  0.163220  0.616880  1.0  -0.0352
  C  C961  1  0.326250  0.679820  0.414870  1.0  0.054
  C  C962  1  0.337520  0.709900  0.432190  1.0  -0.0119
  C  C963  1  0.369400  0.676700  0.366500  1.0  -0.0701
  C  C964  1  0.339740  0.663220  0.383120  1.0  -0.0352
  C  C965  1  0.326250  0.179820  0.914870  1.0  0.054
  C  C966  1  0.337520  0.209900  0.932190  1.0  -0.0119
  C  C967  1  0.369400  0.176700  0.866500  1.0  -0.0701
  C  C968  1  0.339740  0.163220  0.883120  1.0  -0.0352
  C  C969  1  0.826250  0.679820  0.914870  1.0  0.054
  C  C970  1  0.837520  0.709900  0.932190  1.0  -0.0119
  C  C971  1  0.869400  0.676700  0.866500  1.0  -0.0701
  C  C972  1  0.839740  0.663220  0.883120  1.0  -0.0352
  C  C973  1  0.826250  0.179820  0.414870  1.0  0.054
  C  C974  1  0.837520  0.209900  0.432190  1.0  -0.0119
  C  C975  1  0.869400  0.176700  0.366500  1.0  -0.0701
  C  C976  1  0.839740  0.163220  0.383120  1.0  -0.0352
  C  C977  1  0.326250  0.320180  0.585130  1.0  0.0544
  C  C978  1  0.337520  0.290100  0.567810  1.0  -0.0122
  C  C979  1  0.369400  0.323300  0.633500  1.0  -0.0696
  C  C980  1  0.339740  0.336780  0.616880  1.0  -0.0353
  C  C981  1  0.326250  0.820180  0.085130  1.0  0.0544
  C  C982  1  0.337520  0.790100  0.067810  1.0  -0.0122
  C  C983  1  0.369400  0.823300  0.133500  1.0  -0.0696
  C  C984  1  0.339740  0.836780  0.116880  1.0  -0.0353
  C  C985  1  0.826250  0.320180  0.085130  1.0  0.0544
  C  C986  1  0.837520  0.290100  0.067810  1.0  -0.0122
  C  C987  1  0.869400  0.323300  0.133500  1.0  -0.0696
  C  C988  1  0.839740  0.336780  0.116880  1.0  -0.0353
  C  C989  1  0.826250  0.820180  0.585130  1.0  0.0544
  C  C990  1  0.837520  0.790100  0.567810  1.0  -0.0122
  C  C991  1  0.869400  0.823300  0.633500  1.0  -0.0696
  C  C992  1  0.839740  0.836780  0.616880  1.0  -0.0353
  C  C993  1  0.414870  0.673750  0.320180  1.0  0.0528
  C  C994  1  0.432190  0.662480  0.290100  1.0  -0.0128
  C  C995  1  0.366500  0.630600  0.323300  1.0  -0.071
  C  C996  1  0.383120  0.660260  0.336780  1.0  -0.0344
  C  C997  1  0.414870  0.173750  0.820180  1.0  0.0528
  C  C998  1  0.432190  0.162480  0.790100  1.0  -0.0128
  C  C999  1  0.366500  0.130600  0.823300  1.0  -0.071
  C  C1000  1  0.383120  0.160260  0.836780  1.0  -0.0344
  C  C1001  1  0.914870  0.673750  0.820180  1.0  0.0528
  C  C1002  1  0.932190  0.662480  0.790100  1.0  -0.0128
  C  C1003  1  0.866500  0.630600  0.823300  1.0  -0.071
  C  C1004  1  0.883120  0.660260  0.836780  1.0  -0.0344
  C  C1005  1  0.914870  0.173750  0.320180  1.0  0.0528
  C  C1006  1  0.932190  0.162480  0.290100  1.0  -0.0128
  C  C1007  1  0.866500  0.130600  0.323300  1.0  -0.071
  C  C1008  1  0.883120  0.160260  0.336780  1.0  -0.0344
  C  C1009  1  0.585130  0.673750  0.679820  1.0  0.0535
  C  C1010  1  0.567810  0.662480  0.709900  1.0  -0.0115
  C  C1011  1  0.633500  0.630600  0.676700  1.0  -0.0704
  C  C1012  1  0.616880  0.660260  0.663220  1.0  -0.036
  C  C1013  1  0.585130  0.173750  0.179820  1.0  0.0535
  C  C1014  1  0.567810  0.162480  0.209900  1.0  -0.0115
  C  C1015  1  0.633500  0.130600  0.176700  1.0  -0.0704
  C  C1016  1  0.616880  0.160260  0.163220  1.0  -0.036
  C  C1017  1  0.085130  0.673750  0.179820  1.0  0.0535
  C  C1018  1  0.067810  0.662480  0.209900  1.0  -0.0115
  C  C1019  1  0.133500  0.630600  0.176700  1.0  -0.0704
  C  C1020  1  0.116880  0.660260  0.163220  1.0  -0.036
  C  C1021  1  0.085130  0.173750  0.679820  1.0  0.0535
  C  C1022  1  0.067810  0.162480  0.709900  1.0  -0.0115
  C  C1023  1  0.133500  0.130600  0.676700  1.0  -0.0704
  C  C1024  1  0.116880  0.160260  0.663220  1.0  -0.036
  C  C1025  1  0.414870  0.326250  0.679820  1.0  0.0527
  C  C1026  1  0.432190  0.337520  0.709900  1.0  -0.013
  C  C1027  1  0.366500  0.369400  0.676700  1.0  -0.0704
  C  C1028  1  0.383120  0.339740  0.663220  1.0  -0.0346
  C  C1029  1  0.414870  0.826250  0.179820  1.0  0.0527
  C  C1030  1  0.432190  0.837520  0.209900  1.0  -0.013
  C  C1031  1  0.366500  0.869400  0.176700  1.0  -0.0704
  C  C1032  1  0.383120  0.839740  0.163220  1.0  -0.0346
  C  C1033  1  0.914870  0.326250  0.179820  1.0  0.0527
  C  C1034  1  0.932190  0.337520  0.209900  1.0  -0.013
  C  C1035  1  0.866500  0.369400  0.176700  1.0  -0.0704
  C  C1036  1  0.883120  0.339740  0.163220  1.0  -0.0346
  C  C1037  1  0.914870  0.826250  0.679820  1.0  0.0527
  C  C1038  1  0.932190  0.837520  0.709900  1.0  -0.013
  C  C1039  1  0.866500  0.869400  0.676700  1.0  -0.0704
  C  C1040  1  0.883120  0.839740  0.663220  1.0  -0.0346
  C  C1041  1  0.585130  0.326250  0.320180  1.0  0.0539
  C  C1042  1  0.567810  0.337520  0.290100  1.0  -0.0115
  C  C1043  1  0.633500  0.369400  0.323300  1.0  -0.0712
  C  C1044  1  0.616880  0.339740  0.336780  1.0  -0.0364
  C  C1045  1  0.585130  0.826250  0.820180  1.0  0.0539
  C  C1046  1  0.567810  0.837520  0.790100  1.0  -0.0115
  C  C1047  1  0.633500  0.869400  0.823300  1.0  -0.0712
  C  C1048  1  0.616880  0.839740  0.836780  1.0  -0.0364
  C  C1049  1  0.085130  0.326250  0.820180  1.0  0.0539
  C  C1050  1  0.067810  0.337520  0.790100  1.0  -0.0115
  C  C1051  1  0.133500  0.369400  0.823300  1.0  -0.0712
  C  C1052  1  0.116880  0.339740  0.836780  1.0  -0.0364
  C  C1053  1  0.085130  0.826250  0.320180  1.0  0.0539
  C  C1054  1  0.067810  0.837520  0.290100  1.0  -0.0115
  C  C1055  1  0.133500  0.869400  0.323300  1.0  -0.0712
  C  C1056  1  0.116880  0.839740  0.336780  1.0  -0.0364
  C  C1057  1  0.914870  0.820180  0.826250  1.0  0.0506
  C  C1058  1  0.932190  0.790100  0.837520  1.0  -0.0126
  C  C1059  1  0.866500  0.823300  0.869400  1.0  -0.0699
  C  C1060  1  0.883120  0.836780  0.839740  1.0  -0.0249
  C  C1061  1  0.914870  0.320180  0.326250  1.0  0.0506
  C  C1062  1  0.932190  0.290100  0.337520  1.0  -0.0126
  C  C1063  1  0.866500  0.323300  0.369400  1.0  -0.0699
  C  C1064  1  0.883120  0.336780  0.339740  1.0  -0.0249
  C  C1065  1  0.414870  0.820180  0.326250  1.0  0.0506
  C  C1066  1  0.432190  0.790100  0.337520  1.0  -0.0126
  C  C1067  1  0.366500  0.823300  0.369400  1.0  -0.0699
  C  C1068  1  0.383120  0.836780  0.339740  1.0  -0.0249
  C  C1069  1  0.414870  0.320180  0.826250  1.0  0.0506
  C  C1070  1  0.432190  0.290100  0.837520  1.0  -0.0126
  C  C1071  1  0.366500  0.323300  0.869400  1.0  -0.0699
  C  C1072  1  0.383120  0.336780  0.839740  1.0  -0.0249
  C  C1073  1  0.085130  0.179820  0.826250  1.0  0.0514
  C  C1074  1  0.067810  0.209900  0.837520  1.0  -0.0128
  C  C1075  1  0.133500  0.176700  0.869400  1.0  -0.0711
  C  C1076  1  0.116880  0.163220  0.839740  1.0  -0.0269
  C  C1077  1  0.085130  0.679820  0.326250  1.0  0.0514
  C  C1078  1  0.067810  0.709900  0.337520  1.0  -0.0128
  C  C1079  1  0.133500  0.676700  0.369400  1.0  -0.0711
  C  C1080  1  0.116880  0.663220  0.339740  1.0  -0.0269
  C  C1081  1  0.585130  0.179820  0.326250  1.0  0.0514
  C  C1082  1  0.567810  0.209900  0.337520  1.0  -0.0128
  C  C1083  1  0.633500  0.176700  0.369400  1.0  -0.0711
  C  C1084  1  0.616880  0.163220  0.339740  1.0  -0.0269
  C  C1085  1  0.585130  0.679820  0.826250  1.0  0.0514
  C  C1086  1  0.567810  0.709900  0.837520  1.0  -0.0128
  C  C1087  1  0.633500  0.676700  0.869400  1.0  -0.0711
  C  C1088  1  0.616880  0.663220  0.839740  1.0  -0.0269
  C  C1089  1  0.914870  0.179820  0.173750  1.0  0.0503
  C  C1090  1  0.932190  0.209900  0.162480  1.0  -0.0125
  C  C1091  1  0.866500  0.176700  0.130600  1.0  -0.0706
  C  C1092  1  0.883120  0.163220  0.160260  1.0  -0.025
  C  C1093  1  0.914870  0.679820  0.673750  1.0  0.0503
  C  C1094  1  0.932190  0.709900  0.662480  1.0  -0.0125
  C  C1095  1  0.866500  0.676700  0.630600  1.0  -0.0706
  C  C1096  1  0.883120  0.663220  0.660260  1.0  -0.025
  C  C1097  1  0.414870  0.179820  0.673750  1.0  0.0503
  C  C1098  1  0.432190  0.209900  0.662480  1.0  -0.0125
  C  C1099  1  0.366500  0.176700  0.630600  1.0  -0.0706
  C  C1100  1  0.383120  0.163220  0.660260  1.0  -0.025
  C  C1101  1  0.414870  0.679820  0.173750  1.0  0.0503
  C  C1102  1  0.432190  0.709900  0.162480  1.0  -0.0125
  C  C1103  1  0.366500  0.676700  0.130600  1.0  -0.0706
  C  C1104  1  0.383120  0.663220  0.160260  1.0  -0.025
  C  C1105  1  0.085130  0.820180  0.173750  1.0  0.0514
  C  C1106  1  0.067810  0.790100  0.162480  1.0  -0.012
  C  C1107  1  0.133500  0.823300  0.130600  1.0  -0.0705
  C  C1108  1  0.116880  0.836780  0.160260  1.0  -0.0269
  C  C1109  1  0.085130  0.320180  0.673750  1.0  0.0514
  C  C1110  1  0.067810  0.290100  0.662480  1.0  -0.012
  C  C1111  1  0.133500  0.323300  0.630600  1.0  -0.0705
  C  C1112  1  0.116880  0.336780  0.660260  1.0  -0.0269
  C  C1113  1  0.585130  0.820180  0.673750  1.0  0.0514
  C  C1114  1  0.567810  0.790100  0.662480  1.0  -0.012
  C  C1115  1  0.633500  0.823300  0.630600  1.0  -0.0705
  C  C1116  1  0.616880  0.836780  0.660260  1.0  -0.0269
  C  C1117  1  0.585130  0.320180  0.173750  1.0  0.0514
  C  C1118  1  0.567810  0.290100  0.162480  1.0  -0.012
  C  C1119  1  0.633500  0.323300  0.130600  1.0  -0.0705
  C  C1120  1  0.616880  0.336780  0.160260  1.0  -0.0269
  C  C1121  1  0.820180  0.173750  0.085130  1.0  0.0542
  C  C1122  1  0.790100  0.162480  0.067810  1.0  -0.0122
  C  C1123  1  0.823300  0.130600  0.133500  1.0  -0.0715
  C  C1124  1  0.836780  0.160260  0.116880  1.0  -0.0354
  C  C1125  1  0.820180  0.673750  0.585130  1.0  0.0542
  C  C1126  1  0.790100  0.662480  0.567810  1.0  -0.0122
  C  C1127  1  0.823300  0.630600  0.633500  1.0  -0.0715
  C  C1128  1  0.836780  0.660260  0.616880  1.0  -0.0354
  C  C1129  1  0.320180  0.173750  0.585130  1.0  0.0542
  C  C1130  1  0.290100  0.162480  0.567810  1.0  -0.0122
  C  C1131  1  0.323300  0.130600  0.633500  1.0  -0.0715
  C  C1132  1  0.336780  0.160260  0.616880  1.0  -0.0354
  C  C1133  1  0.320180  0.673750  0.085130  1.0  0.0542
  C  C1134  1  0.290100  0.662480  0.067810  1.0  -0.0122
  C  C1135  1  0.323300  0.630600  0.133500  1.0  -0.0715
  C  C1136  1  0.336780  0.660260  0.116880  1.0  -0.0354
  C  C1137  1  0.179820  0.173750  0.914870  1.0  0.0532
  C  C1138  1  0.209900  0.162480  0.932190  1.0  -0.012
  C  C1139  1  0.176700  0.130600  0.866500  1.0  -0.0713
  C  C1140  1  0.163220  0.160260  0.883120  1.0  -0.035
  C  C1141  1  0.179820  0.673750  0.414870  1.0  0.0532
  C  C1142  1  0.209900  0.662480  0.432190  1.0  -0.012
  C  C1143  1  0.176700  0.630600  0.366500  1.0  -0.0713
  C  C1144  1  0.163220  0.660260  0.383120  1.0  -0.035
  C  C1145  1  0.679820  0.173750  0.414870  1.0  0.0532
  C  C1146  1  0.709900  0.162480  0.432190  1.0  -0.012
  C  C1147  1  0.676700  0.130600  0.366500  1.0  -0.0713
  C  C1148  1  0.663220  0.160260  0.383120  1.0  -0.035
  C  C1149  1  0.679820  0.673750  0.914870  1.0  0.0532
  C  C1150  1  0.709900  0.662480  0.932190  1.0  -0.012
  C  C1151  1  0.676700  0.630600  0.866500  1.0  -0.0713
  C  C1152  1  0.663220  0.660260  0.883120  1.0  -0.035
  C  C1153  1  0.179820  0.826250  0.085130  1.0  0.0533
  C  C1154  1  0.209900  0.837520  0.067810  1.0  -0.0124
  C  C1155  1  0.176700  0.869400  0.133500  1.0  -0.0712
  C  C1156  1  0.163220  0.839740  0.116880  1.0  -0.0352
  C  C1157  1  0.179820  0.326250  0.585130  1.0  0.0533
  C  C1158  1  0.209900  0.337520  0.567810  1.0  -0.0124
  C  C1159  1  0.176700  0.369400  0.633500  1.0  -0.0712
  C  C1160  1  0.163220  0.339740  0.616880  1.0  -0.0352
  C  C1161  1  0.679820  0.826250  0.585130  1.0  0.0533
  C  C1162  1  0.709900  0.837520  0.567810  1.0  -0.0124
  C  C1163  1  0.676700  0.869400  0.633500  1.0  -0.0712
  C  C1164  1  0.663220  0.839740  0.616880  1.0  -0.0352
  C  C1165  1  0.679820  0.326250  0.085130  1.0  0.0533
  C  C1166  1  0.709900  0.337520  0.067810  1.0  -0.0124
  C  C1167  1  0.676700  0.369400  0.133500  1.0  -0.0712
  C  C1168  1  0.663220  0.339740  0.116880  1.0  -0.0352
  C  C1169  1  0.820180  0.826250  0.914870  1.0  0.0541
  C  C1170  1  0.790100  0.837520  0.932190  1.0  -0.012
  C  C1171  1  0.823300  0.869400  0.866500  1.0  -0.0716
  C  C1172  1  0.836780  0.839740  0.883120  1.0  -0.0354
  C  C1173  1  0.820180  0.326250  0.414870  1.0  0.0541
  C  C1174  1  0.790100  0.337520  0.432190  1.0  -0.012
  C  C1175  1  0.823300  0.369400  0.366500  1.0  -0.0716
  C  C1176  1  0.836780  0.339740  0.383120  1.0  -0.0354
  C  C1177  1  0.320180  0.826250  0.414870  1.0  0.0541
  C  C1178  1  0.290100  0.837520  0.432190  1.0  -0.012
  C  C1179  1  0.323300  0.869400  0.366500  1.0  -0.0716
  C  C1180  1  0.336780  0.839740  0.383120  1.0  -0.0354
  C  C1181  1  0.320180  0.326250  0.914870  1.0  0.0541
  C  C1182  1  0.290100  0.337520  0.932190  1.0  -0.012
  C  C1183  1  0.323300  0.369400  0.866500  1.0  -0.0716
  C  C1184  1  0.336780  0.339740  0.883120  1.0  -0.0354
  C  C1185  1  0.173750  0.914870  0.179820  1.0  0.0534
  C  C1186  1  0.162480  0.932190  0.209900  1.0  -0.0109
  C  C1187  1  0.130600  0.866500  0.176700  1.0  -0.0703
  C  C1188  1  0.160260  0.883120  0.163220  1.0  -0.0338
  C  C1189  1  0.173750  0.414870  0.679820  1.0  0.0534
  C  C1190  1  0.162480  0.432190  0.709900  1.0  -0.0109
  C  C1191  1  0.130600  0.366500  0.676700  1.0  -0.0703
  C  C1192  1  0.160260  0.383120  0.663220  1.0  -0.0338
  C  C1193  1  0.673750  0.914870  0.679820  1.0  0.0534
  C  C1194  1  0.662480  0.932190  0.709900  1.0  -0.0109
  C  C1195  1  0.630600  0.866500  0.676700  1.0  -0.0703
  C  C1196  1  0.660260  0.883120  0.663220  1.0  -0.0338
  C  C1197  1  0.673750  0.414870  0.179820  1.0  0.0534
  C  C1198  1  0.662480  0.432190  0.209900  1.0  -0.0109
  C  C1199  1  0.630600  0.366500  0.176700  1.0  -0.0703
  C  C1200  1  0.660260  0.383120  0.163220  1.0  -0.0338
  C  C1201  1  0.173750  0.085130  0.820180  1.0  0.0543
  C  C1202  1  0.162480  0.067810  0.790100  1.0  -0.0111
  C  C1203  1  0.130600  0.133500  0.823300  1.0  -0.0712
  C  C1204  1  0.160260  0.116880  0.836780  1.0  -0.034
  C  C1205  1  0.173750  0.585130  0.320180  1.0  0.0543
  C  C1206  1  0.162480  0.567810  0.290100  1.0  -0.0111
  C  C1207  1  0.130600  0.633500  0.323300  1.0  -0.0712
  C  C1208  1  0.160260  0.616880  0.336780  1.0  -0.034
  C  C1209  1  0.673750  0.085130  0.320180  1.0  0.0543
  C  C1210  1  0.662480  0.067810  0.290100  1.0  -0.0111
  C  C1211  1  0.630600  0.133500  0.323300  1.0  -0.0712
  C  C1212  1  0.660260  0.116880  0.336780  1.0  -0.034
  C  C1213  1  0.673750  0.585130  0.820180  1.0  0.0543
  C  C1214  1  0.662480  0.567810  0.790100  1.0  -0.0111
  C  C1215  1  0.630600  0.633500  0.823300  1.0  -0.0712
  C  C1216  1  0.660260  0.616880  0.836780  1.0  -0.034
  C  C1217  1  0.826250  0.914870  0.820180  1.0  0.0547
  C  C1218  1  0.837520  0.932190  0.790100  1.0  -0.0112
  C  C1219  1  0.869400  0.866500  0.823300  1.0  -0.0714
  C  C1220  1  0.839740  0.883120  0.836780  1.0  -0.0335
  C  C1221  1  0.826250  0.414870  0.320180  1.0  0.0547
  C  C1222  1  0.837520  0.432190  0.290100  1.0  -0.0112
  C  C1223  1  0.869400  0.366500  0.323300  1.0  -0.0714
  C  C1224  1  0.839740  0.383120  0.336780  1.0  -0.0335
  C  C1225  1  0.326250  0.914870  0.320180  1.0  0.0547
  C  C1226  1  0.337520  0.932190  0.290100  1.0  -0.0112
  C  C1227  1  0.369400  0.866500  0.323300  1.0  -0.0714
  C  C1228  1  0.339740  0.883120  0.336780  1.0  -0.0335
  C  C1229  1  0.326250  0.414870  0.820180  1.0  0.0547
  C  C1230  1  0.337520  0.432190  0.790100  1.0  -0.0112
  C  C1231  1  0.369400  0.366500  0.823300  1.0  -0.0714
  C  C1232  1  0.339740  0.383120  0.836780  1.0  -0.0335
  C  C1233  1  0.826250  0.085130  0.179820  1.0  0.0548
  C  C1234  1  0.837520  0.067810  0.209900  1.0  -0.0108
  C  C1235  1  0.869400  0.133500  0.176700  1.0  -0.0707
  C  C1236  1  0.839740  0.116880  0.163220  1.0  -0.0337
  C  C1237  1  0.826250  0.585130  0.679820  1.0  0.0548
  C  C1238  1  0.837520  0.567810  0.709900  1.0  -0.0108
  C  C1239  1  0.869400  0.633500  0.676700  1.0  -0.0707
  C  C1240  1  0.839740  0.616880  0.663220  1.0  -0.0337
  C  C1241  1  0.326250  0.085130  0.679820  1.0  0.0548
  C  C1242  1  0.337520  0.067810  0.709900  1.0  -0.0108
  C  C1243  1  0.369400  0.133500  0.676700  1.0  -0.0707
  C  C1244  1  0.339740  0.116880  0.663220  1.0  -0.0337
  C  C1245  1  0.326250  0.585130  0.179820  1.0  0.0548
  C  C1246  1  0.337520  0.567810  0.209900  1.0  -0.0108
  C  C1247  1  0.369400  0.633500  0.176700  1.0  -0.0707
  C  C1248  1  0.339740  0.616880  0.163220  1.0  -0.0337
  N  N1249  1  0.687490  0.539210  0.294070  1.0  -0.057
  N  N1250  1  0.714090  0.539550  0.317160  1.0  -0.2351
  N  N1251  1  0.666440  0.566520  0.299080  1.0  -0.2688
  N  N1252  1  0.687490  0.039210  0.794070  1.0  -0.057
  N  N1253  1  0.714090  0.039550  0.817160  1.0  -0.2351
  N  N1254  1  0.666440  0.066520  0.799080  1.0  -0.2688
  N  N1255  1  0.187490  0.539210  0.794070  1.0  -0.057
  N  N1256  1  0.214090  0.539550  0.817160  1.0  -0.2351
  N  N1257  1  0.166440  0.566520  0.799080  1.0  -0.2688
  N  N1258  1  0.187490  0.039210  0.294070  1.0  -0.057
  N  N1259  1  0.214090  0.039550  0.317160  1.0  -0.2351
  N  N1260  1  0.166440  0.066520  0.299080  1.0  -0.2688
  N  N1261  1  0.312510  0.460790  0.294070  1.0  -0.0576
  N  N1262  1  0.285910  0.460450  0.317160  1.0  -0.2376
  N  N1263  1  0.333560  0.433480  0.299080  1.0  -0.2703
  N  N1264  1  0.312510  0.960790  0.794070  1.0  -0.0576
  N  N1265  1  0.285910  0.960450  0.817160  1.0  -0.2376
  N  N1266  1  0.333560  0.933480  0.799080  1.0  -0.2703
  N  N1267  1  0.812510  0.460790  0.794070  1.0  -0.0576
  N  N1268  1  0.785910  0.460450  0.817160  1.0  -0.2376
  N  N1269  1  0.833560  0.433480  0.799080  1.0  -0.2703
  N  N1270  1  0.812510  0.960790  0.294070  1.0  -0.0576
  N  N1271  1  0.785910  0.960450  0.317160  1.0  -0.2376
  N  N1272  1  0.833560  0.933480  0.299080  1.0  -0.2703
  N  N1273  1  0.312510  0.539210  0.705930  1.0  -0.0578
  N  N1274  1  0.285910  0.539550  0.682840  1.0  -0.2375
  N  N1275  1  0.333560  0.566520  0.700920  1.0  -0.2697
  N  N1276  1  0.312510  0.039210  0.205930  1.0  -0.0578
  N  N1277  1  0.285910  0.039550  0.182840  1.0  -0.2375
  N  N1278  1  0.333560  0.066520  0.200920  1.0  -0.2697
  N  N1279  1  0.812510  0.539210  0.205930  1.0  -0.0578
  N  N1280  1  0.785910  0.539550  0.182840  1.0  -0.2375
  N  N1281  1  0.833560  0.566520  0.200920  1.0  -0.2697
  N  N1282  1  0.812510  0.039210  0.705930  1.0  -0.0578
  N  N1283  1  0.785910  0.039550  0.682840  1.0  -0.2375
  N  N1284  1  0.833560  0.066520  0.700920  1.0  -0.2697
  N  N1285  1  0.687490  0.460790  0.705930  1.0  -0.0565
  N  N1286  1  0.714090  0.460450  0.682840  1.0  -0.2362
  N  N1287  1  0.666440  0.433480  0.700920  1.0  -0.2695
  N  N1288  1  0.687490  0.960790  0.205930  1.0  -0.0565
  N  N1289  1  0.714090  0.960450  0.182840  1.0  -0.2362
  N  N1290  1  0.666440  0.933480  0.200920  1.0  -0.2695
  N  N1291  1  0.187490  0.460790  0.205930  1.0  -0.0565
  N  N1292  1  0.214090  0.460450  0.182840  1.0  -0.2362
  N  N1293  1  0.166440  0.433480  0.200920  1.0  -0.2695
  N  N1294  1  0.187490  0.960790  0.705930  1.0  -0.0565
  N  N1295  1  0.214090  0.960450  0.682840  1.0  -0.2362
  N  N1296  1  0.166440  0.933480  0.700920  1.0  -0.2695
  N  N1297  1  0.294070  0.687490  0.539210  1.0  -0.0589
  N  N1298  1  0.317160  0.714090  0.539550  1.0  -0.2363
  N  N1299  1  0.299080  0.666440  0.566520  1.0  -0.2658
  N  N1300  1  0.294070  0.187490  0.039210  1.0  -0.0589
  N  N1301  1  0.317160  0.214090  0.039550  1.0  -0.2363
  N  N1302  1  0.299080  0.166440  0.066520  1.0  -0.2658
  N  N1303  1  0.794070  0.687490  0.039210  1.0  -0.0589
  N  N1304  1  0.817160  0.714090  0.039550  1.0  -0.2363
  N  N1305  1  0.799080  0.666440  0.066520  1.0  -0.2658
  N  N1306  1  0.794070  0.187490  0.539210  1.0  -0.0589
  N  N1307  1  0.817160  0.214090  0.539550  1.0  -0.2363
  N  N1308  1  0.799080  0.166440  0.566520  1.0  -0.2658
  N  N1309  1  0.294070  0.312510  0.460790  1.0  -0.0573
  N  N1310  1  0.317160  0.285910  0.460450  1.0  -0.237
  N  N1311  1  0.299080  0.333560  0.433480  1.0  -0.2647
  N  N1312  1  0.294070  0.812510  0.960790  1.0  -0.0573
  N  N1313  1  0.317160  0.785910  0.960450  1.0  -0.237
  N  N1314  1  0.299080  0.833560  0.933480  1.0  -0.2647
  N  N1315  1  0.794070  0.312510  0.960790  1.0  -0.0573
  N  N1316  1  0.817160  0.285910  0.960450  1.0  -0.237
  N  N1317  1  0.799080  0.333560  0.933480  1.0  -0.2647
  N  N1318  1  0.794070  0.812510  0.460790  1.0  -0.0573
  N  N1319  1  0.817160  0.785910  0.460450  1.0  -0.237
  N  N1320  1  0.799080  0.833560  0.433480  1.0  -0.2647
  N  N1321  1  0.705930  0.312510  0.539210  1.0  -0.0574
  N  N1322  1  0.682840  0.285910  0.539550  1.0  -0.2369
  N  N1323  1  0.700920  0.333560  0.566520  1.0  -0.2647
  N  N1324  1  0.705930  0.812510  0.039210  1.0  -0.0574
  N  N1325  1  0.682840  0.785910  0.039550  1.0  -0.2369
  N  N1326  1  0.700920  0.833560  0.066520  1.0  -0.2647
  N  N1327  1  0.205930  0.312510  0.039210  1.0  -0.0574
  N  N1328  1  0.182840  0.285910  0.039550  1.0  -0.2369
  N  N1329  1  0.200920  0.333560  0.066520  1.0  -0.2647
  N  N1330  1  0.205930  0.812510  0.539210  1.0  -0.0574
  N  N1331  1  0.182840  0.785910  0.539550  1.0  -0.2369
  N  N1332  1  0.200920  0.833560  0.566520  1.0  -0.2647
  N  N1333  1  0.705930  0.687490  0.460790  1.0  -0.0581
  N  N1334  1  0.682840  0.714090  0.460450  1.0  -0.2362
  N  N1335  1  0.700920  0.666440  0.433480  1.0  -0.2649
  N  N1336  1  0.705930  0.187490  0.960790  1.0  -0.0581
  N  N1337  1  0.682840  0.214090  0.960450  1.0  -0.2362
  N  N1338  1  0.700920  0.166440  0.933480  1.0  -0.2649
  N  N1339  1  0.205930  0.687490  0.960790  1.0  -0.0581
  N  N1340  1  0.182840  0.714090  0.960450  1.0  -0.2362
  N  N1341  1  0.200920  0.666440  0.933480  1.0  -0.2649
  N  N1342  1  0.205930  0.187490  0.460790  1.0  -0.0581
  N  N1343  1  0.182840  0.214090  0.460450  1.0  -0.2362
  N  N1344  1  0.200920  0.166440  0.433480  1.0  -0.2649
  N  N1345  1  0.539210  0.294070  0.687490  1.0  -0.0576
  N  N1346  1  0.539550  0.317160  0.714090  1.0  -0.2371
  N  N1347  1  0.566520  0.299080  0.666440  1.0  -0.267
  N  N1348  1  0.539210  0.794070  0.187490  1.0  -0.0576
  N  N1349  1  0.539550  0.817160  0.214090  1.0  -0.2371
  N  N1350  1  0.566520  0.799080  0.166440  1.0  -0.267
  N  N1351  1  0.039210  0.294070  0.187490  1.0  -0.0576
  N  N1352  1  0.039550  0.317160  0.214090  1.0  -0.2371
  N  N1353  1  0.066520  0.299080  0.166440  1.0  -0.267
  N  N1354  1  0.039210  0.794070  0.687490  1.0  -0.0576
  N  N1355  1  0.039550  0.817160  0.714090  1.0  -0.2371
  N  N1356  1  0.066520  0.799080  0.666440  1.0  -0.267
  N  N1357  1  0.460790  0.294070  0.312510  1.0  -0.057
  N  N1358  1  0.460450  0.317160  0.285910  1.0  -0.2343
  N  N1359  1  0.433480  0.299080  0.333560  1.0  -0.2656
  N  N1360  1  0.460790  0.794070  0.812510  1.0  -0.057
  N  N1361  1  0.460450  0.817160  0.785910  1.0  -0.2343
  N  N1362  1  0.433480  0.799080  0.833560  1.0  -0.2656
  N  N1363  1  0.960790  0.294070  0.812510  1.0  -0.057
  N  N1364  1  0.960450  0.317160  0.785910  1.0  -0.2343
  N  N1365  1  0.933480  0.299080  0.833560  1.0  -0.2656
  N  N1366  1  0.960790  0.794070  0.312510  1.0  -0.057
  N  N1367  1  0.960450  0.817160  0.285910  1.0  -0.2343
  N  N1368  1  0.933480  0.799080  0.333560  1.0  -0.2656
  N  N1369  1  0.539210  0.705930  0.312510  1.0  -0.0574
  N  N1370  1  0.539550  0.682840  0.285910  1.0  -0.2359
  N  N1371  1  0.566520  0.700920  0.333560  1.0  -0.2656
  N  N1372  1  0.539210  0.205930  0.812510  1.0  -0.0574
  N  N1373  1  0.539550  0.182840  0.785910  1.0  -0.2359
  N  N1374  1  0.566520  0.200920  0.833560  1.0  -0.2656
  N  N1375  1  0.039210  0.705930  0.812510  1.0  -0.0574
  N  N1376  1  0.039550  0.682840  0.785910  1.0  -0.2359
  N  N1377  1  0.066520  0.700920  0.833560  1.0  -0.2656
  N  N1378  1  0.039210  0.205930  0.312510  1.0  -0.0574
  N  N1379  1  0.039550  0.182840  0.285910  1.0  -0.2359
  N  N1380  1  0.066520  0.200920  0.333560  1.0  -0.2656
  N  N1381  1  0.460790  0.705930  0.687490  1.0  -0.0578
  N  N1382  1  0.460450  0.682840  0.714090  1.0  -0.2341
  N  N1383  1  0.433480  0.700920  0.666440  1.0  -0.2663
  N  N1384  1  0.460790  0.205930  0.187490  1.0  -0.0578
  N  N1385  1  0.460450  0.182840  0.214090  1.0  -0.2341
  N  N1386  1  0.433480  0.200920  0.166440  1.0  -0.2663
  N  N1387  1  0.960790  0.705930  0.187490  1.0  -0.0578
  N  N1388  1  0.960450  0.682840  0.214090  1.0  -0.2341
  N  N1389  1  0.933480  0.700920  0.166440  1.0  -0.2663
  N  N1390  1  0.960790  0.205930  0.687490  1.0  -0.0578
  N  N1391  1  0.960450  0.182840  0.714090  1.0  -0.2341
  N  N1392  1  0.933480  0.200920  0.666440  1.0  -0.2663
  N  N1393  1  0.039210  0.187490  0.205930  1.0  -0.059
  N  N1394  1  0.039550  0.214090  0.182840  1.0  -0.2366
  N  N1395  1  0.066520  0.166440  0.200920  1.0  -0.2714
  N  N1396  1  0.039210  0.687490  0.705930  1.0  -0.059
  N  N1397  1  0.039550  0.714090  0.682840  1.0  -0.2366
  N  N1398  1  0.066520  0.666440  0.700920  1.0  -0.2714
  N  N1399  1  0.539210  0.187490  0.705930  1.0  -0.059
  N  N1400  1  0.539550  0.214090  0.682840  1.0  -0.2366
  N  N1401  1  0.566520  0.166440  0.700920  1.0  -0.2714
  N  N1402  1  0.539210  0.687490  0.205930  1.0  -0.059
  N  N1403  1  0.539550  0.714090  0.182840  1.0  -0.2366
  N  N1404  1  0.566520  0.666440  0.200920  1.0  -0.2714
  N  N1405  1  0.960790  0.812510  0.205930  1.0  -0.0573
  N  N1406  1  0.960450  0.785910  0.182840  1.0  -0.2348
  N  N1407  1  0.933480  0.833560  0.200920  1.0  -0.2699
  N  N1408  1  0.960790  0.312510  0.705930  1.0  -0.0573
  N  N1409  1  0.960450  0.285910  0.682840  1.0  -0.2348
  N  N1410  1  0.933480  0.333560  0.700920  1.0  -0.2699
  N  N1411  1  0.460790  0.812510  0.705930  1.0  -0.0573
  N  N1412  1  0.460450  0.785910  0.682840  1.0  -0.2348
  N  N1413  1  0.433480  0.833560  0.700920  1.0  -0.2699
  N  N1414  1  0.460790  0.312510  0.205930  1.0  -0.0573
  N  N1415  1  0.460450  0.285910  0.182840  1.0  -0.2348
  N  N1416  1  0.433480  0.333560  0.200920  1.0  -0.2699
  N  N1417  1  0.039210  0.812510  0.794070  1.0  -0.0572
  N  N1418  1  0.039550  0.785910  0.817160  1.0  -0.2367
  N  N1419  1  0.066520  0.833560  0.799080  1.0  -0.2709
  N  N1420  1  0.039210  0.312510  0.294070  1.0  -0.0572
  N  N1421  1  0.039550  0.285910  0.317160  1.0  -0.2367
  N  N1422  1  0.066520  0.333560  0.299080  1.0  -0.2709
  N  N1423  1  0.539210  0.812510  0.294070  1.0  -0.0572
  N  N1424  1  0.539550  0.785910  0.317160  1.0  -0.2367
  N  N1425  1  0.566520  0.833560  0.299080  1.0  -0.2709
  N  N1426  1  0.539210  0.312510  0.794070  1.0  -0.0572
  N  N1427  1  0.539550  0.285910  0.817160  1.0  -0.2367
  N  N1428  1  0.566520  0.333560  0.799080  1.0  -0.2709
  N  N1429  1  0.960790  0.187490  0.794070  1.0  -0.059
  N  N1430  1  0.960450  0.214090  0.817160  1.0  -0.2338
  N  N1431  1  0.933480  0.166440  0.799080  1.0  -0.2712
  N  N1432  1  0.960790  0.687490  0.294070  1.0  -0.059
  N  N1433  1  0.960450  0.714090  0.317160  1.0  -0.2338
  N  N1434  1  0.933480  0.666440  0.299080  1.0  -0.2712
  N  N1435  1  0.460790  0.187490  0.294070  1.0  -0.059
  N  N1436  1  0.460450  0.214090  0.317160  1.0  -0.2338
  N  N1437  1  0.433480  0.166440  0.299080  1.0  -0.2712
  N  N1438  1  0.460790  0.687490  0.794070  1.0  -0.059
  N  N1439  1  0.460450  0.714090  0.817160  1.0  -0.2338
  N  N1440  1  0.433480  0.666440  0.799080  1.0  -0.2712
  N  N1441  1  0.187490  0.794070  0.960790  1.0  -0.0562
  N  N1442  1  0.214090  0.817160  0.960450  1.0  -0.2352
  N  N1443  1  0.166440  0.799080  0.933480  1.0  -0.2704
  N  N1444  1  0.187490  0.294070  0.460790  1.0  -0.0562
  N  N1445  1  0.214090  0.317160  0.460450  1.0  -0.2352
  N  N1446  1  0.166440  0.299080  0.433480  1.0  -0.2704
  N  N1447  1  0.687490  0.794070  0.460790  1.0  -0.0562
  N  N1448  1  0.714090  0.817160  0.460450  1.0  -0.2352
  N  N1449  1  0.666440  0.799080  0.433480  1.0  -0.2704
  N  N1450  1  0.687490  0.294070  0.960790  1.0  -0.0562
  N  N1451  1  0.714090  0.317160  0.960450  1.0  -0.2352
  N  N1452  1  0.666440  0.299080  0.933480  1.0  -0.2704
  N  N1453  1  0.812510  0.794070  0.039210  1.0  -0.0572
  N  N1454  1  0.785910  0.817160  0.039550  1.0  -0.237
  N  N1455  1  0.833560  0.799080  0.066520  1.0  -0.2704
  N  N1456  1  0.812510  0.294070  0.539210  1.0  -0.0572
  N  N1457  1  0.785910  0.317160  0.539550  1.0  -0.237
  N  N1458  1  0.833560  0.299080  0.566520  1.0  -0.2704
  N  N1459  1  0.312510  0.794070  0.539210  1.0  -0.0572
  N  N1460  1  0.285910  0.817160  0.539550  1.0  -0.237
  N  N1461  1  0.333560  0.799080  0.566520  1.0  -0.2704
  N  N1462  1  0.312510  0.294070  0.039210  1.0  -0.0572
  N  N1463  1  0.285910  0.317160  0.039550  1.0  -0.237
  N  N1464  1  0.333560  0.299080  0.066520  1.0  -0.2704
  N  N1465  1  0.812510  0.205930  0.960790  1.0  -0.0568
  N  N1466  1  0.785910  0.182840  0.960450  1.0  -0.2375
  N  N1467  1  0.833560  0.200920  0.933480  1.0  -0.2701
  N  N1468  1  0.812510  0.705930  0.460790  1.0  -0.0568
  N  N1469  1  0.785910  0.682840  0.460450  1.0  -0.2375
  N  N1470  1  0.833560  0.700920  0.433480  1.0  -0.2701
  N  N1471  1  0.312510  0.205930  0.460790  1.0  -0.0568
  N  N1472  1  0.285910  0.182840  0.460450  1.0  -0.2375
  N  N1473  1  0.333560  0.200920  0.433480  1.0  -0.2701
  N  N1474  1  0.312510  0.705930  0.960790  1.0  -0.0568
  N  N1475  1  0.285910  0.682840  0.960450  1.0  -0.2375
  N  N1476  1  0.333560  0.700920  0.933480  1.0  -0.2701
  N  N1477  1  0.187490  0.205930  0.039210  1.0  -0.0563
  N  N1478  1  0.214090  0.182840  0.039550  1.0  -0.2352
  N  N1479  1  0.166440  0.200920  0.066520  1.0  -0.2697
  N  N1480  1  0.187490  0.705930  0.539210  1.0  -0.0563
  N  N1481  1  0.214090  0.682840  0.539550  1.0  -0.2352
  N  N1482  1  0.166440  0.700920  0.566520  1.0  -0.2697
  N  N1483  1  0.687490  0.205930  0.539210  1.0  -0.0563
  N  N1484  1  0.714090  0.182840  0.539550  1.0  -0.2352
  N  N1485  1  0.666440  0.200920  0.566520  1.0  -0.2697
  N  N1486  1  0.687490  0.705930  0.039210  1.0  -0.0563
  N  N1487  1  0.714090  0.682840  0.039550  1.0  -0.2352
  N  N1488  1  0.666440  0.700920  0.066520  1.0  -0.2697
  N  N1489  1  0.794070  0.039210  0.812510  1.0  -0.0573
  N  N1490  1  0.817160  0.039550  0.785910  1.0  -0.2364
  N  N1491  1  0.799080  0.066520  0.833560  1.0  -0.2662
  N  N1492  1  0.794070  0.539210  0.312510  1.0  -0.0573
  N  N1493  1  0.817160  0.539550  0.285910  1.0  -0.2364
  N  N1494  1  0.799080  0.566520  0.333560  1.0  -0.2662
  N  N1495  1  0.294070  0.039210  0.312510  1.0  -0.0573
  N  N1496  1  0.317160  0.039550  0.285910  1.0  -0.2364
  N  N1497  1  0.299080  0.066520  0.333560  1.0  -0.2662
  N  N1498  1  0.294070  0.539210  0.812510  1.0  -0.0573
  N  N1499  1  0.317160  0.539550  0.785910  1.0  -0.2364
  N  N1500  1  0.299080  0.566520  0.833560  1.0  -0.2662
  N  N1501  1  0.794070  0.960790  0.187490  1.0  -0.0577
  N  N1502  1  0.817160  0.960450  0.214090  1.0  -0.2374
  N  N1503  1  0.799080  0.933480  0.166440  1.0  -0.2674
  N  N1504  1  0.794070  0.460790  0.687490  1.0  -0.0577
  N  N1505  1  0.817160  0.460450  0.714090  1.0  -0.2374
  N  N1506  1  0.799080  0.433480  0.666440  1.0  -0.2674
  N  N1507  1  0.294070  0.960790  0.687490  1.0  -0.0577
  N  N1508  1  0.317160  0.960450  0.714090  1.0  -0.2374
  N  N1509  1  0.299080  0.933480  0.666440  1.0  -0.2674
  N  N1510  1  0.294070  0.460790  0.187490  1.0  -0.0577
  N  N1511  1  0.317160  0.460450  0.214090  1.0  -0.2374
  N  N1512  1  0.299080  0.433480  0.166440  1.0  -0.2674
  N  N1513  1  0.205930  0.039210  0.187490  1.0  -0.0585
  N  N1514  1  0.182840  0.039550  0.214090  1.0  -0.2375
  N  N1515  1  0.200920  0.066520  0.166440  1.0  -0.2678
  N  N1516  1  0.205930  0.539210  0.687490  1.0  -0.0585
  N  N1517  1  0.182840  0.539550  0.714090  1.0  -0.2375
  N  N1518  1  0.200920  0.566520  0.666440  1.0  -0.2678
  N  N1519  1  0.705930  0.039210  0.687490  1.0  -0.0585
  N  N1520  1  0.682840  0.039550  0.714090  1.0  -0.2375
  N  N1521  1  0.700920  0.066520  0.666440  1.0  -0.2678
  N  N1522  1  0.705930  0.539210  0.187490  1.0  -0.0585
  N  N1523  1  0.682840  0.539550  0.214090  1.0  -0.2375
  N  N1524  1  0.700920  0.566520  0.166440  1.0  -0.2678
  N  N1525  1  0.205930  0.960790  0.812510  1.0  -0.058
  N  N1526  1  0.182840  0.960450  0.785910  1.0  -0.2373
  N  N1527  1  0.200920  0.933480  0.833560  1.0  -0.2658
  N  N1528  1  0.205930  0.460790  0.312510  1.0  -0.058
  N  N1529  1  0.182840  0.460450  0.285910  1.0  -0.2373
  N  N1530  1  0.200920  0.433480  0.333560  1.0  -0.2658
  N  N1531  1  0.705930  0.960790  0.312510  1.0  -0.058
  N  N1532  1  0.682840  0.960450  0.285910  1.0  -0.2373
  N  N1533  1  0.700920  0.933480  0.333560  1.0  -0.2658
  N  N1534  1  0.705930  0.460790  0.812510  1.0  -0.058
  N  N1535  1  0.682840  0.460450  0.785910  1.0  -0.2373
  N  N1536  1  0.700920  0.433480  0.833560  1.0  -0.2658
  N  N1537  1  0.312510  0.460790  0.705930  1.0  -0.0574
  N  N1538  1  0.285910  0.460450  0.682840  1.0  -0.2382
  N  N1539  1  0.333560  0.433480  0.700920  1.0  -0.2699
  N  N1540  1  0.312510  0.960790  0.205930  1.0  -0.0574
  N  N1541  1  0.285910  0.960450  0.182840  1.0  -0.2382
  N  N1542  1  0.333560  0.933480  0.200920  1.0  -0.2699
  N  N1543  1  0.812510  0.460790  0.205930  1.0  -0.0574
  N  N1544  1  0.785910  0.460450  0.182840  1.0  -0.2382
  N  N1545  1  0.833560  0.433480  0.200920  1.0  -0.2699
  N  N1546  1  0.812510  0.960790  0.705930  1.0  -0.0574
  N  N1547  1  0.785910  0.960450  0.682840  1.0  -0.2382
  N  N1548  1  0.833560  0.933480  0.700920  1.0  -0.2699
  N  N1549  1  0.687490  0.539210  0.705930  1.0  -0.0568
  N  N1550  1  0.714090  0.539550  0.682840  1.0  -0.2355
  N  N1551  1  0.666440  0.566520  0.700920  1.0  -0.2693
  N  N1552  1  0.687490  0.039210  0.205930  1.0  -0.0568
  N  N1553  1  0.714090  0.039550  0.182840  1.0  -0.2355
  N  N1554  1  0.666440  0.066520  0.200920  1.0  -0.2693
  N  N1555  1  0.187490  0.539210  0.205930  1.0  -0.0568
  N  N1556  1  0.214090  0.539550  0.182840  1.0  -0.2355
  N  N1557  1  0.166440  0.566520  0.200920  1.0  -0.2693
  N  N1558  1  0.187490  0.039210  0.705930  1.0  -0.0568
  N  N1559  1  0.214090  0.039550  0.682840  1.0  -0.2355
  N  N1560  1  0.166440  0.066520  0.700920  1.0  -0.2693
  N  N1561  1  0.687490  0.460790  0.294070  1.0  -0.0565
  N  N1562  1  0.714090  0.460450  0.317160  1.0  -0.2355
  N  N1563  1  0.666440  0.433480  0.299080  1.0  -0.269
  N  N1564  1  0.687490  0.960790  0.794070  1.0  -0.0565
  N  N1565  1  0.714090  0.960450  0.817160  1.0  -0.2355
  N  N1566  1  0.666440  0.933480  0.799080  1.0  -0.269
  N  N1567  1  0.187490  0.460790  0.794070  1.0  -0.0565
  N  N1568  1  0.214090  0.460450  0.817160  1.0  -0.2355
  N  N1569  1  0.166440  0.433480  0.799080  1.0  -0.269
  N  N1570  1  0.187490  0.960790  0.294070  1.0  -0.0565
  N  N1571  1  0.214090  0.960450  0.317160  1.0  -0.2355
  N  N1572  1  0.166440  0.933480  0.299080  1.0  -0.269
  N  N1573  1  0.312510  0.539210  0.294070  1.0  -0.058
  N  N1574  1  0.285910  0.539550  0.317160  1.0  -0.2372
  N  N1575  1  0.333560  0.566520  0.299080  1.0  -0.2705
  N  N1576  1  0.312510  0.039210  0.794070  1.0  -0.058
  N  N1577  1  0.285910  0.039550  0.817160  1.0  -0.2372
  N  N1578  1  0.333560  0.066520  0.799080  1.0  -0.2705
  N  N1579  1  0.812510  0.539210  0.794070  1.0  -0.058
  N  N1580  1  0.785910  0.539550  0.817160  1.0  -0.2372
  N  N1581  1  0.833560  0.566520  0.799080  1.0  -0.2705
  N  N1582  1  0.812510  0.039210  0.294070  1.0  -0.058
  N  N1583  1  0.785910  0.039550  0.317160  1.0  -0.2372
  N  N1584  1  0.833560  0.066520  0.299080  1.0  -0.2705
  N  N1585  1  0.705930  0.312510  0.460790  1.0  -0.0573
  N  N1586  1  0.682840  0.285910  0.460450  1.0  -0.2369
  N  N1587  1  0.700920  0.333560  0.433480  1.0  -0.2647
  N  N1588  1  0.705930  0.812510  0.960790  1.0  -0.0573
  N  N1589  1  0.682840  0.785910  0.960450  1.0  -0.2369
  N  N1590  1  0.700920  0.833560  0.933480  1.0  -0.2647
  N  N1591  1  0.205930  0.312510  0.960790  1.0  -0.0573
  N  N1592  1  0.182840  0.285910  0.960450  1.0  -0.2369
  N  N1593  1  0.200920  0.333560  0.933480  1.0  -0.2647
  N  N1594  1  0.205930  0.812510  0.460790  1.0  -0.0573
  N  N1595  1  0.182840  0.785910  0.460450  1.0  -0.2369
  N  N1596  1  0.200920  0.833560  0.433480  1.0  -0.2647
  N  N1597  1  0.705930  0.687490  0.539210  1.0  -0.059
  N  N1598  1  0.682840  0.714090  0.539550  1.0  -0.2362
  N  N1599  1  0.700920  0.666440  0.566520  1.0  -0.2654
  N  N1600  1  0.705930  0.187490  0.039210  1.0  -0.059
  N  N1601  1  0.682840  0.214090  0.039550  1.0  -0.2362
  N  N1602  1  0.700920  0.166440  0.066520  1.0  -0.2654
  N  N1603  1  0.205930  0.687490  0.039210  1.0  -0.059
  N  N1604  1  0.182840  0.714090  0.039550  1.0  -0.2362
  N  N1605  1  0.200920  0.666440  0.066520  1.0  -0.2654
  N  N1606  1  0.205930  0.187490  0.539210  1.0  -0.059
  N  N1607  1  0.182840  0.214090  0.539550  1.0  -0.2362
  N  N1608  1  0.200920  0.166440  0.566520  1.0  -0.2654
  N  N1609  1  0.294070  0.687490  0.460790  1.0  -0.0583
  N  N1610  1  0.317160  0.714090  0.460450  1.0  -0.2365
  N  N1611  1  0.299080  0.666440  0.433480  1.0  -0.2654
  N  N1612  1  0.294070  0.187490  0.960790  1.0  -0.0583
  N  N1613  1  0.317160  0.214090  0.960450  1.0  -0.2365
  N  N1614  1  0.299080  0.166440  0.933480  1.0  -0.2654
  N  N1615  1  0.794070  0.687490  0.960790  1.0  -0.0583
  N  N1616  1  0.817160  0.714090  0.960450  1.0  -0.2365
  N  N1617  1  0.799080  0.666440  0.933480  1.0  -0.2654
  N  N1618  1  0.794070  0.187490  0.460790  1.0  -0.0583
  N  N1619  1  0.817160  0.214090  0.460450  1.0  -0.2365
  N  N1620  1  0.799080  0.166440  0.433480  1.0  -0.2654
  N  N1621  1  0.294070  0.312510  0.539210  1.0  -0.0568
  N  N1622  1  0.317160  0.285910  0.539550  1.0  -0.2369
  N  N1623  1  0.299080  0.333560  0.566520  1.0  -0.2648
  N  N1624  1  0.294070  0.812510  0.039210  1.0  -0.0568
  N  N1625  1  0.317160  0.785910  0.039550  1.0  -0.2369
  N  N1626  1  0.299080  0.833560  0.066520  1.0  -0.2648
  N  N1627  1  0.794070  0.312510  0.039210  1.0  -0.0568
  N  N1628  1  0.817160  0.285910  0.039550  1.0  -0.2369
  N  N1629  1  0.799080  0.333560  0.066520  1.0  -0.2648
  N  N1630  1  0.794070  0.812510  0.539210  1.0  -0.0568
  N  N1631  1  0.817160  0.785910  0.539550  1.0  -0.2369
  N  N1632  1  0.799080  0.833560  0.566520  1.0  -0.2648
  N  N1633  1  0.460790  0.705930  0.312510  1.0  -0.0574
  N  N1634  1  0.460450  0.682840  0.285910  1.0  -0.2341
  N  N1635  1  0.433480  0.700920  0.333560  1.0  -0.2649
  N  N1636  1  0.460790  0.205930  0.812510  1.0  -0.0574
  N  N1637  1  0.460450  0.182840  0.785910  1.0  -0.2341
  N  N1638  1  0.433480  0.200920  0.833560  1.0  -0.2649
  N  N1639  1  0.960790  0.705930  0.812510  1.0  -0.0574
  N  N1640  1  0.960450  0.682840  0.785910  1.0  -0.2341
  N  N1641  1  0.933480  0.700920  0.833560  1.0  -0.2649
  N  N1642  1  0.960790  0.205930  0.312510  1.0  -0.0574
  N  N1643  1  0.960450  0.182840  0.285910  1.0  -0.2341
  N  N1644  1  0.933480  0.200920  0.333560  1.0  -0.2649
  N  N1645  1  0.539210  0.705930  0.687490  1.0  -0.0577
  N  N1646  1  0.539550  0.682840  0.714090  1.0  -0.2371
  N  N1647  1  0.566520  0.700920  0.666440  1.0  -0.2664
  N  N1648  1  0.539210  0.205930  0.187490  1.0  -0.0577
  N  N1649  1  0.539550  0.182840  0.214090  1.0  -0.2371
  N  N1650  1  0.566520  0.200920  0.166440  1.0  -0.2664
  N  N1651  1  0.039210  0.705930  0.187490  1.0  -0.0577
  N  N1652  1  0.039550  0.682840  0.214090  1.0  -0.2371
  N  N1653  1  0.066520  0.700920  0.166440  1.0  -0.2664
  N  N1654  1  0.039210  0.205930  0.687490  1.0  -0.0577
  N  N1655  1  0.039550  0.182840  0.714090  1.0  -0.2371
  N  N1656  1  0.066520  0.200920  0.666440  1.0  -0.2664
  N  N1657  1  0.460790  0.294070  0.687490  1.0  -0.0575
  N  N1658  1  0.460450  0.317160  0.714090  1.0  -0.2344
  N  N1659  1  0.433480  0.299080  0.666440  1.0  -0.2671
  N  N1660  1  0.460790  0.794070  0.187490  1.0  -0.0575
  N  N1661  1  0.460450  0.817160  0.214090  1.0  -0.2344
  N  N1662  1  0.433480  0.799080  0.166440  1.0  -0.2671
  N  N1663  1  0.960790  0.294070  0.187490  1.0  -0.0575
  N  N1664  1  0.960450  0.317160  0.214090  1.0  -0.2344
  N  N1665  1  0.933480  0.299080  0.166440  1.0  -0.2671
  N  N1666  1  0.960790  0.794070  0.687490  1.0  -0.0575
  N  N1667  1  0.960450  0.817160  0.714090  1.0  -0.2344
  N  N1668  1  0.933480  0.799080  0.666440  1.0  -0.2671
  N  N1669  1  0.539210  0.294070  0.312510  1.0  -0.0574
  N  N1670  1  0.539550  0.317160  0.285910  1.0  -0.2358
  N  N1671  1  0.566520  0.299080  0.333560  1.0  -0.2664
  N  N1672  1  0.539210  0.794070  0.812510  1.0  -0.0574
  N  N1673  1  0.539550  0.817160  0.785910  1.0  -0.2358
  N  N1674  1  0.566520  0.799080  0.833560  1.0  -0.2664
  N  N1675  1  0.039210  0.294070  0.812510  1.0  -0.0574
  N  N1676  1  0.039550  0.317160  0.785910  1.0  -0.2358
  N  N1677  1  0.066520  0.299080  0.833560  1.0  -0.2664
  N  N1678  1  0.039210  0.794070  0.312510  1.0  -0.0574
  N  N1679  1  0.039550  0.817160  0.285910  1.0  -0.2358
  N  N1680  1  0.066520  0.799080  0.333560  1.0  -0.2664
  N  N1681  1  0.960790  0.812510  0.794070  1.0  -0.0573
  N  N1682  1  0.960450  0.785910  0.817160  1.0  -0.234
  N  N1683  1  0.933480  0.833560  0.799080  1.0  -0.2709
  N  N1684  1  0.960790  0.312510  0.294070  1.0  -0.0573
  N  N1685  1  0.960450  0.285910  0.317160  1.0  -0.234
  N  N1686  1  0.933480  0.333560  0.299080  1.0  -0.2709
  N  N1687  1  0.460790  0.812510  0.294070  1.0  -0.0573
  N  N1688  1  0.460450  0.785910  0.317160  1.0  -0.234
  N  N1689  1  0.433480  0.833560  0.299080  1.0  -0.2709
  N  N1690  1  0.460790  0.312510  0.794070  1.0  -0.0573
  N  N1691  1  0.460450  0.285910  0.817160  1.0  -0.234
  N  N1692  1  0.433480  0.333560  0.799080  1.0  -0.2709
  N  N1693  1  0.039210  0.187490  0.794070  1.0  -0.059
  N  N1694  1  0.039550  0.214090  0.817160  1.0  -0.2363
  N  N1695  1  0.066520  0.166440  0.799080  1.0  -0.2709
  N  N1696  1  0.039210  0.687490  0.294070  1.0  -0.059
  N  N1697  1  0.039550  0.714090  0.317160  1.0  -0.2363
  N  N1698  1  0.066520  0.666440  0.299080  1.0  -0.2709
  N  N1699  1  0.539210  0.187490  0.294070  1.0  -0.059
  N  N1700  1  0.539550  0.214090  0.317160  1.0  -0.2363
  N  N1701  1  0.566520  0.166440  0.299080  1.0  -0.2709
  N  N1702  1  0.539210  0.687490  0.794070  1.0  -0.059
  N  N1703  1  0.539550  0.714090  0.817160  1.0  -0.2363
  N  N1704  1  0.566520  0.666440  0.799080  1.0  -0.2709
  N  N1705  1  0.960790  0.187490  0.205930  1.0  -0.0585
  N  N1706  1  0.960450  0.214090  0.182840  1.0  -0.2344
  N  N1707  1  0.933480  0.166440  0.200920  1.0  -0.2713
  N  N1708  1  0.960790  0.687490  0.705930  1.0  -0.0585
  N  N1709  1  0.960450  0.714090  0.682840  1.0  -0.2344
  N  N1710  1  0.933480  0.666440  0.700920  1.0  -0.2713
  N  N1711  1  0.460790  0.187490  0.705930  1.0  -0.0585
  N  N1712  1  0.460450  0.214090  0.682840  1.0  -0.2344
  N  N1713  1  0.433480  0.166440  0.700920  1.0  -0.2713
  N  N1714  1  0.460790  0.687490  0.205930  1.0  -0.0585
  N  N1715  1  0.460450  0.714090  0.182840  1.0  -0.2344
  N  N1716  1  0.433480  0.666440  0.200920  1.0  -0.2713
  N  N1717  1  0.039210  0.812510  0.205930  1.0  -0.058
  N  N1718  1  0.039550  0.785910  0.182840  1.0  -0.2372
  N  N1719  1  0.066520  0.833560  0.200920  1.0  -0.27
  N  N1720  1  0.039210  0.312510  0.705930  1.0  -0.058
  N  N1721  1  0.039550  0.285910  0.682840  1.0  -0.2372
  N  N1722  1  0.066520  0.333560  0.700920  1.0  -0.27
  N  N1723  1  0.539210  0.812510  0.705930  1.0  -0.058
  N  N1724  1  0.539550  0.785910  0.682840  1.0  -0.2372
  N  N1725  1  0.566520  0.833560  0.700920  1.0  -0.27
  N  N1726  1  0.539210  0.312510  0.205930  1.0  -0.058
  N  N1727  1  0.539550  0.285910  0.182840  1.0  -0.2372
  N  N1728  1  0.566520  0.333560  0.200920  1.0  -0.27
  N  N1729  1  0.812510  0.205930  0.039210  1.0  -0.057
  N  N1730  1  0.785910  0.182840  0.039550  1.0  -0.2369
  N  N1731  1  0.833560  0.200920  0.066520  1.0  -0.27
  N  N1732  1  0.812510  0.705930  0.539210  1.0  -0.057
  N  N1733  1  0.785910  0.682840  0.539550  1.0  -0.2369
  N  N1734  1  0.833560  0.700920  0.566520  1.0  -0.27
  N  N1735  1  0.312510  0.205930  0.539210  1.0  -0.057
  N  N1736  1  0.285910  0.182840  0.539550  1.0  -0.2369
  N  N1737  1  0.333560  0.200920  0.566520  1.0  -0.27
  N  N1738  1  0.312510  0.705930  0.039210  1.0  -0.057
  N  N1739  1  0.285910  0.682840  0.039550  1.0  -0.2369
  N  N1740  1  0.333560  0.700920  0.066520  1.0  -0.27
  N  N1741  1  0.187490  0.205930  0.960790  1.0  -0.056
  N  N1742  1  0.214090  0.182840  0.960450  1.0  -0.235
  N  N1743  1  0.166440  0.200920  0.933480  1.0  -0.2694
  N  N1744  1  0.187490  0.705930  0.460790  1.0  -0.056
  N  N1745  1  0.214090  0.682840  0.460450  1.0  -0.235
  N  N1746  1  0.166440  0.700920  0.433480  1.0  -0.2694
  N  N1747  1  0.687490  0.205930  0.460790  1.0  -0.056
  N  N1748  1  0.714090  0.182840  0.460450  1.0  -0.235
  N  N1749  1  0.666440  0.200920  0.433480  1.0  -0.2694
  N  N1750  1  0.687490  0.705930  0.960790  1.0  -0.056
  N  N1751  1  0.714090  0.682840  0.960450  1.0  -0.235
  N  N1752  1  0.666440  0.700920  0.933480  1.0  -0.2694
  N  N1753  1  0.187490  0.794070  0.039210  1.0  -0.0564
  N  N1754  1  0.214090  0.817160  0.039550  1.0  -0.2352
  N  N1755  1  0.166440  0.799080  0.066520  1.0  -0.2706
  N  N1756  1  0.187490  0.294070  0.539210  1.0  -0.0564
  N  N1757  1  0.214090  0.317160  0.539550  1.0  -0.2352
  N  N1758  1  0.166440  0.299080  0.566520  1.0  -0.2706
  N  N1759  1  0.687490  0.794070  0.539210  1.0  -0.0564
  N  N1760  1  0.714090  0.817160  0.539550  1.0  -0.2352
  N  N1761  1  0.666440  0.799080  0.566520  1.0  -0.2706
  N  N1762  1  0.687490  0.294070  0.039210  1.0  -0.0564
  N  N1763  1  0.714090  0.317160  0.039550  1.0  -0.2352
  N  N1764  1  0.666440  0.299080  0.066520  1.0  -0.2706
  N  N1765  1  0.812510  0.794070  0.960790  1.0  -0.057
  N  N1766  1  0.785910  0.817160  0.960450  1.0  -0.2376
  N  N1767  1  0.833560  0.799080  0.933480  1.0  -0.2706
  N  N1768  1  0.812510  0.294070  0.460790  1.0  -0.057
  N  N1769  1  0.785910  0.317160  0.460450  1.0  -0.2376
  N  N1770  1  0.833560  0.299080  0.433480  1.0  -0.2706
  N  N1771  1  0.312510  0.794070  0.460790  1.0  -0.057
  N  N1772  1  0.285910  0.817160  0.460450  1.0  -0.2376
  N  N1773  1  0.333560  0.799080  0.433480  1.0  -0.2706
  N  N1774  1  0.312510  0.294070  0.960790  1.0  -0.057
  N  N1775  1  0.285910  0.317160  0.960450  1.0  -0.2376
  N  N1776  1  0.333560  0.299080  0.933480  1.0  -0.2706
  N  N1777  1  0.205930  0.960790  0.187490  1.0  -0.0583
  N  N1778  1  0.182840  0.960450  0.214090  1.0  -0.2371
  N  N1779  1  0.200920  0.933480  0.166440  1.0  -0.2684
  N  N1780  1  0.205930  0.460790  0.687490  1.0  -0.0583
  N  N1781  1  0.182840  0.460450  0.714090  1.0  -0.2371
  N  N1782  1  0.200920  0.433480  0.666440  1.0  -0.2684
  N  N1783  1  0.705930  0.960790  0.687490  1.0  -0.0583
  N  N1784  1  0.682840  0.960450  0.714090  1.0  -0.2371
  N  N1785  1  0.700920  0.933480  0.666440  1.0  -0.2684
  N  N1786  1  0.705930  0.460790  0.187490  1.0  -0.0583
  N  N1787  1  0.682840  0.460450  0.214090  1.0  -0.2371
  N  N1788  1  0.700920  0.433480  0.166440  1.0  -0.2684
  N  N1789  1  0.205930  0.039210  0.812510  1.0  -0.0577
  N  N1790  1  0.182840  0.039550  0.785910  1.0  -0.2366
  N  N1791  1  0.200920  0.066520  0.833560  1.0  -0.2656
  N  N1792  1  0.205930  0.539210  0.312510  1.0  -0.0577
  N  N1793  1  0.182840  0.539550  0.285910  1.0  -0.2366
  N  N1794  1  0.200920  0.566520  0.333560  1.0  -0.2656
  N  N1795  1  0.705930  0.039210  0.312510  1.0  -0.0577
  N  N1796  1  0.682840  0.039550  0.285910  1.0  -0.2366
  N  N1797  1  0.700920  0.066520  0.333560  1.0  -0.2656
  N  N1798  1  0.705930  0.539210  0.812510  1.0  -0.0577
  N  N1799  1  0.682840  0.539550  0.785910  1.0  -0.2366
  N  N1800  1  0.700920  0.566520  0.833560  1.0  -0.2656
  N  N1801  1  0.794070  0.960790  0.812510  1.0  -0.0575
  N  N1802  1  0.817160  0.960450  0.785910  1.0  -0.2373
  N  N1803  1  0.799080  0.933480  0.833560  1.0  -0.2662
  N  N1804  1  0.794070  0.460790  0.312510  1.0  -0.0575
  N  N1805  1  0.817160  0.460450  0.285910  1.0  -0.2373
  N  N1806  1  0.799080  0.433480  0.333560  1.0  -0.2662
  N  N1807  1  0.294070  0.960790  0.312510  1.0  -0.0575
  N  N1808  1  0.317160  0.960450  0.285910  1.0  -0.2373
  N  N1809  1  0.299080  0.933480  0.333560  1.0  -0.2662
  N  N1810  1  0.294070  0.460790  0.812510  1.0  -0.0575
  N  N1811  1  0.317160  0.460450  0.785910  1.0  -0.2373
  N  N1812  1  0.299080  0.433480  0.833560  1.0  -0.2662
  N  N1813  1  0.794070  0.039210  0.187490  1.0  -0.0581
  N  N1814  1  0.817160  0.039550  0.214090  1.0  -0.2374
  N  N1815  1  0.799080  0.066520  0.166440  1.0  -0.2671
  N  N1816  1  0.794070  0.539210  0.687490  1.0  -0.0581
  N  N1817  1  0.817160  0.539550  0.714090  1.0  -0.2374
  N  N1818  1  0.799080  0.566520  0.666440  1.0  -0.2671
  N  N1819  1  0.294070  0.039210  0.687490  1.0  -0.0581
  N  N1820  1  0.317160  0.039550  0.714090  1.0  -0.2374
  N  N1821  1  0.299080  0.066520  0.666440  1.0  -0.2671
  N  N1822  1  0.294070  0.539210  0.187490  1.0  -0.0581
  N  N1823  1  0.317160  0.539550  0.214090  1.0  -0.2374
  N  N1824  1  0.299080  0.566520  0.166440  1.0  -0.2671
  Cl  Cl1825  1  0.750000  0.500000  0.250000  1.0  -0.1728
  Cl  Cl1826  1  0.250000  0.500000  0.250000  1.0  -0.1728
  Cl  Cl1827  1  0.250000  0.500000  0.750000  1.0  -0.1728
  Cl  Cl1828  1  0.750000  0.500000  0.750000  1.0  -0.1728
  Cl  Cl1829  1  0.250000  0.750000  0.500000  1.0  -0.1728
  Cl  Cl1830  1  0.250000  0.250000  0.500000  1.0  -0.1728
  Cl  Cl1831  1  0.750000  0.250000  0.500000  1.0  -0.1728
  Cl  Cl1832  1  0.750000  0.750000  0.500000  1.0  -0.1728
  Cl  Cl1833  1  0.500000  0.250000  0.750000  1.0  -0.1728
  Cl  Cl1834  1  0.500000  0.250000  0.250000  1.0  -0.1728
  Cl  Cl1835  1  0.500000  0.750000  0.250000  1.0  -0.1728
  Cl  Cl1836  1  0.500000  0.750000  0.750000  1.0  -0.1728
  Cl  Cl1837  1  0.000000  0.250000  0.250000  1.0  -0.1728
  Cl  Cl1838  1  0.000000  0.750000  0.250000  1.0  -0.1728
  Cl  Cl1839  1  0.000000  0.750000  0.750000  1.0  -0.1728
  Cl  Cl1840  1  0.000000  0.250000  0.750000  1.0  -0.1728
  Cl  Cl1841  1  0.250000  0.750000  0.000000  1.0  -0.1728
  Cl  Cl1842  1  0.750000  0.750000  0.000000  1.0  -0.1728
  Cl  Cl1843  1  0.750000  0.250000  0.000000  1.0  -0.1728
  Cl  Cl1844  1  0.250000  0.250000  0.000000  1.0  -0.1728
  Cl  Cl1845  1  0.750000  0.000000  0.750000  1.0  -0.1728
  Cl  Cl1846  1  0.750000  0.000000  0.250000  1.0  -0.1728
  Cl  Cl1847  1  0.250000  0.000000  0.250000  1.0  -0.1728
  Cl  Cl1848  1  0.250000  0.000000  0.750000  1.0  -0.1728
