# generated using pymatgen
data_Cu6H9C27N12O25
_symmetry_space_group_name_H-M   'P 1'
_cell_length_a   44.59930000
_cell_length_b   44.59930000
_cell_length_c   44.59930000
_cell_angle_alpha   90.00000000
_cell_angle_beta   90.00000000
_cell_angle_gamma   90.00000000
_symmetry_Int_Tables_number   1
_chemical_formula_structural   Cu6H9C27N12O25
_chemical_formula_sum   'Cu192 H288 C864 N384 O800'
_cell_volume   88712.35882956
_cell_formula_units_Z   32
loop_
 _symmetry_equiv_pos_site_id
 _symmetry_equiv_pos_as_xyz
  1  'x, y, z'
loop_
 _atom_site_type_symbol
 _atom_site_label
 _atom_site_symmetry_multiplicity
 _atom_site_fract_x
 _atom_site_fract_y
 _atom_site_fract_z
 _atom_site_occupancy
 _atom_site_charge
  Cu  Cu1  1  0.323800  0.123160  0.176200  1.0  1.0437
  Cu  Cu2  1  0.323800  0.623160  0.676200  1.0  1.0437
  Cu  Cu3  1  0.676200  0.876840  0.176200  1.0  1.0439
  Cu  Cu4  1  0.676200  0.376840  0.676200  1.0  1.0439
  Cu  Cu5  1  0.176200  0.376840  0.176200  1.0  1.0439
  Cu  Cu6  1  0.676200  0.123160  0.823800  1.0  1.0445
  Cu  Cu7  1  0.676200  0.623160  0.323800  1.0  1.0445
  Cu  Cu8  1  0.176200  0.123160  0.323800  1.0  1.0445
  Cu  Cu9  1  0.323800  0.876840  0.823800  1.0  1.0432
  Cu  Cu10  1  0.323800  0.376840  0.323800  1.0  1.0432
  Cu  Cu11  1  0.176200  0.323800  0.123160  1.0  1.0441
  Cu  Cu12  1  0.176200  0.823800  0.623160  1.0  1.0441
  Cu  Cu13  1  0.176200  0.676200  0.876840  1.0  1.0433
  Cu  Cu14  1  0.176200  0.176200  0.376840  1.0  1.0433
  Cu  Cu15  1  0.823800  0.676200  0.123160  1.0  1.0425
  Cu  Cu16  1  0.823800  0.176200  0.623160  1.0  1.0425
  Cu  Cu17  1  0.323800  0.176200  0.123160  1.0  1.0425
  Cu  Cu18  1  0.823800  0.323800  0.876840  1.0  1.043
  Cu  Cu19  1  0.823800  0.823800  0.376840  1.0  1.043
  Cu  Cu20  1  0.323800  0.323800  0.376840  1.0  1.043
  Cu  Cu21  1  0.123160  0.176200  0.323800  1.0  1.043
  Cu  Cu22  1  0.623160  0.176200  0.823800  1.0  1.043
  Cu  Cu23  1  0.876840  0.176200  0.676200  1.0  1.045
  Cu  Cu24  1  0.376840  0.176200  0.176200  1.0  1.045
  Cu  Cu25  1  0.123160  0.823800  0.676200  1.0  1.0444
  Cu  Cu26  1  0.123160  0.323800  0.176200  1.0  1.0444
  Cu  Cu27  1  0.623160  0.823800  0.176200  1.0  1.0444
  Cu  Cu28  1  0.876840  0.823800  0.323800  1.0  1.0454
  Cu  Cu29  1  0.376840  0.823800  0.823800  1.0  1.0454
  Cu  Cu30  1  0.376840  0.323800  0.323800  1.0  1.0454
  Cu  Cu31  1  0.123160  0.323800  0.823800  1.0  1.044
  Cu  Cu32  1  0.623160  0.323800  0.323800  1.0  1.044
  Cu  Cu33  1  0.876840  0.676200  0.823800  1.0  1.0451
  Cu  Cu34  1  0.876840  0.176200  0.323800  1.0  1.0451
  Cu  Cu35  1  0.376840  0.676200  0.323800  1.0  1.0451
  Cu  Cu36  1  0.123160  0.676200  0.176200  1.0  1.0431
  Cu  Cu37  1  0.623160  0.676200  0.676200  1.0  1.0431
  Cu  Cu38  1  0.623160  0.176200  0.176200  1.0  1.0431
  Cu  Cu39  1  0.876840  0.323800  0.176200  1.0  1.0457
  Cu  Cu40  1  0.376840  0.323800  0.676200  1.0  1.0457
  Cu  Cu41  1  0.323800  0.176200  0.876840  1.0  1.0425
  Cu  Cu42  1  0.323800  0.676200  0.376840  1.0  1.0425
  Cu  Cu43  1  0.676200  0.176200  0.123160  1.0  1.0433
  Cu  Cu44  1  0.676200  0.676200  0.623160  1.0  1.0433
  Cu  Cu45  1  0.176200  0.176200  0.623160  1.0  1.0433
  Cu  Cu46  1  0.676200  0.823800  0.876840  1.0  1.0437
  Cu  Cu47  1  0.676200  0.323800  0.376840  1.0  1.0437
  Cu  Cu48  1  0.176200  0.323800  0.876840  1.0  1.0437
  Cu  Cu49  1  0.323800  0.823800  0.123160  1.0  1.0432
  Cu  Cu50  1  0.323800  0.323800  0.623160  1.0  1.0432
  Cu  Cu51  1  0.176200  0.123160  0.676200  1.0  1.0443
  Cu  Cu52  1  0.176200  0.623160  0.176200  1.0  1.0443
  Cu  Cu53  1  0.176200  0.876840  0.323800  1.0  1.044
  Cu  Cu54  1  0.176200  0.376840  0.823800  1.0  1.044
  Cu  Cu55  1  0.823800  0.123160  0.323800  1.0  1.0442
  Cu  Cu56  1  0.823800  0.623160  0.823800  1.0  1.0442
  Cu  Cu57  1  0.323800  0.623160  0.323800  1.0  1.0442
  Cu  Cu58  1  0.823800  0.876840  0.676200  1.0  1.0429
  Cu  Cu59  1  0.823800  0.376840  0.176200  1.0  1.0429
  Cu  Cu60  1  0.323800  0.876840  0.176200  1.0  1.0429
  Cu  Cu61  1  0.676200  0.876840  0.823800  1.0  1.044
  Cu  Cu62  1  0.676200  0.376840  0.323800  1.0  1.044
  Cu  Cu63  1  0.323800  0.123160  0.823800  1.0  1.0442
  Cu  Cu64  1  0.323800  0.376840  0.676200  1.0  1.0429
  Cu  Cu65  1  0.676200  0.123160  0.176200  1.0  1.0443
  Cu  Cu66  1  0.676200  0.623160  0.676200  1.0  1.0443
  Cu  Cu67  1  0.823800  0.676200  0.876840  1.0  1.0425
  Cu  Cu68  1  0.823800  0.176200  0.376840  1.0  1.0425
  Cu  Cu69  1  0.823800  0.323800  0.123160  1.0  1.0432
  Cu  Cu70  1  0.823800  0.823800  0.623160  1.0  1.0432
  Cu  Cu71  1  0.176200  0.823800  0.376840  1.0  1.0437
  Cu  Cu72  1  0.176200  0.676200  0.123160  1.0  1.0433
  Cu  Cu73  1  0.876840  0.823800  0.676200  1.0  1.0457
  Cu  Cu74  1  0.376840  0.823800  0.176200  1.0  1.0457
  Cu  Cu75  1  0.123160  0.823800  0.323800  1.0  1.044
  Cu  Cu76  1  0.623160  0.823800  0.823800  1.0  1.044
  Cu  Cu77  1  0.376840  0.176200  0.823800  1.0  1.0451
  Cu  Cu78  1  0.123160  0.176200  0.676200  1.0  1.0431
  Cu  Cu79  1  0.876840  0.676200  0.176200  1.0  1.045
  Cu  Cu80  1  0.376840  0.676200  0.676200  1.0  1.045
  Cu  Cu81  1  0.623160  0.323800  0.676200  1.0  1.0444
  Cu  Cu82  1  0.876840  0.323800  0.823800  1.0  1.0454
  Cu  Cu83  1  0.123160  0.676200  0.823800  1.0  1.043
  Cu  Cu84  1  0.623160  0.676200  0.323800  1.0  1.043
  Cu  Cu85  1  0.676200  0.823800  0.123160  1.0  1.0441
  Cu  Cu86  1  0.676200  0.323800  0.623160  1.0  1.0441
  Cu  Cu87  1  0.323800  0.823800  0.876840  1.0  1.043
  Cu  Cu88  1  0.323800  0.676200  0.623160  1.0  1.0425
  Cu  Cu89  1  0.676200  0.176200  0.876840  1.0  1.0433
  Cu  Cu90  1  0.676200  0.676200  0.376840  1.0  1.0433
  Cu  Cu91  1  0.823800  0.876840  0.323800  1.0  1.0432
  Cu  Cu92  1  0.823800  0.376840  0.823800  1.0  1.0432
  Cu  Cu93  1  0.823800  0.123160  0.676200  1.0  1.0437
  Cu  Cu94  1  0.823800  0.623160  0.176200  1.0  1.0437
  Cu  Cu95  1  0.176200  0.876840  0.676200  1.0  1.0439
  Cu  Cu96  1  0.176200  0.623160  0.823800  1.0  1.0445
  Cu  Cu97  1  0.168540  0.168540  0.000000  1.0  0.9743
  Cu  Cu98  1  0.126520  0.126520  0.000000  1.0  0.9659
  Cu  Cu99  1  0.168540  0.668540  0.500000  1.0  0.9743
  Cu  Cu100  1  0.126520  0.626520  0.500000  1.0  0.9659
  Cu  Cu101  1  0.668540  0.168540  0.500000  1.0  0.9743
  Cu  Cu102  1  0.626520  0.126520  0.500000  1.0  0.9659
  Cu  Cu103  1  0.668540  0.668540  0.000000  1.0  0.9743
  Cu  Cu104  1  0.626520  0.626520  0.000000  1.0  0.9659
  Cu  Cu105  1  0.831460  0.831460  0.000000  1.0  0.9727
  Cu  Cu106  1  0.873480  0.873480  0.000000  1.0  0.9667
  Cu  Cu107  1  0.831460  0.331460  0.500000  1.0  0.9727
  Cu  Cu108  1  0.873480  0.373480  0.500000  1.0  0.9667
  Cu  Cu109  1  0.331460  0.831460  0.500000  1.0  0.9727
  Cu  Cu110  1  0.373480  0.873480  0.500000  1.0  0.9667
  Cu  Cu111  1  0.331460  0.331460  0.000000  1.0  0.9727
  Cu  Cu112  1  0.373480  0.373480  0.000000  1.0  0.9667
  Cu  Cu113  1  0.831460  0.168540  0.000000  1.0  0.9729
  Cu  Cu114  1  0.873480  0.126520  0.000000  1.0  0.9652
  Cu  Cu115  1  0.831460  0.668540  0.500000  1.0  0.9729
  Cu  Cu116  1  0.873480  0.626520  0.500000  1.0  0.9652
  Cu  Cu117  1  0.331460  0.168540  0.500000  1.0  0.9729
  Cu  Cu118  1  0.373480  0.126520  0.500000  1.0  0.9652
  Cu  Cu119  1  0.331460  0.668540  0.000000  1.0  0.9729
  Cu  Cu120  1  0.373480  0.626520  0.000000  1.0  0.9652
  Cu  Cu121  1  0.168540  0.831460  0.000000  1.0  0.9729
  Cu  Cu122  1  0.126520  0.873480  0.000000  1.0  0.9664
  Cu  Cu123  1  0.168540  0.331460  0.500000  1.0  0.9729
  Cu  Cu124  1  0.126520  0.373480  0.500000  1.0  0.9664
  Cu  Cu125  1  0.668540  0.831460  0.500000  1.0  0.9729
  Cu  Cu126  1  0.626520  0.873480  0.500000  1.0  0.9664
  Cu  Cu127  1  0.668540  0.331460  0.000000  1.0  0.9729
  Cu  Cu128  1  0.626520  0.373480  0.000000  1.0  0.9664
  Cu  Cu129  1  0.000000  0.168540  0.168540  1.0  0.9703
  Cu  Cu130  1  0.000000  0.126520  0.126520  1.0  0.964
  Cu  Cu131  1  0.000000  0.668540  0.668540  1.0  0.9703
  Cu  Cu132  1  0.000000  0.626520  0.626520  1.0  0.964
  Cu  Cu133  1  0.500000  0.168540  0.668540  1.0  0.9703
  Cu  Cu134  1  0.500000  0.126520  0.626520  1.0  0.964
  Cu  Cu135  1  0.500000  0.668540  0.168540  1.0  0.9703
  Cu  Cu136  1  0.500000  0.626520  0.126520  1.0  0.964
  Cu  Cu137  1  0.000000  0.831460  0.831460  1.0  0.9698
  Cu  Cu138  1  0.000000  0.873480  0.873480  1.0  0.9651
  Cu  Cu139  1  0.000000  0.331460  0.331460  1.0  0.9698
  Cu  Cu140  1  0.000000  0.373480  0.373480  1.0  0.9651
  Cu  Cu141  1  0.500000  0.831460  0.331460  1.0  0.9698
  Cu  Cu142  1  0.500000  0.873480  0.373480  1.0  0.9651
  Cu  Cu143  1  0.500000  0.331460  0.831460  1.0  0.9698
  Cu  Cu144  1  0.500000  0.373480  0.873480  1.0  0.9651
  Cu  Cu145  1  0.000000  0.831460  0.168540  1.0  0.9691
  Cu  Cu146  1  0.000000  0.873480  0.126520  1.0  0.9644
  Cu  Cu147  1  0.000000  0.331460  0.668540  1.0  0.9691
  Cu  Cu148  1  0.000000  0.373480  0.626520  1.0  0.9644
  Cu  Cu149  1  0.500000  0.831460  0.668540  1.0  0.9691
  Cu  Cu150  1  0.500000  0.873480  0.626520  1.0  0.9644
  Cu  Cu151  1  0.500000  0.331460  0.168540  1.0  0.9691
  Cu  Cu152  1  0.500000  0.373480  0.126520  1.0  0.9644
  Cu  Cu153  1  0.000000  0.168540  0.831460  1.0  0.9701
  Cu  Cu154  1  0.000000  0.126520  0.873480  1.0  0.964
  Cu  Cu155  1  0.000000  0.668540  0.331460  1.0  0.9701
  Cu  Cu156  1  0.000000  0.626520  0.373480  1.0  0.964
  Cu  Cu157  1  0.500000  0.168540  0.331460  1.0  0.9701
  Cu  Cu158  1  0.500000  0.126520  0.373480  1.0  0.964
  Cu  Cu159  1  0.500000  0.668540  0.831460  1.0  0.9701
  Cu  Cu160  1  0.500000  0.626520  0.873480  1.0  0.964
  Cu  Cu161  1  0.168540  0.000000  0.168540  1.0  0.9712
  Cu  Cu162  1  0.126520  0.000000  0.126520  1.0  0.965
  Cu  Cu163  1  0.168540  0.500000  0.668540  1.0  0.9712
  Cu  Cu164  1  0.126520  0.500000  0.626520  1.0  0.965
  Cu  Cu165  1  0.668540  0.000000  0.668540  1.0  0.9712
  Cu  Cu166  1  0.626520  0.000000  0.626520  1.0  0.965
  Cu  Cu167  1  0.668540  0.500000  0.168540  1.0  0.9712
  Cu  Cu168  1  0.626520  0.500000  0.126520  1.0  0.965
  Cu  Cu169  1  0.831460  0.000000  0.831460  1.0  0.9714
  Cu  Cu170  1  0.873480  0.000000  0.873480  1.0  0.9645
  Cu  Cu171  1  0.831460  0.500000  0.331460  1.0  0.9714
  Cu  Cu172  1  0.873480  0.500000  0.373480  1.0  0.9645
  Cu  Cu173  1  0.331460  0.000000  0.331460  1.0  0.9714
  Cu  Cu174  1  0.373480  0.000000  0.373480  1.0  0.9645
  Cu  Cu175  1  0.331460  0.500000  0.831460  1.0  0.9714
  Cu  Cu176  1  0.373480  0.500000  0.873480  1.0  0.9645
  Cu  Cu177  1  0.168540  0.000000  0.831460  1.0  0.9712
  Cu  Cu178  1  0.126520  0.000000  0.873480  1.0  0.965
  Cu  Cu179  1  0.168540  0.500000  0.331460  1.0  0.9712
  Cu  Cu180  1  0.126520  0.500000  0.373480  1.0  0.965
  Cu  Cu181  1  0.668540  0.000000  0.331460  1.0  0.9712
  Cu  Cu182  1  0.626520  0.000000  0.373480  1.0  0.965
  Cu  Cu183  1  0.668540  0.500000  0.831460  1.0  0.9712
  Cu  Cu184  1  0.626520  0.500000  0.873480  1.0  0.965
  Cu  Cu185  1  0.831460  0.000000  0.168540  1.0  0.9706
  Cu  Cu186  1  0.873480  0.000000  0.126520  1.0  0.9642
  Cu  Cu187  1  0.831460  0.500000  0.668540  1.0  0.9706
  Cu  Cu188  1  0.873480  0.500000  0.626520  1.0  0.9642
  Cu  Cu189  1  0.331460  0.000000  0.668540  1.0  0.9706
  Cu  Cu190  1  0.373480  0.000000  0.626520  1.0  0.9642
  Cu  Cu191  1  0.331460  0.500000  0.168540  1.0  0.9706
  Cu  Cu192  1  0.373480  0.500000  0.126520  1.0  0.9642
  H  H193  1  0.225300  0.132700  0.069200  1.0  0.1839
  H  H194  1  0.225300  0.632700  0.569200  1.0  0.1839
  H  H195  1  0.725300  0.132700  0.569200  1.0  0.1839
  H  H196  1  0.725300  0.632700  0.069200  1.0  0.1839
  H  H197  1  0.774700  0.867300  0.069200  1.0  0.1838
  H  H198  1  0.774700  0.367300  0.569200  1.0  0.1838
  H  H199  1  0.274700  0.867300  0.569200  1.0  0.1838
  H  H200  1  0.274700  0.367300  0.069200  1.0  0.1838
  H  H201  1  0.774700  0.132700  0.930800  1.0  0.1844
  H  H202  1  0.774700  0.632700  0.430800  1.0  0.1844
  H  H203  1  0.274700  0.132700  0.430800  1.0  0.1844
  H  H204  1  0.274700  0.632700  0.930800  1.0  0.1844
  H  H205  1  0.225300  0.867300  0.930800  1.0  0.1839
  H  H206  1  0.225300  0.367300  0.430800  1.0  0.1839
  H  H207  1  0.725300  0.867300  0.430800  1.0  0.1839
  H  H208  1  0.725300  0.367300  0.930800  1.0  0.1839
  H  H209  1  0.069200  0.225300  0.132700  1.0  0.1848
  H  H210  1  0.069200  0.725300  0.632700  1.0  0.1848
  H  H211  1  0.569200  0.225300  0.632700  1.0  0.1848
  H  H212  1  0.569200  0.725300  0.132700  1.0  0.1848
  H  H213  1  0.069200  0.774700  0.867300  1.0  0.1845
  H  H214  1  0.069200  0.274700  0.367300  1.0  0.1845
  H  H215  1  0.569200  0.774700  0.367300  1.0  0.1845
  H  H216  1  0.569200  0.274700  0.867300  1.0  0.1845
  H  H217  1  0.930800  0.774700  0.132700  1.0  0.1841
  H  H218  1  0.930800  0.274700  0.632700  1.0  0.1841
  H  H219  1  0.430800  0.774700  0.632700  1.0  0.1841
  H  H220  1  0.430800  0.274700  0.132700  1.0  0.1841
  H  H221  1  0.930800  0.225300  0.867300  1.0  0.1845
  H  H222  1  0.930800  0.725300  0.367300  1.0  0.1845
  H  H223  1  0.430800  0.225300  0.367300  1.0  0.1845
  H  H224  1  0.430800  0.725300  0.867300  1.0  0.1845
  H  H225  1  0.132700  0.069200  0.225300  1.0  0.1837
  H  H226  1  0.132700  0.569200  0.725300  1.0  0.1837
  H  H227  1  0.632700  0.069200  0.725300  1.0  0.1837
  H  H228  1  0.632700  0.569200  0.225300  1.0  0.1837
  H  H229  1  0.867300  0.069200  0.774700  1.0  0.184
  H  H230  1  0.867300  0.569200  0.274700  1.0  0.184
  H  H231  1  0.367300  0.069200  0.274700  1.0  0.184
  H  H232  1  0.367300  0.569200  0.774700  1.0  0.184
  H  H233  1  0.132700  0.930800  0.774700  1.0  0.1838
  H  H234  1  0.132700  0.430800  0.274700  1.0  0.1838
  H  H235  1  0.632700  0.930800  0.274700  1.0  0.1838
  H  H236  1  0.632700  0.430800  0.774700  1.0  0.1838
  H  H237  1  0.867300  0.930800  0.225300  1.0  0.184
  H  H238  1  0.867300  0.430800  0.725300  1.0  0.184
  H  H239  1  0.367300  0.930800  0.725300  1.0  0.184
  H  H240  1  0.367300  0.430800  0.225300  1.0  0.184
  H  H241  1  0.132700  0.225300  0.930800  1.0  0.1839
  H  H242  1  0.132700  0.725300  0.430800  1.0  0.1839
  H  H243  1  0.632700  0.225300  0.430800  1.0  0.1839
  H  H244  1  0.632700  0.725300  0.930800  1.0  0.1839
  H  H245  1  0.867300  0.774700  0.930800  1.0  0.1842
  H  H246  1  0.867300  0.274700  0.430800  1.0  0.1842
  H  H247  1  0.367300  0.774700  0.430800  1.0  0.1842
  H  H248  1  0.367300  0.274700  0.930800  1.0  0.1842
  H  H249  1  0.132700  0.774700  0.069200  1.0  0.1835
  H  H250  1  0.132700  0.274700  0.569200  1.0  0.1835
  H  H251  1  0.632700  0.774700  0.569200  1.0  0.1835
  H  H252  1  0.632700  0.274700  0.069200  1.0  0.1835
  H  H253  1  0.867300  0.225300  0.069200  1.0  0.184
  H  H254  1  0.867300  0.725300  0.569200  1.0  0.184
  H  H255  1  0.367300  0.225300  0.569200  1.0  0.184
  H  H256  1  0.367300  0.725300  0.069200  1.0  0.184
  H  H257  1  0.225300  0.069200  0.867300  1.0  0.1844
  H  H258  1  0.225300  0.569200  0.367300  1.0  0.1844
  H  H259  1  0.725300  0.069200  0.367300  1.0  0.1844
  H  H260  1  0.725300  0.569200  0.867300  1.0  0.1844
  H  H261  1  0.774700  0.069200  0.132700  1.0  0.1847
  H  H262  1  0.774700  0.569200  0.632700  1.0  0.1847
  H  H263  1  0.274700  0.069200  0.632700  1.0  0.1847
  H  H264  1  0.274700  0.569200  0.132700  1.0  0.1847
  H  H265  1  0.774700  0.930800  0.867300  1.0  0.1845
  H  H266  1  0.774700  0.430800  0.367300  1.0  0.1845
  H  H267  1  0.274700  0.930800  0.367300  1.0  0.1845
  H  H268  1  0.274700  0.430800  0.867300  1.0  0.1845
  H  H269  1  0.225300  0.930800  0.132700  1.0  0.1843
  H  H270  1  0.225300  0.430800  0.632700  1.0  0.1843
  H  H271  1  0.725300  0.930800  0.632700  1.0  0.1843
  H  H272  1  0.725300  0.430800  0.132700  1.0  0.1843
  H  H273  1  0.069200  0.132700  0.774700  1.0  0.1843
  H  H274  1  0.069200  0.632700  0.274700  1.0  0.1843
  H  H275  1  0.569200  0.132700  0.274700  1.0  0.1843
  H  H276  1  0.569200  0.632700  0.774700  1.0  0.1843
  H  H277  1  0.069200  0.867300  0.225300  1.0  0.184
  H  H278  1  0.069200  0.367300  0.725300  1.0  0.184
  H  H279  1  0.569200  0.867300  0.725300  1.0  0.184
  H  H280  1  0.569200  0.367300  0.225300  1.0  0.184
  H  H281  1  0.930800  0.132700  0.225300  1.0  0.1841
  H  H282  1  0.930800  0.632700  0.725300  1.0  0.1841
  H  H283  1  0.430800  0.132700  0.725300  1.0  0.1841
  H  H284  1  0.430800  0.632700  0.225300  1.0  0.1841
  H  H285  1  0.930800  0.867300  0.774700  1.0  0.184
  H  H286  1  0.930800  0.367300  0.274700  1.0  0.184
  H  H287  1  0.430800  0.867300  0.274700  1.0  0.184
  H  H288  1  0.430800  0.367300  0.774700  1.0  0.184
  H  H289  1  0.774700  0.867300  0.930800  1.0  0.184
  H  H290  1  0.774700  0.367300  0.430800  1.0  0.184
  H  H291  1  0.274700  0.867300  0.430800  1.0  0.184
  H  H292  1  0.274700  0.367300  0.930800  1.0  0.184
  H  H293  1  0.225300  0.132700  0.930800  1.0  0.1841
  H  H294  1  0.225300  0.632700  0.430800  1.0  0.1841
  H  H295  1  0.725300  0.132700  0.430800  1.0  0.1841
  H  H296  1  0.725300  0.632700  0.930800  1.0  0.1841
  H  H297  1  0.225300  0.867300  0.069200  1.0  0.1838
  H  H298  1  0.225300  0.367300  0.569200  1.0  0.1838
  H  H299  1  0.725300  0.867300  0.569200  1.0  0.1838
  H  H300  1  0.725300  0.367300  0.069200  1.0  0.1838
  H  H301  1  0.774700  0.132700  0.069200  1.0  0.1841
  H  H302  1  0.774700  0.632700  0.569200  1.0  0.1841
  H  H303  1  0.274700  0.132700  0.569200  1.0  0.1841
  H  H304  1  0.274700  0.632700  0.069200  1.0  0.1841
  H  H305  1  0.930800  0.774700  0.867300  1.0  0.1842
  H  H306  1  0.930800  0.274700  0.367300  1.0  0.1842
  H  H307  1  0.430800  0.774700  0.367300  1.0  0.1842
  H  H308  1  0.430800  0.274700  0.867300  1.0  0.1842
  H  H309  1  0.930800  0.225300  0.132700  1.0  0.1845
  H  H310  1  0.930800  0.725300  0.632700  1.0  0.1845
  H  H311  1  0.430800  0.225300  0.632700  1.0  0.1845
  H  H312  1  0.430800  0.725300  0.132700  1.0  0.1845
  H  H313  1  0.069200  0.225300  0.867300  1.0  0.1846
  H  H314  1  0.069200  0.725300  0.367300  1.0  0.1846
  H  H315  1  0.569200  0.225300  0.367300  1.0  0.1846
  H  H316  1  0.569200  0.725300  0.867300  1.0  0.1846
  H  H317  1  0.069200  0.774700  0.132700  1.0  0.1847
  H  H318  1  0.069200  0.274700  0.632700  1.0  0.1847
  H  H319  1  0.569200  0.774700  0.632700  1.0  0.1847
  H  H320  1  0.569200  0.274700  0.132700  1.0  0.1847
  H  H321  1  0.867300  0.930800  0.774700  1.0  0.184
  H  H322  1  0.867300  0.430800  0.274700  1.0  0.184
  H  H323  1  0.367300  0.930800  0.274700  1.0  0.184
  H  H324  1  0.367300  0.430800  0.774700  1.0  0.184
  H  H325  1  0.132700  0.930800  0.225300  1.0  0.1837
  H  H326  1  0.132700  0.430800  0.725300  1.0  0.1837
  H  H327  1  0.632700  0.930800  0.725300  1.0  0.1837
  H  H328  1  0.632700  0.430800  0.225300  1.0  0.1837
  H  H329  1  0.867300  0.069200  0.225300  1.0  0.1842
  H  H330  1  0.867300  0.569200  0.725300  1.0  0.1842
  H  H331  1  0.367300  0.069200  0.725300  1.0  0.1842
  H  H332  1  0.367300  0.569200  0.225300  1.0  0.1842
  H  H333  1  0.132700  0.069200  0.774700  1.0  0.1837
  H  H334  1  0.132700  0.569200  0.274700  1.0  0.1837
  H  H335  1  0.632700  0.069200  0.274700  1.0  0.1837
  H  H336  1  0.632700  0.569200  0.774700  1.0  0.1837
  H  H337  1  0.867300  0.774700  0.069200  1.0  0.1838
  H  H338  1  0.867300  0.274700  0.569200  1.0  0.1838
  H  H339  1  0.367300  0.774700  0.569200  1.0  0.1838
  H  H340  1  0.367300  0.274700  0.069200  1.0  0.1838
  H  H341  1  0.132700  0.225300  0.069200  1.0  0.1838
  H  H342  1  0.132700  0.725300  0.569200  1.0  0.1838
  H  H343  1  0.632700  0.225300  0.569200  1.0  0.1838
  H  H344  1  0.632700  0.725300  0.069200  1.0  0.1838
  H  H345  1  0.867300  0.225300  0.930800  1.0  0.1841
  H  H346  1  0.867300  0.725300  0.430800  1.0  0.1841
  H  H347  1  0.367300  0.225300  0.430800  1.0  0.1841
  H  H348  1  0.367300  0.725300  0.930800  1.0  0.1841
  H  H349  1  0.132700  0.774700  0.930800  1.0  0.1837
  H  H350  1  0.132700  0.274700  0.430800  1.0  0.1837
  H  H351  1  0.632700  0.774700  0.430800  1.0  0.1837
  H  H352  1  0.632700  0.274700  0.930800  1.0  0.1837
  H  H353  1  0.774700  0.930800  0.132700  1.0  0.1846
  H  H354  1  0.774700  0.430800  0.632700  1.0  0.1846
  H  H355  1  0.274700  0.930800  0.632700  1.0  0.1846
  H  H356  1  0.274700  0.430800  0.132700  1.0  0.1846
  H  H357  1  0.225300  0.930800  0.867300  1.0  0.1845
  H  H358  1  0.225300  0.430800  0.367300  1.0  0.1845
  H  H359  1  0.725300  0.930800  0.367300  1.0  0.1845
  H  H360  1  0.725300  0.430800  0.867300  1.0  0.1845
  H  H361  1  0.225300  0.069200  0.132700  1.0  0.1842
  H  H362  1  0.225300  0.569200  0.632700  1.0  0.1842
  H  H363  1  0.725300  0.069200  0.632700  1.0  0.1842
  H  H364  1  0.725300  0.569200  0.132700  1.0  0.1842
  H  H365  1  0.774700  0.069200  0.867300  1.0  0.1845
  H  H366  1  0.774700  0.569200  0.367300  1.0  0.1845
  H  H367  1  0.274700  0.069200  0.367300  1.0  0.1845
  H  H368  1  0.274700  0.569200  0.867300  1.0  0.1845
  H  H369  1  0.930800  0.867300  0.225300  1.0  0.184
  H  H370  1  0.930800  0.367300  0.725300  1.0  0.184
  H  H371  1  0.430800  0.867300  0.725300  1.0  0.184
  H  H372  1  0.430800  0.367300  0.225300  1.0  0.184
  H  H373  1  0.930800  0.132700  0.774700  1.0  0.184
  H  H374  1  0.930800  0.632700  0.274700  1.0  0.184
  H  H375  1  0.430800  0.132700  0.274700  1.0  0.184
  H  H376  1  0.430800  0.632700  0.774700  1.0  0.184
  H  H377  1  0.069200  0.867300  0.774700  1.0  0.184
  H  H378  1  0.069200  0.367300  0.274700  1.0  0.184
  H  H379  1  0.569200  0.867300  0.274700  1.0  0.184
  H  H380  1  0.569200  0.367300  0.774700  1.0  0.184
  H  H381  1  0.069200  0.132700  0.225300  1.0  0.1844
  H  H382  1  0.069200  0.632700  0.725300  1.0  0.1844
  H  H383  1  0.569200  0.132700  0.725300  1.0  0.1844
  H  H384  1  0.569200  0.632700  0.225300  1.0  0.1844
  H  H385  1  0.159700  0.072100  0.072100  1.0  0.1728
  H  H386  1  0.159700  0.572100  0.572100  1.0  0.1728
  H  H387  1  0.659700  0.072100  0.572100  1.0  0.1728
  H  H388  1  0.659700  0.572100  0.072100  1.0  0.1728
  H  H389  1  0.840300  0.927900  0.072100  1.0  0.1729
  H  H390  1  0.840300  0.427900  0.572100  1.0  0.1729
  H  H391  1  0.340300  0.927900  0.572100  1.0  0.1729
  H  H392  1  0.340300  0.427900  0.072100  1.0  0.1729
  H  H393  1  0.840300  0.072100  0.927900  1.0  0.1725
  H  H394  1  0.840300  0.572100  0.427900  1.0  0.1725
  H  H395  1  0.340300  0.072100  0.427900  1.0  0.1725
  H  H396  1  0.340300  0.572100  0.927900  1.0  0.1725
  H  H397  1  0.159700  0.927900  0.927900  1.0  0.1726
  H  H398  1  0.159700  0.427900  0.427900  1.0  0.1726
  H  H399  1  0.659700  0.927900  0.427900  1.0  0.1726
  H  H400  1  0.659700  0.427900  0.927900  1.0  0.1726
  H  H401  1  0.072100  0.159700  0.072100  1.0  0.1734
  H  H402  1  0.072100  0.659700  0.572100  1.0  0.1734
  H  H403  1  0.572100  0.159700  0.572100  1.0  0.1734
  H  H404  1  0.572100  0.659700  0.072100  1.0  0.1734
  H  H405  1  0.072100  0.840300  0.927900  1.0  0.173
  H  H406  1  0.072100  0.340300  0.427900  1.0  0.173
  H  H407  1  0.572100  0.840300  0.427900  1.0  0.173
  H  H408  1  0.572100  0.340300  0.927900  1.0  0.173
  H  H409  1  0.927900  0.840300  0.072100  1.0  0.173
  H  H410  1  0.927900  0.340300  0.572100  1.0  0.173
  H  H411  1  0.427900  0.840300  0.572100  1.0  0.173
  H  H412  1  0.427900  0.340300  0.072100  1.0  0.173
  H  H413  1  0.927900  0.159700  0.927900  1.0  0.173
  H  H414  1  0.927900  0.659700  0.427900  1.0  0.173
  H  H415  1  0.427900  0.159700  0.427900  1.0  0.173
  H  H416  1  0.427900  0.659700  0.927900  1.0  0.173
  H  H417  1  0.072100  0.072100  0.159700  1.0  0.1734
  H  H418  1  0.072100  0.572100  0.659700  1.0  0.1734
  H  H419  1  0.572100  0.072100  0.659700  1.0  0.1734
  H  H420  1  0.572100  0.572100  0.159700  1.0  0.1734
  H  H421  1  0.927900  0.072100  0.840300  1.0  0.1728
  H  H422  1  0.927900  0.572100  0.340300  1.0  0.1728
  H  H423  1  0.427900  0.072100  0.340300  1.0  0.1728
  H  H424  1  0.427900  0.572100  0.840300  1.0  0.1728
  H  H425  1  0.072100  0.927900  0.840300  1.0  0.173
  H  H426  1  0.072100  0.427900  0.340300  1.0  0.173
  H  H427  1  0.572100  0.927900  0.340300  1.0  0.173
  H  H428  1  0.572100  0.427900  0.840300  1.0  0.173
  H  H429  1  0.927900  0.927900  0.159700  1.0  0.1736
  H  H430  1  0.927900  0.427900  0.659700  1.0  0.1736
  H  H431  1  0.427900  0.927900  0.659700  1.0  0.1736
  H  H432  1  0.427900  0.427900  0.159700  1.0  0.1736
  H  H433  1  0.072100  0.159700  0.927900  1.0  0.1732
  H  H434  1  0.072100  0.659700  0.427900  1.0  0.1732
  H  H435  1  0.572100  0.159700  0.427900  1.0  0.1732
  H  H436  1  0.572100  0.659700  0.927900  1.0  0.1732
  H  H437  1  0.927900  0.840300  0.927900  1.0  0.173
  H  H438  1  0.927900  0.340300  0.427900  1.0  0.173
  H  H439  1  0.427900  0.840300  0.427900  1.0  0.173
  H  H440  1  0.427900  0.340300  0.927900  1.0  0.173
  H  H441  1  0.072100  0.840300  0.072100  1.0  0.1731
  H  H442  1  0.072100  0.340300  0.572100  1.0  0.1731
  H  H443  1  0.572100  0.840300  0.572100  1.0  0.1731
  H  H444  1  0.572100  0.340300  0.072100  1.0  0.1731
  H  H445  1  0.927900  0.159700  0.072100  1.0  0.1732
  H  H446  1  0.927900  0.659700  0.572100  1.0  0.1732
  H  H447  1  0.427900  0.159700  0.572100  1.0  0.1732
  H  H448  1  0.427900  0.659700  0.072100  1.0  0.1732
  H  H449  1  0.159700  0.072100  0.927900  1.0  0.1728
  H  H450  1  0.159700  0.572100  0.427900  1.0  0.1728
  H  H451  1  0.659700  0.072100  0.427900  1.0  0.1728
  H  H452  1  0.659700  0.572100  0.927900  1.0  0.1728
  H  H453  1  0.840300  0.072100  0.072100  1.0  0.1726
  H  H454  1  0.840300  0.572100  0.572100  1.0  0.1726
  H  H455  1  0.340300  0.072100  0.572100  1.0  0.1726
  H  H456  1  0.340300  0.572100  0.072100  1.0  0.1726
  H  H457  1  0.840300  0.927900  0.927900  1.0  0.1728
  H  H458  1  0.840300  0.427900  0.427900  1.0  0.1728
  H  H459  1  0.340300  0.927900  0.427900  1.0  0.1728
  H  H460  1  0.340300  0.427900  0.927900  1.0  0.1728
  H  H461  1  0.159700  0.927900  0.072100  1.0  0.1728
  H  H462  1  0.159700  0.427900  0.572100  1.0  0.1728
  H  H463  1  0.659700  0.927900  0.572100  1.0  0.1728
  H  H464  1  0.659700  0.427900  0.072100  1.0  0.1728
  H  H465  1  0.072100  0.072100  0.840300  1.0  0.1729
  H  H466  1  0.072100  0.572100  0.340300  1.0  0.1729
  H  H467  1  0.572100  0.072100  0.340300  1.0  0.1729
  H  H468  1  0.572100  0.572100  0.840300  1.0  0.1729
  H  H469  1  0.072100  0.927900  0.159700  1.0  0.1734
  H  H470  1  0.072100  0.427900  0.659700  1.0  0.1734
  H  H471  1  0.572100  0.927900  0.659700  1.0  0.1734
  H  H472  1  0.572100  0.427900  0.159700  1.0  0.1734
  H  H473  1  0.927900  0.072100  0.159700  1.0  0.1734
  H  H474  1  0.927900  0.572100  0.659700  1.0  0.1734
  H  H475  1  0.427900  0.072100  0.659700  1.0  0.1734
  H  H476  1  0.427900  0.572100  0.159700  1.0  0.1734
  H  H477  1  0.927900  0.927900  0.840300  1.0  0.1733
  H  H478  1  0.927900  0.427900  0.340300  1.0  0.1733
  H  H479  1  0.427900  0.927900  0.340300  1.0  0.1733
  H  H480  1  0.427900  0.427900  0.840300  1.0  0.1733
  C  C481  1  0.216230  0.116360  0.078360  1.0  0.084
  C  C482  1  0.190030  0.104760  0.066770  1.0  -0.081
  C  C483  1  0.175110  0.120130  0.040840  1.0  0.7548
  C  C484  1  0.216230  0.616360  0.578360  1.0  0.084
  C  C485  1  0.190030  0.604760  0.566770  1.0  -0.081
  C  C486  1  0.175110  0.620130  0.540840  1.0  0.7548
  C  C487  1  0.716230  0.116360  0.578360  1.0  0.084
  C  C488  1  0.690030  0.104760  0.566770  1.0  -0.081
  C  C489  1  0.675110  0.120130  0.540840  1.0  0.7548
  C  C490  1  0.716230  0.616360  0.078360  1.0  0.084
  C  C491  1  0.690030  0.604760  0.066770  1.0  -0.081
  C  C492  1  0.675110  0.620130  0.040840  1.0  0.7548
  C  C493  1  0.783770  0.883640  0.078360  1.0  0.0843
  C  C494  1  0.809970  0.895240  0.066770  1.0  -0.0807
  C  C495  1  0.824890  0.879870  0.040840  1.0  0.7543
  C  C496  1  0.783770  0.383640  0.578360  1.0  0.0843
  C  C497  1  0.809970  0.395240  0.566770  1.0  -0.0807
  C  C498  1  0.824890  0.379870  0.540840  1.0  0.7543
  C  C499  1  0.283770  0.883640  0.578360  1.0  0.0843
  C  C500  1  0.309970  0.895240  0.566770  1.0  -0.0807
  C  C501  1  0.324890  0.879870  0.540840  1.0  0.7543
  C  C502  1  0.283770  0.383640  0.078360  1.0  0.0843
  C  C503  1  0.309970  0.395240  0.066770  1.0  -0.0807
  C  C504  1  0.324890  0.379870  0.040840  1.0  0.7543
  C  C505  1  0.783770  0.116360  0.921640  1.0  0.0842
  C  C506  1  0.809970  0.104760  0.933230  1.0  -0.0819
  C  C507  1  0.824890  0.120130  0.959160  1.0  0.7549
  C  C508  1  0.783770  0.616360  0.421640  1.0  0.0842
  C  C509  1  0.809970  0.604760  0.433230  1.0  -0.0819
  C  C510  1  0.824890  0.620130  0.459160  1.0  0.7549
  C  C511  1  0.283770  0.116360  0.421640  1.0  0.0842
  C  C512  1  0.309970  0.104760  0.433230  1.0  -0.0819
  C  C513  1  0.324890  0.120130  0.459160  1.0  0.7549
  C  C514  1  0.283770  0.616360  0.921640  1.0  0.0842
  C  C515  1  0.309970  0.604760  0.933230  1.0  -0.0819
  C  C516  1  0.324890  0.620130  0.959160  1.0  0.7549
  C  C517  1  0.216230  0.883640  0.921640  1.0  0.085
  C  C518  1  0.190030  0.895240  0.933230  1.0  -0.0823
  C  C519  1  0.175110  0.879870  0.959160  1.0  0.7548
  C  C520  1  0.216230  0.383640  0.421640  1.0  0.085
  C  C521  1  0.190030  0.395240  0.433230  1.0  -0.0823
  C  C522  1  0.175110  0.379870  0.459160  1.0  0.7548
  C  C523  1  0.716230  0.883640  0.421640  1.0  0.085
  C  C524  1  0.690030  0.895240  0.433230  1.0  -0.0823
  C  C525  1  0.675110  0.879870  0.459160  1.0  0.7548
  C  C526  1  0.716230  0.383640  0.921640  1.0  0.085
  C  C527  1  0.690030  0.395240  0.933230  1.0  -0.0823
  C  C528  1  0.675110  0.379870  0.959160  1.0  0.7548
  C  C529  1  0.078360  0.216230  0.116360  1.0  0.083
  C  C530  1  0.066770  0.190030  0.104760  1.0  -0.0822
  C  C531  1  0.040840  0.175110  0.120130  1.0  0.7524
  C  C532  1  0.078360  0.716230  0.616360  1.0  0.083
  C  C533  1  0.066770  0.690030  0.604760  1.0  -0.0822
  C  C534  1  0.040840  0.675110  0.620130  1.0  0.7524
  C  C535  1  0.578360  0.216230  0.616360  1.0  0.083
  C  C536  1  0.566770  0.190030  0.604760  1.0  -0.0822
  C  C537  1  0.540840  0.175110  0.620130  1.0  0.7524
  C  C538  1  0.578360  0.716230  0.116360  1.0  0.083
  C  C539  1  0.566770  0.690030  0.104760  1.0  -0.0822
  C  C540  1  0.540840  0.675110  0.120130  1.0  0.7524
  C  C541  1  0.078360  0.783770  0.883640  1.0  0.0835
  C  C542  1  0.066770  0.809970  0.895240  1.0  -0.0819
  C  C543  1  0.040840  0.824890  0.879870  1.0  0.7529
  C  C544  1  0.078360  0.283770  0.383640  1.0  0.0835
  C  C545  1  0.066770  0.309970  0.395240  1.0  -0.0819
  C  C546  1  0.040840  0.324890  0.379870  1.0  0.7529
  C  C547  1  0.578360  0.783770  0.383640  1.0  0.0835
  C  C548  1  0.566770  0.809970  0.395240  1.0  -0.0819
  C  C549  1  0.540840  0.824890  0.379870  1.0  0.7529
  C  C550  1  0.578360  0.283770  0.883640  1.0  0.0835
  C  C551  1  0.566770  0.309970  0.895240  1.0  -0.0819
  C  C552  1  0.540840  0.324890  0.879870  1.0  0.7529
  C  C553  1  0.921640  0.783770  0.116360  1.0  0.0843
  C  C554  1  0.933230  0.809970  0.104760  1.0  -0.0814
  C  C555  1  0.959160  0.824890  0.120130  1.0  0.7534
  C  C556  1  0.921640  0.283770  0.616360  1.0  0.0843
  C  C557  1  0.933230  0.309970  0.604760  1.0  -0.0814
  C  C558  1  0.959160  0.324890  0.620130  1.0  0.7534
  C  C559  1  0.421640  0.783770  0.616360  1.0  0.0843
  C  C560  1  0.433230  0.809970  0.604760  1.0  -0.0814
  C  C561  1  0.459160  0.824890  0.620130  1.0  0.7534
  C  C562  1  0.421640  0.283770  0.116360  1.0  0.0843
  C  C563  1  0.433230  0.309970  0.104760  1.0  -0.0814
  C  C564  1  0.459160  0.324890  0.120130  1.0  0.7534
  C  C565  1  0.921640  0.216230  0.883640  1.0  0.0836
  C  C566  1  0.933230  0.190030  0.895240  1.0  -0.0814
  C  C567  1  0.959160  0.175110  0.879870  1.0  0.7529
  C  C568  1  0.921640  0.716230  0.383640  1.0  0.0836
  C  C569  1  0.933230  0.690030  0.395240  1.0  -0.0814
  C  C570  1  0.959160  0.675110  0.379870  1.0  0.7529
  C  C571  1  0.421640  0.216230  0.383640  1.0  0.0836
  C  C572  1  0.433230  0.190030  0.395240  1.0  -0.0814
  C  C573  1  0.459160  0.175110  0.379870  1.0  0.7529
  C  C574  1  0.421640  0.716230  0.883640  1.0  0.0836
  C  C575  1  0.433230  0.690030  0.895240  1.0  -0.0814
  C  C576  1  0.459160  0.675110  0.879870  1.0  0.7529
  C  C577  1  0.116360  0.078360  0.216230  1.0  0.085
  C  C578  1  0.104760  0.066770  0.190030  1.0  -0.0814
  C  C579  1  0.120130  0.040840  0.175110  1.0  0.753
  C  C580  1  0.116360  0.578360  0.716230  1.0  0.085
  C  C581  1  0.104760  0.566770  0.690030  1.0  -0.0814
  C  C582  1  0.120130  0.540840  0.675110  1.0  0.753
  C  C583  1  0.616360  0.078360  0.716230  1.0  0.085
  C  C584  1  0.604760  0.066770  0.690030  1.0  -0.0814
  C  C585  1  0.620130  0.040840  0.675110  1.0  0.753
  C  C586  1  0.616360  0.578360  0.216230  1.0  0.085
  C  C587  1  0.604760  0.566770  0.190030  1.0  -0.0814
  C  C588  1  0.620130  0.540840  0.175110  1.0  0.753
  C  C589  1  0.883640  0.078360  0.783770  1.0  0.0835
  C  C590  1  0.895240  0.066770  0.809970  1.0  -0.0816
  C  C591  1  0.879870  0.040840  0.824890  1.0  0.7529
  C  C592  1  0.883640  0.578360  0.283770  1.0  0.0835
  C  C593  1  0.895240  0.566770  0.309970  1.0  -0.0816
  C  C594  1  0.879870  0.540840  0.324890  1.0  0.7529
  C  C595  1  0.383640  0.078360  0.283770  1.0  0.0835
  C  C596  1  0.395240  0.066770  0.309970  1.0  -0.0816
  C  C597  1  0.379870  0.040840  0.324890  1.0  0.7529
  C  C598  1  0.383640  0.578360  0.783770  1.0  0.0835
  C  C599  1  0.395240  0.566770  0.809970  1.0  -0.0816
  C  C600  1  0.379870  0.540840  0.824890  1.0  0.7529
  C  C601  1  0.116360  0.921640  0.783770  1.0  0.0842
  C  C602  1  0.104760  0.933230  0.809970  1.0  -0.0812
  C  C603  1  0.120130  0.959160  0.824890  1.0  0.7529
  C  C604  1  0.116360  0.421640  0.283770  1.0  0.0842
  C  C605  1  0.104760  0.433230  0.309970  1.0  -0.0812
  C  C606  1  0.120130  0.459160  0.324890  1.0  0.7529
  C  C607  1  0.616360  0.921640  0.283770  1.0  0.0842
  C  C608  1  0.604760  0.933230  0.309970  1.0  -0.0812
  C  C609  1  0.620130  0.959160  0.324890  1.0  0.7529
  C  C610  1  0.616360  0.421640  0.783770  1.0  0.0842
  C  C611  1  0.604760  0.433230  0.809970  1.0  -0.0812
  C  C612  1  0.620130  0.459160  0.824890  1.0  0.7529
  C  C613  1  0.883640  0.921640  0.216230  1.0  0.085
  C  C614  1  0.895240  0.933230  0.190030  1.0  -0.0813
  C  C615  1  0.879870  0.959160  0.175110  1.0  0.7529
  C  C616  1  0.883640  0.421640  0.716230  1.0  0.085
  C  C617  1  0.895240  0.433230  0.690030  1.0  -0.0813
  C  C618  1  0.879870  0.459160  0.675110  1.0  0.7529
  C  C619  1  0.383640  0.921640  0.716230  1.0  0.085
  C  C620  1  0.395240  0.933230  0.690030  1.0  -0.0813
  C  C621  1  0.379870  0.959160  0.675110  1.0  0.7529
  C  C622  1  0.383640  0.421640  0.216230  1.0  0.085
  C  C623  1  0.395240  0.433230  0.190030  1.0  -0.0813
  C  C624  1  0.379870  0.459160  0.175110  1.0  0.7529
  C  C625  1  0.116360  0.216230  0.921640  1.0  0.0842
  C  C626  1  0.104760  0.190030  0.933230  1.0  -0.0821
  C  C627  1  0.120130  0.175110  0.959160  1.0  0.7542
  C  C628  1  0.116360  0.716230  0.421640  1.0  0.0842
  C  C629  1  0.104760  0.690030  0.433230  1.0  -0.0821
  C  C630  1  0.120130  0.675110  0.459160  1.0  0.7542
  C  C631  1  0.616360  0.216230  0.421640  1.0  0.0842
  C  C632  1  0.604760  0.190030  0.433230  1.0  -0.0821
  C  C633  1  0.620130  0.175110  0.459160  1.0  0.7542
  C  C634  1  0.616360  0.716230  0.921640  1.0  0.0842
  C  C635  1  0.604760  0.690030  0.933230  1.0  -0.0821
  C  C636  1  0.620130  0.675110  0.959160  1.0  0.7542
  C  C637  1  0.883640  0.783770  0.921640  1.0  0.0849
  C  C638  1  0.895240  0.809970  0.933230  1.0  -0.0819
  C  C639  1  0.879870  0.824890  0.959160  1.0  0.7547
  C  C640  1  0.883640  0.283770  0.421640  1.0  0.0849
  C  C641  1  0.895240  0.309970  0.433230  1.0  -0.0819
  C  C642  1  0.879870  0.324890  0.459160  1.0  0.7547
  C  C643  1  0.383640  0.783770  0.421640  1.0  0.0849
  C  C644  1  0.395240  0.809970  0.433230  1.0  -0.0819
  C  C645  1  0.379870  0.824890  0.459160  1.0  0.7547
  C  C646  1  0.383640  0.283770  0.921640  1.0  0.0849
  C  C647  1  0.395240  0.309970  0.933230  1.0  -0.0819
  C  C648  1  0.379870  0.324890  0.959160  1.0  0.7547
  C  C649  1  0.116360  0.783770  0.078360  1.0  0.0838
  C  C650  1  0.104760  0.809970  0.066770  1.0  -0.0804
  C  C651  1  0.120130  0.824890  0.040840  1.0  0.7544
  C  C652  1  0.116360  0.283770  0.578360  1.0  0.0838
  C  C653  1  0.104760  0.309970  0.566770  1.0  -0.0804
  C  C654  1  0.120130  0.324890  0.540840  1.0  0.7544
  C  C655  1  0.616360  0.783770  0.578360  1.0  0.0838
  C  C656  1  0.604760  0.809970  0.566770  1.0  -0.0804
  C  C657  1  0.620130  0.824890  0.540840  1.0  0.7544
  C  C658  1  0.616360  0.283770  0.078360  1.0  0.0838
  C  C659  1  0.604760  0.309970  0.066770  1.0  -0.0804
  C  C660  1  0.620130  0.324890  0.040840  1.0  0.7544
  C  C661  1  0.883640  0.216230  0.078360  1.0  0.0837
  C  C662  1  0.895240  0.190030  0.066770  1.0  -0.0811
  C  C663  1  0.879870  0.175110  0.040840  1.0  0.7538
  C  C664  1  0.883640  0.716230  0.578360  1.0  0.0837
  C  C665  1  0.895240  0.690030  0.566770  1.0  -0.0811
  C  C666  1  0.879870  0.675110  0.540840  1.0  0.7538
  C  C667  1  0.383640  0.216230  0.578360  1.0  0.0837
  C  C668  1  0.395240  0.190030  0.566770  1.0  -0.0811
  C  C669  1  0.379870  0.175110  0.540840  1.0  0.7538
  C  C670  1  0.383640  0.716230  0.078360  1.0  0.0837
  C  C671  1  0.395240  0.690030  0.066770  1.0  -0.0811
  C  C672  1  0.379870  0.675110  0.040840  1.0  0.7538
  C  C673  1  0.216230  0.078360  0.883640  1.0  0.0836
  C  C674  1  0.190030  0.066770  0.895240  1.0  -0.0819
  C  C675  1  0.175110  0.040840  0.879870  1.0  0.7536
  C  C676  1  0.216230  0.578360  0.383640  1.0  0.0836
  C  C677  1  0.190030  0.566770  0.395240  1.0  -0.0819
  C  C678  1  0.175110  0.540840  0.379870  1.0  0.7536
  C  C679  1  0.716230  0.078360  0.383640  1.0  0.0836
  C  C680  1  0.690030  0.066770  0.395240  1.0  -0.0819
  C  C681  1  0.675110  0.040840  0.379870  1.0  0.7536
  C  C682  1  0.716230  0.578360  0.883640  1.0  0.0836
  C  C683  1  0.690030  0.566770  0.895240  1.0  -0.0819
  C  C684  1  0.675110  0.540840  0.879870  1.0  0.7536
  C  C685  1  0.783770  0.078360  0.116360  1.0  0.0842
  C  C686  1  0.809970  0.066770  0.104760  1.0  -0.0813
  C  C687  1  0.824890  0.040840  0.120130  1.0  0.7533
  C  C688  1  0.783770  0.578360  0.616360  1.0  0.0842
  C  C689  1  0.809970  0.566770  0.604760  1.0  -0.0813
  C  C690  1  0.824890  0.540840  0.620130  1.0  0.7533
  C  C691  1  0.283770  0.078360  0.616360  1.0  0.0842
  C  C692  1  0.309970  0.066770  0.604760  1.0  -0.0813
  C  C693  1  0.324890  0.040840  0.620130  1.0  0.7533
  C  C694  1  0.283770  0.578360  0.116360  1.0  0.0842
  C  C695  1  0.309970  0.566770  0.104760  1.0  -0.0813
  C  C696  1  0.324890  0.540840  0.120130  1.0  0.7533
  C  C697  1  0.783770  0.921640  0.883640  1.0  0.0842
  C  C698  1  0.809970  0.933230  0.895240  1.0  -0.081
  C  C699  1  0.824890  0.959160  0.879870  1.0  0.7535
  C  C700  1  0.783770  0.421640  0.383640  1.0  0.0842
  C  C701  1  0.809970  0.433230  0.395240  1.0  -0.081
  C  C702  1  0.824890  0.459160  0.379870  1.0  0.7535
  C  C703  1  0.283770  0.921640  0.383640  1.0  0.0842
  C  C704  1  0.309970  0.933230  0.395240  1.0  -0.081
  C  C705  1  0.324890  0.959160  0.379870  1.0  0.7535
  C  C706  1  0.283770  0.421640  0.883640  1.0  0.0842
  C  C707  1  0.309970  0.433230  0.895240  1.0  -0.081
  C  C708  1  0.324890  0.459160  0.879870  1.0  0.7535
  C  C709  1  0.216230  0.921640  0.116360  1.0  0.0842
  C  C710  1  0.190030  0.933230  0.104760  1.0  -0.0816
  C  C711  1  0.175110  0.959160  0.120130  1.0  0.7535
  C  C712  1  0.216230  0.421640  0.616360  1.0  0.0842
  C  C713  1  0.190030  0.433230  0.604760  1.0  -0.0816
  C  C714  1  0.175110  0.459160  0.620130  1.0  0.7535
  C  C715  1  0.716230  0.921640  0.616360  1.0  0.0842
  C  C716  1  0.690030  0.933230  0.604760  1.0  -0.0816
  C  C717  1  0.675110  0.959160  0.620130  1.0  0.7535
  C  C718  1  0.716230  0.421640  0.116360  1.0  0.0842
  C  C719  1  0.690030  0.433230  0.104760  1.0  -0.0816
  C  C720  1  0.675110  0.459160  0.120130  1.0  0.7535
  C  C721  1  0.078360  0.116360  0.783770  1.0  0.0838
  C  C722  1  0.066770  0.104760  0.809970  1.0  -0.0819
  C  C723  1  0.040840  0.120130  0.824890  1.0  0.7526
  C  C724  1  0.078360  0.616360  0.283770  1.0  0.0838
  C  C725  1  0.066770  0.604760  0.309970  1.0  -0.0819
  C  C726  1  0.040840  0.620130  0.324890  1.0  0.7526
  C  C727  1  0.578360  0.116360  0.283770  1.0  0.0838
  C  C728  1  0.566770  0.104760  0.309970  1.0  -0.0819
  C  C729  1  0.540840  0.120130  0.324890  1.0  0.7526
  C  C730  1  0.578360  0.616360  0.783770  1.0  0.0838
  C  C731  1  0.566770  0.604760  0.809970  1.0  -0.0819
  C  C732  1  0.540840  0.620130  0.824890  1.0  0.7526
  C  C733  1  0.078360  0.883640  0.216230  1.0  0.0854
  C  C734  1  0.066770  0.895240  0.190030  1.0  -0.0821
  C  C735  1  0.040840  0.879870  0.175110  1.0  0.7525
  C  C736  1  0.078360  0.383640  0.716230  1.0  0.0854
  C  C737  1  0.066770  0.395240  0.690030  1.0  -0.0821
  C  C738  1  0.040840  0.379870  0.675110  1.0  0.7525
  C  C739  1  0.578360  0.883640  0.716230  1.0  0.0854
  C  C740  1  0.566770  0.895240  0.690030  1.0  -0.0821
  C  C741  1  0.540840  0.879870  0.675110  1.0  0.7525
  C  C742  1  0.578360  0.383640  0.216230  1.0  0.0854
  C  C743  1  0.566770  0.395240  0.190030  1.0  -0.0821
  C  C744  1  0.540840  0.379870  0.175110  1.0  0.7525
  C  C745  1  0.921640  0.116360  0.216230  1.0  0.0846
  C  C746  1  0.933230  0.104760  0.190030  1.0  -0.0814
  C  C747  1  0.959160  0.120130  0.175110  1.0  0.7533
  C  C748  1  0.921640  0.616360  0.716230  1.0  0.0846
  C  C749  1  0.933230  0.604760  0.690030  1.0  -0.0814
  C  C750  1  0.959160  0.620130  0.675110  1.0  0.7533
  C  C751  1  0.421640  0.116360  0.716230  1.0  0.0846
  C  C752  1  0.433230  0.104760  0.690030  1.0  -0.0814
  C  C753  1  0.459160  0.120130  0.675110  1.0  0.7533
  C  C754  1  0.421640  0.616360  0.216230  1.0  0.0846
  C  C755  1  0.433230  0.604760  0.190030  1.0  -0.0814
  C  C756  1  0.459160  0.620130  0.175110  1.0  0.7533
  C  C757  1  0.921640  0.883640  0.783770  1.0  0.0839
  C  C758  1  0.933230  0.895240  0.809970  1.0  -0.0815
  C  C759  1  0.959160  0.879870  0.824890  1.0  0.7528
  C  C760  1  0.921640  0.383640  0.283770  1.0  0.0839
  C  C761  1  0.933230  0.395240  0.309970  1.0  -0.0815
  C  C762  1  0.959160  0.379870  0.324890  1.0  0.7528
  C  C763  1  0.421640  0.883640  0.283770  1.0  0.0839
  C  C764  1  0.433230  0.895240  0.309970  1.0  -0.0815
  C  C765  1  0.459160  0.879870  0.324890  1.0  0.7528
  C  C766  1  0.421640  0.383640  0.783770  1.0  0.0839
  C  C767  1  0.433230  0.395240  0.809970  1.0  -0.0815
  C  C768  1  0.459160  0.379870  0.824890  1.0  0.7528
  C  C769  1  0.783770  0.883640  0.921640  1.0  0.0856
  C  C770  1  0.809970  0.895240  0.933230  1.0  -0.082
  C  C771  1  0.824890  0.879870  0.959160  1.0  0.7546
  C  C772  1  0.783770  0.383640  0.421640  1.0  0.0856
  C  C773  1  0.809970  0.395240  0.433230  1.0  -0.082
  C  C774  1  0.824890  0.379870  0.459160  1.0  0.7546
  C  C775  1  0.283770  0.883640  0.421640  1.0  0.0856
  C  C776  1  0.309970  0.895240  0.433230  1.0  -0.082
  C  C777  1  0.324890  0.879870  0.459160  1.0  0.7546
  C  C778  1  0.283770  0.383640  0.921640  1.0  0.0856
  C  C779  1  0.309970  0.395240  0.933230  1.0  -0.082
  C  C780  1  0.324890  0.379870  0.959160  1.0  0.7546
  C  C781  1  0.216230  0.116360  0.921640  1.0  0.0842
  C  C782  1  0.190030  0.104760  0.933230  1.0  -0.0822
  C  C783  1  0.175110  0.120130  0.959160  1.0  0.7551
  C  C784  1  0.216230  0.616360  0.421640  1.0  0.0842
  C  C785  1  0.190030  0.604760  0.433230  1.0  -0.0822
  C  C786  1  0.175110  0.620130  0.459160  1.0  0.7551
  C  C787  1  0.716230  0.116360  0.421640  1.0  0.0842
  C  C788  1  0.690030  0.104760  0.433230  1.0  -0.0822
  C  C789  1  0.675110  0.120130  0.459160  1.0  0.7551
  C  C790  1  0.716230  0.616360  0.921640  1.0  0.0842
  C  C791  1  0.690030  0.604760  0.933230  1.0  -0.0822
  C  C792  1  0.675110  0.620130  0.959160  1.0  0.7551
  C  C793  1  0.216230  0.883640  0.078360  1.0  0.0839
  C  C794  1  0.190030  0.895240  0.066770  1.0  -0.0813
  C  C795  1  0.175110  0.879870  0.040840  1.0  0.7545
  C  C796  1  0.216230  0.383640  0.578360  1.0  0.0839
  C  C797  1  0.190030  0.395240  0.566770  1.0  -0.0813
  C  C798  1  0.175110  0.379870  0.540840  1.0  0.7545
  C  C799  1  0.716230  0.883640  0.578360  1.0  0.0839
  C  C800  1  0.690030  0.895240  0.566770  1.0  -0.0813
  C  C801  1  0.675110  0.879870  0.540840  1.0  0.7545
  C  C802  1  0.716230  0.383640  0.078360  1.0  0.0839
  C  C803  1  0.690030  0.395240  0.066770  1.0  -0.0813
  C  C804  1  0.675110  0.379870  0.040840  1.0  0.7545
  C  C805  1  0.783770  0.116360  0.078360  1.0  0.084
  C  C806  1  0.809970  0.104760  0.066770  1.0  -0.0803
  C  C807  1  0.824890  0.120130  0.040840  1.0  0.7546
  C  C808  1  0.783770  0.616360  0.578360  1.0  0.084
  C  C809  1  0.809970  0.604760  0.566770  1.0  -0.0803
  C  C810  1  0.824890  0.620130  0.540840  1.0  0.7546
  C  C811  1  0.283770  0.116360  0.578360  1.0  0.084
  C  C812  1  0.309970  0.104760  0.566770  1.0  -0.0803
  C  C813  1  0.324890  0.120130  0.540840  1.0  0.7546
  C  C814  1  0.283770  0.616360  0.078360  1.0  0.084
  C  C815  1  0.309970  0.604760  0.066770  1.0  -0.0803
  C  C816  1  0.324890  0.620130  0.040840  1.0  0.7546
  C  C817  1  0.921640  0.783770  0.883640  1.0  0.0834
  C  C818  1  0.933230  0.809970  0.895240  1.0  -0.0812
  C  C819  1  0.959160  0.824890  0.879870  1.0  0.7535
  C  C820  1  0.921640  0.283770  0.383640  1.0  0.0834
  C  C821  1  0.933230  0.309970  0.395240  1.0  -0.0812
  C  C822  1  0.959160  0.324890  0.379870  1.0  0.7535
  C  C823  1  0.421640  0.783770  0.383640  1.0  0.0834
  C  C824  1  0.433230  0.809970  0.395240  1.0  -0.0812
  C  C825  1  0.459160  0.824890  0.379870  1.0  0.7535
  C  C826  1  0.421640  0.283770  0.883640  1.0  0.0834
  C  C827  1  0.433230  0.309970  0.895240  1.0  -0.0812
  C  C828  1  0.459160  0.324890  0.879870  1.0  0.7535
  C  C829  1  0.921640  0.216230  0.116360  1.0  0.0836
  C  C830  1  0.933230  0.190030  0.104760  1.0  -0.0816
  C  C831  1  0.959160  0.175110  0.120130  1.0  0.7529
  C  C832  1  0.921640  0.716230  0.616360  1.0  0.0836
  C  C833  1  0.933230  0.690030  0.604760  1.0  -0.0816
  C  C834  1  0.959160  0.675110  0.620130  1.0  0.7529
  C  C835  1  0.421640  0.216230  0.616360  1.0  0.0836
  C  C836  1  0.433230  0.190030  0.604760  1.0  -0.0816
  C  C837  1  0.459160  0.175110  0.620130  1.0  0.7529
  C  C838  1  0.421640  0.716230  0.116360  1.0  0.0836
  C  C839  1  0.433230  0.690030  0.104760  1.0  -0.0816
  C  C840  1  0.459160  0.675110  0.120130  1.0  0.7529
  C  C841  1  0.078360  0.216230  0.883640  1.0  0.0834
  C  C842  1  0.066770  0.190030  0.895240  1.0  -0.0821
  C  C843  1  0.040840  0.175110  0.879870  1.0  0.7525
  C  C844  1  0.078360  0.716230  0.383640  1.0  0.0834
  C  C845  1  0.066770  0.690030  0.395240  1.0  -0.0821
  C  C846  1  0.040840  0.675110  0.379870  1.0  0.7525
  C  C847  1  0.578360  0.216230  0.383640  1.0  0.0834
  C  C848  1  0.566770  0.190030  0.395240  1.0  -0.0821
  C  C849  1  0.540840  0.175110  0.379870  1.0  0.7525
  C  C850  1  0.578360  0.716230  0.883640  1.0  0.0834
  C  C851  1  0.566770  0.690030  0.895240  1.0  -0.0821
  C  C852  1  0.540840  0.675110  0.879870  1.0  0.7525
  C  C853  1  0.078360  0.783770  0.116360  1.0  0.084
  C  C854  1  0.066770  0.809970  0.104760  1.0  -0.0819
  C  C855  1  0.040840  0.824890  0.120130  1.0  0.7528
  C  C856  1  0.078360  0.283770  0.616360  1.0  0.084
  C  C857  1  0.066770  0.309970  0.604760  1.0  -0.0819
  C  C858  1  0.040840  0.324890  0.620130  1.0  0.7528
  C  C859  1  0.578360  0.783770  0.616360  1.0  0.084
  C  C860  1  0.566770  0.809970  0.604760  1.0  -0.0819
  C  C861  1  0.540840  0.824890  0.620130  1.0  0.7528
  C  C862  1  0.578360  0.283770  0.116360  1.0  0.084
  C  C863  1  0.566770  0.309970  0.104760  1.0  -0.0819
  C  C864  1  0.540840  0.324890  0.120130  1.0  0.7528
  C  C865  1  0.883640  0.921640  0.783770  1.0  0.0839
  C  C866  1  0.895240  0.933230  0.809970  1.0  -0.0814
  C  C867  1  0.879870  0.959160  0.824890  1.0  0.7528
  C  C868  1  0.883640  0.421640  0.283770  1.0  0.0839
  C  C869  1  0.895240  0.433230  0.309970  1.0  -0.0814
  C  C870  1  0.879870  0.459160  0.324890  1.0  0.7528
  C  C871  1  0.383640  0.921640  0.283770  1.0  0.0839
  C  C872  1  0.395240  0.933230  0.309970  1.0  -0.0814
  C  C873  1  0.379870  0.959160  0.324890  1.0  0.7528
  C  C874  1  0.383640  0.421640  0.783770  1.0  0.0839
  C  C875  1  0.395240  0.433230  0.809970  1.0  -0.0814
  C  C876  1  0.379870  0.459160  0.824890  1.0  0.7528
  C  C877  1  0.116360  0.921640  0.216230  1.0  0.085
  C  C878  1  0.104760  0.933230  0.190030  1.0  -0.0811
  C  C879  1  0.120130  0.959160  0.175110  1.0  0.7531
  C  C880  1  0.116360  0.421640  0.716230  1.0  0.085
  C  C881  1  0.104760  0.433230  0.690030  1.0  -0.0811
  C  C882  1  0.120130  0.459160  0.675110  1.0  0.7531
  C  C883  1  0.616360  0.921640  0.716230  1.0  0.085
  C  C884  1  0.604760  0.933230  0.690030  1.0  -0.0811
  C  C885  1  0.620130  0.959160  0.675110  1.0  0.7531
  C  C886  1  0.616360  0.421640  0.216230  1.0  0.085
  C  C887  1  0.604760  0.433230  0.190030  1.0  -0.0811
  C  C888  1  0.620130  0.459160  0.175110  1.0  0.7531
  C  C889  1  0.883640  0.078360  0.216230  1.0  0.085
  C  C890  1  0.895240  0.066770  0.190030  1.0  -0.0817
  C  C891  1  0.879870  0.040840  0.175110  1.0  0.7529
  C  C892  1  0.883640  0.578360  0.716230  1.0  0.085
  C  C893  1  0.895240  0.566770  0.690030  1.0  -0.0817
  C  C894  1  0.879870  0.540840  0.675110  1.0  0.7529
  C  C895  1  0.383640  0.078360  0.716230  1.0  0.085
  C  C896  1  0.395240  0.066770  0.690030  1.0  -0.0817
  C  C897  1  0.379870  0.040840  0.675110  1.0  0.7529
  C  C898  1  0.383640  0.578360  0.216230  1.0  0.085
  C  C899  1  0.395240  0.566770  0.190030  1.0  -0.0817
  C  C900  1  0.379870  0.540840  0.175110  1.0  0.7529
  C  C901  1  0.116360  0.078360  0.783770  1.0  0.0836
  C  C902  1  0.104760  0.066770  0.809970  1.0  -0.0813
  C  C903  1  0.120130  0.040840  0.824890  1.0  0.7529
  C  C904  1  0.116360  0.578360  0.283770  1.0  0.0836
  C  C905  1  0.104760  0.566770  0.309970  1.0  -0.0813
  C  C906  1  0.120130  0.540840  0.324890  1.0  0.7529
  C  C907  1  0.616360  0.078360  0.283770  1.0  0.0836
  C  C908  1  0.604760  0.066770  0.309970  1.0  -0.0813
  C  C909  1  0.620130  0.040840  0.324890  1.0  0.7529
  C  C910  1  0.616360  0.578360  0.783770  1.0  0.0836
  C  C911  1  0.604760  0.566770  0.809970  1.0  -0.0813
  C  C912  1  0.620130  0.540840  0.824890  1.0  0.7529
  C  C913  1  0.883640  0.783770  0.078360  1.0  0.0834
  C  C914  1  0.895240  0.809970  0.066770  1.0  -0.0808
  C  C915  1  0.879870  0.824890  0.040840  1.0  0.7543
  C  C916  1  0.883640  0.283770  0.578360  1.0  0.0834
  C  C917  1  0.895240  0.309970  0.566770  1.0  -0.0808
  C  C918  1  0.879870  0.324890  0.540840  1.0  0.7543
  C  C919  1  0.383640  0.783770  0.578360  1.0  0.0834
  C  C920  1  0.395240  0.809970  0.566770  1.0  -0.0808
  C  C921  1  0.379870  0.824890  0.540840  1.0  0.7543
  C  C922  1  0.383640  0.283770  0.078360  1.0  0.0834
  C  C923  1  0.395240  0.309970  0.066770  1.0  -0.0808
  C  C924  1  0.379870  0.324890  0.040840  1.0  0.7543
  C  C925  1  0.116360  0.216230  0.078360  1.0  0.0841
  C  C926  1  0.104760  0.190030  0.066770  1.0  -0.0807
  C  C927  1  0.120130  0.175110  0.040840  1.0  0.7539
  C  C928  1  0.116360  0.716230  0.578360  1.0  0.0841
  C  C929  1  0.104760  0.690030  0.566770  1.0  -0.0807
  C  C930  1  0.120130  0.675110  0.540840  1.0  0.7539
  C  C931  1  0.616360  0.216230  0.578360  1.0  0.0841
  C  C932  1  0.604760  0.190030  0.566770  1.0  -0.0807
  C  C933  1  0.620130  0.175110  0.540840  1.0  0.7539
  C  C934  1  0.616360  0.716230  0.078360  1.0  0.0841
  C  C935  1  0.604760  0.690030  0.066770  1.0  -0.0807
  C  C936  1  0.620130  0.675110  0.040840  1.0  0.7539
  C  C937  1  0.883640  0.216230  0.921640  1.0  0.0844
  C  C938  1  0.895240  0.190030  0.933230  1.0  -0.0821
  C  C939  1  0.879870  0.175110  0.959160  1.0  0.7541
  C  C940  1  0.883640  0.716230  0.421640  1.0  0.0844
  C  C941  1  0.895240  0.690030  0.433230  1.0  -0.0821
  C  C942  1  0.879870  0.675110  0.459160  1.0  0.7541
  C  C943  1  0.383640  0.216230  0.421640  1.0  0.0844
  C  C944  1  0.395240  0.190030  0.433230  1.0  -0.0821
  C  C945  1  0.379870  0.175110  0.459160  1.0  0.7541
  C  C946  1  0.383640  0.716230  0.921640  1.0  0.0844
  C  C947  1  0.395240  0.690030  0.933230  1.0  -0.0821
  C  C948  1  0.379870  0.675110  0.959160  1.0  0.7541
  C  C949  1  0.116360  0.783770  0.921640  1.0  0.0848
  C  C950  1  0.104760  0.809970  0.933230  1.0  -0.0819
  C  C951  1  0.120130  0.824890  0.959160  1.0  0.7547
  C  C952  1  0.116360  0.283770  0.421640  1.0  0.0848
  C  C953  1  0.104760  0.309970  0.433230  1.0  -0.0819
  C  C954  1  0.120130  0.324890  0.459160  1.0  0.7547
  C  C955  1  0.616360  0.783770  0.421640  1.0  0.0848
  C  C956  1  0.604760  0.809970  0.433230  1.0  -0.0819
  C  C957  1  0.620130  0.824890  0.459160  1.0  0.7547
  C  C958  1  0.616360  0.283770  0.921640  1.0  0.0848
  C  C959  1  0.604760  0.309970  0.933230  1.0  -0.0819
  C  C960  1  0.620130  0.324890  0.959160  1.0  0.7547
  C  C961  1  0.783770  0.921640  0.116360  1.0  0.0842
  C  C962  1  0.809970  0.933230  0.104760  1.0  -0.0811
  C  C963  1  0.824890  0.959160  0.120130  1.0  0.7533
  C  C964  1  0.783770  0.421640  0.616360  1.0  0.0842
  C  C965  1  0.809970  0.433230  0.604760  1.0  -0.0811
  C  C966  1  0.824890  0.459160  0.620130  1.0  0.7533
  C  C967  1  0.283770  0.921640  0.616360  1.0  0.0842
  C  C968  1  0.309970  0.933230  0.604760  1.0  -0.0811
  C  C969  1  0.324890  0.959160  0.620130  1.0  0.7533
  C  C970  1  0.283770  0.421640  0.116360  1.0  0.0842
  C  C971  1  0.309970  0.433230  0.104760  1.0  -0.0811
  C  C972  1  0.324890  0.459160  0.120130  1.0  0.7533
  C  C973  1  0.216230  0.921640  0.883640  1.0  0.0841
  C  C974  1  0.190030  0.933230  0.895240  1.0  -0.0815
  C  C975  1  0.175110  0.959160  0.879870  1.0  0.7536
  C  C976  1  0.216230  0.421640  0.383640  1.0  0.0841
  C  C977  1  0.190030  0.433230  0.395240  1.0  -0.0815
  C  C978  1  0.175110  0.459160  0.379870  1.0  0.7536
  C  C979  1  0.716230  0.921640  0.383640  1.0  0.0841
  C  C980  1  0.690030  0.933230  0.395240  1.0  -0.0815
  C  C981  1  0.675110  0.959160  0.379870  1.0  0.7536
  C  C982  1  0.716230  0.421640  0.883640  1.0  0.0841
  C  C983  1  0.690030  0.433230  0.895240  1.0  -0.0815
  C  C984  1  0.675110  0.459160  0.879870  1.0  0.7536
  C  C985  1  0.216230  0.078360  0.116360  1.0  0.0844
  C  C986  1  0.190030  0.066770  0.104760  1.0  -0.0818
  C  C987  1  0.175110  0.040840  0.120130  1.0  0.7536
  C  C988  1  0.216230  0.578360  0.616360  1.0  0.0844
  C  C989  1  0.190030  0.566770  0.604760  1.0  -0.0818
  C  C990  1  0.175110  0.540840  0.620130  1.0  0.7536
  C  C991  1  0.716230  0.078360  0.616360  1.0  0.0844
  C  C992  1  0.690030  0.066770  0.604760  1.0  -0.0818
  C  C993  1  0.675110  0.040840  0.620130  1.0  0.7536
  C  C994  1  0.716230  0.578360  0.116360  1.0  0.0844
  C  C995  1  0.690030  0.566770  0.104760  1.0  -0.0818
  C  C996  1  0.675110  0.540840  0.120130  1.0  0.7536
  C  C997  1  0.783770  0.078360  0.883640  1.0  0.0837
  C  C998  1  0.809970  0.066770  0.895240  1.0  -0.0813
  C  C999  1  0.824890  0.040840  0.879870  1.0  0.7534
  C  C1000  1  0.783770  0.578360  0.383640  1.0  0.0837
  C  C1001  1  0.809970  0.566770  0.395240  1.0  -0.0813
  C  C1002  1  0.824890  0.540840  0.379870  1.0  0.7534
  C  C1003  1  0.283770  0.078360  0.383640  1.0  0.0837
  C  C1004  1  0.309970  0.066770  0.395240  1.0  -0.0813
  C  C1005  1  0.324890  0.040840  0.379870  1.0  0.7534
  C  C1006  1  0.283770  0.578360  0.883640  1.0  0.0837
  C  C1007  1  0.309970  0.566770  0.895240  1.0  -0.0813
  C  C1008  1  0.324890  0.540840  0.879870  1.0  0.7534
  C  C1009  1  0.921640  0.883640  0.216230  1.0  0.0856
  C  C1010  1  0.933230  0.895240  0.190030  1.0  -0.0815
  C  C1011  1  0.959160  0.879870  0.175110  1.0  0.7529
  C  C1012  1  0.921640  0.383640  0.716230  1.0  0.0856
  C  C1013  1  0.933230  0.395240  0.690030  1.0  -0.0815
  C  C1014  1  0.959160  0.379870  0.675110  1.0  0.7529
  C  C1015  1  0.421640  0.883640  0.716230  1.0  0.0856
  C  C1016  1  0.433230  0.895240  0.690030  1.0  -0.0815
  C  C1017  1  0.459160  0.879870  0.675110  1.0  0.7529
  C  C1018  1  0.421640  0.383640  0.216230  1.0  0.0856
  C  C1019  1  0.433230  0.395240  0.190030  1.0  -0.0815
  C  C1020  1  0.459160  0.379870  0.175110  1.0  0.7529
  C  C1021  1  0.921640  0.116360  0.783770  1.0  0.0838
  C  C1022  1  0.933230  0.104760  0.809970  1.0  -0.0814
  C  C1023  1  0.959160  0.120130  0.824890  1.0  0.7532
  C  C1024  1  0.921640  0.616360  0.283770  1.0  0.0838
  C  C1025  1  0.933230  0.604760  0.309970  1.0  -0.0814
  C  C1026  1  0.959160  0.620130  0.324890  1.0  0.7532
  C  C1027  1  0.421640  0.116360  0.283770  1.0  0.0838
  C  C1028  1  0.433230  0.104760  0.309970  1.0  -0.0814
  C  C1029  1  0.459160  0.120130  0.324890  1.0  0.7532
  C  C1030  1  0.421640  0.616360  0.783770  1.0  0.0838
  C  C1031  1  0.433230  0.604760  0.809970  1.0  -0.0814
  C  C1032  1  0.459160  0.620130  0.824890  1.0  0.7532
  C  C1033  1  0.078360  0.883640  0.783770  1.0  0.084
  C  C1034  1  0.066770  0.895240  0.809970  1.0  -0.0821
  C  C1035  1  0.040840  0.879870  0.824890  1.0  0.7524
  C  C1036  1  0.078360  0.383640  0.283770  1.0  0.084
  C  C1037  1  0.066770  0.395240  0.309970  1.0  -0.0821
  C  C1038  1  0.040840  0.379870  0.324890  1.0  0.7524
  C  C1039  1  0.578360  0.883640  0.283770  1.0  0.084
  C  C1040  1  0.566770  0.895240  0.309970  1.0  -0.0821
  C  C1041  1  0.540840  0.879870  0.324890  1.0  0.7524
  C  C1042  1  0.578360  0.383640  0.783770  1.0  0.084
  C  C1043  1  0.566770  0.395240  0.809970  1.0  -0.0821
  C  C1044  1  0.540840  0.379870  0.824890  1.0  0.7524
  C  C1045  1  0.078360  0.116360  0.216230  1.0  0.0844
  C  C1046  1  0.066770  0.104760  0.190030  1.0  -0.082
  C  C1047  1  0.040840  0.120130  0.175110  1.0  0.7526
  C  C1048  1  0.078360  0.616360  0.716230  1.0  0.0844
  C  C1049  1  0.066770  0.604760  0.690030  1.0  -0.082
  C  C1050  1  0.040840  0.620130  0.675110  1.0  0.7526
  C  C1051  1  0.578360  0.116360  0.716230  1.0  0.0844
  C  C1052  1  0.566770  0.104760  0.690030  1.0  -0.082
  C  C1053  1  0.540840  0.120130  0.675110  1.0  0.7526
  C  C1054  1  0.578360  0.616360  0.216230  1.0  0.0844
  C  C1055  1  0.566770  0.604760  0.190030  1.0  -0.082
  C  C1056  1  0.540840  0.620130  0.175110  1.0  0.7526
  C  C1057  1  0.257100  0.116800  0.116800  1.0  0.5038
  C  C1058  1  0.229130  0.103680  0.103680  1.0  0.0194
  C  C1059  1  0.177260  0.079990  0.079990  1.0  0.0926
  C  C1060  1  0.257100  0.616800  0.616800  1.0  0.5038
  C  C1061  1  0.229130  0.603680  0.603680  1.0  0.0194
  C  C1062  1  0.177260  0.579990  0.579990  1.0  0.0926
  C  C1063  1  0.757100  0.116800  0.616800  1.0  0.5038
  C  C1064  1  0.729130  0.103680  0.603680  1.0  0.0194
  C  C1065  1  0.677260  0.079990  0.579990  1.0  0.0926
  C  C1066  1  0.757100  0.616800  0.116800  1.0  0.5038
  C  C1067  1  0.729130  0.603680  0.103680  1.0  0.0194
  C  C1068  1  0.677260  0.579990  0.079990  1.0  0.0926
  C  C1069  1  0.742900  0.883200  0.116800  1.0  0.5008
  C  C1070  1  0.770870  0.896320  0.103680  1.0  0.0193
  C  C1071  1  0.822740  0.920010  0.079990  1.0  0.0933
  C  C1072  1  0.742900  0.383200  0.616800  1.0  0.5008
  C  C1073  1  0.770870  0.396320  0.603680  1.0  0.0193
  C  C1074  1  0.822740  0.420010  0.579990  1.0  0.0933
  C  C1075  1  0.242900  0.883200  0.616800  1.0  0.5008
  C  C1076  1  0.270870  0.896320  0.603680  1.0  0.0193
  C  C1077  1  0.322740  0.920010  0.579990  1.0  0.0933
  C  C1078  1  0.242900  0.383200  0.116800  1.0  0.5008
  C  C1079  1  0.270870  0.396320  0.103680  1.0  0.0193
  C  C1080  1  0.322740  0.420010  0.079990  1.0  0.0933
  C  C1081  1  0.742900  0.116800  0.883200  1.0  0.5007
  C  C1082  1  0.770870  0.103680  0.896320  1.0  0.019
  C  C1083  1  0.822740  0.079990  0.920010  1.0  0.0938
  C  C1084  1  0.742900  0.616800  0.383200  1.0  0.5007
  C  C1085  1  0.770870  0.603680  0.396320  1.0  0.019
  C  C1086  1  0.822740  0.579990  0.420010  1.0  0.0938
  C  C1087  1  0.242900  0.116800  0.383200  1.0  0.5007
  C  C1088  1  0.270870  0.103680  0.396320  1.0  0.019
  C  C1089  1  0.322740  0.079990  0.420010  1.0  0.0938
  C  C1090  1  0.242900  0.616800  0.883200  1.0  0.5007
  C  C1091  1  0.270870  0.603680  0.896320  1.0  0.019
  C  C1092  1  0.322740  0.579990  0.920010  1.0  0.0938
  C  C1093  1  0.257100  0.883200  0.883200  1.0  0.5041
  C  C1094  1  0.229130  0.896320  0.896320  1.0  0.0196
  C  C1095  1  0.177260  0.920010  0.920010  1.0  0.0928
  C  C1096  1  0.257100  0.383200  0.383200  1.0  0.5041
  C  C1097  1  0.229130  0.396320  0.396320  1.0  0.0196
  C  C1098  1  0.177260  0.420010  0.420010  1.0  0.0928
  C  C1099  1  0.757100  0.883200  0.383200  1.0  0.5041
  C  C1100  1  0.729130  0.896320  0.396320  1.0  0.0196
  C  C1101  1  0.677260  0.920010  0.420010  1.0  0.0928
  C  C1102  1  0.757100  0.383200  0.883200  1.0  0.5041
  C  C1103  1  0.729130  0.396320  0.896320  1.0  0.0196
  C  C1104  1  0.677260  0.420010  0.920010  1.0  0.0928
  C  C1105  1  0.116800  0.257100  0.116800  1.0  0.5052
  C  C1106  1  0.103680  0.229130  0.103680  1.0  0.0205
  C  C1107  1  0.079990  0.177260  0.079990  1.0  0.093
  C  C1108  1  0.116800  0.757100  0.616800  1.0  0.5052
  C  C1109  1  0.103680  0.729130  0.603680  1.0  0.0205
  C  C1110  1  0.079990  0.677260  0.579990  1.0  0.093
  C  C1111  1  0.616800  0.257100  0.616800  1.0  0.5052
  C  C1112  1  0.603680  0.229130  0.603680  1.0  0.0205
  C  C1113  1  0.579990  0.177260  0.579990  1.0  0.093
  C  C1114  1  0.616800  0.757100  0.116800  1.0  0.5052
  C  C1115  1  0.603680  0.729130  0.103680  1.0  0.0205
  C  C1116  1  0.579990  0.677260  0.079990  1.0  0.093
  C  C1117  1  0.116800  0.742900  0.883200  1.0  0.5055
  C  C1118  1  0.103680  0.770870  0.896320  1.0  0.0198
  C  C1119  1  0.079990  0.822740  0.920010  1.0  0.0933
  C  C1120  1  0.116800  0.242900  0.383200  1.0  0.5055
  C  C1121  1  0.103680  0.270870  0.396320  1.0  0.0198
  C  C1122  1  0.079990  0.322740  0.420010  1.0  0.0933
  C  C1123  1  0.616800  0.742900  0.383200  1.0  0.5055
  C  C1124  1  0.603680  0.770870  0.396320  1.0  0.0198
  C  C1125  1  0.579990  0.822740  0.420010  1.0  0.0933
  C  C1126  1  0.616800  0.242900  0.883200  1.0  0.5055
  C  C1127  1  0.603680  0.270870  0.896320  1.0  0.0198
  C  C1128  1  0.579990  0.322740  0.920010  1.0  0.0933
  C  C1129  1  0.883200  0.742900  0.116800  1.0  0.5055
  C  C1130  1  0.896320  0.770870  0.103680  1.0  0.0195
  C  C1131  1  0.920010  0.822740  0.079990  1.0  0.094
  C  C1132  1  0.883200  0.242900  0.616800  1.0  0.5055
  C  C1133  1  0.896320  0.270870  0.603680  1.0  0.0195
  C  C1134  1  0.920010  0.322740  0.579990  1.0  0.094
  C  C1135  1  0.383200  0.742900  0.616800  1.0  0.5055
  C  C1136  1  0.396320  0.770870  0.603680  1.0  0.0195
  C  C1137  1  0.420010  0.822740  0.579990  1.0  0.094
  C  C1138  1  0.383200  0.242900  0.116800  1.0  0.5055
  C  C1139  1  0.396320  0.270870  0.103680  1.0  0.0195
  C  C1140  1  0.420010  0.322740  0.079990  1.0  0.094
  C  C1141  1  0.883200  0.257100  0.883200  1.0  0.5052
  C  C1142  1  0.896320  0.229130  0.896320  1.0  0.0201
  C  C1143  1  0.920010  0.177260  0.920010  1.0  0.0937
  C  C1144  1  0.883200  0.757100  0.383200  1.0  0.5052
  C  C1145  1  0.896320  0.729130  0.396320  1.0  0.0201
  C  C1146  1  0.920010  0.677260  0.420010  1.0  0.0937
  C  C1147  1  0.383200  0.257100  0.383200  1.0  0.5052
  C  C1148  1  0.396320  0.229130  0.396320  1.0  0.0201
  C  C1149  1  0.420010  0.177260  0.420010  1.0  0.0937
  C  C1150  1  0.383200  0.757100  0.883200  1.0  0.5052
  C  C1151  1  0.396320  0.729130  0.896320  1.0  0.0201
  C  C1152  1  0.420010  0.677260  0.920010  1.0  0.0937
  C  C1153  1  0.116800  0.116800  0.257100  1.0  0.5081
  C  C1154  1  0.103680  0.103680  0.229130  1.0  0.0179
  C  C1155  1  0.079990  0.079990  0.177260  1.0  0.0932
  C  C1156  1  0.116800  0.616800  0.757100  1.0  0.5081
  C  C1157  1  0.103680  0.603680  0.729130  1.0  0.0179
  C  C1158  1  0.079990  0.579990  0.677260  1.0  0.0932
  C  C1159  1  0.616800  0.116800  0.757100  1.0  0.5081
  C  C1160  1  0.603680  0.103680  0.729130  1.0  0.0179
  C  C1161  1  0.579990  0.079990  0.677260  1.0  0.0932
  C  C1162  1  0.616800  0.616800  0.257100  1.0  0.5081
  C  C1163  1  0.603680  0.603680  0.229130  1.0  0.0179
  C  C1164  1  0.579990  0.579990  0.177260  1.0  0.0932
  C  C1165  1  0.883200  0.116800  0.742900  1.0  0.5074
  C  C1166  1  0.896320  0.103680  0.770870  1.0  0.0165
  C  C1167  1  0.920010  0.079990  0.822740  1.0  0.0936
  C  C1168  1  0.883200  0.616800  0.242900  1.0  0.5074
  C  C1169  1  0.896320  0.603680  0.270870  1.0  0.0165
  C  C1170  1  0.920010  0.579990  0.322740  1.0  0.0936
  C  C1171  1  0.383200  0.116800  0.242900  1.0  0.5074
  C  C1172  1  0.396320  0.103680  0.270870  1.0  0.0165
  C  C1173  1  0.420010  0.079990  0.322740  1.0  0.0936
  C  C1174  1  0.383200  0.616800  0.742900  1.0  0.5074
  C  C1175  1  0.396320  0.603680  0.770870  1.0  0.0165
  C  C1176  1  0.420010  0.579990  0.822740  1.0  0.0936
  C  C1177  1  0.116800  0.883200  0.742900  1.0  0.508
  C  C1178  1  0.103680  0.896320  0.770870  1.0  0.0169
  C  C1179  1  0.079990  0.920010  0.822740  1.0  0.0925
  C  C1180  1  0.116800  0.383200  0.242900  1.0  0.508
  C  C1181  1  0.103680  0.396320  0.270870  1.0  0.0169
  C  C1182  1  0.079990  0.420010  0.322740  1.0  0.0925
  C  C1183  1  0.616800  0.883200  0.242900  1.0  0.508
  C  C1184  1  0.603680  0.896320  0.270870  1.0  0.0169
  C  C1185  1  0.579990  0.920010  0.322740  1.0  0.0925
  C  C1186  1  0.616800  0.383200  0.742900  1.0  0.508
  C  C1187  1  0.603680  0.396320  0.770870  1.0  0.0169
  C  C1188  1  0.579990  0.420010  0.822740  1.0  0.0925
  C  C1189  1  0.883200  0.883200  0.257100  1.0  0.5085
  C  C1190  1  0.896320  0.896320  0.229130  1.0  0.0177
  C  C1191  1  0.920010  0.920010  0.177260  1.0  0.0937
  C  C1192  1  0.883200  0.383200  0.757100  1.0  0.5085
  C  C1193  1  0.896320  0.396320  0.729130  1.0  0.0177
  C  C1194  1  0.920010  0.420010  0.677260  1.0  0.0937
  C  C1195  1  0.383200  0.883200  0.757100  1.0  0.5085
  C  C1196  1  0.396320  0.896320  0.729130  1.0  0.0177
  C  C1197  1  0.420010  0.920010  0.677260  1.0  0.0937
  C  C1198  1  0.383200  0.383200  0.257100  1.0  0.5085
  C  C1199  1  0.396320  0.396320  0.229130  1.0  0.0177
  C  C1200  1  0.420010  0.420010  0.177260  1.0  0.0937
  C  C1201  1  0.116800  0.257100  0.883200  1.0  0.5052
  C  C1202  1  0.103680  0.229130  0.896320  1.0  0.0205
  C  C1203  1  0.079990  0.177260  0.920010  1.0  0.0932
  C  C1204  1  0.116800  0.757100  0.383200  1.0  0.5052
  C  C1205  1  0.103680  0.729130  0.396320  1.0  0.0205
  C  C1206  1  0.079990  0.677260  0.420010  1.0  0.0932
  C  C1207  1  0.616800  0.257100  0.383200  1.0  0.5052
  C  C1208  1  0.603680  0.229130  0.396320  1.0  0.0205
  C  C1209  1  0.579990  0.177260  0.420010  1.0  0.0932
  C  C1210  1  0.616800  0.757100  0.883200  1.0  0.5052
  C  C1211  1  0.603680  0.729130  0.896320  1.0  0.0205
  C  C1212  1  0.579990  0.677260  0.920010  1.0  0.0932
  C  C1213  1  0.883200  0.742900  0.883200  1.0  0.5057
  C  C1214  1  0.896320  0.770870  0.896320  1.0  0.0191
  C  C1215  1  0.920010  0.822740  0.920010  1.0  0.0938
  C  C1216  1  0.883200  0.242900  0.383200  1.0  0.5057
  C  C1217  1  0.896320  0.270870  0.396320  1.0  0.0191
  C  C1218  1  0.920010  0.322740  0.420010  1.0  0.0938
  C  C1219  1  0.383200  0.742900  0.383200  1.0  0.5057
  C  C1220  1  0.396320  0.770870  0.396320  1.0  0.0191
  C  C1221  1  0.420010  0.822740  0.420010  1.0  0.0938
  C  C1222  1  0.383200  0.242900  0.883200  1.0  0.5057
  C  C1223  1  0.396320  0.270870  0.896320  1.0  0.0191
  C  C1224  1  0.420010  0.322740  0.920010  1.0  0.0938
  C  C1225  1  0.116800  0.742900  0.116800  1.0  0.5053
  C  C1226  1  0.103680  0.770870  0.103680  1.0  0.0202
  C  C1227  1  0.079990  0.822740  0.079990  1.0  0.0934
  C  C1228  1  0.116800  0.242900  0.616800  1.0  0.5053
  C  C1229  1  0.103680  0.270870  0.603680  1.0  0.0202
  C  C1230  1  0.079990  0.322740  0.579990  1.0  0.0934
  C  C1231  1  0.616800  0.742900  0.616800  1.0  0.5053
  C  C1232  1  0.603680  0.770870  0.603680  1.0  0.0202
  C  C1233  1  0.579990  0.822740  0.579990  1.0  0.0934
  C  C1234  1  0.616800  0.242900  0.116800  1.0  0.5053
  C  C1235  1  0.603680  0.270870  0.103680  1.0  0.0202
  C  C1236  1  0.579990  0.322740  0.079990  1.0  0.0934
  C  C1237  1  0.883200  0.257100  0.116800  1.0  0.5052
  C  C1238  1  0.896320  0.229130  0.103680  1.0  0.02
  C  C1239  1  0.920010  0.177260  0.079990  1.0  0.0937
  C  C1240  1  0.883200  0.757100  0.616800  1.0  0.5052
  C  C1241  1  0.896320  0.729130  0.603680  1.0  0.02
  C  C1242  1  0.920010  0.677260  0.579990  1.0  0.0937
  C  C1243  1  0.383200  0.257100  0.616800  1.0  0.5052
  C  C1244  1  0.396320  0.229130  0.603680  1.0  0.02
  C  C1245  1  0.420010  0.177260  0.579990  1.0  0.0937
  C  C1246  1  0.383200  0.757100  0.116800  1.0  0.5052
  C  C1247  1  0.396320  0.729130  0.103680  1.0  0.02
  C  C1248  1  0.420010  0.677260  0.079990  1.0  0.0937
  C  C1249  1  0.257100  0.116800  0.883200  1.0  0.5038
  C  C1250  1  0.229130  0.103680  0.896320  1.0  0.0194
  C  C1251  1  0.177260  0.079990  0.920010  1.0  0.0934
  C  C1252  1  0.257100  0.616800  0.383200  1.0  0.5038
  C  C1253  1  0.229130  0.603680  0.396320  1.0  0.0194
  C  C1254  1  0.177260  0.579990  0.420010  1.0  0.0934
  C  C1255  1  0.757100  0.116800  0.383200  1.0  0.5038
  C  C1256  1  0.729130  0.103680  0.396320  1.0  0.0194
  C  C1257  1  0.677260  0.079990  0.420010  1.0  0.0934
  C  C1258  1  0.757100  0.616800  0.883200  1.0  0.5038
  C  C1259  1  0.729130  0.603680  0.896320  1.0  0.0194
  C  C1260  1  0.677260  0.579990  0.920010  1.0  0.0934
  C  C1261  1  0.742900  0.116800  0.116800  1.0  0.5006
  C  C1262  1  0.770870  0.103680  0.103680  1.0  0.0192
  C  C1263  1  0.822740  0.079990  0.079990  1.0  0.0935
  C  C1264  1  0.742900  0.616800  0.616800  1.0  0.5006
  C  C1265  1  0.770870  0.603680  0.603680  1.0  0.0192
  C  C1266  1  0.822740  0.579990  0.579990  1.0  0.0935
  C  C1267  1  0.242900  0.116800  0.616800  1.0  0.5006
  C  C1268  1  0.270870  0.103680  0.603680  1.0  0.0192
  C  C1269  1  0.322740  0.079990  0.579990  1.0  0.0935
  C  C1270  1  0.242900  0.616800  0.116800  1.0  0.5006
  C  C1271  1  0.270870  0.603680  0.103680  1.0  0.0192
  C  C1272  1  0.322740  0.579990  0.079990  1.0  0.0935
  C  C1273  1  0.742900  0.883200  0.883200  1.0  0.5009
  C  C1274  1  0.770870  0.896320  0.896320  1.0  0.019
  C  C1275  1  0.822740  0.920010  0.920010  1.0  0.0934
  C  C1276  1  0.742900  0.383200  0.383200  1.0  0.5009
  C  C1277  1  0.770870  0.396320  0.396320  1.0  0.019
  C  C1278  1  0.822740  0.420010  0.420010  1.0  0.0934
  C  C1279  1  0.242900  0.883200  0.383200  1.0  0.5009
  C  C1280  1  0.270870  0.896320  0.396320  1.0  0.019
  C  C1281  1  0.322740  0.920010  0.420010  1.0  0.0934
  C  C1282  1  0.242900  0.383200  0.883200  1.0  0.5009
  C  C1283  1  0.270870  0.396320  0.896320  1.0  0.019
  C  C1284  1  0.322740  0.420010  0.920010  1.0  0.0934
  C  C1285  1  0.257100  0.883200  0.116800  1.0  0.5041
  C  C1286  1  0.229130  0.896320  0.103680  1.0  0.0197
  C  C1287  1  0.177260  0.920010  0.079990  1.0  0.0925
  C  C1288  1  0.257100  0.383200  0.616800  1.0  0.5041
  C  C1289  1  0.229130  0.396320  0.603680  1.0  0.0197
  C  C1290  1  0.177260  0.420010  0.579990  1.0  0.0925
  C  C1291  1  0.757100  0.883200  0.616800  1.0  0.5041
  C  C1292  1  0.729130  0.896320  0.603680  1.0  0.0197
  C  C1293  1  0.677260  0.920010  0.579990  1.0  0.0925
  C  C1294  1  0.757100  0.383200  0.116800  1.0  0.5041
  C  C1295  1  0.729130  0.396320  0.103680  1.0  0.0197
  C  C1296  1  0.677260  0.420010  0.079990  1.0  0.0925
  C  C1297  1  0.116800  0.116800  0.742900  1.0  0.5072
  C  C1298  1  0.103680  0.103680  0.770870  1.0  0.0171
  C  C1299  1  0.079990  0.079990  0.822740  1.0  0.0928
  C  C1300  1  0.116800  0.616800  0.242900  1.0  0.5072
  C  C1301  1  0.103680  0.603680  0.270870  1.0  0.0171
  C  C1302  1  0.079990  0.579990  0.322740  1.0  0.0928
  C  C1303  1  0.616800  0.116800  0.242900  1.0  0.5072
  C  C1304  1  0.603680  0.103680  0.270870  1.0  0.0171
  C  C1305  1  0.579990  0.079990  0.322740  1.0  0.0928
  C  C1306  1  0.616800  0.616800  0.742900  1.0  0.5072
  C  C1307  1  0.603680  0.603680  0.770870  1.0  0.0171
  C  C1308  1  0.579990  0.579990  0.822740  1.0  0.0928
  C  C1309  1  0.116800  0.883200  0.257100  1.0  0.5083
  C  C1310  1  0.103680  0.896320  0.229130  1.0  0.0181
  C  C1311  1  0.079990  0.920010  0.177260  1.0  0.0934
  C  C1312  1  0.116800  0.383200  0.757100  1.0  0.5083
  C  C1313  1  0.103680  0.396320  0.729130  1.0  0.0181
  C  C1314  1  0.079990  0.420010  0.677260  1.0  0.0934
  C  C1315  1  0.616800  0.883200  0.757100  1.0  0.5083
  C  C1316  1  0.603680  0.896320  0.729130  1.0  0.0181
  C  C1317  1  0.579990  0.920010  0.677260  1.0  0.0934
  C  C1318  1  0.616800  0.383200  0.257100  1.0  0.5083
  C  C1319  1  0.603680  0.396320  0.229130  1.0  0.0181
  C  C1320  1  0.579990  0.420010  0.177260  1.0  0.0934
  C  C1321  1  0.883200  0.116800  0.257100  1.0  0.5082
  C  C1322  1  0.896320  0.103680  0.229130  1.0  0.0175
  C  C1323  1  0.920010  0.079990  0.177260  1.0  0.0937
  C  C1324  1  0.883200  0.616800  0.757100  1.0  0.5082
  C  C1325  1  0.896320  0.603680  0.729130  1.0  0.0175
  C  C1326  1  0.920010  0.579990  0.677260  1.0  0.0937
  C  C1327  1  0.383200  0.116800  0.757100  1.0  0.5082
  C  C1328  1  0.396320  0.103680  0.729130  1.0  0.0175
  C  C1329  1  0.420010  0.079990  0.677260  1.0  0.0937
  C  C1330  1  0.383200  0.616800  0.257100  1.0  0.5082
  C  C1331  1  0.396320  0.603680  0.229130  1.0  0.0175
  C  C1332  1  0.420010  0.579990  0.177260  1.0  0.0937
  C  C1333  1  0.883200  0.883200  0.742900  1.0  0.5082
  C  C1334  1  0.896320  0.896320  0.770870  1.0  0.0162
  C  C1335  1  0.920010  0.920010  0.822740  1.0  0.0933
  C  C1336  1  0.883200  0.383200  0.242900  1.0  0.5082
  C  C1337  1  0.896320  0.396320  0.270870  1.0  0.0162
  C  C1338  1  0.920010  0.420010  0.322740  1.0  0.0933
  C  C1339  1  0.383200  0.883200  0.242900  1.0  0.5082
  C  C1340  1  0.396320  0.896320  0.270870  1.0  0.0162
  C  C1341  1  0.420010  0.920010  0.322740  1.0  0.0933
  C  C1342  1  0.383200  0.383200  0.742900  1.0  0.5082
  C  C1343  1  0.396320  0.396320  0.770870  1.0  0.0162
  C  C1344  1  0.420010  0.420010  0.822740  1.0  0.0933
  N  N1345  1  0.270220  0.105950  0.140660  1.0  -0.2596
  N  N1346  1  0.292730  0.125040  0.145200  1.0  0.0236
  N  N1347  1  0.270220  0.605950  0.640660  1.0  -0.2596
  N  N1348  1  0.292730  0.625040  0.645200  1.0  0.0236
  N  N1349  1  0.770220  0.105950  0.640660  1.0  -0.2596
  N  N1350  1  0.792730  0.125040  0.645200  1.0  0.0236
  N  N1351  1  0.770220  0.605950  0.140660  1.0  -0.2596
  N  N1352  1  0.792730  0.625040  0.145200  1.0  0.0236
  N  N1353  1  0.729780  0.894050  0.140660  1.0  -0.2605
  N  N1354  1  0.707270  0.874960  0.145200  1.0  0.0241
  N  N1355  1  0.729780  0.394050  0.640660  1.0  -0.2605
  N  N1356  1  0.707270  0.374960  0.645200  1.0  0.0241
  N  N1357  1  0.229780  0.894050  0.640660  1.0  -0.2605
  N  N1358  1  0.207270  0.874960  0.645200  1.0  0.0241
  N  N1359  1  0.229780  0.394050  0.140660  1.0  -0.2605
  N  N1360  1  0.207270  0.374960  0.145200  1.0  0.0241
  N  N1361  1  0.729780  0.105950  0.859340  1.0  -0.2593
  N  N1362  1  0.707270  0.125040  0.854800  1.0  0.0226
  N  N1363  1  0.729780  0.605950  0.359340  1.0  -0.2593
  N  N1364  1  0.707270  0.625040  0.354800  1.0  0.0226
  N  N1365  1  0.229780  0.105950  0.359340  1.0  -0.2593
  N  N1366  1  0.207270  0.125040  0.354800  1.0  0.0226
  N  N1367  1  0.229780  0.605950  0.859340  1.0  -0.2593
  N  N1368  1  0.207270  0.625040  0.854800  1.0  0.0226
  N  N1369  1  0.270220  0.894050  0.859340  1.0  -0.2605
  N  N1370  1  0.292730  0.874960  0.854800  1.0  0.0224
  N  N1371  1  0.270220  0.394050  0.359340  1.0  -0.2605
  N  N1372  1  0.292730  0.374960  0.354800  1.0  0.0224
  N  N1373  1  0.770220  0.894050  0.359340  1.0  -0.2605
  N  N1374  1  0.792730  0.874960  0.354800  1.0  0.0224
  N  N1375  1  0.770220  0.394050  0.859340  1.0  -0.2605
  N  N1376  1  0.792730  0.374960  0.854800  1.0  0.0224
  N  N1377  1  0.140660  0.270220  0.105950  1.0  -0.2588
  N  N1378  1  0.145200  0.292730  0.125040  1.0  0.0234
  N  N1379  1  0.140660  0.770220  0.605950  1.0  -0.2588
  N  N1380  1  0.145200  0.792730  0.625040  1.0  0.0234
  N  N1381  1  0.640660  0.270220  0.605950  1.0  -0.2588
  N  N1382  1  0.645200  0.292730  0.625040  1.0  0.0234
  N  N1383  1  0.640660  0.770220  0.105950  1.0  -0.2588
  N  N1384  1  0.645200  0.792730  0.125040  1.0  0.0234
  N  N1385  1  0.140660  0.729780  0.894050  1.0  -0.2578
  N  N1386  1  0.145200  0.707270  0.874960  1.0  0.0232
  N  N1387  1  0.140660  0.229780  0.394050  1.0  -0.2578
  N  N1388  1  0.145200  0.207270  0.374960  1.0  0.0232
  N  N1389  1  0.640660  0.729780  0.394050  1.0  -0.2578
  N  N1390  1  0.645200  0.707270  0.374960  1.0  0.0232
  N  N1391  1  0.640660  0.229780  0.894050  1.0  -0.2578
  N  N1392  1  0.645200  0.207270  0.874960  1.0  0.0232
  N  N1393  1  0.859340  0.729780  0.105950  1.0  -0.2555
  N  N1394  1  0.854800  0.707270  0.125040  1.0  0.0236
  N  N1395  1  0.859340  0.229780  0.605950  1.0  -0.2555
  N  N1396  1  0.854800  0.207270  0.625040  1.0  0.0236
  N  N1397  1  0.359340  0.729780  0.605950  1.0  -0.2555
  N  N1398  1  0.354800  0.707270  0.625040  1.0  0.0236
  N  N1399  1  0.359340  0.229780  0.105950  1.0  -0.2555
  N  N1400  1  0.354800  0.207270  0.125040  1.0  0.0236
  N  N1401  1  0.859340  0.270220  0.894050  1.0  -0.2564
  N  N1402  1  0.854800  0.292730  0.874960  1.0  0.0233
  N  N1403  1  0.859340  0.770220  0.394050  1.0  -0.2564
  N  N1404  1  0.854800  0.792730  0.374960  1.0  0.0233
  N  N1405  1  0.359340  0.270220  0.394050  1.0  -0.2564
  N  N1406  1  0.354800  0.292730  0.374960  1.0  0.0233
  N  N1407  1  0.359340  0.770220  0.894050  1.0  -0.2564
  N  N1408  1  0.354800  0.792730  0.874960  1.0  0.0233
  N  N1409  1  0.105950  0.140660  0.270220  1.0  -0.2568
  N  N1410  1  0.125040  0.145200  0.292730  1.0  0.0222
  N  N1411  1  0.105950  0.640660  0.770220  1.0  -0.2568
  N  N1412  1  0.125040  0.645200  0.792730  1.0  0.0222
  N  N1413  1  0.605950  0.140660  0.770220  1.0  -0.2568
  N  N1414  1  0.625040  0.145200  0.792730  1.0  0.0222
  N  N1415  1  0.605950  0.640660  0.270220  1.0  -0.2568
  N  N1416  1  0.625040  0.645200  0.292730  1.0  0.0222
  N  N1417  1  0.894050  0.140660  0.729780  1.0  -0.2595
  N  N1418  1  0.874960  0.145200  0.707270  1.0  0.0214
  N  N1419  1  0.894050  0.640660  0.229780  1.0  -0.2595
  N  N1420  1  0.874960  0.645200  0.207270  1.0  0.0214
  N  N1421  1  0.394050  0.140660  0.229780  1.0  -0.2595
  N  N1422  1  0.374960  0.145200  0.207270  1.0  0.0214
  N  N1423  1  0.394050  0.640660  0.729780  1.0  -0.2595
  N  N1424  1  0.374960  0.645200  0.707270  1.0  0.0214
  N  N1425  1  0.105950  0.859340  0.729780  1.0  -0.2565
  N  N1426  1  0.125040  0.854800  0.707270  1.0  0.0215
  N  N1427  1  0.105950  0.359340  0.229780  1.0  -0.2565
  N  N1428  1  0.125040  0.354800  0.207270  1.0  0.0215
  N  N1429  1  0.605950  0.859340  0.229780  1.0  -0.2565
  N  N1430  1  0.625040  0.854800  0.207270  1.0  0.0215
  N  N1431  1  0.605950  0.359340  0.729780  1.0  -0.2565
  N  N1432  1  0.625040  0.354800  0.707270  1.0  0.0215
  N  N1433  1  0.894050  0.859340  0.270220  1.0  -0.2578
  N  N1434  1  0.874960  0.854800  0.292730  1.0  0.0234
  N  N1435  1  0.894050  0.359340  0.770220  1.0  -0.2578
  N  N1436  1  0.874960  0.354800  0.792730  1.0  0.0234
  N  N1437  1  0.394050  0.859340  0.770220  1.0  -0.2578
  N  N1438  1  0.374960  0.854800  0.792730  1.0  0.0234
  N  N1439  1  0.394050  0.359340  0.270220  1.0  -0.2578
  N  N1440  1  0.374960  0.354800  0.292730  1.0  0.0234
  N  N1441  1  0.105950  0.270220  0.859340  1.0  -0.2557
  N  N1442  1  0.125040  0.292730  0.854800  1.0  0.0224
  N  N1443  1  0.105950  0.770220  0.359340  1.0  -0.2557
  N  N1444  1  0.125040  0.792730  0.354800  1.0  0.0224
  N  N1445  1  0.605950  0.270220  0.359340  1.0  -0.2557
  N  N1446  1  0.625040  0.292730  0.354800  1.0  0.0224
  N  N1447  1  0.605950  0.770220  0.859340  1.0  -0.2557
  N  N1448  1  0.625040  0.792730  0.854800  1.0  0.0224
  N  N1449  1  0.894050  0.729780  0.859340  1.0  -0.2588
  N  N1450  1  0.874960  0.707270  0.854800  1.0  0.0231
  N  N1451  1  0.894050  0.229780  0.359340  1.0  -0.2588
  N  N1452  1  0.874960  0.207270  0.354800  1.0  0.0231
  N  N1453  1  0.394050  0.729780  0.359340  1.0  -0.2588
  N  N1454  1  0.374960  0.707270  0.354800  1.0  0.0231
  N  N1455  1  0.394050  0.229780  0.859340  1.0  -0.2588
  N  N1456  1  0.374960  0.207270  0.854800  1.0  0.0231
  N  N1457  1  0.105950  0.729780  0.140660  1.0  -0.2564
  N  N1458  1  0.125040  0.707270  0.145200  1.0  0.0237
  N  N1459  1  0.105950  0.229780  0.640660  1.0  -0.2564
  N  N1460  1  0.125040  0.207270  0.645200  1.0  0.0237
  N  N1461  1  0.605950  0.729780  0.640660  1.0  -0.2564
  N  N1462  1  0.625040  0.707270  0.645200  1.0  0.0237
  N  N1463  1  0.605950  0.229780  0.140660  1.0  -0.2564
  N  N1464  1  0.625040  0.207270  0.145200  1.0  0.0237
  N  N1465  1  0.894050  0.270220  0.140660  1.0  -0.2578
  N  N1466  1  0.874960  0.292730  0.145200  1.0  0.024
  N  N1467  1  0.894050  0.770220  0.640660  1.0  -0.2578
  N  N1468  1  0.874960  0.792730  0.645200  1.0  0.024
  N  N1469  1  0.394050  0.270220  0.640660  1.0  -0.2578
  N  N1470  1  0.374960  0.292730  0.645200  1.0  0.024
  N  N1471  1  0.394050  0.770220  0.140660  1.0  -0.2578
  N  N1472  1  0.374960  0.792730  0.145200  1.0  0.024
  N  N1473  1  0.270220  0.140660  0.894050  1.0  -0.2586
  N  N1474  1  0.292730  0.145200  0.874960  1.0  0.0226
  N  N1475  1  0.270220  0.640660  0.394050  1.0  -0.2586
  N  N1476  1  0.292730  0.645200  0.374960  1.0  0.0226
  N  N1477  1  0.770220  0.140660  0.394050  1.0  -0.2586
  N  N1478  1  0.792730  0.145200  0.374960  1.0  0.0226
  N  N1479  1  0.770220  0.640660  0.894050  1.0  -0.2586
  N  N1480  1  0.792730  0.645200  0.874960  1.0  0.0226
  N  N1481  1  0.729780  0.140660  0.105950  1.0  -0.2595
  N  N1482  1  0.707270  0.145200  0.125040  1.0  0.0229
  N  N1483  1  0.729780  0.640660  0.605950  1.0  -0.2595
  N  N1484  1  0.707270  0.645200  0.625040  1.0  0.0229
  N  N1485  1  0.229780  0.140660  0.605950  1.0  -0.2595
  N  N1486  1  0.207270  0.145200  0.625040  1.0  0.0229
  N  N1487  1  0.229780  0.640660  0.105950  1.0  -0.2595
  N  N1488  1  0.207270  0.645200  0.125040  1.0  0.0229
  N  N1489  1  0.729780  0.859340  0.894050  1.0  -0.2573
  N  N1490  1  0.707270  0.854800  0.874960  1.0  0.0229
  N  N1491  1  0.729780  0.359340  0.394050  1.0  -0.2573
  N  N1492  1  0.707270  0.354800  0.374960  1.0  0.0229
  N  N1493  1  0.229780  0.859340  0.394050  1.0  -0.2573
  N  N1494  1  0.207270  0.854800  0.374960  1.0  0.0229
  N  N1495  1  0.229780  0.359340  0.894050  1.0  -0.2573
  N  N1496  1  0.207270  0.354800  0.874960  1.0  0.0229
  N  N1497  1  0.270220  0.859340  0.105950  1.0  -0.2566
  N  N1498  1  0.292730  0.854800  0.125040  1.0  0.0233
  N  N1499  1  0.270220  0.359340  0.605950  1.0  -0.2566
  N  N1500  1  0.292730  0.354800  0.625040  1.0  0.0233
  N  N1501  1  0.770220  0.859340  0.605950  1.0  -0.2566
  N  N1502  1  0.792730  0.854800  0.625040  1.0  0.0233
  N  N1503  1  0.770220  0.359340  0.105950  1.0  -0.2566
  N  N1504  1  0.792730  0.354800  0.125040  1.0  0.0233
  N  N1505  1  0.140660  0.105950  0.729780  1.0  -0.2592
  N  N1506  1  0.145200  0.125040  0.707270  1.0  0.0211
  N  N1507  1  0.140660  0.605950  0.229780  1.0  -0.2592
  N  N1508  1  0.145200  0.625040  0.207270  1.0  0.0211
  N  N1509  1  0.640660  0.105950  0.229780  1.0  -0.2592
  N  N1510  1  0.645200  0.125040  0.207270  1.0  0.0211
  N  N1511  1  0.640660  0.605950  0.729780  1.0  -0.2592
  N  N1512  1  0.645200  0.625040  0.707270  1.0  0.0211
  N  N1513  1  0.140660  0.894050  0.270220  1.0  -0.2605
  N  N1514  1  0.145200  0.874960  0.292730  1.0  0.0233
  N  N1515  1  0.140660  0.394050  0.770220  1.0  -0.2605
  N  N1516  1  0.145200  0.374960  0.792730  1.0  0.0233
  N  N1517  1  0.640660  0.894050  0.770220  1.0  -0.2605
  N  N1518  1  0.645200  0.874960  0.792730  1.0  0.0233
  N  N1519  1  0.640660  0.394050  0.270220  1.0  -0.2605
  N  N1520  1  0.645200  0.374960  0.292730  1.0  0.0233
  N  N1521  1  0.859340  0.105950  0.270220  1.0  -0.2584
  N  N1522  1  0.854800  0.125040  0.292730  1.0  0.0226
  N  N1523  1  0.859340  0.605950  0.770220  1.0  -0.2584
  N  N1524  1  0.854800  0.625040  0.792730  1.0  0.0226
  N  N1525  1  0.359340  0.105950  0.770220  1.0  -0.2584
  N  N1526  1  0.354800  0.125040  0.792730  1.0  0.0226
  N  N1527  1  0.359340  0.605950  0.270220  1.0  -0.2584
  N  N1528  1  0.354800  0.625040  0.292730  1.0  0.0226
  N  N1529  1  0.859340  0.894050  0.729780  1.0  -0.2596
  N  N1530  1  0.854800  0.874960  0.707270  1.0  0.0218
  N  N1531  1  0.859340  0.394050  0.229780  1.0  -0.2596
  N  N1532  1  0.854800  0.374960  0.207270  1.0  0.0218
  N  N1533  1  0.359340  0.894050  0.229780  1.0  -0.2596
  N  N1534  1  0.354800  0.874960  0.207270  1.0  0.0218
  N  N1535  1  0.359340  0.394050  0.729780  1.0  -0.2596
  N  N1536  1  0.354800  0.374960  0.707270  1.0  0.0218
  N  N1537  1  0.729780  0.894050  0.859340  1.0  -0.261
  N  N1538  1  0.707270  0.874960  0.854800  1.0  0.0237
  N  N1539  1  0.729780  0.394050  0.359340  1.0  -0.261
  N  N1540  1  0.707270  0.374960  0.354800  1.0  0.0237
  N  N1541  1  0.229780  0.894050  0.359340  1.0  -0.261
  N  N1542  1  0.207270  0.874960  0.354800  1.0  0.0237
  N  N1543  1  0.229780  0.394050  0.859340  1.0  -0.261
  N  N1544  1  0.207270  0.374960  0.854800  1.0  0.0237
  N  N1545  1  0.270220  0.105950  0.859340  1.0  -0.2585
  N  N1546  1  0.292730  0.125040  0.854800  1.0  0.0221
  N  N1547  1  0.270220  0.605950  0.359340  1.0  -0.2585
  N  N1548  1  0.292730  0.625040  0.354800  1.0  0.0221
  N  N1549  1  0.770220  0.105950  0.359340  1.0  -0.2585
  N  N1550  1  0.792730  0.125040  0.354800  1.0  0.0221
  N  N1551  1  0.770220  0.605950  0.859340  1.0  -0.2585
  N  N1552  1  0.792730  0.625040  0.854800  1.0  0.0221
  N  N1553  1  0.270220  0.894050  0.140660  1.0  -0.261
  N  N1554  1  0.292730  0.874960  0.145200  1.0  0.0245
  N  N1555  1  0.270220  0.394050  0.640660  1.0  -0.261
  N  N1556  1  0.292730  0.374960  0.645200  1.0  0.0245
  N  N1557  1  0.770220  0.894050  0.640660  1.0  -0.261
  N  N1558  1  0.792730  0.874960  0.645200  1.0  0.0245
  N  N1559  1  0.770220  0.394050  0.140660  1.0  -0.261
  N  N1560  1  0.792730  0.374960  0.145200  1.0  0.0245
  N  N1561  1  0.729780  0.105950  0.140660  1.0  -0.2595
  N  N1562  1  0.707270  0.125040  0.145200  1.0  0.024
  N  N1563  1  0.729780  0.605950  0.640660  1.0  -0.2595
  N  N1564  1  0.707270  0.625040  0.645200  1.0  0.024
  N  N1565  1  0.229780  0.105950  0.640660  1.0  -0.2595
  N  N1566  1  0.207270  0.125040  0.645200  1.0  0.024
  N  N1567  1  0.229780  0.605950  0.140660  1.0  -0.2595
  N  N1568  1  0.207270  0.625040  0.145200  1.0  0.024
  N  N1569  1  0.859340  0.729780  0.894050  1.0  -0.2565
  N  N1570  1  0.854800  0.707270  0.874960  1.0  0.0235
  N  N1571  1  0.859340  0.229780  0.394050  1.0  -0.2565
  N  N1572  1  0.854800  0.207270  0.374960  1.0  0.0235
  N  N1573  1  0.359340  0.729780  0.394050  1.0  -0.2565
  N  N1574  1  0.354800  0.707270  0.374960  1.0  0.0235
  N  N1575  1  0.359340  0.229780  0.894050  1.0  -0.2565
  N  N1576  1  0.354800  0.207270  0.874960  1.0  0.0235
  N  N1577  1  0.859340  0.270220  0.105950  1.0  -0.2557
  N  N1578  1  0.854800  0.292730  0.125040  1.0  0.0239
  N  N1579  1  0.859340  0.770220  0.605950  1.0  -0.2557
  N  N1580  1  0.854800  0.792730  0.625040  1.0  0.0239
  N  N1581  1  0.359340  0.270220  0.605950  1.0  -0.2557
  N  N1582  1  0.354800  0.292730  0.625040  1.0  0.0239
  N  N1583  1  0.359340  0.770220  0.105950  1.0  -0.2557
  N  N1584  1  0.354800  0.792730  0.125040  1.0  0.0239
  N  N1585  1  0.140660  0.270220  0.894050  1.0  -0.2574
  N  N1586  1  0.145200  0.292730  0.874960  1.0  0.0233
  N  N1587  1  0.140660  0.770220  0.394050  1.0  -0.2574
  N  N1588  1  0.145200  0.792730  0.374960  1.0  0.0233
  N  N1589  1  0.640660  0.270220  0.394050  1.0  -0.2574
  N  N1590  1  0.645200  0.292730  0.374960  1.0  0.0233
  N  N1591  1  0.640660  0.770220  0.894050  1.0  -0.2574
  N  N1592  1  0.645200  0.792730  0.874960  1.0  0.0233
  N  N1593  1  0.140660  0.729780  0.105950  1.0  -0.2586
  N  N1594  1  0.145200  0.707270  0.125040  1.0  0.0236
  N  N1595  1  0.140660  0.229780  0.605950  1.0  -0.2586
  N  N1596  1  0.145200  0.207270  0.625040  1.0  0.0236
  N  N1597  1  0.640660  0.729780  0.605950  1.0  -0.2586
  N  N1598  1  0.645200  0.707270  0.625040  1.0  0.0236
  N  N1599  1  0.640660  0.229780  0.105950  1.0  -0.2586
  N  N1600  1  0.645200  0.207270  0.125040  1.0  0.0236
  N  N1601  1  0.894050  0.859340  0.729780  1.0  -0.2575
  N  N1602  1  0.874960  0.854800  0.707270  1.0  0.0223
  N  N1603  1  0.894050  0.359340  0.229780  1.0  -0.2575
  N  N1604  1  0.874960  0.354800  0.207270  1.0  0.0223
  N  N1605  1  0.394050  0.859340  0.229780  1.0  -0.2575
  N  N1606  1  0.374960  0.854800  0.207270  1.0  0.0223
  N  N1607  1  0.394050  0.359340  0.729780  1.0  -0.2575
  N  N1608  1  0.374960  0.354800  0.707270  1.0  0.0223
  N  N1609  1  0.105950  0.859340  0.270220  1.0  -0.2567
  N  N1610  1  0.125040  0.854800  0.292730  1.0  0.0228
  N  N1611  1  0.105950  0.359340  0.770220  1.0  -0.2567
  N  N1612  1  0.125040  0.354800  0.792730  1.0  0.0228
  N  N1613  1  0.605950  0.859340  0.770220  1.0  -0.2567
  N  N1614  1  0.625040  0.854800  0.792730  1.0  0.0228
  N  N1615  1  0.605950  0.359340  0.270220  1.0  -0.2567
  N  N1616  1  0.625040  0.354800  0.292730  1.0  0.0228
  N  N1617  1  0.894050  0.140660  0.270220  1.0  -0.2595
  N  N1618  1  0.874960  0.145200  0.292730  1.0  0.0228
  N  N1619  1  0.894050  0.640660  0.770220  1.0  -0.2595
  N  N1620  1  0.874960  0.645200  0.792730  1.0  0.0228
  N  N1621  1  0.394050  0.140660  0.770220  1.0  -0.2595
  N  N1622  1  0.374960  0.145200  0.792730  1.0  0.0228
  N  N1623  1  0.394050  0.640660  0.270220  1.0  -0.2595
  N  N1624  1  0.374960  0.645200  0.292730  1.0  0.0228
  N  N1625  1  0.105950  0.140660  0.729780  1.0  -0.2568
  N  N1626  1  0.125040  0.145200  0.707270  1.0  0.0216
  N  N1627  1  0.105950  0.640660  0.229780  1.0  -0.2568
  N  N1628  1  0.125040  0.645200  0.207270  1.0  0.0216
  N  N1629  1  0.605950  0.140660  0.229780  1.0  -0.2568
  N  N1630  1  0.625040  0.145200  0.207270  1.0  0.0216
  N  N1631  1  0.605950  0.640660  0.729780  1.0  -0.2568
  N  N1632  1  0.625040  0.645200  0.707270  1.0  0.0216
  N  N1633  1  0.894050  0.729780  0.140660  1.0  -0.2582
  N  N1634  1  0.874960  0.707270  0.145200  1.0  0.0241
  N  N1635  1  0.894050  0.229780  0.640660  1.0  -0.2582
  N  N1636  1  0.874960  0.207270  0.645200  1.0  0.0241
  N  N1637  1  0.394050  0.729780  0.640660  1.0  -0.2582
  N  N1638  1  0.374960  0.707270  0.645200  1.0  0.0241
  N  N1639  1  0.394050  0.229780  0.140660  1.0  -0.2582
  N  N1640  1  0.374960  0.207270  0.145200  1.0  0.0241
  N  N1641  1  0.105950  0.270220  0.140660  1.0  -0.2563
  N  N1642  1  0.125040  0.292730  0.145200  1.0  0.0242
  N  N1643  1  0.105950  0.770220  0.640660  1.0  -0.2563
  N  N1644  1  0.125040  0.792730  0.645200  1.0  0.0242
  N  N1645  1  0.605950  0.270220  0.640660  1.0  -0.2563
  N  N1646  1  0.625040  0.292730  0.645200  1.0  0.0242
  N  N1647  1  0.605950  0.770220  0.140660  1.0  -0.2563
  N  N1648  1  0.625040  0.792730  0.145200  1.0  0.0242
  N  N1649  1  0.894050  0.270220  0.859340  1.0  -0.259
  N  N1650  1  0.874960  0.292730  0.854800  1.0  0.0232
  N  N1651  1  0.894050  0.770220  0.359340  1.0  -0.259
  N  N1652  1  0.874960  0.792730  0.354800  1.0  0.0232
  N  N1653  1  0.394050  0.270220  0.359340  1.0  -0.259
  N  N1654  1  0.374960  0.292730  0.354800  1.0  0.0232
  N  N1655  1  0.394050  0.770220  0.859340  1.0  -0.259
  N  N1656  1  0.374960  0.792730  0.854800  1.0  0.0232
  N  N1657  1  0.105950  0.729780  0.859340  1.0  -0.2554
  N  N1658  1  0.125040  0.707270  0.854800  1.0  0.023
  N  N1659  1  0.105950  0.229780  0.359340  1.0  -0.2554
  N  N1660  1  0.125040  0.207270  0.354800  1.0  0.023
  N  N1661  1  0.605950  0.729780  0.359340  1.0  -0.2554
  N  N1662  1  0.625040  0.707270  0.354800  1.0  0.023
  N  N1663  1  0.605950  0.229780  0.859340  1.0  -0.2554
  N  N1664  1  0.625040  0.207270  0.854800  1.0  0.023
  N  N1665  1  0.729780  0.859340  0.105950  1.0  -0.258
  N  N1666  1  0.707270  0.854800  0.125040  1.0  0.0235
  N  N1667  1  0.729780  0.359340  0.605950  1.0  -0.258
  N  N1668  1  0.707270  0.354800  0.625040  1.0  0.0235
  N  N1669  1  0.229780  0.859340  0.605950  1.0  -0.258
  N  N1670  1  0.207270  0.854800  0.625040  1.0  0.0235
  N  N1671  1  0.229780  0.359340  0.105950  1.0  -0.258
  N  N1672  1  0.207270  0.354800  0.125040  1.0  0.0235
  N  N1673  1  0.270220  0.859340  0.894050  1.0  -0.2573
  N  N1674  1  0.292730  0.854800  0.874960  1.0  0.0233
  N  N1675  1  0.270220  0.359340  0.394050  1.0  -0.2573
  N  N1676  1  0.292730  0.354800  0.374960  1.0  0.0233
  N  N1677  1  0.770220  0.859340  0.394050  1.0  -0.2573
  N  N1678  1  0.792730  0.854800  0.374960  1.0  0.0233
  N  N1679  1  0.770220  0.359340  0.894050  1.0  -0.2573
  N  N1680  1  0.792730  0.354800  0.874960  1.0  0.0233
  N  N1681  1  0.270220  0.140660  0.105950  1.0  -0.2583
  N  N1682  1  0.292730  0.145200  0.125040  1.0  0.0228
  N  N1683  1  0.270220  0.640660  0.605950  1.0  -0.2583
  N  N1684  1  0.292730  0.645200  0.625040  1.0  0.0228
  N  N1685  1  0.770220  0.140660  0.605950  1.0  -0.2583
  N  N1686  1  0.792730  0.145200  0.625040  1.0  0.0228
  N  N1687  1  0.770220  0.640660  0.105950  1.0  -0.2583
  N  N1688  1  0.792730  0.645200  0.125040  1.0  0.0228
  N  N1689  1  0.729780  0.140660  0.894050  1.0  -0.2585
  N  N1690  1  0.707270  0.145200  0.874960  1.0  0.0231
  N  N1691  1  0.729780  0.640660  0.394050  1.0  -0.2585
  N  N1692  1  0.707270  0.645200  0.374960  1.0  0.0231
  N  N1693  1  0.229780  0.140660  0.394050  1.0  -0.2585
  N  N1694  1  0.207270  0.145200  0.374960  1.0  0.0231
  N  N1695  1  0.229780  0.640660  0.894050  1.0  -0.2585
  N  N1696  1  0.207270  0.645200  0.874960  1.0  0.0231
  N  N1697  1  0.859340  0.894050  0.270220  1.0  -0.2593
  N  N1698  1  0.854800  0.874960  0.292730  1.0  0.0232
  N  N1699  1  0.859340  0.394050  0.770220  1.0  -0.2593
  N  N1700  1  0.854800  0.374960  0.792730  1.0  0.0232
  N  N1701  1  0.359340  0.894050  0.770220  1.0  -0.2593
  N  N1702  1  0.354800  0.874960  0.792730  1.0  0.0232
  N  N1703  1  0.359340  0.394050  0.270220  1.0  -0.2593
  N  N1704  1  0.354800  0.374960  0.292730  1.0  0.0232
  N  N1705  1  0.859340  0.105950  0.729780  1.0  -0.2584
  N  N1706  1  0.854800  0.125040  0.707270  1.0  0.0212
  N  N1707  1  0.859340  0.605950  0.229780  1.0  -0.2584
  N  N1708  1  0.854800  0.625040  0.207270  1.0  0.0212
  N  N1709  1  0.359340  0.105950  0.229780  1.0  -0.2584
  N  N1710  1  0.354800  0.125040  0.207270  1.0  0.0212
  N  N1711  1  0.359340  0.605950  0.729780  1.0  -0.2584
  N  N1712  1  0.354800  0.625040  0.707270  1.0  0.0212
  N  N1713  1  0.140660  0.894050  0.729780  1.0  -0.2605
  N  N1714  1  0.145200  0.874960  0.707270  1.0  0.0222
  N  N1715  1  0.140660  0.394050  0.229780  1.0  -0.2605
  N  N1716  1  0.145200  0.374960  0.207270  1.0  0.0222
  N  N1717  1  0.640660  0.894050  0.229780  1.0  -0.2605
  N  N1718  1  0.645200  0.874960  0.207270  1.0  0.0222
  N  N1719  1  0.640660  0.394050  0.729780  1.0  -0.2605
  N  N1720  1  0.645200  0.374960  0.707270  1.0  0.0222
  N  N1721  1  0.140660  0.105950  0.270220  1.0  -0.2597
  N  N1722  1  0.145200  0.125040  0.292730  1.0  0.0232
  N  N1723  1  0.140660  0.605950  0.770220  1.0  -0.2597
  N  N1724  1  0.145200  0.625040  0.792730  1.0  0.0232
  N  N1725  1  0.640660  0.105950  0.770220  1.0  -0.2597
  N  N1726  1  0.645200  0.125040  0.792730  1.0  0.0232
  N  N1727  1  0.640660  0.605950  0.270220  1.0  -0.2597
  N  N1728  1  0.645200  0.625040  0.292730  1.0  0.0232
  O  O1729  1  0.151350  0.108020  0.031080  1.0  -0.4993
  O  O1730  1  0.186900  0.143470  0.031010  1.0  -0.5009
  O  O1731  1  0.151350  0.608020  0.531080  1.0  -0.4993
  O  O1732  1  0.186900  0.643470  0.531010  1.0  -0.5009
  O  O1733  1  0.651350  0.108020  0.531080  1.0  -0.4993
  O  O1734  1  0.686900  0.143470  0.531010  1.0  -0.5009
  O  O1735  1  0.651350  0.608020  0.031080  1.0  -0.4993
  O  O1736  1  0.686900  0.643470  0.031010  1.0  -0.5009
  O  O1737  1  0.848650  0.891980  0.031080  1.0  -0.4992
  O  O1738  1  0.813100  0.856530  0.031010  1.0  -0.5005
  O  O1739  1  0.848650  0.391980  0.531080  1.0  -0.4992
  O  O1740  1  0.813100  0.356530  0.531010  1.0  -0.5005
  O  O1741  1  0.348650  0.891980  0.531080  1.0  -0.4992
  O  O1742  1  0.313100  0.856530  0.531010  1.0  -0.5005
  O  O1743  1  0.348650  0.391980  0.031080  1.0  -0.4992
  O  O1744  1  0.313100  0.356530  0.031010  1.0  -0.5005
  O  O1745  1  0.848650  0.108020  0.968920  1.0  -0.4988
  O  O1746  1  0.813100  0.143470  0.968990  1.0  -0.5008
  O  O1747  1  0.848650  0.608020  0.468920  1.0  -0.4988
  O  O1748  1  0.813100  0.643470  0.468990  1.0  -0.5008
  O  O1749  1  0.348650  0.108020  0.468920  1.0  -0.4988
  O  O1750  1  0.313100  0.143470  0.468990  1.0  -0.5008
  O  O1751  1  0.348650  0.608020  0.968920  1.0  -0.4988
  O  O1752  1  0.313100  0.643470  0.968990  1.0  -0.5008
  O  O1753  1  0.151350  0.891980  0.968920  1.0  -0.4993
  O  O1754  1  0.186900  0.856530  0.968990  1.0  -0.5007
  O  O1755  1  0.151350  0.391980  0.468920  1.0  -0.4993
  O  O1756  1  0.186900  0.356530  0.468990  1.0  -0.5007
  O  O1757  1  0.651350  0.891980  0.468920  1.0  -0.4993
  O  O1758  1  0.686900  0.856530  0.468990  1.0  -0.5007
  O  O1759  1  0.651350  0.391980  0.968920  1.0  -0.4993
  O  O1760  1  0.686900  0.356530  0.968990  1.0  -0.5007
  O  O1761  1  0.031080  0.151350  0.108020  1.0  -0.4995
  O  O1762  1  0.031010  0.186900  0.143470  1.0  -0.5
  O  O1763  1  0.031080  0.651350  0.608020  1.0  -0.4995
  O  O1764  1  0.031010  0.686900  0.643470  1.0  -0.5004
  O  O1765  1  0.531080  0.151350  0.608020  1.0  -0.4995
  O  O1766  1  0.531010  0.186900  0.643470  1.0  -0.5004
  O  O1767  1  0.531080  0.651350  0.108020  1.0  -0.4995
  O  O1768  1  0.531010  0.686900  0.143470  1.0  -0.5004
  O  O1769  1  0.031080  0.848650  0.891980  1.0  -0.4994
  O  O1770  1  0.031010  0.813100  0.856530  1.0  -0.4996
  O  O1771  1  0.031080  0.348650  0.391980  1.0  -0.4994
  O  O1772  1  0.031010  0.313100  0.356530  1.0  -0.5
  O  O1773  1  0.531080  0.848650  0.391980  1.0  -0.4994
  O  O1774  1  0.531010  0.813100  0.356530  1.0  -0.5
  O  O1775  1  0.531080  0.348650  0.891980  1.0  -0.4994
  O  O1776  1  0.531010  0.313100  0.856530  1.0  -0.5
  O  O1777  1  0.968920  0.848650  0.108020  1.0  -0.4992
  O  O1778  1  0.968990  0.813100  0.143470  1.0  -0.4999
  O  O1779  1  0.968920  0.348650  0.608020  1.0  -0.4992
  O  O1780  1  0.968990  0.313100  0.643470  1.0  -0.4999
  O  O1781  1  0.468920  0.848650  0.608020  1.0  -0.4992
  O  O1782  1  0.468990  0.813100  0.643470  1.0  -0.4999
  O  O1783  1  0.468920  0.348650  0.108020  1.0  -0.4992
  O  O1784  1  0.468990  0.313100  0.143470  1.0  -0.4999
  O  O1785  1  0.968920  0.151350  0.891980  1.0  -0.4994
  O  O1786  1  0.968990  0.186900  0.856530  1.0  -0.5
  O  O1787  1  0.968920  0.651350  0.391980  1.0  -0.4994
  O  O1788  1  0.968990  0.686900  0.356530  1.0  -0.5
  O  O1789  1  0.468920  0.151350  0.391980  1.0  -0.4995
  O  O1790  1  0.468990  0.186900  0.356530  1.0  -0.5
  O  O1791  1  0.468920  0.651350  0.891980  1.0  -0.4994
  O  O1792  1  0.468990  0.686900  0.856530  1.0  -0.5
  O  O1793  1  0.108020  0.031080  0.151350  1.0  -0.4977
  O  O1794  1  0.143470  0.031010  0.186900  1.0  -0.4999
  O  O1795  1  0.108020  0.531080  0.651350  1.0  -0.4977
  O  O1796  1  0.143470  0.531010  0.686900  1.0  -0.4999
  O  O1797  1  0.608020  0.031080  0.651350  1.0  -0.4977
  O  O1798  1  0.643470  0.031010  0.686900  1.0  -0.4999
  O  O1799  1  0.608020  0.531080  0.151350  1.0  -0.4977
  O  O1800  1  0.643470  0.531010  0.186900  1.0  -0.4999
  O  O1801  1  0.891980  0.031080  0.848650  1.0  -0.4985
  O  O1802  1  0.856530  0.031010  0.813100  1.0  -0.5002
  O  O1803  1  0.891980  0.531080  0.348650  1.0  -0.4985
  O  O1804  1  0.856530  0.531010  0.313100  1.0  -0.5002
  O  O1805  1  0.391980  0.031080  0.348650  1.0  -0.4985
  O  O1806  1  0.356530  0.031010  0.313100  1.0  -0.5002
  O  O1807  1  0.391980  0.531080  0.848650  1.0  -0.4985
  O  O1808  1  0.356530  0.531010  0.813100  1.0  -0.5002
  O  O1809  1  0.108020  0.968920  0.848650  1.0  -0.4978
  O  O1810  1  0.143470  0.968990  0.813100  1.0  -0.5004
  O  O1811  1  0.108020  0.468920  0.348650  1.0  -0.4978
  O  O1812  1  0.143470  0.468990  0.313100  1.0  -0.5004
  O  O1813  1  0.608020  0.968920  0.348650  1.0  -0.4978
  O  O1814  1  0.643470  0.968990  0.313100  1.0  -0.5004
  O  O1815  1  0.608020  0.468920  0.848650  1.0  -0.4978
  O  O1816  1  0.643470  0.468990  0.813100  1.0  -0.5004
  O  O1817  1  0.891980  0.968920  0.151350  1.0  -0.4971
  O  O1818  1  0.856530  0.968990  0.186900  1.0  -0.4997
  O  O1819  1  0.891980  0.468920  0.651350  1.0  -0.4971
  O  O1820  1  0.856530  0.468990  0.686900  1.0  -0.4995
  O  O1821  1  0.391980  0.968920  0.651350  1.0  -0.4971
  O  O1822  1  0.356530  0.968990  0.686900  1.0  -0.4997
  O  O1823  1  0.391980  0.468920  0.151350  1.0  -0.4971
  O  O1824  1  0.356530  0.468990  0.186900  1.0  -0.4997
  O  O1825  1  0.108020  0.151350  0.968920  1.0  -0.4985
  O  O1826  1  0.143470  0.186900  0.968990  1.0  -0.5012
  O  O1827  1  0.108020  0.651350  0.468920  1.0  -0.4985
  O  O1828  1  0.143470  0.686900  0.468990  1.0  -0.5012
  O  O1829  1  0.608020  0.151350  0.468920  1.0  -0.4985
  O  O1830  1  0.643470  0.186900  0.468990  1.0  -0.5012
  O  O1831  1  0.608020  0.651350  0.968920  1.0  -0.4985
  O  O1832  1  0.643470  0.686900  0.968990  1.0  -0.5012
  O  O1833  1  0.891980  0.848650  0.968920  1.0  -0.499
  O  O1834  1  0.856530  0.813100  0.968990  1.0  -0.5006
  O  O1835  1  0.891980  0.348650  0.468920  1.0  -0.499
  O  O1836  1  0.856530  0.313100  0.468990  1.0  -0.5006
  O  O1837  1  0.391980  0.848650  0.468920  1.0  -0.499
  O  O1838  1  0.356530  0.813100  0.468990  1.0  -0.5006
  O  O1839  1  0.391980  0.348650  0.968920  1.0  -0.499
  O  O1840  1  0.356530  0.313100  0.968990  1.0  -0.5006
  O  O1841  1  0.108020  0.848650  0.031080  1.0  -0.4991
  O  O1842  1  0.143470  0.813100  0.031010  1.0  -0.5007
  O  O1843  1  0.108020  0.348650  0.531080  1.0  -0.4991
  O  O1844  1  0.143470  0.313100  0.531010  1.0  -0.5008
  O  O1845  1  0.608020  0.848650  0.531080  1.0  -0.4991
  O  O1846  1  0.643470  0.813100  0.531010  1.0  -0.5008
  O  O1847  1  0.608020  0.348650  0.031080  1.0  -0.4991
  O  O1848  1  0.643470  0.313100  0.031010  1.0  -0.5007
  O  O1849  1  0.891980  0.151350  0.031080  1.0  -0.4989
  O  O1850  1  0.856530  0.186900  0.031010  1.0  -0.5008
  O  O1851  1  0.891980  0.651350  0.531080  1.0  -0.4989
  O  O1852  1  0.856530  0.686900  0.531010  1.0  -0.5008
  O  O1853  1  0.391980  0.151350  0.531080  1.0  -0.4989
  O  O1854  1  0.356530  0.186900  0.531010  1.0  -0.5008
  O  O1855  1  0.391980  0.651350  0.031080  1.0  -0.4989
  O  O1856  1  0.356530  0.686900  0.031010  1.0  -0.5008
  O  O1857  1  0.151350  0.031080  0.891980  1.0  -0.4987
  O  O1858  1  0.186900  0.031010  0.856530  1.0  -0.5001
  O  O1859  1  0.151350  0.531080  0.391980  1.0  -0.4987
  O  O1860  1  0.186900  0.531010  0.356530  1.0  -0.5001
  O  O1861  1  0.651350  0.031080  0.391980  1.0  -0.4987
  O  O1862  1  0.686900  0.031010  0.356530  1.0  -0.5001
  O  O1863  1  0.651350  0.531080  0.891980  1.0  -0.4987
  O  O1864  1  0.686900  0.531010  0.856530  1.0  -0.5001
  O  O1865  1  0.848650  0.031080  0.108020  1.0  -0.4991
  O  O1866  1  0.813100  0.031010  0.143470  1.0  -0.4995
  O  O1867  1  0.848650  0.531080  0.608020  1.0  -0.4991
  O  O1868  1  0.813100  0.531010  0.643470  1.0  -0.4995
  O  O1869  1  0.348650  0.031080  0.608020  1.0  -0.4991
  O  O1870  1  0.313100  0.031010  0.643470  1.0  -0.4996
  O  O1871  1  0.348650  0.531080  0.108020  1.0  -0.4991
  O  O1872  1  0.313100  0.531010  0.143470  1.0  -0.4995
  O  O1873  1  0.848650  0.968920  0.891980  1.0  -0.4986
  O  O1874  1  0.813100  0.968990  0.856530  1.0  -0.5
  O  O1875  1  0.848650  0.468920  0.391980  1.0  -0.4986
  O  O1876  1  0.813100  0.468990  0.356530  1.0  -0.5
  O  O1877  1  0.348650  0.968920  0.391980  1.0  -0.4986
  O  O1878  1  0.313100  0.968990  0.356530  1.0  -0.5
  O  O1879  1  0.348650  0.468920  0.891980  1.0  -0.4986
  O  O1880  1  0.313100  0.468990  0.856530  1.0  -0.5
  O  O1881  1  0.151350  0.968920  0.108020  1.0  -0.4985
  O  O1882  1  0.186900  0.968990  0.143470  1.0  -0.5001
  O  O1883  1  0.151350  0.468920  0.608020  1.0  -0.4985
  O  O1884  1  0.186900  0.468990  0.643470  1.0  -0.5001
  O  O1885  1  0.651350  0.968920  0.608020  1.0  -0.4985
  O  O1886  1  0.686900  0.968990  0.643470  1.0  -0.5001
  O  O1887  1  0.651350  0.468920  0.108020  1.0  -0.4985
  O  O1888  1  0.686900  0.468990  0.143470  1.0  -0.5001
  O  O1889  1  0.031080  0.108020  0.848650  1.0  -0.4985
  O  O1890  1  0.031010  0.143470  0.813100  1.0  -0.4997
  O  O1891  1  0.031080  0.608020  0.348650  1.0  -0.4985
  O  O1892  1  0.031010  0.643470  0.313100  1.0  -0.4997
  O  O1893  1  0.531080  0.108020  0.348650  1.0  -0.4984
  O  O1894  1  0.531010  0.143470  0.313100  1.0  -0.5
  O  O1895  1  0.531080  0.608020  0.848650  1.0  -0.4984
  O  O1896  1  0.531010  0.643470  0.813100  1.0  -0.5
  O  O1897  1  0.031080  0.891980  0.151350  1.0  -0.4983
  O  O1898  1  0.031010  0.856530  0.186900  1.0  -0.4997
  O  O1899  1  0.031080  0.391980  0.651350  1.0  -0.4983
  O  O1900  1  0.031010  0.356530  0.686900  1.0  -0.4997
  O  O1901  1  0.531080  0.891980  0.651350  1.0  -0.4983
  O  O1902  1  0.531010  0.856530  0.686900  1.0  -0.4997
  O  O1903  1  0.531080  0.391980  0.151350  1.0  -0.4983
  O  O1904  1  0.531010  0.356530  0.186900  1.0  -0.4997
  O  O1905  1  0.968920  0.108020  0.151350  1.0  -0.4981
  O  O1906  1  0.968990  0.143470  0.186900  1.0  -0.4998
  O  O1907  1  0.968920  0.608020  0.651350  1.0  -0.4981
  O  O1908  1  0.968990  0.643470  0.686900  1.0  -0.4998
  O  O1909  1  0.468920  0.108020  0.651350  1.0  -0.4981
  O  O1910  1  0.468990  0.143470  0.686900  1.0  -0.4995
  O  O1911  1  0.468920  0.608020  0.151350  1.0  -0.4981
  O  O1912  1  0.468990  0.643470  0.186900  1.0  -0.4998
  O  O1913  1  0.968920  0.891980  0.848650  1.0  -0.4987
  O  O1914  1  0.968990  0.856530  0.813100  1.0  -0.5002
  O  O1915  1  0.968920  0.391980  0.348650  1.0  -0.4987
  O  O1916  1  0.968990  0.356530  0.313100  1.0  -0.5002
  O  O1917  1  0.468920  0.891980  0.348650  1.0  -0.4987
  O  O1918  1  0.468990  0.856530  0.313100  1.0  -0.5002
  O  O1919  1  0.468920  0.391980  0.848650  1.0  -0.4987
  O  O1920  1  0.468990  0.356530  0.813100  1.0  -0.5002
  O  O1921  1  0.848650  0.891980  0.968920  1.0  -0.4992
  O  O1922  1  0.813100  0.856530  0.968990  1.0  -0.5001
  O  O1923  1  0.848650  0.391980  0.468920  1.0  -0.4992
  O  O1924  1  0.813100  0.356530  0.468990  1.0  -0.5001
  O  O1925  1  0.348650  0.891980  0.468920  1.0  -0.4992
  O  O1926  1  0.313100  0.856530  0.468990  1.0  -0.5001
  O  O1927  1  0.348650  0.391980  0.968920  1.0  -0.4992
  O  O1928  1  0.313100  0.356530  0.968990  1.0  -0.5001
  O  O1929  1  0.151350  0.108020  0.968920  1.0  -0.4992
  O  O1930  1  0.186900  0.143470  0.968990  1.0  -0.501
  O  O1931  1  0.151350  0.608020  0.468920  1.0  -0.4992
  O  O1932  1  0.186900  0.643470  0.468990  1.0  -0.501
  O  O1933  1  0.651350  0.108020  0.468920  1.0  -0.4992
  O  O1934  1  0.686900  0.143470  0.468990  1.0  -0.501
  O  O1935  1  0.651350  0.608020  0.968920  1.0  -0.4992
  O  O1936  1  0.686900  0.643470  0.968990  1.0  -0.501
  O  O1937  1  0.151350  0.891980  0.031080  1.0  -0.4993
  O  O1938  1  0.186900  0.856530  0.031010  1.0  -0.5007
  O  O1939  1  0.151350  0.391980  0.531080  1.0  -0.4993
  O  O1940  1  0.186900  0.356530  0.531010  1.0  -0.5007
  O  O1941  1  0.651350  0.891980  0.531080  1.0  -0.4993
  O  O1942  1  0.686900  0.856530  0.531010  1.0  -0.5007
  O  O1943  1  0.651350  0.391980  0.031080  1.0  -0.4993
  O  O1944  1  0.686900  0.356530  0.031010  1.0  -0.5007
  O  O1945  1  0.848650  0.108020  0.031080  1.0  -0.4988
  O  O1946  1  0.813100  0.143470  0.031010  1.0  -0.5006
  O  O1947  1  0.848650  0.608020  0.531080  1.0  -0.4988
  O  O1948  1  0.813100  0.643470  0.531010  1.0  -0.5008
  O  O1949  1  0.348650  0.108020  0.531080  1.0  -0.4988
  O  O1950  1  0.313100  0.143470  0.531010  1.0  -0.5008
  O  O1951  1  0.348650  0.608020  0.031080  1.0  -0.4988
  O  O1952  1  0.313100  0.643470  0.031010  1.0  -0.5006
  O  O1953  1  0.968920  0.848650  0.891980  1.0  -0.499
  O  O1954  1  0.968990  0.813100  0.856530  1.0  -0.4997
  O  O1955  1  0.968920  0.348650  0.391980  1.0  -0.499
  O  O1956  1  0.968990  0.313100  0.356530  1.0  -0.4997
  O  O1957  1  0.468920  0.848650  0.391980  1.0  -0.499
  O  O1958  1  0.468990  0.813100  0.356530  1.0  -0.4997
  O  O1959  1  0.468920  0.348650  0.891980  1.0  -0.499
  O  O1960  1  0.468990  0.313100  0.856530  1.0  -0.4997
  O  O1961  1  0.968920  0.151350  0.108020  1.0  -0.4996
  O  O1962  1  0.968990  0.186900  0.143470  1.0  -0.5001
  O  O1963  1  0.968920  0.651350  0.608020  1.0  -0.4996
  O  O1964  1  0.968990  0.686900  0.643470  1.0  -0.5001
  O  O1965  1  0.468920  0.151350  0.608020  1.0  -0.4996
  O  O1966  1  0.468990  0.186900  0.643470  1.0  -0.5001
  O  O1967  1  0.468920  0.651350  0.108020  1.0  -0.4996
  O  O1968  1  0.468990  0.686900  0.143470  1.0  -0.5001
  O  O1969  1  0.031080  0.151350  0.891980  1.0  -0.4994
  O  O1970  1  0.031010  0.186900  0.856530  1.0  -0.5
  O  O1971  1  0.031080  0.651350  0.391980  1.0  -0.4994
  O  O1972  1  0.031010  0.686900  0.356530  1.0  -0.5
  O  O1973  1  0.531080  0.151350  0.391980  1.0  -0.4994
  O  O1974  1  0.531010  0.186900  0.356530  1.0  -0.5
  O  O1975  1  0.531080  0.651350  0.891980  1.0  -0.4994
  O  O1976  1  0.531010  0.686900  0.856530  1.0  -0.5
  O  O1977  1  0.031080  0.848650  0.108020  1.0  -0.4994
  O  O1978  1  0.031010  0.813100  0.143470  1.0  -0.4993
  O  O1979  1  0.031080  0.348650  0.608020  1.0  -0.4994
  O  O1980  1  0.031010  0.313100  0.643470  1.0  -0.4993
  O  O1981  1  0.531080  0.848650  0.608020  1.0  -0.4994
  O  O1982  1  0.531010  0.813100  0.643470  1.0  -0.4998
  O  O1983  1  0.531080  0.348650  0.108020  1.0  -0.4994
  O  O1984  1  0.531010  0.313100  0.143470  1.0  -0.4993
  O  O1985  1  0.891980  0.968920  0.848650  1.0  -0.4981
  O  O1986  1  0.856530  0.968990  0.813100  1.0  -0.4999
  O  O1987  1  0.891980  0.468920  0.348650  1.0  -0.4981
  O  O1988  1  0.856530  0.468990  0.313100  1.0  -0.4996
  O  O1989  1  0.391980  0.968920  0.348650  1.0  -0.4981
  O  O1990  1  0.356530  0.968990  0.313100  1.0  -0.4999
  O  O1991  1  0.391980  0.468920  0.848650  1.0  -0.4981
  O  O1992  1  0.356530  0.468990  0.813100  1.0  -0.4999
  O  O1993  1  0.108020  0.968920  0.151350  1.0  -0.4976
  O  O1994  1  0.143470  0.968990  0.186900  1.0  -0.4999
  O  O1995  1  0.108020  0.468920  0.651350  1.0  -0.4975
  O  O1996  1  0.143470  0.468990  0.686900  1.0  -0.4996
  O  O1997  1  0.608020  0.968920  0.651350  1.0  -0.4975
  O  O1998  1  0.643470  0.968990  0.686900  1.0  -0.4999
  O  O1999  1  0.608020  0.468920  0.151350  1.0  -0.4976
  O  O2000  1  0.643470  0.468990  0.186900  1.0  -0.4999
  O  O2001  1  0.891980  0.031080  0.151350  1.0  -0.4977
  O  O2002  1  0.856530  0.031010  0.186900  1.0  -0.4995
  O  O2003  1  0.891980  0.531080  0.651350  1.0  -0.4977
  O  O2004  1  0.856530  0.531010  0.686900  1.0  -0.4995
  O  O2005  1  0.391980  0.031080  0.651350  1.0  -0.4977
  O  O2006  1  0.356530  0.031010  0.686900  1.0  -0.4995
  O  O2007  1  0.391980  0.531080  0.151350  1.0  -0.4977
  O  O2008  1  0.356530  0.531010  0.186900  1.0  -0.4995
  O  O2009  1  0.108020  0.031080  0.848650  1.0  -0.4978
  O  O2010  1  0.143470  0.031010  0.813100  1.0  -0.5005
  O  O2011  1  0.108020  0.531080  0.348650  1.0  -0.4978
  O  O2012  1  0.143470  0.531010  0.313100  1.0  -0.5005
  O  O2013  1  0.608020  0.031080  0.348650  1.0  -0.4978
  O  O2014  1  0.643470  0.031010  0.313100  1.0  -0.5005
  O  O2015  1  0.608020  0.531080  0.848650  1.0  -0.4978
  O  O2016  1  0.643470  0.531010  0.813100  1.0  -0.5005
  O  O2017  1  0.891980  0.848650  0.031080  1.0  -0.4988
  O  O2018  1  0.856530  0.813100  0.031010  1.0  -0.5008
  O  O2019  1  0.891980  0.348650  0.531080  1.0  -0.4988
  O  O2020  1  0.856530  0.313100  0.531010  1.0  -0.5008
  O  O2021  1  0.391980  0.848650  0.531080  1.0  -0.4988
  O  O2022  1  0.356530  0.813100  0.531010  1.0  -0.5008
  O  O2023  1  0.391980  0.348650  0.031080  1.0  -0.4988
  O  O2024  1  0.356530  0.313100  0.031010  1.0  -0.5008
  O  O2025  1  0.108020  0.151350  0.031080  1.0  -0.4987
  O  O2026  1  0.143470  0.186900  0.031010  1.0  -0.5014
  O  O2027  1  0.108020  0.651350  0.531080  1.0  -0.4987
  O  O2028  1  0.143470  0.686900  0.531010  1.0  -0.5014
  O  O2029  1  0.608020  0.151350  0.531080  1.0  -0.4987
  O  O2030  1  0.643470  0.186900  0.531010  1.0  -0.5014
  O  O2031  1  0.608020  0.651350  0.031080  1.0  -0.4987
  O  O2032  1  0.643470  0.686900  0.031010  1.0  -0.5014
  O  O2033  1  0.891980  0.151350  0.968920  1.0  -0.4989
  O  O2034  1  0.856530  0.186900  0.968990  1.0  -0.5008
  O  O2035  1  0.891980  0.651350  0.468920  1.0  -0.4989
  O  O2036  1  0.856530  0.686900  0.468990  1.0  -0.5008
  O  O2037  1  0.391980  0.151350  0.468920  1.0  -0.4989
  O  O2038  1  0.356530  0.186900  0.468990  1.0  -0.5008
  O  O2039  1  0.391980  0.651350  0.968920  1.0  -0.4989
  O  O2040  1  0.356530  0.686900  0.968990  1.0  -0.5008
  O  O2041  1  0.108020  0.848650  0.968920  1.0  -0.4992
  O  O2042  1  0.143470  0.813100  0.968990  1.0  -0.5006
  O  O2043  1  0.108020  0.348650  0.468920  1.0  -0.4992
  O  O2044  1  0.143470  0.313100  0.468990  1.0  -0.5006
  O  O2045  1  0.608020  0.848650  0.468920  1.0  -0.4992
  O  O2046  1  0.643470  0.813100  0.468990  1.0  -0.5006
  O  O2047  1  0.608020  0.348650  0.968920  1.0  -0.4992
  O  O2048  1  0.643470  0.313100  0.968990  1.0  -0.5006
  O  O2049  1  0.848650  0.968920  0.108020  1.0  -0.4987
  O  O2050  1  0.813100  0.968990  0.143470  1.0  -0.4999
  O  O2051  1  0.848650  0.468920  0.608020  1.0  -0.4987
  O  O2052  1  0.813100  0.468990  0.643470  1.0  -0.4999
  O  O2053  1  0.348650  0.968920  0.608020  1.0  -0.4987
  O  O2054  1  0.313100  0.968990  0.643470  1.0  -0.4999
  O  O2055  1  0.348650  0.468920  0.108020  1.0  -0.4987
  O  O2056  1  0.313100  0.468990  0.143470  1.0  -0.4999
  O  O2057  1  0.151350  0.968920  0.891980  1.0  -0.4986
  O  O2058  1  0.186900  0.968990  0.856530  1.0  -0.4998
  O  O2059  1  0.151350  0.468920  0.391980  1.0  -0.4986
  O  O2060  1  0.186900  0.468990  0.356530  1.0  -0.4998
  O  O2061  1  0.651350  0.968920  0.391980  1.0  -0.4986
  O  O2062  1  0.686900  0.968990  0.356530  1.0  -0.4998
  O  O2063  1  0.651350  0.468920  0.891980  1.0  -0.4986
  O  O2064  1  0.686900  0.468990  0.856530  1.0  -0.4998
  O  O2065  1  0.151350  0.031080  0.108020  1.0  -0.4988
  O  O2066  1  0.186900  0.031010  0.143470  1.0  -0.4999
  O  O2067  1  0.151350  0.531080  0.608020  1.0  -0.4988
  O  O2068  1  0.186900  0.531010  0.643470  1.0  -0.5
  O  O2069  1  0.651350  0.031080  0.608020  1.0  -0.4988
  O  O2070  1  0.686900  0.031010  0.643470  1.0  -0.5
  O  O2071  1  0.651350  0.531080  0.108020  1.0  -0.4988
  O  O2072  1  0.686900  0.531010  0.143470  1.0  -0.5
  O  O2073  1  0.848650  0.031080  0.891980  1.0  -0.4989
  O  O2074  1  0.813100  0.031010  0.856530  1.0  -0.5001
  O  O2075  1  0.848650  0.531080  0.391980  1.0  -0.4989
  O  O2076  1  0.813100  0.531010  0.356530  1.0  -0.5
  O  O2077  1  0.348650  0.031080  0.391980  1.0  -0.4989
  O  O2078  1  0.313100  0.031010  0.356530  1.0  -0.5001
  O  O2079  1  0.348650  0.531080  0.891980  1.0  -0.4989
  O  O2080  1  0.313100  0.531010  0.856530  1.0  -0.5001
  O  O2081  1  0.968920  0.891980  0.151350  1.0  -0.4982
  O  O2082  1  0.968990  0.856530  0.186900  1.0  -0.4997
  O  O2083  1  0.968920  0.391980  0.651350  1.0  -0.4982
  O  O2084  1  0.968990  0.356530  0.686900  1.0  -0.4997
  O  O2085  1  0.468920  0.891980  0.651350  1.0  -0.4982
  O  O2086  1  0.468990  0.856530  0.686900  1.0  -0.4997
  O  O2087  1  0.468920  0.391980  0.151350  1.0  -0.4982
  O  O2088  1  0.468990  0.356530  0.186900  1.0  -0.4997
  O  O2089  1  0.968920  0.108020  0.848650  1.0  -0.4986
  O  O2090  1  0.968990  0.143470  0.813100  1.0  -0.5
  O  O2091  1  0.968920  0.608020  0.348650  1.0  -0.4986
  O  O2092  1  0.968990  0.643470  0.313100  1.0  -0.5
  O  O2093  1  0.468920  0.108020  0.348650  1.0  -0.4986
  O  O2094  1  0.468990  0.143470  0.313100  1.0  -0.5
  O  O2095  1  0.468920  0.608020  0.848650  1.0  -0.4986
  O  O2096  1  0.468990  0.643470  0.813100  1.0  -0.5
  O  O2097  1  0.031080  0.891980  0.848650  1.0  -0.4991
  O  O2098  1  0.031010  0.856530  0.813100  1.0  -0.5005
  O  O2099  1  0.031080  0.391980  0.348650  1.0  -0.4991
  O  O2100  1  0.031010  0.356530  0.313100  1.0  -0.5005
  O  O2101  1  0.531080  0.891980  0.348650  1.0  -0.4991
  O  O2102  1  0.531010  0.856530  0.313100  1.0  -0.5005
  O  O2103  1  0.531080  0.391980  0.848650  1.0  -0.4991
  O  O2104  1  0.531010  0.356530  0.813100  1.0  -0.5005
  O  O2105  1  0.031080  0.108020  0.151350  1.0  -0.4979
  O  O2106  1  0.031010  0.143470  0.186900  1.0  -0.4995
  O  O2107  1  0.031080  0.608020  0.651350  1.0  -0.4979
  O  O2108  1  0.031010  0.643470  0.686900  1.0  -0.4998
  O  O2109  1  0.531080  0.108020  0.651350  1.0  -0.4979
  O  O2110  1  0.531010  0.143470  0.686900  1.0  -0.4998
  O  O2111  1  0.531080  0.608020  0.151350  1.0  -0.4979
  O  O2112  1  0.531010  0.643470  0.186900  1.0  -0.4998
  O  O2113  1  0.293500  0.101400  0.206500  1.0  -0.4356
  O  O2114  1  0.349000  0.087200  0.151000  1.0  -0.5802
  O  O2115  1  0.310000  0.083500  0.190000  1.0  -0.4652
  O  O2116  1  0.365500  0.109800  0.134500  1.0  -0.4632
  O  O2117  1  0.293500  0.601400  0.706500  1.0  -0.4356
  O  O2118  1  0.349000  0.587200  0.651000  1.0  -0.5802
  O  O2119  1  0.310000  0.583500  0.690000  1.0  -0.4652
  O  O2120  1  0.365500  0.609800  0.634500  1.0  -0.4632
  O  O2121  1  0.706500  0.898600  0.206500  1.0  -0.4374
  O  O2122  1  0.651000  0.912800  0.151000  1.0  -0.5814
  O  O2123  1  0.690000  0.916500  0.190000  1.0  -0.466
  O  O2124  1  0.634500  0.890200  0.134500  1.0  -0.4657
  O  O2125  1  0.706500  0.398600  0.706500  1.0  -0.4374
  O  O2126  1  0.651000  0.412800  0.651000  1.0  -0.5814
  O  O2127  1  0.690000  0.416500  0.690000  1.0  -0.466
  O  O2128  1  0.634500  0.390200  0.634500  1.0  -0.4657
  O  O2129  1  0.206500  0.398600  0.206500  1.0  -0.4374
  O  O2130  1  0.151000  0.412800  0.151000  1.0  -0.5814
  O  O2131  1  0.190000  0.416500  0.190000  1.0  -0.466
  O  O2132  1  0.134500  0.390200  0.134500  1.0  -0.4657
  O  O2133  1  0.706500  0.101400  0.793500  1.0  -0.4332
  O  O2134  1  0.651000  0.087200  0.849000  1.0  -0.5806
  O  O2135  1  0.690000  0.083500  0.810000  1.0  -0.465
  O  O2136  1  0.634500  0.109800  0.865500  1.0  -0.464
  O  O2137  1  0.706500  0.601400  0.293500  1.0  -0.4332
  O  O2138  1  0.651000  0.587200  0.349000  1.0  -0.5806
  O  O2139  1  0.690000  0.583500  0.310000  1.0  -0.465
  O  O2140  1  0.634500  0.609800  0.365500  1.0  -0.464
  O  O2141  1  0.206500  0.101400  0.293500  1.0  -0.4332
  O  O2142  1  0.151000  0.087200  0.349000  1.0  -0.5806
  O  O2143  1  0.190000  0.083500  0.310000  1.0  -0.465
  O  O2144  1  0.134500  0.109800  0.365500  1.0  -0.464
  O  O2145  1  0.293500  0.898600  0.793500  1.0  -0.4382
  O  O2146  1  0.349000  0.912800  0.849000  1.0  -0.5816
  O  O2147  1  0.310000  0.916500  0.810000  1.0  -0.4674
  O  O2148  1  0.365500  0.890200  0.865500  1.0  -0.4656
  O  O2149  1  0.293500  0.398600  0.293500  1.0  -0.4382
  O  O2150  1  0.349000  0.412800  0.349000  1.0  -0.5816
  O  O2151  1  0.310000  0.416500  0.310000  1.0  -0.4674
  O  O2152  1  0.365500  0.390200  0.365500  1.0  -0.4656
  O  O2153  1  0.206500  0.293500  0.101400  1.0  -0.4339
  O  O2154  1  0.151000  0.349000  0.087200  1.0  -0.5809
  O  O2155  1  0.190000  0.310000  0.083500  1.0  -0.4706
  O  O2156  1  0.134500  0.365500  0.109800  1.0  -0.4668
  O  O2157  1  0.206500  0.793500  0.601400  1.0  -0.4339
  O  O2158  1  0.151000  0.849000  0.587200  1.0  -0.5809
  O  O2159  1  0.190000  0.810000  0.583500  1.0  -0.4706
  O  O2160  1  0.134500  0.865500  0.609800  1.0  -0.4668
  O  O2161  1  0.206500  0.706500  0.898600  1.0  -0.4336
  O  O2162  1  0.151000  0.651000  0.912800  1.0  -0.5758
  O  O2163  1  0.190000  0.690000  0.916500  1.0  -0.4734
  O  O2164  1  0.134500  0.634500  0.890200  1.0  -0.4669
  O  O2165  1  0.206500  0.206500  0.398600  1.0  -0.4336
  O  O2166  1  0.151000  0.151000  0.412800  1.0  -0.5761
  O  O2167  1  0.190000  0.190000  0.416500  1.0  -0.4734
  O  O2168  1  0.134500  0.134500  0.390200  1.0  -0.4669
  O  O2169  1  0.793500  0.706500  0.101400  1.0  -0.4355
  O  O2170  1  0.849000  0.651000  0.087200  1.0  -0.5791
  O  O2171  1  0.810000  0.690000  0.083500  1.0  -0.4719
  O  O2172  1  0.865500  0.634500  0.109800  1.0  -0.4664
  O  O2173  1  0.793500  0.206500  0.601400  1.0  -0.4355
  O  O2174  1  0.849000  0.151000  0.587200  1.0  -0.5791
  O  O2175  1  0.810000  0.190000  0.583500  1.0  -0.4719
  O  O2176  1  0.865500  0.134500  0.609800  1.0  -0.4664
  O  O2177  1  0.293500  0.206500  0.101400  1.0  -0.4355
  O  O2178  1  0.349000  0.151000  0.087200  1.0  -0.5793
  O  O2179  1  0.310000  0.190000  0.083500  1.0  -0.4719
  O  O2180  1  0.365500  0.134500  0.109800  1.0  -0.4664
  O  O2181  1  0.793500  0.293500  0.898600  1.0  -0.4351
  O  O2182  1  0.849000  0.349000  0.912800  1.0  -0.5741
  O  O2183  1  0.810000  0.310000  0.916500  1.0  -0.4738
  O  O2184  1  0.865500  0.365500  0.890200  1.0  -0.466
  O  O2185  1  0.793500  0.793500  0.398600  1.0  -0.4351
  O  O2186  1  0.849000  0.849000  0.412800  1.0  -0.5741
  O  O2187  1  0.810000  0.810000  0.416500  1.0  -0.4738
  O  O2188  1  0.865500  0.865500  0.390200  1.0  -0.466
  O  O2189  1  0.293500  0.293500  0.398600  1.0  -0.4351
  O  O2190  1  0.349000  0.349000  0.412800  1.0  -0.5746
  O  O2191  1  0.310000  0.310000  0.416500  1.0  -0.4738
  O  O2192  1  0.365500  0.365500  0.390200  1.0  -0.466
  O  O2193  1  0.101400  0.206500  0.293500  1.0  -0.4398
  O  O2194  1  0.087200  0.151000  0.349000  1.0  -0.5763
  O  O2195  1  0.083500  0.190000  0.310000  1.0  -0.462
  O  O2196  1  0.109800  0.134500  0.365500  1.0  -0.4615
  O  O2197  1  0.601400  0.206500  0.793500  1.0  -0.4398
  O  O2198  1  0.587200  0.151000  0.849000  1.0  -0.5763
  O  O2199  1  0.583500  0.190000  0.810000  1.0  -0.462
  O  O2200  1  0.609800  0.134500  0.865500  1.0  -0.4615
  O  O2201  1  0.898600  0.206500  0.706500  1.0  -0.4397
  O  O2202  1  0.912800  0.151000  0.651000  1.0  -0.578
  O  O2203  1  0.916500  0.190000  0.690000  1.0  -0.4595
  O  O2204  1  0.890200  0.134500  0.634500  1.0  -0.4609
  O  O2205  1  0.398600  0.206500  0.206500  1.0  -0.4397
  O  O2206  1  0.412800  0.151000  0.151000  1.0  -0.5779
  O  O2207  1  0.416500  0.190000  0.190000  1.0  -0.4595
  O  O2208  1  0.390200  0.134500  0.134500  1.0  -0.4609
  O  O2209  1  0.101400  0.793500  0.706500  1.0  -0.4405
  O  O2210  1  0.087200  0.849000  0.651000  1.0  -0.5772
  O  O2211  1  0.083500  0.810000  0.690000  1.0  -0.4614
  O  O2212  1  0.109800  0.865500  0.634500  1.0  -0.4613
  O  O2213  1  0.101400  0.293500  0.206500  1.0  -0.4405
  O  O2214  1  0.087200  0.349000  0.151000  1.0  -0.5771
  O  O2215  1  0.083500  0.310000  0.190000  1.0  -0.4614
  O  O2216  1  0.109800  0.365500  0.134500  1.0  -0.4613
  O  O2217  1  0.601400  0.793500  0.206500  1.0  -0.4405
  O  O2218  1  0.587200  0.849000  0.151000  1.0  -0.5772
  O  O2219  1  0.583500  0.810000  0.190000  1.0  -0.4614
  O  O2220  1  0.609800  0.865500  0.134500  1.0  -0.4613
  O  O2221  1  0.898600  0.793500  0.293500  1.0  -0.4389
  O  O2222  1  0.912800  0.849000  0.349000  1.0  -0.577
  O  O2223  1  0.916500  0.810000  0.310000  1.0  -0.4602
  O  O2224  1  0.890200  0.865500  0.365500  1.0  -0.461
  O  O2225  1  0.398600  0.793500  0.793500  1.0  -0.4389
  O  O2226  1  0.412800  0.849000  0.849000  1.0  -0.577
  O  O2227  1  0.416500  0.810000  0.810000  1.0  -0.4602
  O  O2228  1  0.390200  0.865500  0.865500  1.0  -0.461
  O  O2229  1  0.398600  0.293500  0.293500  1.0  -0.4389
  O  O2230  1  0.412800  0.349000  0.349000  1.0  -0.577
  O  O2231  1  0.416500  0.310000  0.310000  1.0  -0.4602
  O  O2232  1  0.390200  0.365500  0.365500  1.0  -0.461
  O  O2233  1  0.101400  0.293500  0.793500  1.0  -0.4377
  O  O2234  1  0.087200  0.349000  0.849000  1.0  -0.5769
  O  O2235  1  0.083500  0.310000  0.810000  1.0  -0.4626
  O  O2236  1  0.109800  0.365500  0.865500  1.0  -0.4614
  O  O2237  1  0.601400  0.293500  0.293500  1.0  -0.4377
  O  O2238  1  0.587200  0.349000  0.349000  1.0  -0.5769
  O  O2239  1  0.583500  0.310000  0.310000  1.0  -0.4626
  O  O2240  1  0.609800  0.365500  0.365500  1.0  -0.4614
  O  O2241  1  0.898600  0.706500  0.793500  1.0  -0.4407
  O  O2242  1  0.912800  0.651000  0.849000  1.0  -0.5773
  O  O2243  1  0.916500  0.690000  0.810000  1.0  -0.4595
  O  O2244  1  0.890200  0.634500  0.865500  1.0  -0.4612
  O  O2245  1  0.898600  0.206500  0.293500  1.0  -0.4407
  O  O2246  1  0.912800  0.151000  0.349000  1.0  -0.5773
  O  O2247  1  0.916500  0.190000  0.310000  1.0  -0.4595
  O  O2248  1  0.890200  0.134500  0.365500  1.0  -0.4612
  O  O2249  1  0.398600  0.706500  0.293500  1.0  -0.4407
  O  O2250  1  0.412800  0.651000  0.349000  1.0  -0.5773
  O  O2251  1  0.416500  0.690000  0.310000  1.0  -0.4595
  O  O2252  1  0.390200  0.634500  0.365500  1.0  -0.4612
  O  O2253  1  0.101400  0.706500  0.206500  1.0  -0.4396
  O  O2254  1  0.087200  0.651000  0.151000  1.0  -0.5776
  O  O2255  1  0.083500  0.690000  0.190000  1.0  -0.4614
  O  O2256  1  0.109800  0.634500  0.134500  1.0  -0.4619
  O  O2257  1  0.601400  0.706500  0.706500  1.0  -0.4396
  O  O2258  1  0.587200  0.651000  0.651000  1.0  -0.5776
  O  O2259  1  0.583500  0.690000  0.690000  1.0  -0.4614
  O  O2260  1  0.609800  0.634500  0.634500  1.0  -0.4619
  O  O2261  1  0.601400  0.206500  0.206500  1.0  -0.4396
  O  O2262  1  0.587200  0.151000  0.151000  1.0  -0.5776
  O  O2263  1  0.583500  0.190000  0.190000  1.0  -0.4614
  O  O2264  1  0.609800  0.134500  0.134500  1.0  -0.4619
  O  O2265  1  0.898600  0.293500  0.206500  1.0  -0.4406
  O  O2266  1  0.912800  0.349000  0.151000  1.0  -0.577
  O  O2267  1  0.916500  0.310000  0.190000  1.0  -0.4602
  O  O2268  1  0.890200  0.365500  0.134500  1.0  -0.4602
  O  O2269  1  0.398600  0.293500  0.706500  1.0  -0.4406
  O  O2270  1  0.412800  0.349000  0.651000  1.0  -0.577
  O  O2271  1  0.416500  0.310000  0.690000  1.0  -0.4602
  O  O2272  1  0.390200  0.365500  0.634500  1.0  -0.4602
  O  O2273  1  0.293500  0.206500  0.898600  1.0  -0.4356
  O  O2274  1  0.349000  0.151000  0.912800  1.0  -0.5749
  O  O2275  1  0.310000  0.190000  0.916500  1.0  -0.474
  O  O2276  1  0.365500  0.134500  0.890200  1.0  -0.4666
  O  O2277  1  0.293500  0.706500  0.398600  1.0  -0.4356
  O  O2278  1  0.349000  0.651000  0.412800  1.0  -0.5754
  O  O2279  1  0.310000  0.690000  0.416500  1.0  -0.474
  O  O2280  1  0.365500  0.634500  0.390200  1.0  -0.4666
  O  O2281  1  0.706500  0.206500  0.101400  1.0  -0.434
  O  O2282  1  0.651000  0.151000  0.087200  1.0  -0.5809
  O  O2283  1  0.690000  0.190000  0.083500  1.0  -0.47
  O  O2284  1  0.634500  0.134500  0.109800  1.0  -0.4666
  O  O2285  1  0.706500  0.706500  0.601400  1.0  -0.434
  O  O2286  1  0.651000  0.651000  0.587200  1.0  -0.5809
  O  O2287  1  0.690000  0.690000  0.583500  1.0  -0.47
  O  O2288  1  0.634500  0.634500  0.609800  1.0  -0.4666
  O  O2289  1  0.206500  0.206500  0.601400  1.0  -0.434
  O  O2290  1  0.151000  0.151000  0.587200  1.0  -0.5808
  O  O2291  1  0.190000  0.190000  0.583500  1.0  -0.47
  O  O2292  1  0.134500  0.134500  0.609800  1.0  -0.4666
  O  O2293  1  0.706500  0.793500  0.898600  1.0  -0.4326
  O  O2294  1  0.651000  0.849000  0.912800  1.0  -0.5748
  O  O2295  1  0.690000  0.810000  0.916500  1.0  -0.4736
  O  O2296  1  0.634500  0.865500  0.890200  1.0  -0.4663
  O  O2297  1  0.706500  0.293500  0.398600  1.0  -0.4326
  O  O2298  1  0.651000  0.349000  0.412800  1.0  -0.5751
  O  O2299  1  0.690000  0.310000  0.416500  1.0  -0.4736
  O  O2300  1  0.634500  0.365500  0.390200  1.0  -0.4663
  O  O2301  1  0.206500  0.293500  0.898600  1.0  -0.4326
  O  O2302  1  0.151000  0.349000  0.912800  1.0  -0.5751
  O  O2303  1  0.190000  0.310000  0.916500  1.0  -0.4736
  O  O2304  1  0.134500  0.365500  0.890200  1.0  -0.4663
  O  O2305  1  0.293500  0.793500  0.101400  1.0  -0.4361
  O  O2306  1  0.349000  0.849000  0.087200  1.0  -0.5792
  O  O2307  1  0.310000  0.810000  0.083500  1.0  -0.4723
  O  O2308  1  0.365500  0.865500  0.109800  1.0  -0.4667
  O  O2309  1  0.293500  0.293500  0.601400  1.0  -0.4361
  O  O2310  1  0.349000  0.349000  0.587200  1.0  -0.5794
  O  O2311  1  0.310000  0.310000  0.583500  1.0  -0.4723
  O  O2312  1  0.365500  0.365500  0.609800  1.0  -0.4667
  O  O2313  1  0.206500  0.101400  0.706500  1.0  -0.4364
  O  O2314  1  0.151000  0.087200  0.651000  1.0  -0.5811
  O  O2315  1  0.190000  0.083500  0.690000  1.0  -0.4648
  O  O2316  1  0.134500  0.109800  0.634500  1.0  -0.4631
  O  O2317  1  0.206500  0.601400  0.206500  1.0  -0.4364
  O  O2318  1  0.151000  0.587200  0.151000  1.0  -0.5811
  O  O2319  1  0.190000  0.583500  0.190000  1.0  -0.4648
  O  O2320  1  0.134500  0.609800  0.134500  1.0  -0.4631
  O  O2321  1  0.206500  0.898600  0.293500  1.0  -0.4343
  O  O2322  1  0.151000  0.912800  0.349000  1.0  -0.5815
  O  O2323  1  0.190000  0.916500  0.310000  1.0  -0.4662
  O  O2324  1  0.134500  0.890200  0.365500  1.0  -0.4661
  O  O2325  1  0.206500  0.398600  0.793500  1.0  -0.4343
  O  O2326  1  0.151000  0.412800  0.849000  1.0  -0.5819
  O  O2327  1  0.190000  0.416500  0.810000  1.0  -0.4662
  O  O2328  1  0.134500  0.390200  0.865500  1.0  -0.4661
  O  O2329  1  0.793500  0.101400  0.293500  1.0  -0.4365
  O  O2330  1  0.849000  0.087200  0.349000  1.0  -0.5803
  O  O2331  1  0.810000  0.083500  0.310000  1.0  -0.4654
  O  O2332  1  0.865500  0.109800  0.365500  1.0  -0.4636
  O  O2333  1  0.793500  0.601400  0.793500  1.0  -0.4365
  O  O2334  1  0.849000  0.587200  0.849000  1.0  -0.5803
  O  O2335  1  0.810000  0.583500  0.810000  1.0  -0.4654
  O  O2336  1  0.865500  0.609800  0.865500  1.0  -0.4636
  O  O2337  1  0.293500  0.601400  0.293500  1.0  -0.4365
  O  O2338  1  0.349000  0.587200  0.349000  1.0  -0.5803
  O  O2339  1  0.310000  0.583500  0.310000  1.0  -0.4654
  O  O2340  1  0.365500  0.609800  0.365500  1.0  -0.4636
  O  O2341  1  0.793500  0.898600  0.706500  1.0  -0.437
  O  O2342  1  0.849000  0.912800  0.651000  1.0  -0.5814
  O  O2343  1  0.810000  0.916500  0.690000  1.0  -0.4672
  O  O2344  1  0.865500  0.890200  0.634500  1.0  -0.4651
  O  O2345  1  0.793500  0.398600  0.206500  1.0  -0.437
  O  O2346  1  0.849000  0.412800  0.151000  1.0  -0.5814
  O  O2347  1  0.810000  0.416500  0.190000  1.0  -0.4672
  O  O2348  1  0.865500  0.390200  0.134500  1.0  -0.4651
  O  O2349  1  0.293500  0.898600  0.206500  1.0  -0.437
  O  O2350  1  0.349000  0.912800  0.151000  1.0  -0.5814
  O  O2351  1  0.310000  0.916500  0.190000  1.0  -0.4672
  O  O2352  1  0.365500  0.890200  0.134500  1.0  -0.4651
  O  O2353  1  0.706500  0.898600  0.793500  1.0  -0.4343
  O  O2354  1  0.651000  0.912800  0.849000  1.0  -0.5816
  O  O2355  1  0.690000  0.916500  0.810000  1.0  -0.4662
  O  O2356  1  0.634500  0.890200  0.865500  1.0  -0.4661
  O  O2357  1  0.706500  0.398600  0.293500  1.0  -0.4343
  O  O2358  1  0.651000  0.412800  0.349000  1.0  -0.5819
  O  O2359  1  0.690000  0.416500  0.310000  1.0  -0.4662
  O  O2360  1  0.634500  0.390200  0.365500  1.0  -0.4661
  O  O2361  1  0.293500  0.101400  0.793500  1.0  -0.4365
  O  O2362  1  0.349000  0.087200  0.849000  1.0  -0.5803
  O  O2363  1  0.310000  0.083500  0.810000  1.0  -0.4654
  O  O2364  1  0.365500  0.109800  0.865500  1.0  -0.4636
  O  O2365  1  0.293500  0.398600  0.706500  1.0  -0.437
  O  O2366  1  0.349000  0.412800  0.651000  1.0  -0.5816
  O  O2367  1  0.310000  0.416500  0.690000  1.0  -0.4672
  O  O2368  1  0.365500  0.390200  0.634500  1.0  -0.4651
  O  O2369  1  0.706500  0.101400  0.206500  1.0  -0.4364
  O  O2370  1  0.651000  0.087200  0.151000  1.0  -0.5812
  O  O2371  1  0.690000  0.083500  0.190000  1.0  -0.4648
  O  O2372  1  0.634500  0.109800  0.134500  1.0  -0.4631
  O  O2373  1  0.706500  0.601400  0.706500  1.0  -0.4364
  O  O2374  1  0.651000  0.587200  0.651000  1.0  -0.5812
  O  O2375  1  0.690000  0.583500  0.690000  1.0  -0.4648
  O  O2376  1  0.634500  0.609800  0.634500  1.0  -0.4631
  O  O2377  1  0.793500  0.706500  0.898600  1.0  -0.4356
  O  O2378  1  0.849000  0.651000  0.912800  1.0  -0.5754
  O  O2379  1  0.810000  0.690000  0.916500  1.0  -0.474
  O  O2380  1  0.865500  0.634500  0.890200  1.0  -0.4666
  O  O2381  1  0.793500  0.206500  0.398600  1.0  -0.4356
  O  O2382  1  0.849000  0.151000  0.412800  1.0  -0.5754
  O  O2383  1  0.810000  0.190000  0.416500  1.0  -0.474
  O  O2384  1  0.865500  0.134500  0.390200  1.0  -0.4666
  O  O2385  1  0.793500  0.293500  0.101400  1.0  -0.4361
  O  O2386  1  0.849000  0.349000  0.087200  1.0  -0.5794
  O  O2387  1  0.810000  0.310000  0.083500  1.0  -0.4723
  O  O2388  1  0.865500  0.365500  0.109800  1.0  -0.4667
  O  O2389  1  0.793500  0.793500  0.601400  1.0  -0.4361
  O  O2390  1  0.849000  0.849000  0.587200  1.0  -0.5794
  O  O2391  1  0.810000  0.810000  0.583500  1.0  -0.4723
  O  O2392  1  0.865500  0.865500  0.609800  1.0  -0.4667
  O  O2393  1  0.206500  0.793500  0.398600  1.0  -0.4326
  O  O2394  1  0.151000  0.849000  0.412800  1.0  -0.5751
  O  O2395  1  0.190000  0.810000  0.416500  1.0  -0.4736
  O  O2396  1  0.134500  0.865500  0.390200  1.0  -0.4663
  O  O2397  1  0.206500  0.706500  0.101400  1.0  -0.434
  O  O2398  1  0.151000  0.651000  0.087200  1.0  -0.5809
  O  O2399  1  0.190000  0.690000  0.083500  1.0  -0.47
  O  O2400  1  0.134500  0.634500  0.109800  1.0  -0.4666
  O  O2401  1  0.898600  0.793500  0.706500  1.0  -0.4406
  O  O2402  1  0.912800  0.849000  0.651000  1.0  -0.5769
  O  O2403  1  0.916500  0.810000  0.690000  1.0  -0.4602
  O  O2404  1  0.890200  0.865500  0.634500  1.0  -0.4602
  O  O2405  1  0.398600  0.793500  0.206500  1.0  -0.4406
  O  O2406  1  0.412800  0.849000  0.151000  1.0  -0.5769
  O  O2407  1  0.416500  0.810000  0.190000  1.0  -0.4602
  O  O2408  1  0.390200  0.865500  0.134500  1.0  -0.4602
  O  O2409  1  0.101400  0.793500  0.293500  1.0  -0.4377
  O  O2410  1  0.087200  0.849000  0.349000  1.0  -0.577
  O  O2411  1  0.083500  0.810000  0.310000  1.0  -0.4626
  O  O2412  1  0.109800  0.865500  0.365500  1.0  -0.4614
  O  O2413  1  0.601400  0.793500  0.793500  1.0  -0.4377
  O  O2414  1  0.587200  0.849000  0.849000  1.0  -0.577
  O  O2415  1  0.583500  0.810000  0.810000  1.0  -0.4626
  O  O2416  1  0.609800  0.865500  0.865500  1.0  -0.4614
  O  O2417  1  0.398600  0.206500  0.793500  1.0  -0.4407
  O  O2418  1  0.412800  0.151000  0.849000  1.0  -0.5776
  O  O2419  1  0.416500  0.190000  0.810000  1.0  -0.4595
  O  O2420  1  0.390200  0.134500  0.865500  1.0  -0.4612
  O  O2421  1  0.101400  0.206500  0.706500  1.0  -0.4396
  O  O2422  1  0.087200  0.151000  0.651000  1.0  -0.5774
  O  O2423  1  0.083500  0.190000  0.690000  1.0  -0.4614
  O  O2424  1  0.109800  0.134500  0.634500  1.0  -0.4619
  O  O2425  1  0.898600  0.706500  0.206500  1.0  -0.4397
  O  O2426  1  0.912800  0.651000  0.151000  1.0  -0.578
  O  O2427  1  0.916500  0.690000  0.190000  1.0  -0.4595
  O  O2428  1  0.890200  0.634500  0.134500  1.0  -0.4609
  O  O2429  1  0.398600  0.706500  0.706500  1.0  -0.4397
  O  O2430  1  0.412800  0.651000  0.651000  1.0  -0.578
  O  O2431  1  0.416500  0.690000  0.690000  1.0  -0.4595
  O  O2432  1  0.390200  0.634500  0.634500  1.0  -0.4609
  O  O2433  1  0.601400  0.293500  0.706500  1.0  -0.4405
  O  O2434  1  0.587200  0.349000  0.651000  1.0  -0.5772
  O  O2435  1  0.583500  0.310000  0.690000  1.0  -0.4614
  O  O2436  1  0.609800  0.365500  0.634500  1.0  -0.4613
  O  O2437  1  0.898600  0.293500  0.793500  1.0  -0.4389
  O  O2438  1  0.912800  0.349000  0.849000  1.0  -0.577
  O  O2439  1  0.916500  0.310000  0.810000  1.0  -0.4602
  O  O2440  1  0.890200  0.365500  0.865500  1.0  -0.461
  O  O2441  1  0.101400  0.706500  0.793500  1.0  -0.4398
  O  O2442  1  0.087200  0.651000  0.849000  1.0  -0.5763
  O  O2443  1  0.083500  0.690000  0.810000  1.0  -0.462
  O  O2444  1  0.109800  0.634500  0.865500  1.0  -0.4615
  O  O2445  1  0.601400  0.706500  0.293500  1.0  -0.4398
  O  O2446  1  0.587200  0.651000  0.349000  1.0  -0.5763
  O  O2447  1  0.583500  0.690000  0.310000  1.0  -0.462
  O  O2448  1  0.609800  0.634500  0.365500  1.0  -0.4615
  O  O2449  1  0.706500  0.793500  0.101400  1.0  -0.4339
  O  O2450  1  0.651000  0.849000  0.087200  1.0  -0.581
  O  O2451  1  0.690000  0.810000  0.083500  1.0  -0.4706
  O  O2452  1  0.634500  0.865500  0.109800  1.0  -0.4668
  O  O2453  1  0.706500  0.293500  0.601400  1.0  -0.4339
  O  O2454  1  0.651000  0.349000  0.587200  1.0  -0.581
  O  O2455  1  0.690000  0.310000  0.583500  1.0  -0.4706
  O  O2456  1  0.634500  0.365500  0.609800  1.0  -0.4668
  O  O2457  1  0.293500  0.793500  0.898600  1.0  -0.4351
  O  O2458  1  0.349000  0.849000  0.912800  1.0  -0.5746
  O  O2459  1  0.310000  0.810000  0.916500  1.0  -0.4738
  O  O2460  1  0.365500  0.865500  0.890200  1.0  -0.466
  O  O2461  1  0.293500  0.706500  0.601400  1.0  -0.4355
  O  O2462  1  0.349000  0.651000  0.587200  1.0  -0.5793
  O  O2463  1  0.310000  0.690000  0.583500  1.0  -0.4719
  O  O2464  1  0.365500  0.634500  0.609800  1.0  -0.4664
  O  O2465  1  0.706500  0.206500  0.898600  1.0  -0.4336
  O  O2466  1  0.651000  0.151000  0.912800  1.0  -0.5761
  O  O2467  1  0.690000  0.190000  0.916500  1.0  -0.4734
  O  O2468  1  0.634500  0.134500  0.890200  1.0  -0.4669
  O  O2469  1  0.706500  0.706500  0.398600  1.0  -0.4336
  O  O2470  1  0.651000  0.651000  0.412800  1.0  -0.5761
  O  O2471  1  0.690000  0.690000  0.416500  1.0  -0.4734
  O  O2472  1  0.634500  0.634500  0.390200  1.0  -0.4669
  O  O2473  1  0.793500  0.898600  0.293500  1.0  -0.4382
  O  O2474  1  0.849000  0.912800  0.349000  1.0  -0.582
  O  O2475  1  0.810000  0.916500  0.310000  1.0  -0.4674
  O  O2476  1  0.865500  0.890200  0.365500  1.0  -0.4656
  O  O2477  1  0.793500  0.398600  0.793500  1.0  -0.4382
  O  O2478  1  0.849000  0.412800  0.849000  1.0  -0.582
  O  O2479  1  0.810000  0.416500  0.810000  1.0  -0.4674
  O  O2480  1  0.865500  0.390200  0.865500  1.0  -0.4656
  O  O2481  1  0.793500  0.101400  0.706500  1.0  -0.4356
  O  O2482  1  0.849000  0.087200  0.651000  1.0  -0.5804
  O  O2483  1  0.810000  0.083500  0.690000  1.0  -0.4652
  O  O2484  1  0.865500  0.109800  0.634500  1.0  -0.4632
  O  O2485  1  0.793500  0.601400  0.206500  1.0  -0.4356
  O  O2486  1  0.849000  0.587200  0.151000  1.0  -0.5804
  O  O2487  1  0.810000  0.583500  0.190000  1.0  -0.4652
  O  O2488  1  0.865500  0.609800  0.134500  1.0  -0.4632
  O  O2489  1  0.206500  0.898600  0.706500  1.0  -0.4374
  O  O2490  1  0.151000  0.912800  0.651000  1.0  -0.5815
  O  O2491  1  0.190000  0.916500  0.690000  1.0  -0.466
  O  O2492  1  0.134500  0.890200  0.634500  1.0  -0.4657
  O  O2493  1  0.206500  0.601400  0.793500  1.0  -0.4332
  O  O2494  1  0.151000  0.587200  0.849000  1.0  -0.5809
  O  O2495  1  0.190000  0.583500  0.810000  1.0  -0.465
  O  O2496  1  0.134500  0.609800  0.865500  1.0  -0.464
  O  O2497  1  0.334800  0.165200  0.165200  1.0  -0.8066
  O  O2498  1  0.334800  0.665200  0.665200  1.0  -0.8066
  O  O2499  1  0.665200  0.834800  0.165200  1.0  -0.8063
  O  O2500  1  0.665200  0.334800  0.665200  1.0  -0.8063
  O  O2501  1  0.165200  0.334800  0.165200  1.0  -0.8063
  O  O2502  1  0.665200  0.165200  0.834800  1.0  -0.8073
  O  O2503  1  0.665200  0.665200  0.334800  1.0  -0.8073
  O  O2504  1  0.165200  0.165200  0.334800  1.0  -0.8073
  O  O2505  1  0.334800  0.834800  0.834800  1.0  -0.8058
  O  O2506  1  0.334800  0.334800  0.334800  1.0  -0.8058
  O  O2507  1  0.165200  0.665200  0.834800  1.0  -0.8073
  O  O2508  1  0.834800  0.665200  0.165200  1.0  -0.8066
  O  O2509  1  0.834800  0.334800  0.834800  1.0  -0.8058
  O  O2510  1  0.834800  0.165200  0.665200  1.0  -0.8066
  O  O2511  1  0.165200  0.834800  0.665200  1.0  -0.8063
  O  O2512  1  0.834800  0.834800  0.334800  1.0  -0.8058
  O  O2513  1  0.165200  0.334800  0.834800  1.0  -0.806
  O  O2514  1  0.834800  0.665200  0.834800  1.0  -0.8071
  O  O2515  1  0.834800  0.165200  0.334800  1.0  -0.8071
  O  O2516  1  0.334800  0.165200  0.834800  1.0  -0.8071
  O  O2517  1  0.165200  0.665200  0.165200  1.0  -0.8068
  O  O2518  1  0.834800  0.334800  0.165200  1.0  -0.8053
  O  O2519  1  0.334800  0.334800  0.665200  1.0  -0.8053
  O  O2520  1  0.334800  0.665200  0.334800  1.0  -0.8071
  O  O2521  1  0.665200  0.165200  0.165200  1.0  -0.8068
  O  O2522  1  0.665200  0.665200  0.665200  1.0  -0.8068
  O  O2523  1  0.665200  0.834800  0.834800  1.0  -0.806
  O  O2524  1  0.665200  0.334800  0.334800  1.0  -0.806
  O  O2525  1  0.165200  0.834800  0.334800  1.0  -0.806
  O  O2526  1  0.334800  0.834800  0.165200  1.0  -0.8053
  O  O2527  1  0.165200  0.165200  0.665200  1.0  -0.8068
  O  O2528  1  0.834800  0.834800  0.665200  1.0  -0.8053
