# generated using pymatgen
data_Cu6H9C27N12O13
_symmetry_space_group_name_H-M   'P 1'
_cell_length_a   44.61400000
_cell_length_b   44.61400000
_cell_length_c   44.61400000
_cell_angle_alpha   90.00000000
_cell_angle_beta   90.00000000
_cell_angle_gamma   90.00000000
_symmetry_Int_Tables_number   1
_chemical_formula_structural   Cu6H9C27N12O13
_chemical_formula_sum   'Cu192 H288 C864 N384 O416'
_cell_volume   88800.10694754
_cell_formula_units_Z   32
loop_
 _symmetry_equiv_pos_site_id
 _symmetry_equiv_pos_as_xyz
  1  'x, y, z'
loop_
 _atom_site_type_symbol
 _atom_site_label
 _atom_site_symmetry_multiplicity
 _atom_site_fract_x
 _atom_site_fract_y
 _atom_site_fract_z
 _atom_site_occupancy
 _atom_site_charge
  Cu  Cu1  1  0.168380  0.168380  0.000000  1.0  0.9119
  Cu  Cu2  1  0.126470  0.126470  0.000000  1.0  0.8976
  Cu  Cu3  1  0.168380  0.668380  0.500000  1.0  0.9119
  Cu  Cu4  1  0.126470  0.626470  0.500000  1.0  0.8976
  Cu  Cu5  1  0.668380  0.168380  0.500000  1.0  0.9119
  Cu  Cu6  1  0.626470  0.126470  0.500000  1.0  0.8976
  Cu  Cu7  1  0.668380  0.668380  0.000000  1.0  0.9119
  Cu  Cu8  1  0.626470  0.626470  0.000000  1.0  0.8976
  Cu  Cu9  1  0.831620  0.831620  0.000000  1.0  0.911
  Cu  Cu10  1  0.873530  0.873530  0.000000  1.0  0.8976
  Cu  Cu11  1  0.831620  0.331620  0.500000  1.0  0.911
  Cu  Cu12  1  0.873530  0.373530  0.500000  1.0  0.8976
  Cu  Cu13  1  0.331620  0.831620  0.500000  1.0  0.911
  Cu  Cu14  1  0.373530  0.873530  0.500000  1.0  0.8976
  Cu  Cu15  1  0.331620  0.331620  0.000000  1.0  0.911
  Cu  Cu16  1  0.373530  0.373530  0.000000  1.0  0.8976
  Cu  Cu17  1  0.831620  0.168380  0.000000  1.0  0.911
  Cu  Cu18  1  0.873530  0.126470  0.000000  1.0  0.8965
  Cu  Cu19  1  0.831620  0.668380  0.500000  1.0  0.911
  Cu  Cu20  1  0.873530  0.626470  0.500000  1.0  0.8965
  Cu  Cu21  1  0.331620  0.168380  0.500000  1.0  0.911
  Cu  Cu22  1  0.373530  0.126470  0.500000  1.0  0.8965
  Cu  Cu23  1  0.331620  0.668380  0.000000  1.0  0.911
  Cu  Cu24  1  0.373530  0.626470  0.000000  1.0  0.8965
  Cu  Cu25  1  0.168380  0.831620  0.000000  1.0  0.9109
  Cu  Cu26  1  0.126470  0.873530  0.000000  1.0  0.8977
  Cu  Cu27  1  0.168380  0.331620  0.500000  1.0  0.9109
  Cu  Cu28  1  0.126470  0.373530  0.500000  1.0  0.8977
  Cu  Cu29  1  0.668380  0.831620  0.500000  1.0  0.9109
  Cu  Cu30  1  0.626470  0.873530  0.500000  1.0  0.8977
  Cu  Cu31  1  0.668380  0.331620  0.000000  1.0  0.9109
  Cu  Cu32  1  0.626470  0.373530  0.000000  1.0  0.8977
  Cu  Cu33  1  0.000000  0.168380  0.168380  1.0  0.9089
  Cu  Cu34  1  0.000000  0.126470  0.126470  1.0  0.8953
  Cu  Cu35  1  0.000000  0.668380  0.668380  1.0  0.9089
  Cu  Cu36  1  0.000000  0.626470  0.626470  1.0  0.8953
  Cu  Cu37  1  0.500000  0.168380  0.668380  1.0  0.9089
  Cu  Cu38  1  0.500000  0.126470  0.626470  1.0  0.8953
  Cu  Cu39  1  0.500000  0.668380  0.168380  1.0  0.9089
  Cu  Cu40  1  0.500000  0.626470  0.126470  1.0  0.8953
  Cu  Cu41  1  0.000000  0.831620  0.831620  1.0  0.9089
  Cu  Cu42  1  0.000000  0.873530  0.873530  1.0  0.8957
  Cu  Cu43  1  0.000000  0.331620  0.331620  1.0  0.9089
  Cu  Cu44  1  0.000000  0.373530  0.373530  1.0  0.8957
  Cu  Cu45  1  0.500000  0.831620  0.331620  1.0  0.9089
  Cu  Cu46  1  0.500000  0.873530  0.373530  1.0  0.8957
  Cu  Cu47  1  0.500000  0.331620  0.831620  1.0  0.9089
  Cu  Cu48  1  0.500000  0.373530  0.873530  1.0  0.8957
  Cu  Cu49  1  0.000000  0.831620  0.168380  1.0  0.9082
  Cu  Cu50  1  0.000000  0.873530  0.126470  1.0  0.8954
  Cu  Cu51  1  0.000000  0.331620  0.668380  1.0  0.9082
  Cu  Cu52  1  0.000000  0.373530  0.626470  1.0  0.8954
  Cu  Cu53  1  0.500000  0.831620  0.668380  1.0  0.9082
  Cu  Cu54  1  0.500000  0.873530  0.626470  1.0  0.8954
  Cu  Cu55  1  0.500000  0.331620  0.168380  1.0  0.9082
  Cu  Cu56  1  0.500000  0.373530  0.126470  1.0  0.8954
  Cu  Cu57  1  0.000000  0.168380  0.831620  1.0  0.9084
  Cu  Cu58  1  0.000000  0.126470  0.873530  1.0  0.8948
  Cu  Cu59  1  0.000000  0.668380  0.331620  1.0  0.9084
  Cu  Cu60  1  0.000000  0.626470  0.373530  1.0  0.8948
  Cu  Cu61  1  0.500000  0.168380  0.331620  1.0  0.9084
  Cu  Cu62  1  0.500000  0.126470  0.373530  1.0  0.8948
  Cu  Cu63  1  0.500000  0.668380  0.831620  1.0  0.9084
  Cu  Cu64  1  0.500000  0.626470  0.873530  1.0  0.8948
  Cu  Cu65  1  0.168380  0.000000  0.168380  1.0  0.9094
  Cu  Cu66  1  0.126470  0.000000  0.126470  1.0  0.8967
  Cu  Cu67  1  0.168380  0.500000  0.668380  1.0  0.9094
  Cu  Cu68  1  0.126470  0.500000  0.626470  1.0  0.8967
  Cu  Cu69  1  0.668380  0.000000  0.668380  1.0  0.9094
  Cu  Cu70  1  0.626470  0.000000  0.626470  1.0  0.8967
  Cu  Cu71  1  0.668380  0.500000  0.168380  1.0  0.9094
  Cu  Cu72  1  0.626470  0.500000  0.126470  1.0  0.8967
  Cu  Cu73  1  0.831620  0.000000  0.831620  1.0  0.91
  Cu  Cu74  1  0.873530  0.000000  0.873530  1.0  0.8951
  Cu  Cu75  1  0.831620  0.500000  0.331620  1.0  0.91
  Cu  Cu76  1  0.873530  0.500000  0.373530  1.0  0.8951
  Cu  Cu77  1  0.331620  0.000000  0.331620  1.0  0.91
  Cu  Cu78  1  0.373530  0.000000  0.373530  1.0  0.8951
  Cu  Cu79  1  0.331620  0.500000  0.831620  1.0  0.91
  Cu  Cu80  1  0.373530  0.500000  0.873530  1.0  0.8951
  Cu  Cu81  1  0.168380  0.000000  0.831620  1.0  0.9096
  Cu  Cu82  1  0.126470  0.000000  0.873530  1.0  0.896
  Cu  Cu83  1  0.168380  0.500000  0.331620  1.0  0.9096
  Cu  Cu84  1  0.126470  0.500000  0.373530  1.0  0.896
  Cu  Cu85  1  0.668380  0.000000  0.331620  1.0  0.9096
  Cu  Cu86  1  0.626470  0.000000  0.373530  1.0  0.896
  Cu  Cu87  1  0.668380  0.500000  0.831620  1.0  0.9096
  Cu  Cu88  1  0.626470  0.500000  0.873530  1.0  0.896
  Cu  Cu89  1  0.831620  0.000000  0.168380  1.0  0.909
  Cu  Cu90  1  0.873530  0.000000  0.126470  1.0  0.8955
  Cu  Cu91  1  0.831620  0.500000  0.668380  1.0  0.909
  Cu  Cu92  1  0.873530  0.500000  0.626470  1.0  0.8955
  Cu  Cu93  1  0.331620  0.000000  0.668380  1.0  0.909
  Cu  Cu94  1  0.373530  0.000000  0.626470  1.0  0.8955
  Cu  Cu95  1  0.331620  0.500000  0.168380  1.0  0.909
  Cu  Cu96  1  0.373530  0.500000  0.126470  1.0  0.8955
  Cu  Cu97  1  0.176170  0.323830  0.877140  1.0  0.6628
  Cu  Cu98  1  0.176170  0.823830  0.377140  1.0  0.6628
  Cu  Cu99  1  0.823830  0.676170  0.877140  1.0  0.6603
  Cu  Cu100  1  0.823830  0.176170  0.377140  1.0  0.6603
  Cu  Cu101  1  0.323830  0.176170  0.877140  1.0  0.6603
  Cu  Cu102  1  0.823830  0.323830  0.122860  1.0  0.6608
  Cu  Cu103  1  0.823830  0.823830  0.622860  1.0  0.6608
  Cu  Cu104  1  0.323830  0.323830  0.622860  1.0  0.6608
  Cu  Cu105  1  0.176170  0.676170  0.122860  1.0  0.6615
  Cu  Cu106  1  0.176170  0.176170  0.622860  1.0  0.6615
  Cu  Cu107  1  0.877140  0.176170  0.323830  1.0  0.6647
  Cu  Cu108  1  0.377140  0.176170  0.823830  1.0  0.6647
  Cu  Cu109  1  0.877140  0.823830  0.676170  1.0  0.6649
  Cu  Cu110  1  0.877140  0.323830  0.176170  1.0  0.6649
  Cu  Cu111  1  0.377140  0.823830  0.176170  1.0  0.6649
  Cu  Cu112  1  0.122860  0.823830  0.323830  1.0  0.661
  Cu  Cu113  1  0.622860  0.823830  0.823830  1.0  0.661
  Cu  Cu114  1  0.622860  0.323830  0.323830  1.0  0.661
  Cu  Cu115  1  0.122860  0.176170  0.676170  1.0  0.661
  Cu  Cu116  1  0.622860  0.176170  0.176170  1.0  0.661
  Cu  Cu117  1  0.323830  0.877140  0.176170  1.0  0.6612
  Cu  Cu118  1  0.323830  0.377140  0.676170  1.0  0.6612
  Cu  Cu119  1  0.676170  0.877140  0.823830  1.0  0.6624
  Cu  Cu120  1  0.676170  0.377140  0.323830  1.0  0.6624
  Cu  Cu121  1  0.176170  0.877140  0.323830  1.0  0.6624
  Cu  Cu122  1  0.323830  0.122860  0.823830  1.0  0.6626
  Cu  Cu123  1  0.323830  0.622860  0.323830  1.0  0.6626
  Cu  Cu124  1  0.676170  0.122860  0.176170  1.0  0.6643
  Cu  Cu125  1  0.676170  0.622860  0.676170  1.0  0.6643
  Cu  Cu126  1  0.176170  0.622860  0.176170  1.0  0.6643
  Cu  Cu127  1  0.323830  0.176170  0.122860  1.0  0.6606
  Cu  Cu128  1  0.323830  0.676170  0.622860  1.0  0.6606
  Cu  Cu129  1  0.676170  0.823830  0.122860  1.0  0.6618
  Cu  Cu130  1  0.676170  0.323830  0.622860  1.0  0.6618
  Cu  Cu131  1  0.176170  0.323830  0.122860  1.0  0.6618
  Cu  Cu132  1  0.323830  0.823830  0.877140  1.0  0.6607
  Cu  Cu133  1  0.323830  0.323830  0.377140  1.0  0.6607
  Cu  Cu134  1  0.676170  0.176170  0.877140  1.0  0.6625
  Cu  Cu135  1  0.676170  0.676170  0.377140  1.0  0.6625
  Cu  Cu136  1  0.176170  0.176170  0.377140  1.0  0.6625
  Cu  Cu137  1  0.176170  0.877140  0.676170  1.0  0.6624
  Cu  Cu138  1  0.176170  0.377140  0.176170  1.0  0.6624
  Cu  Cu139  1  0.823830  0.877140  0.323830  1.0  0.6614
  Cu  Cu140  1  0.823830  0.377140  0.823830  1.0  0.6614
  Cu  Cu141  1  0.323830  0.377140  0.323830  1.0  0.6614
  Cu  Cu142  1  0.823830  0.122860  0.676170  1.0  0.6629
  Cu  Cu143  1  0.823830  0.622860  0.176170  1.0  0.6629
  Cu  Cu144  1  0.323830  0.122860  0.176170  1.0  0.6629
  Cu  Cu145  1  0.176170  0.122860  0.323830  1.0  0.664
  Cu  Cu146  1  0.176170  0.622860  0.823830  1.0  0.664
  Cu  Cu147  1  0.877140  0.323830  0.823830  1.0  0.6646
  Cu  Cu148  1  0.377140  0.323830  0.323830  1.0  0.6646
  Cu  Cu149  1  0.877140  0.676170  0.176170  1.0  0.6649
  Cu  Cu150  1  0.377140  0.676170  0.676170  1.0  0.6649
  Cu  Cu151  1  0.377140  0.176170  0.176170  1.0  0.6649
  Cu  Cu152  1  0.122860  0.323830  0.176170  1.0  0.6611
  Cu  Cu153  1  0.622860  0.323830  0.676170  1.0  0.6611
  Cu  Cu154  1  0.122860  0.676170  0.823830  1.0  0.6609
  Cu  Cu155  1  0.122860  0.176170  0.323830  1.0  0.6609
  Cu  Cu156  1  0.622860  0.676170  0.323830  1.0  0.6609
  Cu  Cu157  1  0.823830  0.676170  0.122860  1.0  0.6606
  Cu  Cu158  1  0.823830  0.176170  0.622860  1.0  0.6606
  Cu  Cu159  1  0.176170  0.823830  0.622860  1.0  0.6618
  Cu  Cu160  1  0.176170  0.676170  0.877140  1.0  0.6625
  Cu  Cu161  1  0.823830  0.323830  0.877140  1.0  0.6607
  Cu  Cu162  1  0.823830  0.823830  0.377140  1.0  0.6607
  Cu  Cu163  1  0.122860  0.823830  0.676170  1.0  0.6611
  Cu  Cu164  1  0.622860  0.823830  0.176170  1.0  0.6611
  Cu  Cu165  1  0.622860  0.176170  0.823830  1.0  0.6609
  Cu  Cu166  1  0.877140  0.176170  0.676170  1.0  0.6649
  Cu  Cu167  1  0.877140  0.823830  0.323830  1.0  0.6646
  Cu  Cu168  1  0.377140  0.823830  0.823830  1.0  0.6646
  Cu  Cu169  1  0.676170  0.122860  0.823830  1.0  0.664
  Cu  Cu170  1  0.676170  0.622860  0.323830  1.0  0.664
  Cu  Cu171  1  0.323830  0.622860  0.676170  1.0  0.6629
  Cu  Cu172  1  0.676170  0.877140  0.176170  1.0  0.6624
  Cu  Cu173  1  0.676170  0.377140  0.676170  1.0  0.6624
  Cu  Cu174  1  0.323830  0.877140  0.823830  1.0  0.6614
  Cu  Cu175  1  0.676170  0.823830  0.877140  1.0  0.6628
  Cu  Cu176  1  0.676170  0.323830  0.377140  1.0  0.6628
  Cu  Cu177  1  0.323830  0.676170  0.377140  1.0  0.6603
  Cu  Cu178  1  0.676170  0.176170  0.122860  1.0  0.6615
  Cu  Cu179  1  0.676170  0.676170  0.622860  1.0  0.6615
  Cu  Cu180  1  0.323830  0.823830  0.122860  1.0  0.6608
  Cu  Cu181  1  0.823830  0.122860  0.323830  1.0  0.6626
  Cu  Cu182  1  0.823830  0.622860  0.823830  1.0  0.6626
  Cu  Cu183  1  0.176170  0.122860  0.676170  1.0  0.6643
  Cu  Cu184  1  0.176170  0.377140  0.823830  1.0  0.6624
  Cu  Cu185  1  0.823830  0.877140  0.676170  1.0  0.6612
  Cu  Cu186  1  0.823830  0.377140  0.176170  1.0  0.6612
  Cu  Cu187  1  0.122860  0.676170  0.176170  1.0  0.661
  Cu  Cu188  1  0.622860  0.676170  0.676170  1.0  0.661
  Cu  Cu189  1  0.122860  0.323830  0.823830  1.0  0.661
  Cu  Cu190  1  0.877140  0.676170  0.823830  1.0  0.6647
  Cu  Cu191  1  0.377140  0.676170  0.323830  1.0  0.6647
  Cu  Cu192  1  0.377140  0.323830  0.676170  1.0  0.6649
  H  H193  1  0.132600  0.225400  0.930600  1.0  0.1188
  H  H194  1  0.132600  0.725400  0.430600  1.0  0.1188
  H  H195  1  0.632600  0.225400  0.430600  1.0  0.1188
  H  H196  1  0.632600  0.725400  0.930600  1.0  0.1188
  H  H197  1  0.867400  0.774600  0.930600  1.0  0.119
  H  H198  1  0.867400  0.274600  0.430600  1.0  0.119
  H  H199  1  0.367400  0.774600  0.430600  1.0  0.119
  H  H200  1  0.367400  0.274600  0.930600  1.0  0.119
  H  H201  1  0.867400  0.225400  0.069400  1.0  0.1187
  H  H202  1  0.867400  0.725400  0.569400  1.0  0.1187
  H  H203  1  0.367400  0.225400  0.569400  1.0  0.1187
  H  H204  1  0.367400  0.725400  0.069400  1.0  0.1187
  H  H205  1  0.132600  0.774600  0.069400  1.0  0.1184
  H  H206  1  0.132600  0.274600  0.569400  1.0  0.1184
  H  H207  1  0.632600  0.774600  0.569400  1.0  0.1184
  H  H208  1  0.632600  0.274600  0.069400  1.0  0.1184
  H  H209  1  0.930600  0.132600  0.225400  1.0  0.1183
  H  H210  1  0.930600  0.632600  0.725400  1.0  0.1183
  H  H211  1  0.430600  0.132600  0.725400  1.0  0.1183
  H  H212  1  0.430600  0.632600  0.225400  1.0  0.1183
  H  H213  1  0.930600  0.867400  0.774600  1.0  0.1182
  H  H214  1  0.930600  0.367400  0.274600  1.0  0.1182
  H  H215  1  0.430600  0.867400  0.274600  1.0  0.1182
  H  H216  1  0.430600  0.367400  0.774600  1.0  0.1182
  H  H217  1  0.069400  0.867400  0.225400  1.0  0.1185
  H  H218  1  0.069400  0.367400  0.725400  1.0  0.1185
  H  H219  1  0.569400  0.867400  0.725400  1.0  0.1185
  H  H220  1  0.569400  0.367400  0.225400  1.0  0.1185
  H  H221  1  0.069400  0.132600  0.774600  1.0  0.1188
  H  H222  1  0.069400  0.632600  0.274600  1.0  0.1188
  H  H223  1  0.569400  0.132600  0.274600  1.0  0.1188
  H  H224  1  0.569400  0.632600  0.774600  1.0  0.1188
  H  H225  1  0.225400  0.930600  0.132600  1.0  0.1186
  H  H226  1  0.225400  0.430600  0.632600  1.0  0.1186
  H  H227  1  0.725400  0.930600  0.632600  1.0  0.1186
  H  H228  1  0.725400  0.430600  0.132600  1.0  0.1186
  H  H229  1  0.774600  0.930600  0.867400  1.0  0.1189
  H  H230  1  0.774600  0.430600  0.367400  1.0  0.1189
  H  H231  1  0.274600  0.930600  0.367400  1.0  0.1189
  H  H232  1  0.274600  0.430600  0.867400  1.0  0.1189
  H  H233  1  0.225400  0.069400  0.867400  1.0  0.1188
  H  H234  1  0.225400  0.569400  0.367400  1.0  0.1188
  H  H235  1  0.725400  0.069400  0.367400  1.0  0.1188
  H  H236  1  0.725400  0.569400  0.867400  1.0  0.1188
  H  H237  1  0.774600  0.069400  0.132600  1.0  0.1193
  H  H238  1  0.774600  0.569400  0.632600  1.0  0.1193
  H  H239  1  0.274600  0.069400  0.632600  1.0  0.1193
  H  H240  1  0.274600  0.569400  0.132600  1.0  0.1193
  H  H241  1  0.225400  0.132600  0.069400  1.0  0.1181
  H  H242  1  0.225400  0.632600  0.569400  1.0  0.1181
  H  H243  1  0.725400  0.132600  0.569400  1.0  0.1181
  H  H244  1  0.725400  0.632600  0.069400  1.0  0.1181
  H  H245  1  0.774600  0.867400  0.069400  1.0  0.1182
  H  H246  1  0.774600  0.367400  0.569400  1.0  0.1182
  H  H247  1  0.274600  0.867400  0.569400  1.0  0.1182
  H  H248  1  0.274600  0.367400  0.069400  1.0  0.1182
  H  H249  1  0.225400  0.867400  0.930600  1.0  0.1179
  H  H250  1  0.225400  0.367400  0.430600  1.0  0.1179
  H  H251  1  0.725400  0.867400  0.430600  1.0  0.1179
  H  H252  1  0.725400  0.367400  0.930600  1.0  0.1179
  H  H253  1  0.774600  0.132600  0.930600  1.0  0.1188
  H  H254  1  0.774600  0.632600  0.430600  1.0  0.1188
  H  H255  1  0.274600  0.132600  0.430600  1.0  0.1188
  H  H256  1  0.274600  0.632600  0.930600  1.0  0.1188
  H  H257  1  0.132600  0.930600  0.774600  1.0  0.1186
  H  H258  1  0.132600  0.430600  0.274600  1.0  0.1186
  H  H259  1  0.632600  0.930600  0.274600  1.0  0.1186
  H  H260  1  0.632600  0.430600  0.774600  1.0  0.1186
  H  H261  1  0.867400  0.930600  0.225400  1.0  0.1186
  H  H262  1  0.867400  0.430600  0.725400  1.0  0.1186
  H  H263  1  0.367400  0.930600  0.725400  1.0  0.1186
  H  H264  1  0.367400  0.430600  0.225400  1.0  0.1186
  H  H265  1  0.867400  0.069400  0.774600  1.0  0.1186
  H  H266  1  0.867400  0.569400  0.274600  1.0  0.1186
  H  H267  1  0.367400  0.069400  0.274600  1.0  0.1186
  H  H268  1  0.367400  0.569400  0.774600  1.0  0.1186
  H  H269  1  0.132600  0.069400  0.225400  1.0  0.1185
  H  H270  1  0.132600  0.569400  0.725400  1.0  0.1185
  H  H271  1  0.632600  0.069400  0.725400  1.0  0.1185
  H  H272  1  0.632600  0.569400  0.225400  1.0  0.1185
  H  H273  1  0.930600  0.225400  0.867400  1.0  0.119
  H  H274  1  0.930600  0.725400  0.367400  1.0  0.119
  H  H275  1  0.430600  0.225400  0.367400  1.0  0.119
  H  H276  1  0.430600  0.725400  0.867400  1.0  0.119
  H  H277  1  0.930600  0.774600  0.132600  1.0  0.1189
  H  H278  1  0.930600  0.274600  0.632600  1.0  0.1189
  H  H279  1  0.430600  0.774600  0.632600  1.0  0.1189
  H  H280  1  0.430600  0.274600  0.132600  1.0  0.1189
  H  H281  1  0.069400  0.225400  0.132600  1.0  0.1194
  H  H282  1  0.069400  0.725400  0.632600  1.0  0.1194
  H  H283  1  0.569400  0.225400  0.632600  1.0  0.1194
  H  H284  1  0.569400  0.725400  0.132600  1.0  0.1194
  H  H285  1  0.069400  0.774600  0.867400  1.0  0.1193
  H  H286  1  0.069400  0.274600  0.367400  1.0  0.1193
  H  H287  1  0.569400  0.774600  0.367400  1.0  0.1193
  H  H288  1  0.569400  0.274600  0.867400  1.0  0.1193
  H  H289  1  0.867400  0.774600  0.069400  1.0  0.1187
  H  H290  1  0.867400  0.274600  0.569400  1.0  0.1187
  H  H291  1  0.367400  0.774600  0.569400  1.0  0.1187
  H  H292  1  0.367400  0.274600  0.069400  1.0  0.1187
  H  H293  1  0.132600  0.225400  0.069400  1.0  0.1187
  H  H294  1  0.132600  0.725400  0.569400  1.0  0.1187
  H  H295  1  0.632600  0.225400  0.569400  1.0  0.1187
  H  H296  1  0.632600  0.725400  0.069400  1.0  0.1187
  H  H297  1  0.132600  0.774600  0.930600  1.0  0.1187
  H  H298  1  0.132600  0.274600  0.430600  1.0  0.1187
  H  H299  1  0.632600  0.774600  0.430600  1.0  0.1187
  H  H300  1  0.632600  0.274600  0.930600  1.0  0.1187
  H  H301  1  0.867400  0.225400  0.930600  1.0  0.1188
  H  H302  1  0.867400  0.725400  0.430600  1.0  0.1188
  H  H303  1  0.367400  0.225400  0.430600  1.0  0.1188
  H  H304  1  0.367400  0.725400  0.930600  1.0  0.1188
  H  H305  1  0.069400  0.867400  0.774600  1.0  0.1184
  H  H306  1  0.069400  0.367400  0.274600  1.0  0.1184
  H  H307  1  0.569400  0.867400  0.274600  1.0  0.1184
  H  H308  1  0.569400  0.367400  0.774600  1.0  0.1184
  H  H309  1  0.069400  0.132600  0.225400  1.0  0.1189
  H  H310  1  0.069400  0.632600  0.725400  1.0  0.1189
  H  H311  1  0.569400  0.132600  0.725400  1.0  0.1189
  H  H312  1  0.569400  0.632600  0.225400  1.0  0.1189
  H  H313  1  0.930600  0.132600  0.774600  1.0  0.1183
  H  H314  1  0.930600  0.632600  0.274600  1.0  0.1183
  H  H315  1  0.430600  0.132600  0.274600  1.0  0.1183
  H  H316  1  0.430600  0.632600  0.774600  1.0  0.1183
  H  H317  1  0.930600  0.867400  0.225400  1.0  0.1183
  H  H318  1  0.930600  0.367400  0.725400  1.0  0.1183
  H  H319  1  0.430600  0.867400  0.725400  1.0  0.1183
  H  H320  1  0.430600  0.367400  0.225400  1.0  0.1183
  H  H321  1  0.774600  0.069400  0.867400  1.0  0.119
  H  H322  1  0.774600  0.569400  0.367400  1.0  0.119
  H  H323  1  0.274600  0.069400  0.367400  1.0  0.119
  H  H324  1  0.274600  0.569400  0.867400  1.0  0.119
  H  H325  1  0.225400  0.069400  0.132600  1.0  0.1184
  H  H326  1  0.225400  0.569400  0.632600  1.0  0.1184
  H  H327  1  0.725400  0.069400  0.632600  1.0  0.1184
  H  H328  1  0.725400  0.569400  0.132600  1.0  0.1184
  H  H329  1  0.774600  0.930600  0.132600  1.0  0.1193
  H  H330  1  0.774600  0.430600  0.632600  1.0  0.1193
  H  H331  1  0.274600  0.930600  0.632600  1.0  0.1193
  H  H332  1  0.274600  0.430600  0.132600  1.0  0.1193
  H  H333  1  0.225400  0.930600  0.867400  1.0  0.1187
  H  H334  1  0.225400  0.430600  0.367400  1.0  0.1187
  H  H335  1  0.725400  0.930600  0.367400  1.0  0.1187
  H  H336  1  0.725400  0.430600  0.867400  1.0  0.1187
  H  H337  1  0.774600  0.867400  0.930600  1.0  0.1185
  H  H338  1  0.774600  0.367400  0.430600  1.0  0.1185
  H  H339  1  0.274600  0.867400  0.430600  1.0  0.1185
  H  H340  1  0.274600  0.367400  0.930600  1.0  0.1185
  H  H341  1  0.225400  0.132600  0.930600  1.0  0.1181
  H  H342  1  0.225400  0.632600  0.430600  1.0  0.1181
  H  H343  1  0.725400  0.132600  0.430600  1.0  0.1181
  H  H344  1  0.725400  0.632600  0.930600  1.0  0.1181
  H  H345  1  0.774600  0.132600  0.069400  1.0  0.1187
  H  H346  1  0.774600  0.632600  0.569400  1.0  0.1187
  H  H347  1  0.274600  0.132600  0.569400  1.0  0.1187
  H  H348  1  0.274600  0.632600  0.069400  1.0  0.1187
  H  H349  1  0.225400  0.867400  0.069400  1.0  0.1178
  H  H350  1  0.225400  0.367400  0.569400  1.0  0.1178
  H  H351  1  0.725400  0.867400  0.569400  1.0  0.1178
  H  H352  1  0.725400  0.367400  0.069400  1.0  0.1178
  H  H353  1  0.867400  0.069400  0.225400  1.0  0.1187
  H  H354  1  0.867400  0.569400  0.725400  1.0  0.1187
  H  H355  1  0.367400  0.069400  0.725400  1.0  0.1187
  H  H356  1  0.367400  0.569400  0.225400  1.0  0.1187
  H  H357  1  0.132600  0.069400  0.774600  1.0  0.1184
  H  H358  1  0.132600  0.569400  0.274600  1.0  0.1184
  H  H359  1  0.632600  0.069400  0.274600  1.0  0.1184
  H  H360  1  0.632600  0.569400  0.774600  1.0  0.1184
  H  H361  1  0.132600  0.930600  0.225400  1.0  0.1185
  H  H362  1  0.132600  0.430600  0.725400  1.0  0.1185
  H  H363  1  0.632600  0.930600  0.725400  1.0  0.1185
  H  H364  1  0.632600  0.430600  0.225400  1.0  0.1185
  H  H365  1  0.867400  0.930600  0.774600  1.0  0.1185
  H  H366  1  0.867400  0.430600  0.274600  1.0  0.1185
  H  H367  1  0.367400  0.930600  0.274600  1.0  0.1185
  H  H368  1  0.367400  0.430600  0.774600  1.0  0.1185
  H  H369  1  0.069400  0.774600  0.132600  1.0  0.1195
  H  H370  1  0.069400  0.274600  0.632600  1.0  0.1195
  H  H371  1  0.569400  0.774600  0.632600  1.0  0.1195
  H  H372  1  0.569400  0.274600  0.132600  1.0  0.1195
  H  H373  1  0.069400  0.225400  0.867400  1.0  0.1192
  H  H374  1  0.069400  0.725400  0.367400  1.0  0.1192
  H  H375  1  0.569400  0.225400  0.367400  1.0  0.1192
  H  H376  1  0.569400  0.725400  0.867400  1.0  0.1192
  H  H377  1  0.930600  0.774600  0.867400  1.0  0.119
  H  H378  1  0.930600  0.274600  0.367400  1.0  0.119
  H  H379  1  0.430600  0.774600  0.367400  1.0  0.119
  H  H380  1  0.430600  0.274600  0.867400  1.0  0.119
  H  H381  1  0.930600  0.225400  0.132600  1.0  0.119
  H  H382  1  0.930600  0.725400  0.632600  1.0  0.119
  H  H383  1  0.430600  0.225400  0.632600  1.0  0.119
  H  H384  1  0.430600  0.725400  0.132600  1.0  0.119
  H  H385  1  0.072000  0.159500  0.928000  1.0  0.1154
  H  H386  1  0.072000  0.659500  0.428000  1.0  0.1154
  H  H387  1  0.572000  0.159500  0.428000  1.0  0.1154
  H  H388  1  0.572000  0.659500  0.928000  1.0  0.1154
  H  H389  1  0.928000  0.840500  0.928000  1.0  0.1155
  H  H390  1  0.928000  0.340500  0.428000  1.0  0.1155
  H  H391  1  0.428000  0.840500  0.428000  1.0  0.1155
  H  H392  1  0.428000  0.340500  0.928000  1.0  0.1155
  H  H393  1  0.928000  0.159500  0.072000  1.0  0.1155
  H  H394  1  0.928000  0.659500  0.572000  1.0  0.1155
  H  H395  1  0.428000  0.159500  0.572000  1.0  0.1155
  H  H396  1  0.428000  0.659500  0.072000  1.0  0.1155
  H  H397  1  0.072000  0.840500  0.072000  1.0  0.1152
  H  H398  1  0.072000  0.340500  0.572000  1.0  0.1152
  H  H399  1  0.572000  0.840500  0.572000  1.0  0.1152
  H  H400  1  0.572000  0.340500  0.072000  1.0  0.1152
  H  H401  1  0.928000  0.072000  0.159500  1.0  0.1158
  H  H402  1  0.928000  0.572000  0.659500  1.0  0.1158
  H  H403  1  0.428000  0.072000  0.659500  1.0  0.1158
  H  H404  1  0.428000  0.572000  0.159500  1.0  0.1158
  H  H405  1  0.928000  0.928000  0.840500  1.0  0.116
  H  H406  1  0.928000  0.428000  0.340500  1.0  0.116
  H  H407  1  0.428000  0.928000  0.340500  1.0  0.116
  H  H408  1  0.428000  0.428000  0.840500  1.0  0.116
  H  H409  1  0.072000  0.928000  0.159500  1.0  0.1156
  H  H410  1  0.072000  0.428000  0.659500  1.0  0.1156
  H  H411  1  0.572000  0.928000  0.659500  1.0  0.1156
  H  H412  1  0.572000  0.428000  0.159500  1.0  0.1156
  H  H413  1  0.072000  0.072000  0.840500  1.0  0.1156
  H  H414  1  0.072000  0.572000  0.340500  1.0  0.1156
  H  H415  1  0.572000  0.072000  0.340500  1.0  0.1156
  H  H416  1  0.572000  0.572000  0.840500  1.0  0.1156
  H  H417  1  0.159500  0.928000  0.072000  1.0  0.1149
  H  H418  1  0.159500  0.428000  0.572000  1.0  0.1149
  H  H419  1  0.659500  0.928000  0.572000  1.0  0.1149
  H  H420  1  0.659500  0.428000  0.072000  1.0  0.1149
  H  H421  1  0.840500  0.928000  0.928000  1.0  0.1153
  H  H422  1  0.840500  0.428000  0.428000  1.0  0.1153
  H  H423  1  0.340500  0.928000  0.428000  1.0  0.1153
  H  H424  1  0.340500  0.428000  0.928000  1.0  0.1153
  H  H425  1  0.159500  0.072000  0.928000  1.0  0.1149
  H  H426  1  0.159500  0.572000  0.428000  1.0  0.1149
  H  H427  1  0.659500  0.072000  0.428000  1.0  0.1149
  H  H428  1  0.659500  0.572000  0.928000  1.0  0.1149
  H  H429  1  0.840500  0.072000  0.072000  1.0  0.1149
  H  H430  1  0.840500  0.572000  0.572000  1.0  0.1149
  H  H431  1  0.340500  0.072000  0.572000  1.0  0.1149
  H  H432  1  0.340500  0.572000  0.072000  1.0  0.1149
  H  H433  1  0.159500  0.072000  0.072000  1.0  0.1149
  H  H434  1  0.159500  0.572000  0.572000  1.0  0.1149
  H  H435  1  0.659500  0.072000  0.572000  1.0  0.1149
  H  H436  1  0.659500  0.572000  0.072000  1.0  0.1149
  H  H437  1  0.840500  0.928000  0.072000  1.0  0.1152
  H  H438  1  0.840500  0.428000  0.572000  1.0  0.1152
  H  H439  1  0.340500  0.928000  0.572000  1.0  0.1152
  H  H440  1  0.340500  0.428000  0.072000  1.0  0.1152
  H  H441  1  0.159500  0.928000  0.928000  1.0  0.1149
  H  H442  1  0.159500  0.428000  0.428000  1.0  0.1149
  H  H443  1  0.659500  0.928000  0.428000  1.0  0.1149
  H  H444  1  0.659500  0.428000  0.928000  1.0  0.1149
  H  H445  1  0.840500  0.072000  0.928000  1.0  0.115
  H  H446  1  0.840500  0.572000  0.428000  1.0  0.115
  H  H447  1  0.340500  0.072000  0.428000  1.0  0.115
  H  H448  1  0.340500  0.572000  0.928000  1.0  0.115
  H  H449  1  0.072000  0.928000  0.840500  1.0  0.1158
  H  H450  1  0.072000  0.428000  0.340500  1.0  0.1158
  H  H451  1  0.572000  0.928000  0.340500  1.0  0.1158
  H  H452  1  0.572000  0.428000  0.840500  1.0  0.1158
  H  H453  1  0.928000  0.928000  0.159500  1.0  0.116
  H  H454  1  0.928000  0.428000  0.659500  1.0  0.116
  H  H455  1  0.428000  0.928000  0.659500  1.0  0.116
  H  H456  1  0.428000  0.428000  0.159500  1.0  0.116
  H  H457  1  0.928000  0.072000  0.840500  1.0  0.1156
  H  H458  1  0.928000  0.572000  0.340500  1.0  0.1156
  H  H459  1  0.428000  0.072000  0.340500  1.0  0.1156
  H  H460  1  0.428000  0.572000  0.840500  1.0  0.1156
  H  H461  1  0.072000  0.072000  0.159500  1.0  0.1156
  H  H462  1  0.072000  0.572000  0.659500  1.0  0.1156
  H  H463  1  0.572000  0.072000  0.659500  1.0  0.1156
  H  H464  1  0.572000  0.572000  0.159500  1.0  0.1156
  H  H465  1  0.928000  0.159500  0.928000  1.0  0.1154
  H  H466  1  0.928000  0.659500  0.428000  1.0  0.1154
  H  H467  1  0.428000  0.159500  0.428000  1.0  0.1154
  H  H468  1  0.428000  0.659500  0.928000  1.0  0.1154
  H  H469  1  0.928000  0.840500  0.072000  1.0  0.1153
  H  H470  1  0.928000  0.340500  0.572000  1.0  0.1153
  H  H471  1  0.428000  0.840500  0.572000  1.0  0.1153
  H  H472  1  0.428000  0.340500  0.072000  1.0  0.1153
  H  H473  1  0.072000  0.159500  0.072000  1.0  0.1155
  H  H474  1  0.072000  0.659500  0.572000  1.0  0.1155
  H  H475  1  0.572000  0.159500  0.572000  1.0  0.1155
  H  H476  1  0.572000  0.659500  0.072000  1.0  0.1155
  H  H477  1  0.072000  0.840500  0.928000  1.0  0.1154
  H  H478  1  0.072000  0.340500  0.428000  1.0  0.1154
  H  H479  1  0.572000  0.840500  0.428000  1.0  0.1154
  H  H480  1  0.572000  0.340500  0.928000  1.0  0.1154
  C  C481  1  0.119950  0.174850  0.959130  1.0  0.694
  C  C482  1  0.104980  0.189760  0.933170  1.0  -0.1582
  C  C483  1  0.116380  0.216070  0.921330  1.0  0.0168
  C  C484  1  0.119950  0.674850  0.459130  1.0  0.694
  C  C485  1  0.104980  0.689760  0.433170  1.0  -0.1582
  C  C486  1  0.116380  0.716070  0.421330  1.0  0.0168
  C  C487  1  0.619950  0.174850  0.459130  1.0  0.694
  C  C488  1  0.604980  0.189760  0.433170  1.0  -0.1582
  C  C489  1  0.616380  0.216070  0.421330  1.0  0.0168
  C  C490  1  0.619950  0.674850  0.959130  1.0  0.694
  C  C491  1  0.604980  0.689760  0.933170  1.0  -0.1582
  C  C492  1  0.616380  0.716070  0.921330  1.0  0.0168
  C  C493  1  0.880050  0.825150  0.959130  1.0  0.6943
  C  C494  1  0.895020  0.810240  0.933170  1.0  -0.1576
  C  C495  1  0.883620  0.783930  0.921330  1.0  0.0175
  C  C496  1  0.880050  0.325150  0.459130  1.0  0.6943
  C  C497  1  0.895020  0.310240  0.433170  1.0  -0.1576
  C  C498  1  0.883620  0.283930  0.421330  1.0  0.0175
  C  C499  1  0.380050  0.825150  0.459130  1.0  0.6943
  C  C500  1  0.395020  0.810240  0.433170  1.0  -0.1576
  C  C501  1  0.383620  0.783930  0.421330  1.0  0.0175
  C  C502  1  0.380050  0.325150  0.959130  1.0  0.6943
  C  C503  1  0.395020  0.310240  0.933170  1.0  -0.1576
  C  C504  1  0.383620  0.283930  0.921330  1.0  0.0175
  C  C505  1  0.880050  0.174850  0.040870  1.0  0.6937
  C  C506  1  0.895020  0.189760  0.066830  1.0  -0.1579
  C  C507  1  0.883620  0.216070  0.078670  1.0  0.0171
  C  C508  1  0.880050  0.674850  0.540870  1.0  0.6937
  C  C509  1  0.895020  0.689760  0.566830  1.0  -0.1579
  C  C510  1  0.883620  0.716070  0.578670  1.0  0.0171
  C  C511  1  0.380050  0.174850  0.540870  1.0  0.6937
  C  C512  1  0.395020  0.189760  0.566830  1.0  -0.1579
  C  C513  1  0.383620  0.216070  0.578670  1.0  0.0171
  C  C514  1  0.380050  0.674850  0.040870  1.0  0.6937
  C  C515  1  0.395020  0.689760  0.066830  1.0  -0.1579
  C  C516  1  0.383620  0.716070  0.078670  1.0  0.0171
  C  C517  1  0.119950  0.825150  0.040870  1.0  0.694
  C  C518  1  0.104980  0.810240  0.066830  1.0  -0.1575
  C  C519  1  0.116380  0.783930  0.078670  1.0  0.0166
  C  C520  1  0.119950  0.325150  0.540870  1.0  0.694
  C  C521  1  0.104980  0.310240  0.566830  1.0  -0.1575
  C  C522  1  0.116380  0.283930  0.578670  1.0  0.0166
  C  C523  1  0.619950  0.825150  0.540870  1.0  0.694
  C  C524  1  0.604980  0.810240  0.566830  1.0  -0.1575
  C  C525  1  0.616380  0.783930  0.578670  1.0  0.0166
  C  C526  1  0.619950  0.325150  0.040870  1.0  0.694
  C  C527  1  0.604980  0.310240  0.066830  1.0  -0.1575
  C  C528  1  0.616380  0.283930  0.078670  1.0  0.0166
  C  C529  1  0.959130  0.119950  0.174850  1.0  0.6932
  C  C530  1  0.933170  0.104980  0.189760  1.0  -0.1573
  C  C531  1  0.921330  0.116380  0.216070  1.0  0.0165
  C  C532  1  0.959130  0.619950  0.674850  1.0  0.6932
  C  C533  1  0.933170  0.604980  0.689760  1.0  -0.1573
  C  C534  1  0.921330  0.616380  0.716070  1.0  0.0165
  C  C535  1  0.459130  0.119950  0.674850  1.0  0.6932
  C  C536  1  0.433170  0.104980  0.689760  1.0  -0.1573
  C  C537  1  0.421330  0.116380  0.716070  1.0  0.0165
  C  C538  1  0.459130  0.619950  0.174850  1.0  0.6932
  C  C539  1  0.433170  0.604980  0.189760  1.0  -0.1573
  C  C540  1  0.421330  0.616380  0.216070  1.0  0.0165
  C  C541  1  0.959130  0.880050  0.825150  1.0  0.6929
  C  C542  1  0.933170  0.895020  0.810240  1.0  -0.1572
  C  C543  1  0.921330  0.883620  0.783930  1.0  0.0173
  C  C544  1  0.959130  0.380050  0.325150  1.0  0.6929
  C  C545  1  0.933170  0.395020  0.310240  1.0  -0.1572
  C  C546  1  0.921330  0.383620  0.283930  1.0  0.0173
  C  C547  1  0.459130  0.880050  0.325150  1.0  0.6929
  C  C548  1  0.433170  0.895020  0.310240  1.0  -0.1572
  C  C549  1  0.421330  0.883620  0.283930  1.0  0.0173
  C  C550  1  0.459130  0.380050  0.825150  1.0  0.6929
  C  C551  1  0.433170  0.395020  0.810240  1.0  -0.1572
  C  C552  1  0.421330  0.383620  0.783930  1.0  0.0173
  C  C553  1  0.040870  0.880050  0.174850  1.0  0.6928
  C  C554  1  0.066830  0.895020  0.189760  1.0  -0.1575
  C  C555  1  0.078670  0.883620  0.216070  1.0  0.0176
  C  C556  1  0.040870  0.380050  0.674850  1.0  0.6928
  C  C557  1  0.066830  0.395020  0.689760  1.0  -0.1575
  C  C558  1  0.078670  0.383620  0.716070  1.0  0.0176
  C  C559  1  0.540870  0.880050  0.674850  1.0  0.6928
  C  C560  1  0.566830  0.895020  0.689760  1.0  -0.1575
  C  C561  1  0.578670  0.883620  0.716070  1.0  0.0176
  C  C562  1  0.540870  0.380050  0.174850  1.0  0.6928
  C  C563  1  0.566830  0.395020  0.189760  1.0  -0.1575
  C  C564  1  0.578670  0.383620  0.216070  1.0  0.0176
  C  C565  1  0.040870  0.119950  0.825150  1.0  0.6929
  C  C566  1  0.066830  0.104980  0.810240  1.0  -0.1572
  C  C567  1  0.078670  0.116380  0.783930  1.0  0.0165
  C  C568  1  0.040870  0.619950  0.325150  1.0  0.6929
  C  C569  1  0.066830  0.604980  0.310240  1.0  -0.1572
  C  C570  1  0.078670  0.616380  0.283930  1.0  0.0165
  C  C571  1  0.540870  0.119950  0.325150  1.0  0.6929
  C  C572  1  0.566830  0.104980  0.310240  1.0  -0.1572
  C  C573  1  0.578670  0.116380  0.283930  1.0  0.0165
  C  C574  1  0.540870  0.619950  0.825150  1.0  0.6929
  C  C575  1  0.566830  0.604980  0.810240  1.0  -0.1572
  C  C576  1  0.578670  0.616380  0.783930  1.0  0.0165
  C  C577  1  0.174850  0.959130  0.119950  1.0  0.6928
  C  C578  1  0.189760  0.933170  0.104980  1.0  -0.1577
  C  C579  1  0.216070  0.921330  0.116380  1.0  0.0167
  C  C580  1  0.174850  0.459130  0.619950  1.0  0.6928
  C  C581  1  0.189760  0.433170  0.604980  1.0  -0.1577
  C  C582  1  0.216070  0.421330  0.616380  1.0  0.0167
  C  C583  1  0.674850  0.959130  0.619950  1.0  0.6928
  C  C584  1  0.689760  0.933170  0.604980  1.0  -0.1577
  C  C585  1  0.716070  0.921330  0.616380  1.0  0.0167
  C  C586  1  0.674850  0.459130  0.119950  1.0  0.6928
  C  C587  1  0.689760  0.433170  0.104980  1.0  -0.1577
  C  C588  1  0.716070  0.421330  0.116380  1.0  0.0167
  C  C589  1  0.825150  0.959130  0.880050  1.0  0.6933
  C  C590  1  0.810240  0.933170  0.895020  1.0  -0.157
  C  C591  1  0.783930  0.921330  0.883620  1.0  0.0166
  C  C592  1  0.825150  0.459130  0.380050  1.0  0.6933
  C  C593  1  0.810240  0.433170  0.395020  1.0  -0.157
  C  C594  1  0.783930  0.421330  0.383620  1.0  0.0166
  C  C595  1  0.325150  0.959130  0.380050  1.0  0.6933
  C  C596  1  0.310240  0.933170  0.395020  1.0  -0.157
  C  C597  1  0.283930  0.921330  0.383620  1.0  0.0166
  C  C598  1  0.325150  0.459130  0.880050  1.0  0.6933
  C  C599  1  0.310240  0.433170  0.895020  1.0  -0.157
  C  C600  1  0.283930  0.421330  0.883620  1.0  0.0166
  C  C601  1  0.174850  0.040870  0.880050  1.0  0.6928
  C  C602  1  0.189760  0.066830  0.895020  1.0  -0.1578
  C  C603  1  0.216070  0.078670  0.883620  1.0  0.0163
  C  C604  1  0.174850  0.540870  0.380050  1.0  0.6928
  C  C605  1  0.189760  0.566830  0.395020  1.0  -0.1578
  C  C606  1  0.216070  0.578670  0.383620  1.0  0.0163
  C  C607  1  0.674850  0.040870  0.380050  1.0  0.6928
  C  C608  1  0.689760  0.066830  0.395020  1.0  -0.1578
  C  C609  1  0.716070  0.078670  0.383620  1.0  0.0163
  C  C610  1  0.674850  0.540870  0.880050  1.0  0.6928
  C  C611  1  0.689760  0.566830  0.895020  1.0  -0.1578
  C  C612  1  0.716070  0.578670  0.883620  1.0  0.0163
  C  C613  1  0.825150  0.040870  0.119950  1.0  0.6929
  C  C614  1  0.810240  0.066830  0.104980  1.0  -0.1568
  C  C615  1  0.783930  0.078670  0.116380  1.0  0.0158
  C  C616  1  0.825150  0.540870  0.619950  1.0  0.6929
  C  C617  1  0.810240  0.566830  0.604980  1.0  -0.1568
  C  C618  1  0.783930  0.578670  0.616380  1.0  0.0158
  C  C619  1  0.325150  0.040870  0.619950  1.0  0.6929
  C  C620  1  0.310240  0.066830  0.604980  1.0  -0.1568
  C  C621  1  0.283930  0.078670  0.616380  1.0  0.0158
  C  C622  1  0.325150  0.540870  0.119950  1.0  0.6929
  C  C623  1  0.310240  0.566830  0.104980  1.0  -0.1568
  C  C624  1  0.283930  0.578670  0.116380  1.0  0.0158
  C  C625  1  0.174850  0.119950  0.040870  1.0  0.6939
  C  C626  1  0.189760  0.104980  0.066830  1.0  -0.1583
  C  C627  1  0.216070  0.116380  0.078670  1.0  0.0166
  C  C628  1  0.174850  0.619950  0.540870  1.0  0.6939
  C  C629  1  0.189760  0.604980  0.566830  1.0  -0.1583
  C  C630  1  0.216070  0.616380  0.578670  1.0  0.0166
  C  C631  1  0.674850  0.119950  0.540870  1.0  0.6939
  C  C632  1  0.689760  0.104980  0.566830  1.0  -0.1583
  C  C633  1  0.716070  0.116380  0.578670  1.0  0.0166
  C  C634  1  0.674850  0.619950  0.040870  1.0  0.6939
  C  C635  1  0.689760  0.604980  0.066830  1.0  -0.1583
  C  C636  1  0.716070  0.616380  0.078670  1.0  0.0166
  C  C637  1  0.825150  0.880050  0.040870  1.0  0.6939
  C  C638  1  0.810240  0.895020  0.066830  1.0  -0.1578
  C  C639  1  0.783930  0.883620  0.078670  1.0  0.0176
  C  C640  1  0.825150  0.380050  0.540870  1.0  0.6939
  C  C641  1  0.810240  0.395020  0.566830  1.0  -0.1578
  C  C642  1  0.783930  0.383620  0.578670  1.0  0.0176
  C  C643  1  0.325150  0.880050  0.540870  1.0  0.6939
  C  C644  1  0.310240  0.895020  0.566830  1.0  -0.1578
  C  C645  1  0.283930  0.883620  0.578670  1.0  0.0176
  C  C646  1  0.325150  0.380050  0.040870  1.0  0.6939
  C  C647  1  0.310240  0.395020  0.066830  1.0  -0.1578
  C  C648  1  0.283930  0.383620  0.078670  1.0  0.0176
  C  C649  1  0.174850  0.880050  0.959130  1.0  0.6939
  C  C650  1  0.189760  0.895020  0.933170  1.0  -0.1586
  C  C651  1  0.216070  0.883620  0.921330  1.0  0.0179
  C  C652  1  0.174850  0.380050  0.459130  1.0  0.6939
  C  C653  1  0.189760  0.395020  0.433170  1.0  -0.1586
  C  C654  1  0.216070  0.383620  0.421330  1.0  0.0179
  C  C655  1  0.674850  0.880050  0.459130  1.0  0.6939
  C  C656  1  0.689760  0.895020  0.433170  1.0  -0.1586
  C  C657  1  0.716070  0.883620  0.421330  1.0  0.0179
  C  C658  1  0.674850  0.380050  0.959130  1.0  0.6939
  C  C659  1  0.689760  0.395020  0.933170  1.0  -0.1586
  C  C660  1  0.716070  0.383620  0.921330  1.0  0.0179
  C  C661  1  0.825150  0.119950  0.959130  1.0  0.6945
  C  C662  1  0.810240  0.104980  0.933170  1.0  -0.1579
  C  C663  1  0.783930  0.116380  0.921330  1.0  0.0163
  C  C664  1  0.825150  0.619950  0.459130  1.0  0.6945
  C  C665  1  0.810240  0.604980  0.433170  1.0  -0.1579
  C  C666  1  0.783930  0.616380  0.421330  1.0  0.0163
  C  C667  1  0.325150  0.119950  0.459130  1.0  0.6945
  C  C668  1  0.310240  0.104980  0.433170  1.0  -0.1579
  C  C669  1  0.283930  0.116380  0.421330  1.0  0.0163
  C  C670  1  0.325150  0.619950  0.959130  1.0  0.6945
  C  C671  1  0.310240  0.604980  0.933170  1.0  -0.1579
  C  C672  1  0.283930  0.616380  0.921330  1.0  0.0163
  C  C673  1  0.119950  0.959130  0.825150  1.0  0.693
  C  C674  1  0.104980  0.933170  0.810240  1.0  -0.157
  C  C675  1  0.116380  0.921330  0.783930  1.0  0.0166
  C  C676  1  0.119950  0.459130  0.325150  1.0  0.693
  C  C677  1  0.104980  0.433170  0.310240  1.0  -0.157
  C  C678  1  0.116380  0.421330  0.283930  1.0  0.0166
  C  C679  1  0.619950  0.959130  0.325150  1.0  0.693
  C  C680  1  0.604980  0.933170  0.310240  1.0  -0.157
  C  C681  1  0.616380  0.921330  0.283930  1.0  0.0166
  C  C682  1  0.619950  0.459130  0.825150  1.0  0.693
  C  C683  1  0.604980  0.433170  0.810240  1.0  -0.157
  C  C684  1  0.616380  0.421330  0.783930  1.0  0.0166
  C  C685  1  0.880050  0.959130  0.174850  1.0  0.693
  C  C686  1  0.895020  0.933170  0.189760  1.0  -0.157
  C  C687  1  0.883620  0.921330  0.216070  1.0  0.0166
  C  C688  1  0.880050  0.459130  0.674850  1.0  0.693
  C  C689  1  0.895020  0.433170  0.689760  1.0  -0.157
  C  C690  1  0.883620  0.421330  0.716070  1.0  0.0166
  C  C691  1  0.380050  0.959130  0.674850  1.0  0.693
  C  C692  1  0.395020  0.933170  0.689760  1.0  -0.157
  C  C693  1  0.383620  0.921330  0.716070  1.0  0.0166
  C  C694  1  0.380050  0.459130  0.174850  1.0  0.693
  C  C695  1  0.395020  0.433170  0.189760  1.0  -0.157
  C  C696  1  0.383620  0.421330  0.216070  1.0  0.0166
  C  C697  1  0.880050  0.040870  0.825150  1.0  0.6927
  C  C698  1  0.895020  0.066830  0.810240  1.0  -0.1566
  C  C699  1  0.883620  0.078670  0.783930  1.0  0.0165
  C  C700  1  0.880050  0.540870  0.325150  1.0  0.6927
  C  C701  1  0.895020  0.566830  0.310240  1.0  -0.1566
  C  C702  1  0.883620  0.578670  0.283930  1.0  0.0165
  C  C703  1  0.380050  0.040870  0.325150  1.0  0.6927
  C  C704  1  0.395020  0.066830  0.310240  1.0  -0.1566
  C  C705  1  0.383620  0.078670  0.283930  1.0  0.0165
  C  C706  1  0.380050  0.540870  0.825150  1.0  0.6927
  C  C707  1  0.395020  0.566830  0.810240  1.0  -0.1566
  C  C708  1  0.383620  0.578670  0.783930  1.0  0.0165
  C  C709  1  0.119950  0.040870  0.174850  1.0  0.693
  C  C710  1  0.104980  0.066830  0.189760  1.0  -0.1571
  C  C711  1  0.116380  0.078670  0.216070  1.0  0.0165
  C  C712  1  0.119950  0.540870  0.674850  1.0  0.693
  C  C713  1  0.104980  0.566830  0.689760  1.0  -0.1571
  C  C714  1  0.116380  0.578670  0.716070  1.0  0.0165
  C  C715  1  0.619950  0.040870  0.674850  1.0  0.693
  C  C716  1  0.604980  0.066830  0.689760  1.0  -0.1571
  C  C717  1  0.616380  0.078670  0.716070  1.0  0.0165
  C  C718  1  0.619950  0.540870  0.174850  1.0  0.693
  C  C719  1  0.604980  0.566830  0.189760  1.0  -0.1571
  C  C720  1  0.616380  0.578670  0.216070  1.0  0.0165
  C  C721  1  0.959130  0.174850  0.880050  1.0  0.693
  C  C722  1  0.933170  0.189760  0.895020  1.0  -0.1575
  C  C723  1  0.921330  0.216070  0.883620  1.0  0.0167
  C  C724  1  0.959130  0.674850  0.380050  1.0  0.693
  C  C725  1  0.933170  0.689760  0.395020  1.0  -0.1575
  C  C726  1  0.921330  0.716070  0.383620  1.0  0.0167
  C  C727  1  0.459130  0.174850  0.380050  1.0  0.693
  C  C728  1  0.433170  0.189760  0.395020  1.0  -0.1575
  C  C729  1  0.421330  0.216070  0.383620  1.0  0.0167
  C  C730  1  0.459130  0.674850  0.880050  1.0  0.693
  C  C731  1  0.433170  0.689760  0.895020  1.0  -0.1575
  C  C732  1  0.421330  0.716070  0.883620  1.0  0.0167
  C  C733  1  0.959130  0.825150  0.119950  1.0  0.6932
  C  C734  1  0.933170  0.810240  0.104980  1.0  -0.157
  C  C735  1  0.921330  0.783930  0.116380  1.0  0.0169
  C  C736  1  0.959130  0.325150  0.619950  1.0  0.6932
  C  C737  1  0.933170  0.310240  0.604980  1.0  -0.157
  C  C738  1  0.921330  0.283930  0.616380  1.0  0.0169
  C  C739  1  0.459130  0.825150  0.619950  1.0  0.6932
  C  C740  1  0.433170  0.810240  0.604980  1.0  -0.157
  C  C741  1  0.421330  0.783930  0.616380  1.0  0.0169
  C  C742  1  0.459130  0.325150  0.119950  1.0  0.6932
  C  C743  1  0.433170  0.310240  0.104980  1.0  -0.157
  C  C744  1  0.421330  0.283930  0.116380  1.0  0.0169
  C  C745  1  0.040870  0.174850  0.119950  1.0  0.6926
  C  C746  1  0.066830  0.189760  0.104980  1.0  -0.1575
  C  C747  1  0.078670  0.216070  0.116380  1.0  0.0161
  C  C748  1  0.040870  0.674850  0.619950  1.0  0.6926
  C  C749  1  0.066830  0.689760  0.604980  1.0  -0.1575
  C  C750  1  0.078670  0.716070  0.616380  1.0  0.0161
  C  C751  1  0.540870  0.174850  0.619950  1.0  0.6926
  C  C752  1  0.566830  0.189760  0.604980  1.0  -0.1575
  C  C753  1  0.578670  0.216070  0.616380  1.0  0.0161
  C  C754  1  0.540870  0.674850  0.119950  1.0  0.6926
  C  C755  1  0.566830  0.689760  0.104980  1.0  -0.1575
  C  C756  1  0.578670  0.716070  0.116380  1.0  0.0161
  C  C757  1  0.040870  0.825150  0.880050  1.0  0.693
  C  C758  1  0.066830  0.810240  0.895020  1.0  -0.1573
  C  C759  1  0.078670  0.783930  0.883620  1.0  0.0167
  C  C760  1  0.040870  0.325150  0.380050  1.0  0.693
  C  C761  1  0.066830  0.310240  0.395020  1.0  -0.1573
  C  C762  1  0.078670  0.283930  0.383620  1.0  0.0167
  C  C763  1  0.540870  0.825150  0.380050  1.0  0.693
  C  C764  1  0.566830  0.810240  0.395020  1.0  -0.1573
  C  C765  1  0.578670  0.783930  0.383620  1.0  0.0167
  C  C766  1  0.540870  0.325150  0.880050  1.0  0.693
  C  C767  1  0.566830  0.310240  0.895020  1.0  -0.1573
  C  C768  1  0.578670  0.283930  0.883620  1.0  0.0167
  C  C769  1  0.880050  0.825150  0.040870  1.0  0.694
  C  C770  1  0.895020  0.810240  0.066830  1.0  -0.1574
  C  C771  1  0.883620  0.783930  0.078670  1.0  0.0169
  C  C772  1  0.880050  0.325150  0.540870  1.0  0.694
  C  C773  1  0.895020  0.310240  0.566830  1.0  -0.1574
  C  C774  1  0.883620  0.283930  0.578670  1.0  0.0169
  C  C775  1  0.380050  0.825150  0.540870  1.0  0.694
  C  C776  1  0.395020  0.810240  0.566830  1.0  -0.1574
  C  C777  1  0.383620  0.783930  0.578670  1.0  0.0169
  C  C778  1  0.380050  0.325150  0.040870  1.0  0.694
  C  C779  1  0.395020  0.310240  0.066830  1.0  -0.1574
  C  C780  1  0.383620  0.283930  0.078670  1.0  0.0169
  C  C781  1  0.119950  0.174850  0.040870  1.0  0.6938
  C  C782  1  0.104980  0.189760  0.066830  1.0  -0.158
  C  C783  1  0.116380  0.216070  0.078670  1.0  0.0171
  C  C784  1  0.119950  0.674850  0.540870  1.0  0.6938
  C  C785  1  0.104980  0.689760  0.566830  1.0  -0.158
  C  C786  1  0.116380  0.716070  0.578670  1.0  0.0171
  C  C787  1  0.619950  0.174850  0.540870  1.0  0.6938
  C  C788  1  0.604980  0.189760  0.566830  1.0  -0.158
  C  C789  1  0.616380  0.216070  0.578670  1.0  0.0171
  C  C790  1  0.619950  0.674850  0.040870  1.0  0.6938
  C  C791  1  0.604980  0.689760  0.066830  1.0  -0.158
  C  C792  1  0.616380  0.716070  0.078670  1.0  0.0171
  C  C793  1  0.119950  0.825150  0.959130  1.0  0.6943
  C  C794  1  0.104980  0.810240  0.933170  1.0  -0.1578
  C  C795  1  0.116380  0.783930  0.921330  1.0  0.017
  C  C796  1  0.119950  0.325150  0.459130  1.0  0.6943
  C  C797  1  0.104980  0.310240  0.433170  1.0  -0.1578
  C  C798  1  0.116380  0.283930  0.421330  1.0  0.017
  C  C799  1  0.619950  0.825150  0.459130  1.0  0.6943
  C  C800  1  0.604980  0.810240  0.433170  1.0  -0.1578
  C  C801  1  0.616380  0.783930  0.421330  1.0  0.017
  C  C802  1  0.619950  0.325150  0.959130  1.0  0.6943
  C  C803  1  0.604980  0.310240  0.933170  1.0  -0.1578
  C  C804  1  0.616380  0.283930  0.921330  1.0  0.017
  C  C805  1  0.880050  0.174850  0.959130  1.0  0.694
  C  C806  1  0.895020  0.189760  0.933170  1.0  -0.1579
  C  C807  1  0.883620  0.216070  0.921330  1.0  0.0173
  C  C808  1  0.880050  0.674850  0.459130  1.0  0.694
  C  C809  1  0.895020  0.689760  0.433170  1.0  -0.1579
  C  C810  1  0.883620  0.716070  0.421330  1.0  0.0173
  C  C811  1  0.380050  0.174850  0.459130  1.0  0.694
  C  C812  1  0.395020  0.189760  0.433170  1.0  -0.1579
  C  C813  1  0.383620  0.216070  0.421330  1.0  0.0173
  C  C814  1  0.380050  0.674850  0.959130  1.0  0.694
  C  C815  1  0.395020  0.689760  0.933170  1.0  -0.1579
  C  C816  1  0.383620  0.716070  0.921330  1.0  0.0173
  C  C817  1  0.040870  0.880050  0.825150  1.0  0.6926
  C  C818  1  0.066830  0.895020  0.810240  1.0  -0.1573
  C  C819  1  0.078670  0.883620  0.783930  1.0  0.0177
  C  C820  1  0.040870  0.380050  0.325150  1.0  0.6926
  C  C821  1  0.066830  0.395020  0.310240  1.0  -0.1573
  C  C822  1  0.078670  0.383620  0.283930  1.0  0.0177
  C  C823  1  0.540870  0.880050  0.325150  1.0  0.6926
  C  C824  1  0.566830  0.895020  0.310240  1.0  -0.1573
  C  C825  1  0.578670  0.883620  0.283930  1.0  0.0177
  C  C826  1  0.540870  0.380050  0.825150  1.0  0.6926
  C  C827  1  0.566830  0.395020  0.810240  1.0  -0.1573
  C  C828  1  0.578670  0.383620  0.783930  1.0  0.0177
  C  C829  1  0.040870  0.119950  0.174850  1.0  0.693
  C  C830  1  0.066830  0.104980  0.189760  1.0  -0.1575
  C  C831  1  0.078670  0.116380  0.216070  1.0  0.0161
  C  C832  1  0.040870  0.619950  0.674850  1.0  0.693
  C  C833  1  0.066830  0.604980  0.689760  1.0  -0.1575
  C  C834  1  0.078670  0.616380  0.716070  1.0  0.0161
  C  C835  1  0.540870  0.119950  0.674850  1.0  0.693
  C  C836  1  0.566830  0.104980  0.689760  1.0  -0.1575
  C  C837  1  0.578670  0.116380  0.716070  1.0  0.0161
  C  C838  1  0.540870  0.619950  0.174850  1.0  0.693
  C  C839  1  0.566830  0.604980  0.189760  1.0  -0.1575
  C  C840  1  0.578670  0.616380  0.216070  1.0  0.0161
  C  C841  1  0.959130  0.119950  0.825150  1.0  0.6932
  C  C842  1  0.933170  0.104980  0.810240  1.0  -0.1571
  C  C843  1  0.921330  0.116380  0.783930  1.0  0.0166
  C  C844  1  0.959130  0.619950  0.325150  1.0  0.6932
  C  C845  1  0.933170  0.604980  0.310240  1.0  -0.1571
  C  C846  1  0.921330  0.616380  0.283930  1.0  0.0166
  C  C847  1  0.459130  0.119950  0.325150  1.0  0.6932
  C  C848  1  0.433170  0.104980  0.310240  1.0  -0.1571
  C  C849  1  0.421330  0.116380  0.283930  1.0  0.0166
  C  C850  1  0.459130  0.619950  0.825150  1.0  0.6932
  C  C851  1  0.433170  0.604980  0.810240  1.0  -0.1571
  C  C852  1  0.421330  0.616380  0.783930  1.0  0.0166
  C  C853  1  0.959130  0.880050  0.174850  1.0  0.693
  C  C854  1  0.933170  0.895020  0.189760  1.0  -0.1574
  C  C855  1  0.921330  0.883620  0.216070  1.0  0.0176
  C  C856  1  0.959130  0.380050  0.674850  1.0  0.693
  C  C857  1  0.933170  0.395020  0.689760  1.0  -0.1574
  C  C858  1  0.921330  0.383620  0.716070  1.0  0.0176
  C  C859  1  0.459130  0.880050  0.674850  1.0  0.693
  C  C860  1  0.433170  0.895020  0.689760  1.0  -0.1574
  C  C861  1  0.421330  0.883620  0.716070  1.0  0.0176
  C  C862  1  0.459130  0.380050  0.174850  1.0  0.693
  C  C863  1  0.433170  0.395020  0.189760  1.0  -0.1574
  C  C864  1  0.421330  0.383620  0.216070  1.0  0.0176
  C  C865  1  0.825150  0.040870  0.880050  1.0  0.6931
  C  C866  1  0.810240  0.066830  0.895020  1.0  -0.157
  C  C867  1  0.783930  0.078670  0.883620  1.0  0.0163
  C  C868  1  0.825150  0.540870  0.380050  1.0  0.6931
  C  C869  1  0.810240  0.566830  0.395020  1.0  -0.157
  C  C870  1  0.783930  0.578670  0.383620  1.0  0.0163
  C  C871  1  0.325150  0.040870  0.380050  1.0  0.6931
  C  C872  1  0.310240  0.066830  0.395020  1.0  -0.157
  C  C873  1  0.283930  0.078670  0.383620  1.0  0.0163
  C  C874  1  0.325150  0.540870  0.880050  1.0  0.6931
  C  C875  1  0.310240  0.566830  0.895020  1.0  -0.157
  C  C876  1  0.283930  0.578670  0.883620  1.0  0.0163
  C  C877  1  0.174850  0.040870  0.119950  1.0  0.6926
  C  C878  1  0.189760  0.066830  0.104980  1.0  -0.1576
  C  C879  1  0.216070  0.078670  0.116380  1.0  0.0167
  C  C880  1  0.174850  0.540870  0.619950  1.0  0.6926
  C  C881  1  0.189760  0.566830  0.604980  1.0  -0.1576
  C  C882  1  0.216070  0.578670  0.616380  1.0  0.0167
  C  C883  1  0.674850  0.040870  0.619950  1.0  0.6926
  C  C884  1  0.689760  0.066830  0.604980  1.0  -0.1576
  C  C885  1  0.716070  0.078670  0.616380  1.0  0.0167
  C  C886  1  0.674850  0.540870  0.119950  1.0  0.6926
  C  C887  1  0.689760  0.566830  0.104980  1.0  -0.1576
  C  C888  1  0.716070  0.578670  0.116380  1.0  0.0167
  C  C889  1  0.825150  0.959130  0.119950  1.0  0.6931
  C  C890  1  0.810240  0.933170  0.104980  1.0  -0.157
  C  C891  1  0.783930  0.921330  0.116380  1.0  0.0159
  C  C892  1  0.825150  0.459130  0.619950  1.0  0.6931
  C  C893  1  0.810240  0.433170  0.604980  1.0  -0.157
  C  C894  1  0.783930  0.421330  0.616380  1.0  0.0159
  C  C895  1  0.325150  0.959130  0.619950  1.0  0.6931
  C  C896  1  0.310240  0.933170  0.604980  1.0  -0.157
  C  C897  1  0.283930  0.921330  0.616380  1.0  0.0159
  C  C898  1  0.325150  0.459130  0.119950  1.0  0.6931
  C  C899  1  0.310240  0.433170  0.104980  1.0  -0.157
  C  C900  1  0.283930  0.421330  0.116380  1.0  0.0159
  C  C901  1  0.174850  0.959130  0.880050  1.0  0.6929
  C  C902  1  0.189760  0.933170  0.895020  1.0  -0.1577
  C  C903  1  0.216070  0.921330  0.883620  1.0  0.0165
  C  C904  1  0.174850  0.459130  0.380050  1.0  0.6929
  C  C905  1  0.189760  0.433170  0.395020  1.0  -0.1577
  C  C906  1  0.216070  0.421330  0.383620  1.0  0.0165
  C  C907  1  0.674850  0.959130  0.380050  1.0  0.6929
  C  C908  1  0.689760  0.933170  0.395020  1.0  -0.1577
  C  C909  1  0.716070  0.921330  0.383620  1.0  0.0165
  C  C910  1  0.674850  0.459130  0.880050  1.0  0.6929
  C  C911  1  0.689760  0.433170  0.895020  1.0  -0.1577
  C  C912  1  0.716070  0.421330  0.883620  1.0  0.0165
  C  C913  1  0.825150  0.880050  0.959130  1.0  0.6941
  C  C914  1  0.810240  0.895020  0.933170  1.0  -0.158
  C  C915  1  0.783930  0.883620  0.921330  1.0  0.018
  C  C916  1  0.825150  0.380050  0.459130  1.0  0.6941
  C  C917  1  0.810240  0.395020  0.433170  1.0  -0.158
  C  C918  1  0.783930  0.383620  0.421330  1.0  0.018
  C  C919  1  0.325150  0.880050  0.459130  1.0  0.6941
  C  C920  1  0.310240  0.895020  0.433170  1.0  -0.158
  C  C921  1  0.283930  0.883620  0.421330  1.0  0.018
  C  C922  1  0.325150  0.380050  0.959130  1.0  0.6941
  C  C923  1  0.310240  0.395020  0.933170  1.0  -0.158
  C  C924  1  0.283930  0.383620  0.921330  1.0  0.018
  C  C925  1  0.174850  0.119950  0.959130  1.0  0.6943
  C  C926  1  0.189760  0.104980  0.933170  1.0  -0.1585
  C  C927  1  0.216070  0.116380  0.921330  1.0  0.0165
  C  C928  1  0.174850  0.619950  0.459130  1.0  0.6943
  C  C929  1  0.189760  0.604980  0.433170  1.0  -0.1585
  C  C930  1  0.216070  0.616380  0.421330  1.0  0.0165
  C  C931  1  0.674850  0.119950  0.459130  1.0  0.6943
  C  C932  1  0.689760  0.104980  0.433170  1.0  -0.1585
  C  C933  1  0.716070  0.116380  0.421330  1.0  0.0165
  C  C934  1  0.674850  0.619950  0.959130  1.0  0.6943
  C  C935  1  0.689760  0.604980  0.933170  1.0  -0.1585
  C  C936  1  0.716070  0.616380  0.921330  1.0  0.0165
  C  C937  1  0.825150  0.119950  0.040870  1.0  0.6942
  C  C938  1  0.810240  0.104980  0.066830  1.0  -0.1576
  C  C939  1  0.783930  0.116380  0.078670  1.0  0.0163
  C  C940  1  0.825150  0.619950  0.540870  1.0  0.6942
  C  C941  1  0.810240  0.604980  0.566830  1.0  -0.1576
  C  C942  1  0.783930  0.616380  0.578670  1.0  0.0163
  C  C943  1  0.325150  0.119950  0.540870  1.0  0.6942
  C  C944  1  0.310240  0.104980  0.566830  1.0  -0.1576
  C  C945  1  0.283930  0.116380  0.578670  1.0  0.0163
  C  C946  1  0.325150  0.619950  0.040870  1.0  0.6942
  C  C947  1  0.310240  0.604980  0.066830  1.0  -0.1576
  C  C948  1  0.283930  0.616380  0.078670  1.0  0.0163
  C  C949  1  0.174850  0.880050  0.040870  1.0  0.6936
  C  C950  1  0.189760  0.895020  0.066830  1.0  -0.1586
  C  C951  1  0.216070  0.883620  0.078670  1.0  0.0175
  C  C952  1  0.174850  0.380050  0.540870  1.0  0.6936
  C  C953  1  0.189760  0.395020  0.566830  1.0  -0.1586
  C  C954  1  0.216070  0.383620  0.578670  1.0  0.0175
  C  C955  1  0.674850  0.880050  0.540870  1.0  0.6936
  C  C956  1  0.689760  0.895020  0.566830  1.0  -0.1586
  C  C957  1  0.716070  0.883620  0.578670  1.0  0.0175
  C  C958  1  0.674850  0.380050  0.040870  1.0  0.6936
  C  C959  1  0.689760  0.395020  0.066830  1.0  -0.1586
  C  C960  1  0.716070  0.383620  0.078670  1.0  0.0175
  C  C961  1  0.880050  0.040870  0.174850  1.0  0.6928
  C  C962  1  0.895020  0.066830  0.189760  1.0  -0.157
  C  C963  1  0.883620  0.078670  0.216070  1.0  0.0166
  C  C964  1  0.880050  0.540870  0.674850  1.0  0.6928
  C  C965  1  0.895020  0.566830  0.689760  1.0  -0.157
  C  C966  1  0.883620  0.578670  0.716070  1.0  0.0166
  C  C967  1  0.380050  0.040870  0.674850  1.0  0.6928
  C  C968  1  0.395020  0.066830  0.689760  1.0  -0.157
  C  C969  1  0.383620  0.078670  0.716070  1.0  0.0166
  C  C970  1  0.380050  0.540870  0.174850  1.0  0.6928
  C  C971  1  0.395020  0.566830  0.189760  1.0  -0.157
  C  C972  1  0.383620  0.578670  0.216070  1.0  0.0166
  C  C973  1  0.119950  0.040870  0.825150  1.0  0.6928
  C  C974  1  0.104980  0.066830  0.810240  1.0  -0.1568
  C  C975  1  0.116380  0.078670  0.783930  1.0  0.0162
  C  C976  1  0.119950  0.540870  0.325150  1.0  0.6928
  C  C977  1  0.104980  0.566830  0.310240  1.0  -0.1568
  C  C978  1  0.116380  0.578670  0.283930  1.0  0.0162
  C  C979  1  0.619950  0.040870  0.325150  1.0  0.6928
  C  C980  1  0.604980  0.066830  0.310240  1.0  -0.1568
  C  C981  1  0.616380  0.078670  0.283930  1.0  0.0162
  C  C982  1  0.619950  0.540870  0.825150  1.0  0.6928
  C  C983  1  0.604980  0.566830  0.810240  1.0  -0.1568
  C  C984  1  0.616380  0.578670  0.783930  1.0  0.0162
  C  C985  1  0.119950  0.959130  0.174850  1.0  0.6932
  C  C986  1  0.104980  0.933170  0.189760  1.0  -0.1572
  C  C987  1  0.116380  0.921330  0.216070  1.0  0.0165
  C  C988  1  0.119950  0.459130  0.674850  1.0  0.6932
  C  C989  1  0.104980  0.433170  0.689760  1.0  -0.1572
  C  C990  1  0.116380  0.421330  0.716070  1.0  0.0165
  C  C991  1  0.619950  0.959130  0.674850  1.0  0.6932
  C  C992  1  0.604980  0.933170  0.689760  1.0  -0.1572
  C  C993  1  0.616380  0.921330  0.716070  1.0  0.0165
  C  C994  1  0.619950  0.459130  0.174850  1.0  0.6932
  C  C995  1  0.604980  0.433170  0.189760  1.0  -0.1572
  C  C996  1  0.616380  0.421330  0.216070  1.0  0.0165
  C  C997  1  0.880050  0.959130  0.825150  1.0  0.6929
  C  C998  1  0.895020  0.933170  0.810240  1.0  -0.1569
  C  C999  1  0.883620  0.921330  0.783930  1.0  0.0166
  C  C1000  1  0.880050  0.459130  0.325150  1.0  0.6929
  C  C1001  1  0.895020  0.433170  0.310240  1.0  -0.1569
  C  C1002  1  0.883620  0.421330  0.283930  1.0  0.0166
  C  C1003  1  0.380050  0.959130  0.325150  1.0  0.6929
  C  C1004  1  0.395020  0.933170  0.310240  1.0  -0.1569
  C  C1005  1  0.383620  0.921330  0.283930  1.0  0.0166
  C  C1006  1  0.380050  0.459130  0.825150  1.0  0.6929
  C  C1007  1  0.395020  0.433170  0.810240  1.0  -0.1569
  C  C1008  1  0.383620  0.421330  0.783930  1.0  0.0166
  C  C1009  1  0.040870  0.825150  0.119950  1.0  0.6929
  C  C1010  1  0.066830  0.810240  0.104980  1.0  -0.1571
  C  C1011  1  0.078670  0.783930  0.116380  1.0  0.0165
  C  C1012  1  0.040870  0.325150  0.619950  1.0  0.6929
  C  C1013  1  0.066830  0.310240  0.604980  1.0  -0.1571
  C  C1014  1  0.078670  0.283930  0.616380  1.0  0.0165
  C  C1015  1  0.540870  0.825150  0.619950  1.0  0.6929
  C  C1016  1  0.566830  0.810240  0.604980  1.0  -0.1571
  C  C1017  1  0.578670  0.783930  0.616380  1.0  0.0165
  C  C1018  1  0.540870  0.325150  0.119950  1.0  0.6929
  C  C1019  1  0.566830  0.310240  0.104980  1.0  -0.1571
  C  C1020  1  0.578670  0.283930  0.116380  1.0  0.0165
  C  C1021  1  0.040870  0.174850  0.880050  1.0  0.6928
  C  C1022  1  0.066830  0.189760  0.895020  1.0  -0.1576
  C  C1023  1  0.078670  0.216070  0.883620  1.0  0.0169
  C  C1024  1  0.040870  0.674850  0.380050  1.0  0.6928
  C  C1025  1  0.066830  0.689760  0.395020  1.0  -0.1576
  C  C1026  1  0.078670  0.716070  0.383620  1.0  0.0169
  C  C1027  1  0.540870  0.174850  0.380050  1.0  0.6928
  C  C1028  1  0.566830  0.189760  0.395020  1.0  -0.1576
  C  C1029  1  0.578670  0.216070  0.383620  1.0  0.0169
  C  C1030  1  0.540870  0.674850  0.880050  1.0  0.6928
  C  C1031  1  0.566830  0.689760  0.895020  1.0  -0.1576
  C  C1032  1  0.578670  0.716070  0.883620  1.0  0.0169
  C  C1033  1  0.959130  0.825150  0.880050  1.0  0.6932
  C  C1034  1  0.933170  0.810240  0.895020  1.0  -0.1571
  C  C1035  1  0.921330  0.783930  0.883620  1.0  0.0164
  C  C1036  1  0.959130  0.325150  0.380050  1.0  0.6932
  C  C1037  1  0.933170  0.310240  0.395020  1.0  -0.1571
  C  C1038  1  0.921330  0.283930  0.383620  1.0  0.0164
  C  C1039  1  0.459130  0.825150  0.380050  1.0  0.6932
  C  C1040  1  0.433170  0.810240  0.395020  1.0  -0.1571
  C  C1041  1  0.421330  0.783930  0.383620  1.0  0.0164
  C  C1042  1  0.459130  0.325150  0.880050  1.0  0.6932
  C  C1043  1  0.433170  0.310240  0.895020  1.0  -0.1571
  C  C1044  1  0.421330  0.283930  0.883620  1.0  0.0164
  C  C1045  1  0.959130  0.174850  0.119950  1.0  0.6929
  C  C1046  1  0.933170  0.189760  0.104980  1.0  -0.1575
  C  C1047  1  0.921330  0.216070  0.116380  1.0  0.0168
  C  C1048  1  0.959130  0.674850  0.619950  1.0  0.6929
  C  C1049  1  0.933170  0.689760  0.604980  1.0  -0.1575
  C  C1050  1  0.921330  0.716070  0.616380  1.0  0.0168
  C  C1051  1  0.459130  0.174850  0.619950  1.0  0.6929
  C  C1052  1  0.433170  0.189760  0.604980  1.0  -0.1575
  C  C1053  1  0.421330  0.216070  0.616380  1.0  0.0168
  C  C1054  1  0.459130  0.674850  0.119950  1.0  0.6929
  C  C1055  1  0.433170  0.689760  0.104980  1.0  -0.1575
  C  C1056  1  0.421330  0.716070  0.116380  1.0  0.0168
  C  C1057  1  0.103950  0.228400  0.896050  1.0  -0.0587
  C  C1058  1  0.080020  0.176970  0.919980  1.0  0.0355
  C  C1059  1  0.116830  0.256800  0.883170  1.0  0.187
  C  C1060  1  0.103950  0.728400  0.396050  1.0  -0.0587
  C  C1061  1  0.080020  0.676970  0.419980  1.0  0.0355
  C  C1062  1  0.116830  0.756800  0.383170  1.0  0.187
  C  C1063  1  0.603950  0.228400  0.396050  1.0  -0.0587
  C  C1064  1  0.580020  0.176970  0.419980  1.0  0.0355
  C  C1065  1  0.616830  0.256800  0.383170  1.0  0.187
  C  C1066  1  0.603950  0.728400  0.896050  1.0  -0.0587
  C  C1067  1  0.580020  0.676970  0.919980  1.0  0.0355
  C  C1068  1  0.616830  0.756800  0.883170  1.0  0.187
  C  C1069  1  0.896050  0.771600  0.896050  1.0  -0.0606
  C  C1070  1  0.919980  0.823030  0.919980  1.0  0.0351
  C  C1071  1  0.883170  0.743200  0.883170  1.0  0.1871
  C  C1072  1  0.896050  0.271600  0.396050  1.0  -0.0606
  C  C1073  1  0.919980  0.323030  0.419980  1.0  0.0351
  C  C1074  1  0.883170  0.243200  0.383170  1.0  0.1871
  C  C1075  1  0.396050  0.771600  0.396050  1.0  -0.0606
  C  C1076  1  0.419980  0.823030  0.419980  1.0  0.0351
  C  C1077  1  0.383170  0.743200  0.383170  1.0  0.1871
  C  C1078  1  0.396050  0.271600  0.896050  1.0  -0.0606
  C  C1079  1  0.419980  0.323030  0.919980  1.0  0.0351
  C  C1080  1  0.383170  0.243200  0.883170  1.0  0.1871
  C  C1081  1  0.896050  0.228400  0.103950  1.0  -0.0594
  C  C1082  1  0.919980  0.176970  0.080020  1.0  0.0354
  C  C1083  1  0.883170  0.256800  0.116830  1.0  0.1866
  C  C1084  1  0.896050  0.728400  0.603950  1.0  -0.0594
  C  C1085  1  0.919980  0.676970  0.580020  1.0  0.0354
  C  C1086  1  0.883170  0.756800  0.616830  1.0  0.1866
  C  C1087  1  0.396050  0.228400  0.603950  1.0  -0.0594
  C  C1088  1  0.419980  0.176970  0.580020  1.0  0.0354
  C  C1089  1  0.383170  0.256800  0.616830  1.0  0.1866
  C  C1090  1  0.396050  0.728400  0.103950  1.0  -0.0594
  C  C1091  1  0.419980  0.676970  0.080020  1.0  0.0354
  C  C1092  1  0.383170  0.756800  0.116830  1.0  0.1866
  C  C1093  1  0.103950  0.771600  0.103950  1.0  -0.0596
  C  C1094  1  0.080020  0.823030  0.080020  1.0  0.0363
  C  C1095  1  0.116830  0.743200  0.116830  1.0  0.1874
  C  C1096  1  0.103950  0.271600  0.603950  1.0  -0.0596
  C  C1097  1  0.080020  0.323030  0.580020  1.0  0.0363
  C  C1098  1  0.116830  0.243200  0.616830  1.0  0.1874
  C  C1099  1  0.603950  0.771600  0.603950  1.0  -0.0596
  C  C1100  1  0.580020  0.823030  0.580020  1.0  0.0363
  C  C1101  1  0.616830  0.743200  0.616830  1.0  0.1874
  C  C1102  1  0.603950  0.271600  0.103950  1.0  -0.0596
  C  C1103  1  0.580020  0.323030  0.080020  1.0  0.0363
  C  C1104  1  0.616830  0.243200  0.116830  1.0  0.1874
  C  C1105  1  0.896050  0.103950  0.228400  1.0  -0.0588
  C  C1106  1  0.919980  0.080020  0.176970  1.0  0.0356
  C  C1107  1  0.883170  0.116830  0.256800  1.0  0.1885
  C  C1108  1  0.896050  0.603950  0.728400  1.0  -0.0588
  C  C1109  1  0.919980  0.580020  0.676970  1.0  0.0356
  C  C1110  1  0.883170  0.616830  0.756800  1.0  0.1885
  C  C1111  1  0.396050  0.103950  0.728400  1.0  -0.0588
  C  C1112  1  0.419980  0.080020  0.676970  1.0  0.0356
  C  C1113  1  0.383170  0.116830  0.756800  1.0  0.1885
  C  C1114  1  0.396050  0.603950  0.228400  1.0  -0.0588
  C  C1115  1  0.419980  0.580020  0.176970  1.0  0.0356
  C  C1116  1  0.383170  0.616830  0.256800  1.0  0.1885
  C  C1117  1  0.896050  0.896050  0.771600  1.0  -0.061
  C  C1118  1  0.919980  0.919980  0.823030  1.0  0.0349
  C  C1119  1  0.883170  0.883170  0.743200  1.0  0.1874
  C  C1120  1  0.896050  0.396050  0.271600  1.0  -0.061
  C  C1121  1  0.919980  0.419980  0.323030  1.0  0.0349
  C  C1122  1  0.883170  0.383170  0.243200  1.0  0.1874
  C  C1123  1  0.396050  0.896050  0.271600  1.0  -0.061
  C  C1124  1  0.419980  0.919980  0.323030  1.0  0.0349
  C  C1125  1  0.383170  0.883170  0.243200  1.0  0.1874
  C  C1126  1  0.396050  0.396050  0.771600  1.0  -0.061
  C  C1127  1  0.419980  0.419980  0.823030  1.0  0.0349
  C  C1128  1  0.383170  0.383170  0.743200  1.0  0.1874
  C  C1129  1  0.103950  0.896050  0.228400  1.0  -0.0586
  C  C1130  1  0.080020  0.919980  0.176970  1.0  0.0364
  C  C1131  1  0.116830  0.883170  0.256800  1.0  0.189
  C  C1132  1  0.103950  0.396050  0.728400  1.0  -0.0586
  C  C1133  1  0.080020  0.419980  0.676970  1.0  0.0364
  C  C1134  1  0.116830  0.383170  0.756800  1.0  0.189
  C  C1135  1  0.603950  0.896050  0.728400  1.0  -0.0586
  C  C1136  1  0.580020  0.919980  0.676970  1.0  0.0364
  C  C1137  1  0.616830  0.883170  0.756800  1.0  0.189
  C  C1138  1  0.603950  0.396050  0.228400  1.0  -0.0586
  C  C1139  1  0.580020  0.419980  0.176970  1.0  0.0364
  C  C1140  1  0.616830  0.383170  0.256800  1.0  0.189
  C  C1141  1  0.103950  0.103950  0.771600  1.0  -0.0591
  C  C1142  1  0.080020  0.080020  0.823030  1.0  0.0353
  C  C1143  1  0.116830  0.116830  0.743200  1.0  0.1876
  C  C1144  1  0.103950  0.603950  0.271600  1.0  -0.0591
  C  C1145  1  0.080020  0.580020  0.323030  1.0  0.0353
  C  C1146  1  0.116830  0.616830  0.243200  1.0  0.1876
  C  C1147  1  0.603950  0.103950  0.271600  1.0  -0.0591
  C  C1148  1  0.580020  0.080020  0.323030  1.0  0.0353
  C  C1149  1  0.616830  0.116830  0.243200  1.0  0.1876
  C  C1150  1  0.603950  0.603950  0.771600  1.0  -0.0591
  C  C1151  1  0.580020  0.580020  0.823030  1.0  0.0353
  C  C1152  1  0.616830  0.616830  0.743200  1.0  0.1876
  C  C1153  1  0.228400  0.896050  0.103950  1.0  -0.0579
  C  C1154  1  0.176970  0.919980  0.080020  1.0  0.035
  C  C1155  1  0.256800  0.883170  0.116830  1.0  0.1843
  C  C1156  1  0.228400  0.396050  0.603950  1.0  -0.0579
  C  C1157  1  0.176970  0.419980  0.580020  1.0  0.035
  C  C1158  1  0.256800  0.383170  0.616830  1.0  0.1843
  C  C1159  1  0.728400  0.896050  0.603950  1.0  -0.0579
  C  C1160  1  0.676970  0.919980  0.580020  1.0  0.035
  C  C1161  1  0.756800  0.883170  0.616830  1.0  0.1843
  C  C1162  1  0.728400  0.396050  0.103950  1.0  -0.0579
  C  C1163  1  0.676970  0.419980  0.080020  1.0  0.035
  C  C1164  1  0.756800  0.383170  0.116830  1.0  0.1843
  C  C1165  1  0.771600  0.896050  0.896050  1.0  -0.0605
  C  C1166  1  0.823030  0.919980  0.919980  1.0  0.0347
  C  C1167  1  0.743200  0.883170  0.883170  1.0  0.1833
  C  C1168  1  0.771600  0.396050  0.396050  1.0  -0.0605
  C  C1169  1  0.823030  0.419980  0.419980  1.0  0.0347
  C  C1170  1  0.743200  0.383170  0.383170  1.0  0.1833
  C  C1171  1  0.271600  0.896050  0.396050  1.0  -0.0605
  C  C1172  1  0.323030  0.919980  0.419980  1.0  0.0347
  C  C1173  1  0.243200  0.883170  0.383170  1.0  0.1833
  C  C1174  1  0.271600  0.396050  0.896050  1.0  -0.0605
  C  C1175  1  0.323030  0.419980  0.919980  1.0  0.0347
  C  C1176  1  0.243200  0.383170  0.883170  1.0  0.1833
  C  C1177  1  0.228400  0.103950  0.896050  1.0  -0.0575
  C  C1178  1  0.176970  0.080020  0.919980  1.0  0.0355
  C  C1179  1  0.256800  0.116830  0.883170  1.0  0.1842
  C  C1180  1  0.228400  0.603950  0.396050  1.0  -0.0575
  C  C1181  1  0.176970  0.580020  0.419980  1.0  0.0355
  C  C1182  1  0.256800  0.616830  0.383170  1.0  0.1842
  C  C1183  1  0.728400  0.103950  0.396050  1.0  -0.0575
  C  C1184  1  0.676970  0.080020  0.419980  1.0  0.0355
  C  C1185  1  0.756800  0.116830  0.383170  1.0  0.1842
  C  C1186  1  0.728400  0.603950  0.896050  1.0  -0.0575
  C  C1187  1  0.676970  0.580020  0.919980  1.0  0.0355
  C  C1188  1  0.756800  0.616830  0.883170  1.0  0.1842
  C  C1189  1  0.771600  0.103950  0.103950  1.0  -0.0589
  C  C1190  1  0.823030  0.080020  0.080020  1.0  0.0352
  C  C1191  1  0.743200  0.116830  0.116830  1.0  0.1836
  C  C1192  1  0.771600  0.603950  0.603950  1.0  -0.0589
  C  C1193  1  0.823030  0.580020  0.580020  1.0  0.0352
  C  C1194  1  0.743200  0.616830  0.616830  1.0  0.1836
  C  C1195  1  0.271600  0.103950  0.603950  1.0  -0.0589
  C  C1196  1  0.323030  0.080020  0.580020  1.0  0.0352
  C  C1197  1  0.243200  0.116830  0.616830  1.0  0.1836
  C  C1198  1  0.271600  0.603950  0.103950  1.0  -0.0589
  C  C1199  1  0.323030  0.580020  0.080020  1.0  0.0352
  C  C1200  1  0.243200  0.616830  0.116830  1.0  0.1836
  C  C1201  1  0.228400  0.103950  0.103950  1.0  -0.0573
  C  C1202  1  0.176970  0.080020  0.080020  1.0  0.0351
  C  C1203  1  0.256800  0.116830  0.116830  1.0  0.1846
  C  C1204  1  0.228400  0.603950  0.603950  1.0  -0.0573
  C  C1205  1  0.176970  0.580020  0.580020  1.0  0.0351
  C  C1206  1  0.256800  0.616830  0.616830  1.0  0.1846
  C  C1207  1  0.728400  0.103950  0.603950  1.0  -0.0573
  C  C1208  1  0.676970  0.080020  0.580020  1.0  0.0351
  C  C1209  1  0.756800  0.116830  0.616830  1.0  0.1846
  C  C1210  1  0.728400  0.603950  0.103950  1.0  -0.0573
  C  C1211  1  0.676970  0.580020  0.080020  1.0  0.0351
  C  C1212  1  0.756800  0.616830  0.116830  1.0  0.1846
  C  C1213  1  0.771600  0.896050  0.103950  1.0  -0.0595
  C  C1214  1  0.823030  0.919980  0.080020  1.0  0.0348
  C  C1215  1  0.743200  0.883170  0.116830  1.0  0.1835
  C  C1216  1  0.771600  0.396050  0.603950  1.0  -0.0595
  C  C1217  1  0.823030  0.419980  0.580020  1.0  0.0348
  C  C1218  1  0.743200  0.383170  0.616830  1.0  0.1835
  C  C1219  1  0.271600  0.896050  0.603950  1.0  -0.0595
  C  C1220  1  0.323030  0.919980  0.580020  1.0  0.0348
  C  C1221  1  0.243200  0.883170  0.616830  1.0  0.1835
  C  C1222  1  0.271600  0.396050  0.103950  1.0  -0.0595
  C  C1223  1  0.323030  0.419980  0.080020  1.0  0.0348
  C  C1224  1  0.243200  0.383170  0.116830  1.0  0.1835
  C  C1225  1  0.228400  0.896050  0.896050  1.0  -0.0584
  C  C1226  1  0.176970  0.919980  0.919980  1.0  0.035
  C  C1227  1  0.256800  0.883170  0.883170  1.0  0.1841
  C  C1228  1  0.228400  0.396050  0.396050  1.0  -0.0584
  C  C1229  1  0.176970  0.419980  0.419980  1.0  0.035
  C  C1230  1  0.256800  0.383170  0.383170  1.0  0.1841
  C  C1231  1  0.728400  0.896050  0.396050  1.0  -0.0584
  C  C1232  1  0.676970  0.919980  0.419980  1.0  0.035
  C  C1233  1  0.756800  0.883170  0.383170  1.0  0.1841
  C  C1234  1  0.728400  0.396050  0.896050  1.0  -0.0584
  C  C1235  1  0.676970  0.419980  0.919980  1.0  0.035
  C  C1236  1  0.756800  0.383170  0.883170  1.0  0.1841
  C  C1237  1  0.771600  0.103950  0.896050  1.0  -0.0594
  C  C1238  1  0.823030  0.080020  0.919980  1.0  0.0351
  C  C1239  1  0.743200  0.116830  0.883170  1.0  0.1834
  C  C1240  1  0.771600  0.603950  0.396050  1.0  -0.0594
  C  C1241  1  0.823030  0.580020  0.419980  1.0  0.0351
  C  C1242  1  0.743200  0.616830  0.383170  1.0  0.1834
  C  C1243  1  0.271600  0.103950  0.396050  1.0  -0.0594
  C  C1244  1  0.323030  0.080020  0.419980  1.0  0.0351
  C  C1245  1  0.243200  0.116830  0.383170  1.0  0.1834
  C  C1246  1  0.271600  0.603950  0.896050  1.0  -0.0594
  C  C1247  1  0.323030  0.580020  0.919980  1.0  0.0351
  C  C1248  1  0.243200  0.616830  0.883170  1.0  0.1834
  C  C1249  1  0.103950  0.896050  0.771600  1.0  -0.0604
  C  C1250  1  0.080020  0.919980  0.823030  1.0  0.0351
  C  C1251  1  0.116830  0.883170  0.743200  1.0  0.1874
  C  C1252  1  0.103950  0.396050  0.271600  1.0  -0.0604
  C  C1253  1  0.080020  0.419980  0.323030  1.0  0.0351
  C  C1254  1  0.116830  0.383170  0.243200  1.0  0.1874
  C  C1255  1  0.603950  0.896050  0.271600  1.0  -0.0604
  C  C1256  1  0.580020  0.919980  0.323030  1.0  0.0351
  C  C1257  1  0.616830  0.883170  0.243200  1.0  0.1874
  C  C1258  1  0.603950  0.396050  0.771600  1.0  -0.0604
  C  C1259  1  0.580020  0.419980  0.823030  1.0  0.0351
  C  C1260  1  0.616830  0.383170  0.743200  1.0  0.1874
  C  C1261  1  0.896050  0.896050  0.228400  1.0  -0.0593
  C  C1262  1  0.919980  0.919980  0.176970  1.0  0.0358
  C  C1263  1  0.883170  0.883170  0.256800  1.0  0.1886
  C  C1264  1  0.896050  0.396050  0.728400  1.0  -0.0593
  C  C1265  1  0.919980  0.419980  0.676970  1.0  0.0358
  C  C1266  1  0.883170  0.383170  0.756800  1.0  0.1886
  C  C1267  1  0.396050  0.896050  0.728400  1.0  -0.0593
  C  C1268  1  0.419980  0.919980  0.676970  1.0  0.0358
  C  C1269  1  0.383170  0.883170  0.756800  1.0  0.1886
  C  C1270  1  0.396050  0.396050  0.228400  1.0  -0.0593
  C  C1271  1  0.419980  0.419980  0.176970  1.0  0.0358
  C  C1272  1  0.383170  0.383170  0.256800  1.0  0.1886
  C  C1273  1  0.896050  0.103950  0.771600  1.0  -0.0597
  C  C1274  1  0.919980  0.080020  0.823030  1.0  0.0351
  C  C1275  1  0.883170  0.116830  0.743200  1.0  0.1876
  C  C1276  1  0.896050  0.603950  0.271600  1.0  -0.0597
  C  C1277  1  0.919980  0.580020  0.323030  1.0  0.0351
  C  C1278  1  0.883170  0.616830  0.243200  1.0  0.1876
  C  C1279  1  0.396050  0.103950  0.271600  1.0  -0.0597
  C  C1280  1  0.419980  0.080020  0.323030  1.0  0.0351
  C  C1281  1  0.383170  0.116830  0.243200  1.0  0.1876
  C  C1282  1  0.396050  0.603950  0.771600  1.0  -0.0597
  C  C1283  1  0.419980  0.580020  0.823030  1.0  0.0351
  C  C1284  1  0.383170  0.616830  0.743200  1.0  0.1876
  C  C1285  1  0.103950  0.103950  0.228400  1.0  -0.058
  C  C1286  1  0.080020  0.080020  0.176970  1.0  0.0361
  C  C1287  1  0.116830  0.116830  0.256800  1.0  0.1891
  C  C1288  1  0.103950  0.603950  0.728400  1.0  -0.058
  C  C1289  1  0.080020  0.580020  0.676970  1.0  0.0361
  C  C1290  1  0.116830  0.616830  0.756800  1.0  0.1891
  C  C1291  1  0.603950  0.103950  0.728400  1.0  -0.058
  C  C1292  1  0.580020  0.080020  0.676970  1.0  0.0361
  C  C1293  1  0.616830  0.116830  0.756800  1.0  0.1891
  C  C1294  1  0.603950  0.603950  0.228400  1.0  -0.058
  C  C1295  1  0.580020  0.580020  0.176970  1.0  0.0361
  C  C1296  1  0.616830  0.616830  0.256800  1.0  0.1891
  C  C1297  1  0.896050  0.228400  0.896050  1.0  -0.0596
  C  C1298  1  0.919980  0.176970  0.919980  1.0  0.035
  C  C1299  1  0.883170  0.256800  0.883170  1.0  0.1866
  C  C1300  1  0.896050  0.728400  0.396050  1.0  -0.0596
  C  C1301  1  0.919980  0.676970  0.419980  1.0  0.035
  C  C1302  1  0.883170  0.756800  0.383170  1.0  0.1866
  C  C1303  1  0.396050  0.228400  0.396050  1.0  -0.0596
  C  C1304  1  0.419980  0.176970  0.419980  1.0  0.035
  C  C1305  1  0.383170  0.256800  0.383170  1.0  0.1866
  C  C1306  1  0.396050  0.728400  0.896050  1.0  -0.0596
  C  C1307  1  0.419980  0.676970  0.919980  1.0  0.035
  C  C1308  1  0.383170  0.756800  0.883170  1.0  0.1866
  C  C1309  1  0.896050  0.771600  0.103950  1.0  -0.0602
  C  C1310  1  0.919980  0.823030  0.080020  1.0  0.0358
  C  C1311  1  0.883170  0.743200  0.116830  1.0  0.1871
  C  C1312  1  0.896050  0.271600  0.603950  1.0  -0.0602
  C  C1313  1  0.919980  0.323030  0.580020  1.0  0.0358
  C  C1314  1  0.883170  0.243200  0.616830  1.0  0.1871
  C  C1315  1  0.396050  0.771600  0.603950  1.0  -0.0602
  C  C1316  1  0.419980  0.823030  0.580020  1.0  0.0358
  C  C1317  1  0.383170  0.743200  0.616830  1.0  0.1871
  C  C1318  1  0.396050  0.271600  0.103950  1.0  -0.0602
  C  C1319  1  0.419980  0.323030  0.080020  1.0  0.0358
  C  C1320  1  0.383170  0.243200  0.116830  1.0  0.1871
  C  C1321  1  0.103950  0.228400  0.103950  1.0  -0.0584
  C  C1322  1  0.080020  0.176970  0.080020  1.0  0.0357
  C  C1323  1  0.116830  0.256800  0.116830  1.0  0.1872
  C  C1324  1  0.103950  0.728400  0.603950  1.0  -0.0584
  C  C1325  1  0.080020  0.676970  0.580020  1.0  0.0357
  C  C1326  1  0.116830  0.756800  0.616830  1.0  0.1872
  C  C1327  1  0.603950  0.228400  0.603950  1.0  -0.0584
  C  C1328  1  0.580020  0.176970  0.580020  1.0  0.0357
  C  C1329  1  0.616830  0.256800  0.616830  1.0  0.1872
  C  C1330  1  0.603950  0.728400  0.103950  1.0  -0.0584
  C  C1331  1  0.580020  0.676970  0.080020  1.0  0.0357
  C  C1332  1  0.616830  0.756800  0.116830  1.0  0.1872
  C  C1333  1  0.103950  0.771600  0.896050  1.0  -0.0601
  C  C1334  1  0.080020  0.823030  0.919980  1.0  0.0356
  C  C1335  1  0.116830  0.743200  0.883170  1.0  0.1873
  C  C1336  1  0.103950  0.271600  0.396050  1.0  -0.0601
  C  C1337  1  0.080020  0.323030  0.419980  1.0  0.0356
  C  C1338  1  0.116830  0.243200  0.383170  1.0  0.1873
  C  C1339  1  0.603950  0.771600  0.396050  1.0  -0.0601
  C  C1340  1  0.580020  0.823030  0.419980  1.0  0.0356
  C  C1341  1  0.616830  0.743200  0.383170  1.0  0.1873
  C  C1342  1  0.603950  0.271600  0.896050  1.0  -0.0601
  C  C1343  1  0.580020  0.323030  0.919980  1.0  0.0356
  C  C1344  1  0.616830  0.243200  0.883170  1.0  0.1873
  N  N1345  1  0.145070  0.292640  0.875180  1.0  -0.0215
  N  N1346  1  0.140860  0.270170  0.893850  1.0  -0.3286
  N  N1347  1  0.145070  0.792640  0.375180  1.0  -0.0215
  N  N1348  1  0.140860  0.770170  0.393850  1.0  -0.3286
  N  N1349  1  0.645070  0.292640  0.375180  1.0  -0.0213
  N  N1350  1  0.640860  0.270170  0.393850  1.0  -0.3286
  N  N1351  1  0.645070  0.792640  0.875180  1.0  -0.0213
  N  N1352  1  0.640860  0.770170  0.893850  1.0  -0.3286
  N  N1353  1  0.854930  0.707360  0.875180  1.0  -0.0194
  N  N1354  1  0.859140  0.729830  0.893850  1.0  -0.3267
  N  N1355  1  0.854930  0.207360  0.375180  1.0  -0.0194
  N  N1356  1  0.859140  0.229830  0.393850  1.0  -0.3267
  N  N1357  1  0.354930  0.707360  0.375180  1.0  -0.0194
  N  N1358  1  0.359140  0.729830  0.393850  1.0  -0.3267
  N  N1359  1  0.354930  0.207360  0.875180  1.0  -0.0194
  N  N1360  1  0.359140  0.229830  0.893850  1.0  -0.3267
  N  N1361  1  0.854930  0.292640  0.124820  1.0  -0.0196
  N  N1362  1  0.859140  0.270170  0.106150  1.0  -0.3266
  N  N1363  1  0.854930  0.792640  0.624820  1.0  -0.0196
  N  N1364  1  0.859140  0.770170  0.606150  1.0  -0.3266
  N  N1365  1  0.354930  0.292640  0.624820  1.0  -0.0196
  N  N1366  1  0.359140  0.270170  0.606150  1.0  -0.3266
  N  N1367  1  0.354930  0.792640  0.124820  1.0  -0.0194
  N  N1368  1  0.359140  0.770170  0.106150  1.0  -0.3266
  N  N1369  1  0.145070  0.707360  0.124820  1.0  -0.0215
  N  N1370  1  0.140860  0.729830  0.106150  1.0  -0.3288
  N  N1371  1  0.145070  0.207360  0.624820  1.0  -0.0215
  N  N1372  1  0.140860  0.229830  0.606150  1.0  -0.3288
  N  N1373  1  0.645070  0.707360  0.624820  1.0  -0.0215
  N  N1374  1  0.640860  0.729830  0.606150  1.0  -0.3288
  N  N1375  1  0.645070  0.207360  0.124820  1.0  -0.0214
  N  N1376  1  0.640860  0.229830  0.106150  1.0  -0.3288
  N  N1377  1  0.875180  0.145070  0.292640  1.0  -0.0176
  N  N1378  1  0.893850  0.140860  0.270170  1.0  -0.3266
  N  N1379  1  0.875180  0.645070  0.792640  1.0  -0.0175
  N  N1380  1  0.893850  0.640860  0.770170  1.0  -0.3266
  N  N1381  1  0.375180  0.145070  0.792640  1.0  -0.0176
  N  N1382  1  0.393850  0.140860  0.770170  1.0  -0.3266
  N  N1383  1  0.375180  0.645070  0.292640  1.0  -0.0175
  N  N1384  1  0.393850  0.640860  0.270170  1.0  -0.3266
  N  N1385  1  0.875180  0.854930  0.707360  1.0  -0.0174
  N  N1386  1  0.893850  0.859140  0.729830  1.0  -0.3276
  N  N1387  1  0.875180  0.354930  0.207360  1.0  -0.0174
  N  N1388  1  0.893850  0.359140  0.229830  1.0  -0.3276
  N  N1389  1  0.375180  0.854930  0.207360  1.0  -0.0174
  N  N1390  1  0.393850  0.859140  0.229830  1.0  -0.3276
  N  N1391  1  0.375180  0.354930  0.707360  1.0  -0.0173
  N  N1392  1  0.393850  0.359140  0.729830  1.0  -0.3276
  N  N1393  1  0.124820  0.854930  0.292640  1.0  -0.0181
  N  N1394  1  0.106150  0.859140  0.270170  1.0  -0.3275
  N  N1395  1  0.124820  0.354930  0.792640  1.0  -0.0179
  N  N1396  1  0.106150  0.359140  0.770170  1.0  -0.3275
  N  N1397  1  0.624820  0.854930  0.792640  1.0  -0.0181
  N  N1398  1  0.606150  0.859140  0.770170  1.0  -0.3275
  N  N1399  1  0.624820  0.354930  0.292640  1.0  -0.0181
  N  N1400  1  0.606150  0.359140  0.270170  1.0  -0.3275
  N  N1401  1  0.124820  0.145070  0.707360  1.0  -0.0182
  N  N1402  1  0.106150  0.140860  0.729830  1.0  -0.3253
  N  N1403  1  0.124820  0.645070  0.207360  1.0  -0.018
  N  N1404  1  0.106150  0.640860  0.229830  1.0  -0.3253
  N  N1405  1  0.624820  0.145070  0.207360  1.0  -0.0182
  N  N1406  1  0.606150  0.140860  0.229830  1.0  -0.3253
  N  N1407  1  0.624820  0.645070  0.707360  1.0  -0.018
  N  N1408  1  0.606150  0.640860  0.729830  1.0  -0.3253
  N  N1409  1  0.292640  0.875180  0.145070  1.0  -0.0148
  N  N1410  1  0.270170  0.893850  0.140860  1.0  -0.3302
  N  N1411  1  0.292640  0.375180  0.645070  1.0  -0.0146
  N  N1412  1  0.270170  0.393850  0.640860  1.0  -0.3302
  N  N1413  1  0.792640  0.875180  0.645070  1.0  -0.0146
  N  N1414  1  0.770170  0.893850  0.640860  1.0  -0.3302
  N  N1415  1  0.792640  0.375180  0.145070  1.0  -0.0146
  N  N1416  1  0.770170  0.393850  0.140860  1.0  -0.3302
  N  N1417  1  0.707360  0.875180  0.854930  1.0  -0.0162
  N  N1418  1  0.729830  0.893850  0.859140  1.0  -0.3319
  N  N1419  1  0.707360  0.375180  0.354930  1.0  -0.0162
  N  N1420  1  0.729830  0.393850  0.359140  1.0  -0.3319
  N  N1421  1  0.207360  0.875180  0.354930  1.0  -0.016
  N  N1422  1  0.229830  0.893850  0.359140  1.0  -0.3319
  N  N1423  1  0.207360  0.375180  0.854930  1.0  -0.016
  N  N1424  1  0.229830  0.393850  0.859140  1.0  -0.3319
  N  N1425  1  0.292640  0.124820  0.854930  1.0  -0.0165
  N  N1426  1  0.270170  0.106150  0.859140  1.0  -0.3329
  N  N1427  1  0.292640  0.624820  0.354930  1.0  -0.0167
  N  N1428  1  0.270170  0.606150  0.359140  1.0  -0.3329
  N  N1429  1  0.792640  0.124820  0.354930  1.0  -0.0165
  N  N1430  1  0.770170  0.106150  0.359140  1.0  -0.3329
  N  N1431  1  0.792640  0.624820  0.854930  1.0  -0.0165
  N  N1432  1  0.770170  0.606150  0.859140  1.0  -0.3329
  N  N1433  1  0.707360  0.124820  0.145070  1.0  -0.0162
  N  N1434  1  0.729830  0.106150  0.140860  1.0  -0.3328
  N  N1435  1  0.707360  0.624820  0.645070  1.0  -0.0162
  N  N1436  1  0.729830  0.606150  0.640860  1.0  -0.3328
  N  N1437  1  0.207360  0.124820  0.645070  1.0  -0.016
  N  N1438  1  0.229830  0.106150  0.640860  1.0  -0.3328
  N  N1439  1  0.207360  0.624820  0.145070  1.0  -0.016
  N  N1440  1  0.229830  0.606150  0.140860  1.0  -0.3328
  N  N1441  1  0.292640  0.145070  0.124820  1.0  -0.0184
  N  N1442  1  0.270170  0.140860  0.106150  1.0  -0.3282
  N  N1443  1  0.292640  0.645070  0.624820  1.0  -0.0184
  N  N1444  1  0.270170  0.640860  0.606150  1.0  -0.3282
  N  N1445  1  0.792640  0.145070  0.624820  1.0  -0.0182
  N  N1446  1  0.770170  0.140860  0.606150  1.0  -0.3282
  N  N1447  1  0.792640  0.645070  0.124820  1.0  -0.0182
  N  N1448  1  0.770170  0.640860  0.106150  1.0  -0.3282
  N  N1449  1  0.707360  0.854930  0.124820  1.0  -0.0196
  N  N1450  1  0.729830  0.859140  0.106150  1.0  -0.3301
  N  N1451  1  0.707360  0.354930  0.624820  1.0  -0.0196
  N  N1452  1  0.729830  0.359140  0.606150  1.0  -0.3301
  N  N1453  1  0.207360  0.854930  0.624820  1.0  -0.0194
  N  N1454  1  0.229830  0.859140  0.606150  1.0  -0.3301
  N  N1455  1  0.207360  0.354930  0.124820  1.0  -0.0196
  N  N1456  1  0.229830  0.359140  0.106150  1.0  -0.3301
  N  N1457  1  0.292640  0.854930  0.875180  1.0  -0.0173
  N  N1458  1  0.270170  0.859140  0.893850  1.0  -0.3295
  N  N1459  1  0.292640  0.354930  0.375180  1.0  -0.0173
  N  N1460  1  0.270170  0.359140  0.393850  1.0  -0.3295
  N  N1461  1  0.792640  0.854930  0.375180  1.0  -0.0171
  N  N1462  1  0.770170  0.859140  0.393850  1.0  -0.3295
  N  N1463  1  0.792640  0.354930  0.875180  1.0  -0.0171
  N  N1464  1  0.770170  0.359140  0.893850  1.0  -0.3295
  N  N1465  1  0.707360  0.145070  0.875180  1.0  -0.0189
  N  N1466  1  0.729830  0.140860  0.893850  1.0  -0.3292
  N  N1467  1  0.707360  0.645070  0.375180  1.0  -0.0189
  N  N1468  1  0.729830  0.640860  0.393850  1.0  -0.3292
  N  N1469  1  0.207360  0.145070  0.375180  1.0  -0.0189
  N  N1470  1  0.229830  0.140860  0.393850  1.0  -0.3292
  N  N1471  1  0.207360  0.645070  0.875180  1.0  -0.0187
  N  N1472  1  0.229830  0.640860  0.893850  1.0  -0.3292
  N  N1473  1  0.145070  0.875180  0.707360  1.0  -0.0211
  N  N1474  1  0.140860  0.893850  0.729830  1.0  -0.3289
  N  N1475  1  0.145070  0.375180  0.207360  1.0  -0.0211
  N  N1476  1  0.140860  0.393850  0.229830  1.0  -0.3289
  N  N1477  1  0.645070  0.875180  0.207360  1.0  -0.0209
  N  N1478  1  0.640860  0.893850  0.229830  1.0  -0.3289
  N  N1479  1  0.645070  0.375180  0.707360  1.0  -0.0209
  N  N1480  1  0.640860  0.393850  0.729830  1.0  -0.3289
  N  N1481  1  0.854930  0.875180  0.292640  1.0  -0.0196
  N  N1482  1  0.859140  0.893850  0.270170  1.0  -0.3275
  N  N1483  1  0.854930  0.375180  0.792640  1.0  -0.0196
  N  N1484  1  0.859140  0.393850  0.770170  1.0  -0.3275
  N  N1485  1  0.354930  0.875180  0.792640  1.0  -0.0193
  N  N1486  1  0.359140  0.893850  0.770170  1.0  -0.3275
  N  N1487  1  0.354930  0.375180  0.292640  1.0  -0.0196
  N  N1488  1  0.359140  0.393850  0.270170  1.0  -0.3275
  N  N1489  1  0.854930  0.124820  0.707360  1.0  -0.0197
  N  N1490  1  0.859140  0.106150  0.729830  1.0  -0.3288
  N  N1491  1  0.854930  0.624820  0.207360  1.0  -0.0197
  N  N1492  1  0.859140  0.606150  0.229830  1.0  -0.3288
  N  N1493  1  0.354930  0.124820  0.207360  1.0  -0.0197
  N  N1494  1  0.359140  0.106150  0.229830  1.0  -0.3288
  N  N1495  1  0.354930  0.624820  0.707360  1.0  -0.0195
  N  N1496  1  0.359140  0.606150  0.729830  1.0  -0.3288
  N  N1497  1  0.145070  0.124820  0.292640  1.0  -0.0205
  N  N1498  1  0.140860  0.106150  0.270170  1.0  -0.3306
  N  N1499  1  0.145070  0.624820  0.792640  1.0  -0.0205
  N  N1500  1  0.140860  0.606150  0.770170  1.0  -0.3306
  N  N1501  1  0.645070  0.124820  0.792640  1.0  -0.0203
  N  N1502  1  0.640860  0.106150  0.770170  1.0  -0.3306
  N  N1503  1  0.645070  0.624820  0.292640  1.0  -0.0203
  N  N1504  1  0.640860  0.606150  0.270170  1.0  -0.3306
  N  N1505  1  0.875180  0.292640  0.854930  1.0  -0.0153
  N  N1506  1  0.893850  0.270170  0.859140  1.0  -0.3302
  N  N1507  1  0.875180  0.792640  0.354930  1.0  -0.0152
  N  N1508  1  0.893850  0.770170  0.359140  1.0  -0.3302
  N  N1509  1  0.375180  0.292640  0.354930  1.0  -0.0152
  N  N1510  1  0.393850  0.270170  0.359140  1.0  -0.3302
  N  N1511  1  0.375180  0.792640  0.854930  1.0  -0.0152
  N  N1512  1  0.393850  0.770170  0.859140  1.0  -0.3302
  N  N1513  1  0.875180  0.707360  0.145070  1.0  -0.0143
  N  N1514  1  0.893850  0.729830  0.140860  1.0  -0.328
  N  N1515  1  0.875180  0.207360  0.645070  1.0  -0.0142
  N  N1516  1  0.893850  0.229830  0.640860  1.0  -0.328
  N  N1517  1  0.375180  0.707360  0.645070  1.0  -0.0142
  N  N1518  1  0.393850  0.729830  0.640860  1.0  -0.328
  N  N1519  1  0.375180  0.207360  0.145070  1.0  -0.0142
  N  N1520  1  0.393850  0.229830  0.140860  1.0  -0.328
  N  N1521  1  0.124820  0.292640  0.145070  1.0  -0.0161
  N  N1522  1  0.106150  0.270170  0.140860  1.0  -0.3282
  N  N1523  1  0.124820  0.792640  0.645070  1.0  -0.0161
  N  N1524  1  0.106150  0.770170  0.640860  1.0  -0.3282
  N  N1525  1  0.624820  0.292640  0.645070  1.0  -0.0161
  N  N1526  1  0.606150  0.270170  0.640860  1.0  -0.3282
  N  N1527  1  0.624820  0.792640  0.145070  1.0  -0.0161
  N  N1528  1  0.606150  0.770170  0.140860  1.0  -0.3282
  N  N1529  1  0.124820  0.707360  0.854930  1.0  -0.0162
  N  N1530  1  0.106150  0.729830  0.859140  1.0  -0.3273
  N  N1531  1  0.124820  0.207360  0.354930  1.0  -0.016
  N  N1532  1  0.106150  0.229830  0.359140  1.0  -0.3273
  N  N1533  1  0.624820  0.707360  0.354930  1.0  -0.016
  N  N1534  1  0.606150  0.729830  0.359140  1.0  -0.3273
  N  N1535  1  0.624820  0.207360  0.854930  1.0  -0.016
  N  N1536  1  0.606150  0.229830  0.859140  1.0  -0.3273
  N  N1537  1  0.854930  0.707360  0.124820  1.0  -0.0194
  N  N1538  1  0.859140  0.729830  0.106150  1.0  -0.3252
  N  N1539  1  0.854930  0.207360  0.624820  1.0  -0.0195
  N  N1540  1  0.859140  0.229830  0.606150  1.0  -0.3252
  N  N1541  1  0.354930  0.707360  0.624820  1.0  -0.0195
  N  N1542  1  0.359140  0.729830  0.606150  1.0  -0.3252
  N  N1543  1  0.354930  0.207360  0.124820  1.0  -0.0195
  N  N1544  1  0.359140  0.229830  0.106150  1.0  -0.3252
  N  N1545  1  0.145070  0.292640  0.124820  1.0  -0.0211
  N  N1546  1  0.140860  0.270170  0.106150  1.0  -0.329
  N  N1547  1  0.145070  0.792640  0.624820  1.0  -0.0211
  N  N1548  1  0.140860  0.770170  0.606150  1.0  -0.329
  N  N1549  1  0.645070  0.292640  0.624820  1.0  -0.0211
  N  N1550  1  0.640860  0.270170  0.606150  1.0  -0.329
  N  N1551  1  0.645070  0.792640  0.124820  1.0  -0.0211
  N  N1552  1  0.640860  0.770170  0.106150  1.0  -0.329
  N  N1553  1  0.145070  0.707360  0.875180  1.0  -0.0204
  N  N1554  1  0.140860  0.729830  0.893850  1.0  -0.3281
  N  N1555  1  0.145070  0.207360  0.375180  1.0  -0.0204
  N  N1556  1  0.140860  0.229830  0.393850  1.0  -0.3281
  N  N1557  1  0.645070  0.707360  0.375180  1.0  -0.0204
  N  N1558  1  0.640860  0.729830  0.393850  1.0  -0.3281
  N  N1559  1  0.645070  0.207360  0.875180  1.0  -0.0204
  N  N1560  1  0.640860  0.229830  0.893850  1.0  -0.3281
  N  N1561  1  0.854930  0.292640  0.875180  1.0  -0.0195
  N  N1562  1  0.859140  0.270170  0.893850  1.0  -0.3263
  N  N1563  1  0.854930  0.792640  0.375180  1.0  -0.0195
  N  N1564  1  0.859140  0.770170  0.393850  1.0  -0.3263
  N  N1565  1  0.354930  0.292640  0.375180  1.0  -0.0195
  N  N1566  1  0.359140  0.270170  0.393850  1.0  -0.3263
  N  N1567  1  0.354930  0.792640  0.875180  1.0  -0.0195
  N  N1568  1  0.359140  0.770170  0.893850  1.0  -0.3263
  N  N1569  1  0.124820  0.854930  0.707360  1.0  -0.0176
  N  N1570  1  0.106150  0.859140  0.729830  1.0  -0.327
  N  N1571  1  0.124820  0.354930  0.207360  1.0  -0.0176
  N  N1572  1  0.106150  0.359140  0.229830  1.0  -0.327
  N  N1573  1  0.624820  0.854930  0.207360  1.0  -0.0178
  N  N1574  1  0.606150  0.859140  0.229830  1.0  -0.327
  N  N1575  1  0.624820  0.354930  0.707360  1.0  -0.0178
  N  N1576  1  0.606150  0.359140  0.729830  1.0  -0.327
  N  N1577  1  0.124820  0.145070  0.292640  1.0  -0.0179
  N  N1578  1  0.106150  0.140860  0.270170  1.0  -0.3252
  N  N1579  1  0.124820  0.645070  0.792640  1.0  -0.0179
  N  N1580  1  0.106150  0.640860  0.770170  1.0  -0.3252
  N  N1581  1  0.624820  0.145070  0.792640  1.0  -0.0179
  N  N1582  1  0.606150  0.140860  0.770170  1.0  -0.3252
  N  N1583  1  0.624820  0.645070  0.292640  1.0  -0.0179
  N  N1584  1  0.606150  0.640860  0.270170  1.0  -0.3252
  N  N1585  1  0.875180  0.145070  0.707360  1.0  -0.0168
  N  N1586  1  0.893850  0.140860  0.729830  1.0  -0.3261
  N  N1587  1  0.875180  0.645070  0.207360  1.0  -0.0168
  N  N1588  1  0.893850  0.640860  0.229830  1.0  -0.3261
  N  N1589  1  0.375180  0.145070  0.207360  1.0  -0.0168
  N  N1590  1  0.393850  0.140860  0.229830  1.0  -0.3261
  N  N1591  1  0.375180  0.645070  0.707360  1.0  -0.017
  N  N1592  1  0.393850  0.640860  0.729830  1.0  -0.3261
  N  N1593  1  0.875180  0.854930  0.292640  1.0  -0.0169
  N  N1594  1  0.893850  0.859140  0.270170  1.0  -0.3272
  N  N1595  1  0.875180  0.354930  0.792640  1.0  -0.0169
  N  N1596  1  0.893850  0.359140  0.770170  1.0  -0.3272
  N  N1597  1  0.375180  0.854930  0.792640  1.0  -0.0169
  N  N1598  1  0.393850  0.859140  0.770170  1.0  -0.3272
  N  N1599  1  0.375180  0.354930  0.292640  1.0  -0.0169
  N  N1600  1  0.393850  0.359140  0.270170  1.0  -0.3272
  N  N1601  1  0.707360  0.124820  0.854930  1.0  -0.0167
  N  N1602  1  0.729830  0.106150  0.859140  1.0  -0.332
  N  N1603  1  0.707360  0.624820  0.354930  1.0  -0.0167
  N  N1604  1  0.729830  0.606150  0.359140  1.0  -0.332
  N  N1605  1  0.207360  0.124820  0.354930  1.0  -0.0167
  N  N1606  1  0.229830  0.106150  0.359140  1.0  -0.332
  N  N1607  1  0.207360  0.624820  0.854930  1.0  -0.0168
  N  N1608  1  0.229830  0.606150  0.859140  1.0  -0.332
  N  N1609  1  0.292640  0.124820  0.145070  1.0  -0.0141
  N  N1610  1  0.270170  0.106150  0.140860  1.0  -0.3318
  N  N1611  1  0.292640  0.624820  0.645070  1.0  -0.0141
  N  N1612  1  0.270170  0.606150  0.640860  1.0  -0.3318
  N  N1613  1  0.792640  0.124820  0.645070  1.0  -0.0141
  N  N1614  1  0.770170  0.106150  0.640860  1.0  -0.3318
  N  N1615  1  0.792640  0.624820  0.145070  1.0  -0.0141
  N  N1616  1  0.770170  0.606150  0.140860  1.0  -0.3318
  N  N1617  1  0.707360  0.875180  0.145070  1.0  -0.0159
  N  N1618  1  0.729830  0.893850  0.140860  1.0  -0.3312
  N  N1619  1  0.707360  0.375180  0.645070  1.0  -0.0159
  N  N1620  1  0.729830  0.393850  0.640860  1.0  -0.3312
  N  N1621  1  0.207360  0.875180  0.645070  1.0  -0.016
  N  N1622  1  0.229830  0.893850  0.640860  1.0  -0.3312
  N  N1623  1  0.207360  0.375180  0.145070  1.0  -0.0159
  N  N1624  1  0.229830  0.393850  0.140860  1.0  -0.3312
  N  N1625  1  0.292640  0.875180  0.854930  1.0  -0.0151
  N  N1626  1  0.270170  0.893850  0.859140  1.0  -0.3312
  N  N1627  1  0.292640  0.375180  0.354930  1.0  -0.0151
  N  N1628  1  0.270170  0.393850  0.359140  1.0  -0.3312
  N  N1629  1  0.792640  0.875180  0.354930  1.0  -0.0152
  N  N1630  1  0.770170  0.893850  0.359140  1.0  -0.3312
  N  N1631  1  0.792640  0.375180  0.854930  1.0  -0.0152
  N  N1632  1  0.770170  0.393850  0.859140  1.0  -0.3312
  N  N1633  1  0.707360  0.854930  0.875180  1.0  -0.0182
  N  N1634  1  0.729830  0.859140  0.893850  1.0  -0.3291
  N  N1635  1  0.707360  0.354930  0.375180  1.0  -0.0182
  N  N1636  1  0.729830  0.359140  0.393850  1.0  -0.3291
  N  N1637  1  0.207360  0.854930  0.375180  1.0  -0.0182
  N  N1638  1  0.229830  0.859140  0.393850  1.0  -0.3291
  N  N1639  1  0.207360  0.354930  0.875180  1.0  -0.0182
  N  N1640  1  0.229830  0.359140  0.893850  1.0  -0.3291
  N  N1641  1  0.292640  0.145070  0.875180  1.0  -0.0178
  N  N1642  1  0.270170  0.140860  0.893850  1.0  -0.3284
  N  N1643  1  0.292640  0.645070  0.375180  1.0  -0.0178
  N  N1644  1  0.270170  0.640860  0.393850  1.0  -0.3284
  N  N1645  1  0.792640  0.145070  0.375180  1.0  -0.0178
  N  N1646  1  0.770170  0.140860  0.393850  1.0  -0.3284
  N  N1647  1  0.792640  0.645070  0.875180  1.0  -0.0178
  N  N1648  1  0.770170  0.640860  0.893850  1.0  -0.3284
  N  N1649  1  0.707360  0.145070  0.124820  1.0  -0.0179
  N  N1650  1  0.729830  0.140860  0.106150  1.0  -0.3287
  N  N1651  1  0.707360  0.645070  0.624820  1.0  -0.0179
  N  N1652  1  0.729830  0.640860  0.606150  1.0  -0.3287
  N  N1653  1  0.207360  0.145070  0.624820  1.0  -0.018
  N  N1654  1  0.229830  0.140860  0.606150  1.0  -0.3287
  N  N1655  1  0.207360  0.645070  0.124820  1.0  -0.018
  N  N1656  1  0.229830  0.640860  0.106150  1.0  -0.3287
  N  N1657  1  0.292640  0.854930  0.124820  1.0  -0.0179
  N  N1658  1  0.270170  0.859140  0.106150  1.0  -0.33
  N  N1659  1  0.292640  0.354930  0.624820  1.0  -0.0179
  N  N1660  1  0.270170  0.359140  0.606150  1.0  -0.33
  N  N1661  1  0.792640  0.854930  0.624820  1.0  -0.0179
  N  N1662  1  0.770170  0.859140  0.606150  1.0  -0.33
  N  N1663  1  0.792640  0.354930  0.124820  1.0  -0.0179
  N  N1664  1  0.770170  0.359140  0.106150  1.0  -0.33
  N  N1665  1  0.854930  0.124820  0.292640  1.0  -0.0194
  N  N1666  1  0.859140  0.106150  0.270170  1.0  -0.3284
  N  N1667  1  0.854930  0.624820  0.792640  1.0  -0.0195
  N  N1668  1  0.859140  0.606150  0.770170  1.0  -0.3284
  N  N1669  1  0.354930  0.124820  0.792640  1.0  -0.0194
  N  N1670  1  0.359140  0.106150  0.770170  1.0  -0.3284
  N  N1671  1  0.354930  0.624820  0.292640  1.0  -0.0195
  N  N1672  1  0.359140  0.606150  0.270170  1.0  -0.3284
  N  N1673  1  0.145070  0.124820  0.707360  1.0  -0.0211
  N  N1674  1  0.140860  0.106150  0.729830  1.0  -0.3302
  N  N1675  1  0.145070  0.624820  0.207360  1.0  -0.0212
  N  N1676  1  0.140860  0.606150  0.229830  1.0  -0.3302
  N  N1677  1  0.645070  0.124820  0.207360  1.0  -0.0211
  N  N1678  1  0.640860  0.106150  0.229830  1.0  -0.3302
  N  N1679  1  0.645070  0.624820  0.707360  1.0  -0.0212
  N  N1680  1  0.640860  0.606150  0.729830  1.0  -0.3302
  N  N1681  1  0.145070  0.875180  0.292640  1.0  -0.0201
  N  N1682  1  0.140860  0.893850  0.270170  1.0  -0.3282
  N  N1683  1  0.145070  0.375180  0.792640  1.0  -0.0201
  N  N1684  1  0.140860  0.393850  0.770170  1.0  -0.3282
  N  N1685  1  0.645070  0.875180  0.792640  1.0  -0.0201
  N  N1686  1  0.640860  0.893850  0.770170  1.0  -0.3282
  N  N1687  1  0.645070  0.375180  0.292640  1.0  -0.0201
  N  N1688  1  0.640860  0.393850  0.270170  1.0  -0.3282
  N  N1689  1  0.854930  0.875180  0.707360  1.0  -0.018
  N  N1690  1  0.859140  0.893850  0.729830  1.0  -0.3271
  N  N1691  1  0.854930  0.375180  0.207360  1.0  -0.018
  N  N1692  1  0.859140  0.393850  0.229830  1.0  -0.3271
  N  N1693  1  0.354930  0.875180  0.207360  1.0  -0.018
  N  N1694  1  0.359140  0.893850  0.229830  1.0  -0.3271
  N  N1695  1  0.354930  0.375180  0.707360  1.0  -0.0181
  N  N1696  1  0.359140  0.393850  0.729830  1.0  -0.3271
  N  N1697  1  0.124820  0.707360  0.145070  1.0  -0.0145
  N  N1698  1  0.106150  0.729830  0.140860  1.0  -0.328
  N  N1699  1  0.124820  0.207360  0.645070  1.0  -0.0145
  N  N1700  1  0.106150  0.229830  0.640860  1.0  -0.328
  N  N1701  1  0.624820  0.707360  0.645070  1.0  -0.0145
  N  N1702  1  0.606150  0.729830  0.640860  1.0  -0.328
  N  N1703  1  0.624820  0.207360  0.145070  1.0  -0.0145
  N  N1704  1  0.606150  0.229830  0.140860  1.0  -0.328
  N  N1705  1  0.124820  0.292640  0.854930  1.0  -0.0154
  N  N1706  1  0.106150  0.270170  0.859140  1.0  -0.3271
  N  N1707  1  0.124820  0.792640  0.354930  1.0  -0.0154
  N  N1708  1  0.106150  0.770170  0.359140  1.0  -0.3271
  N  N1709  1  0.624820  0.292640  0.354930  1.0  -0.0155
  N  N1710  1  0.606150  0.270170  0.359140  1.0  -0.3271
  N  N1711  1  0.624820  0.792640  0.854930  1.0  -0.0155
  N  N1712  1  0.606150  0.770170  0.859140  1.0  -0.3271
  N  N1713  1  0.875180  0.707360  0.854930  1.0  -0.0148
  N  N1714  1  0.893850  0.729830  0.859140  1.0  -0.3288
  N  N1715  1  0.875180  0.207360  0.354930  1.0  -0.0148
  N  N1716  1  0.893850  0.229830  0.359140  1.0  -0.3288
  N  N1717  1  0.375180  0.707360  0.354930  1.0  -0.0148
  N  N1718  1  0.393850  0.729830  0.359140  1.0  -0.3288
  N  N1719  1  0.375180  0.207360  0.854930  1.0  -0.0148
  N  N1720  1  0.393850  0.229830  0.859140  1.0  -0.3288
  N  N1721  1  0.875180  0.292640  0.145070  1.0  -0.0149
  N  N1722  1  0.893850  0.270170  0.140860  1.0  -0.3274
  N  N1723  1  0.875180  0.792640  0.645070  1.0  -0.0149
  N  N1724  1  0.893850  0.770170  0.640860  1.0  -0.3274
  N  N1725  1  0.375180  0.292640  0.645070  1.0  -0.0149
  N  N1726  1  0.393850  0.270170  0.640860  1.0  -0.3274
  N  N1727  1  0.375180  0.792640  0.145070  1.0  -0.0149
  N  N1728  1  0.393850  0.770170  0.140860  1.0  -0.3274
  O  O1729  1  0.143470  0.186870  0.969120  1.0  -0.5593
  O  O1730  1  0.107980  0.151370  0.969150  1.0  -0.5613
  O  O1731  1  0.143470  0.686870  0.469120  1.0  -0.5593
  O  O1732  1  0.107980  0.651370  0.469150  1.0  -0.5613
  O  O1733  1  0.643470  0.186870  0.469120  1.0  -0.5593
  O  O1734  1  0.607980  0.151370  0.469150  1.0  -0.5613
  O  O1735  1  0.643470  0.686870  0.969120  1.0  -0.5593
  O  O1736  1  0.607980  0.651370  0.969150  1.0  -0.5613
  O  O1737  1  0.856530  0.813130  0.969120  1.0  -0.559
  O  O1738  1  0.892020  0.848630  0.969150  1.0  -0.5618
  O  O1739  1  0.856530  0.313130  0.469120  1.0  -0.559
  O  O1740  1  0.892020  0.348630  0.469150  1.0  -0.5618
  O  O1741  1  0.356530  0.813130  0.469120  1.0  -0.559
  O  O1742  1  0.392020  0.848630  0.469150  1.0  -0.5618
  O  O1743  1  0.356530  0.313130  0.969120  1.0  -0.559
  O  O1744  1  0.392020  0.348630  0.969150  1.0  -0.5618
  O  O1745  1  0.856530  0.186870  0.030880  1.0  -0.5588
  O  O1746  1  0.892020  0.151370  0.030850  1.0  -0.5618
  O  O1747  1  0.856530  0.686870  0.530880  1.0  -0.5588
  O  O1748  1  0.892020  0.651370  0.530850  1.0  -0.5618
  O  O1749  1  0.356530  0.186870  0.530880  1.0  -0.5588
  O  O1750  1  0.392020  0.151370  0.530850  1.0  -0.5618
  O  O1751  1  0.356530  0.686870  0.030880  1.0  -0.5588
  O  O1752  1  0.392020  0.651370  0.030850  1.0  -0.5618
  O  O1753  1  0.143470  0.813130  0.030880  1.0  -0.5592
  O  O1754  1  0.107980  0.848630  0.030850  1.0  -0.5611
  O  O1755  1  0.143470  0.313130  0.530880  1.0  -0.5591
  O  O1756  1  0.107980  0.348630  0.530850  1.0  -0.5616
  O  O1757  1  0.643470  0.813130  0.530880  1.0  -0.5591
  O  O1758  1  0.607980  0.848630  0.530850  1.0  -0.5616
  O  O1759  1  0.643470  0.313130  0.030880  1.0  -0.5592
  O  O1760  1  0.607980  0.348630  0.030850  1.0  -0.5611
  O  O1761  1  0.969120  0.143470  0.186870  1.0  -0.5578
  O  O1762  1  0.969150  0.107980  0.151370  1.0  -0.5604
  O  O1763  1  0.969120  0.643470  0.686870  1.0  -0.5578
  O  O1764  1  0.969150  0.607980  0.651370  1.0  -0.5609
  O  O1765  1  0.469120  0.143470  0.686870  1.0  -0.558
  O  O1766  1  0.469150  0.107980  0.651370  1.0  -0.5609
  O  O1767  1  0.469120  0.643470  0.186870  1.0  -0.5578
  O  O1768  1  0.469150  0.607980  0.151370  1.0  -0.5604
  O  O1769  1  0.969120  0.856530  0.813130  1.0  -0.5585
  O  O1770  1  0.969150  0.892020  0.848630  1.0  -0.5605
  O  O1771  1  0.969120  0.356530  0.313130  1.0  -0.5585
  O  O1772  1  0.969150  0.392020  0.348630  1.0  -0.5605
  O  O1773  1  0.469120  0.856530  0.313130  1.0  -0.5585
  O  O1774  1  0.469150  0.892020  0.348630  1.0  -0.5605
  O  O1775  1  0.469120  0.356530  0.813130  1.0  -0.5585
  O  O1776  1  0.469150  0.392020  0.848630  1.0  -0.5605
  O  O1777  1  0.030880  0.856530  0.186870  1.0  -0.5586
  O  O1778  1  0.030850  0.892020  0.151370  1.0  -0.5608
  O  O1779  1  0.030880  0.356530  0.686870  1.0  -0.5586
  O  O1780  1  0.030850  0.392020  0.651370  1.0  -0.5608
  O  O1781  1  0.530880  0.856530  0.686870  1.0  -0.5586
  O  O1782  1  0.530850  0.892020  0.651370  1.0  -0.5608
  O  O1783  1  0.530880  0.356530  0.186870  1.0  -0.5586
  O  O1784  1  0.530850  0.392020  0.151370  1.0  -0.5608
  O  O1785  1  0.030880  0.143470  0.813130  1.0  -0.5584
  O  O1786  1  0.030850  0.107980  0.848630  1.0  -0.5604
  O  O1787  1  0.030880  0.643470  0.313130  1.0  -0.5584
  O  O1788  1  0.030850  0.607980  0.348630  1.0  -0.5604
  O  O1789  1  0.530880  0.143470  0.313130  1.0  -0.5583
  O  O1790  1  0.530850  0.107980  0.348630  1.0  -0.5607
  O  O1791  1  0.530880  0.643470  0.813130  1.0  -0.5583
  O  O1792  1  0.530850  0.607980  0.848630  1.0  -0.5607
  O  O1793  1  0.186870  0.969120  0.143470  1.0  -0.5576
  O  O1794  1  0.151370  0.969150  0.107980  1.0  -0.5606
  O  O1795  1  0.186870  0.469120  0.643470  1.0  -0.5576
  O  O1796  1  0.151370  0.469150  0.607980  1.0  -0.5606
  O  O1797  1  0.686870  0.969120  0.643470  1.0  -0.5576
  O  O1798  1  0.651370  0.969150  0.607980  1.0  -0.5606
  O  O1799  1  0.686870  0.469120  0.143470  1.0  -0.5576
  O  O1800  1  0.651370  0.469150  0.107980  1.0  -0.5606
  O  O1801  1  0.813130  0.969120  0.856530  1.0  -0.5576
  O  O1802  1  0.848630  0.969150  0.892020  1.0  -0.5611
  O  O1803  1  0.813130  0.469120  0.356530  1.0  -0.5576
  O  O1804  1  0.848630  0.469150  0.392020  1.0  -0.5611
  O  O1805  1  0.313130  0.969120  0.356530  1.0  -0.5576
  O  O1806  1  0.348630  0.969150  0.392020  1.0  -0.5611
  O  O1807  1  0.313130  0.469120  0.856530  1.0  -0.5576
  O  O1808  1  0.348630  0.469150  0.892020  1.0  -0.5611
  O  O1809  1  0.186870  0.030880  0.856530  1.0  -0.5578
  O  O1810  1  0.151370  0.030850  0.892020  1.0  -0.561
  O  O1811  1  0.186870  0.530880  0.356530  1.0  -0.5578
  O  O1812  1  0.151370  0.530850  0.392020  1.0  -0.561
  O  O1813  1  0.686870  0.030880  0.356530  1.0  -0.5578
  O  O1814  1  0.651370  0.030850  0.392020  1.0  -0.561
  O  O1815  1  0.686870  0.530880  0.856530  1.0  -0.5578
  O  O1816  1  0.651370  0.530850  0.892020  1.0  -0.561
  O  O1817  1  0.813130  0.030880  0.143470  1.0  -0.5575
  O  O1818  1  0.848630  0.030850  0.107980  1.0  -0.5618
  O  O1819  1  0.813130  0.530880  0.643470  1.0  -0.5575
  O  O1820  1  0.848630  0.530850  0.607980  1.0  -0.5612
  O  O1821  1  0.313130  0.030880  0.643470  1.0  -0.5573
  O  O1822  1  0.348630  0.030850  0.607980  1.0  -0.5618
  O  O1823  1  0.313130  0.530880  0.143470  1.0  -0.5575
  O  O1824  1  0.348630  0.530850  0.107980  1.0  -0.5618
  O  O1825  1  0.186870  0.143470  0.030880  1.0  -0.5583
  O  O1826  1  0.151370  0.107980  0.030850  1.0  -0.5615
  O  O1827  1  0.186870  0.643470  0.530880  1.0  -0.5583
  O  O1828  1  0.151370  0.607980  0.530850  1.0  -0.5615
  O  O1829  1  0.686870  0.143470  0.530880  1.0  -0.5583
  O  O1830  1  0.651370  0.107980  0.530850  1.0  -0.5615
  O  O1831  1  0.686870  0.643470  0.030880  1.0  -0.5583
  O  O1832  1  0.651370  0.607980  0.030850  1.0  -0.5615
  O  O1833  1  0.813130  0.856530  0.030880  1.0  -0.5584
  O  O1834  1  0.848630  0.892020  0.030850  1.0  -0.5618
  O  O1835  1  0.813130  0.356530  0.530880  1.0  -0.5584
  O  O1836  1  0.848630  0.392020  0.530850  1.0  -0.5618
  O  O1837  1  0.313130  0.856530  0.530880  1.0  -0.5584
  O  O1838  1  0.348630  0.892020  0.530850  1.0  -0.5618
  O  O1839  1  0.313130  0.356530  0.030880  1.0  -0.5584
  O  O1840  1  0.348630  0.392020  0.030850  1.0  -0.5618
  O  O1841  1  0.186870  0.856530  0.969120  1.0  -0.5587
  O  O1842  1  0.151370  0.892020  0.969150  1.0  -0.5615
  O  O1843  1  0.186870  0.356530  0.469120  1.0  -0.5587
  O  O1844  1  0.151370  0.392020  0.469150  1.0  -0.5615
  O  O1845  1  0.686870  0.856530  0.469120  1.0  -0.5587
  O  O1846  1  0.651370  0.892020  0.469150  1.0  -0.5615
  O  O1847  1  0.686870  0.356530  0.969120  1.0  -0.5587
  O  O1848  1  0.651370  0.392020  0.969150  1.0  -0.5615
  O  O1849  1  0.813130  0.143470  0.969120  1.0  -0.5586
  O  O1850  1  0.848630  0.107980  0.969150  1.0  -0.5616
  O  O1851  1  0.813130  0.643470  0.469120  1.0  -0.5586
  O  O1852  1  0.848630  0.607980  0.469150  1.0  -0.5616
  O  O1853  1  0.313130  0.143470  0.469120  1.0  -0.5586
  O  O1854  1  0.348630  0.107980  0.469150  1.0  -0.5616
  O  O1855  1  0.313130  0.643470  0.969120  1.0  -0.5586
  O  O1856  1  0.348630  0.607980  0.969150  1.0  -0.5616
  O  O1857  1  0.143470  0.969120  0.813130  1.0  -0.5582
  O  O1858  1  0.107980  0.969150  0.848630  1.0  -0.5598
  O  O1859  1  0.143470  0.469120  0.313130  1.0  -0.5582
  O  O1860  1  0.107980  0.469150  0.348630  1.0  -0.5598
  O  O1861  1  0.643470  0.969120  0.313130  1.0  -0.5582
  O  O1862  1  0.607980  0.969150  0.348630  1.0  -0.5598
  O  O1863  1  0.643470  0.469120  0.813130  1.0  -0.5582
  O  O1864  1  0.607980  0.469150  0.848630  1.0  -0.5598
  O  O1865  1  0.856530  0.969120  0.186870  1.0  -0.558
  O  O1866  1  0.892020  0.969150  0.151370  1.0  -0.5594
  O  O1867  1  0.856530  0.469120  0.686870  1.0  -0.5582
  O  O1868  1  0.892020  0.469150  0.651370  1.0  -0.5594
  O  O1869  1  0.356530  0.969120  0.686870  1.0  -0.558
  O  O1870  1  0.392020  0.969150  0.651370  1.0  -0.5594
  O  O1871  1  0.356530  0.469120  0.186870  1.0  -0.558
  O  O1872  1  0.392020  0.469150  0.151370  1.0  -0.5594
  O  O1873  1  0.856530  0.030880  0.813130  1.0  -0.5581
  O  O1874  1  0.892020  0.030850  0.848630  1.0  -0.5601
  O  O1875  1  0.856530  0.530880  0.313130  1.0  -0.5581
  O  O1876  1  0.892020  0.530850  0.348630  1.0  -0.5601
  O  O1877  1  0.356530  0.030880  0.313130  1.0  -0.5581
  O  O1878  1  0.392020  0.030850  0.348630  1.0  -0.5601
  O  O1879  1  0.356530  0.530880  0.813130  1.0  -0.5581
  O  O1880  1  0.392020  0.530850  0.848630  1.0  -0.5601
  O  O1881  1  0.143470  0.030880  0.186870  1.0  -0.5579
  O  O1882  1  0.107980  0.030850  0.151370  1.0  -0.5602
  O  O1883  1  0.143470  0.530880  0.686870  1.0  -0.5579
  O  O1884  1  0.107980  0.530850  0.651370  1.0  -0.5602
  O  O1885  1  0.643470  0.030880  0.686870  1.0  -0.5579
  O  O1886  1  0.607980  0.030850  0.651370  1.0  -0.5602
  O  O1887  1  0.643470  0.530880  0.186870  1.0  -0.5579
  O  O1888  1  0.607980  0.530850  0.151370  1.0  -0.5602
  O  O1889  1  0.969120  0.186870  0.856530  1.0  -0.558
  O  O1890  1  0.969150  0.151370  0.892020  1.0  -0.561
  O  O1891  1  0.969120  0.686870  0.356530  1.0  -0.558
  O  O1892  1  0.969150  0.651370  0.392020  1.0  -0.561
  O  O1893  1  0.469120  0.186870  0.356530  1.0  -0.558
  O  O1894  1  0.469150  0.151370  0.392020  1.0  -0.561
  O  O1895  1  0.469120  0.686870  0.856530  1.0  -0.558
  O  O1896  1  0.469150  0.651370  0.892020  1.0  -0.561
  O  O1897  1  0.969120  0.813130  0.143470  1.0  -0.5578
  O  O1898  1  0.969150  0.848630  0.107980  1.0  -0.5606
  O  O1899  1  0.969120  0.313130  0.643470  1.0  -0.5578
  O  O1900  1  0.969150  0.348630  0.607980  1.0  -0.5606
  O  O1901  1  0.469120  0.813130  0.643470  1.0  -0.5578
  O  O1902  1  0.469150  0.848630  0.607980  1.0  -0.5606
  O  O1903  1  0.469120  0.313130  0.143470  1.0  -0.5578
  O  O1904  1  0.469150  0.348630  0.107980  1.0  -0.5606
  O  O1905  1  0.030880  0.186870  0.143470  1.0  -0.5581
  O  O1906  1  0.030850  0.151370  0.107980  1.0  -0.5611
  O  O1907  1  0.030880  0.686870  0.643470  1.0  -0.5579
  O  O1908  1  0.030850  0.651370  0.607980  1.0  -0.5611
  O  O1909  1  0.530880  0.186870  0.643470  1.0  -0.5579
  O  O1910  1  0.530850  0.151370  0.607980  1.0  -0.5611
  O  O1911  1  0.530880  0.686870  0.143470  1.0  -0.5579
  O  O1912  1  0.530850  0.651370  0.107980  1.0  -0.5611
  O  O1913  1  0.030880  0.813130  0.856530  1.0  -0.5584
  O  O1914  1  0.030850  0.848630  0.892020  1.0  -0.5606
  O  O1915  1  0.030880  0.313130  0.356530  1.0  -0.5582
  O  O1916  1  0.030850  0.348630  0.392020  1.0  -0.5606
  O  O1917  1  0.530880  0.813130  0.356530  1.0  -0.5582
  O  O1918  1  0.530850  0.848630  0.392020  1.0  -0.5606
  O  O1919  1  0.530880  0.313130  0.856530  1.0  -0.5582
  O  O1920  1  0.530850  0.348630  0.892020  1.0  -0.5606
  O  O1921  1  0.856530  0.813130  0.030880  1.0  -0.5594
  O  O1922  1  0.892020  0.848630  0.030850  1.0  -0.5611
  O  O1923  1  0.856530  0.313130  0.530880  1.0  -0.5594
  O  O1924  1  0.892020  0.348630  0.530850  1.0  -0.5611
  O  O1925  1  0.356530  0.813130  0.530880  1.0  -0.5594
  O  O1926  1  0.392020  0.848630  0.530850  1.0  -0.5611
  O  O1927  1  0.356530  0.313130  0.030880  1.0  -0.5594
  O  O1928  1  0.392020  0.348630  0.030850  1.0  -0.5611
  O  O1929  1  0.143470  0.186870  0.030880  1.0  -0.5596
  O  O1930  1  0.107980  0.151370  0.030850  1.0  -0.5611
  O  O1931  1  0.143470  0.686870  0.530880  1.0  -0.5596
  O  O1932  1  0.107980  0.651370  0.530850  1.0  -0.5611
  O  O1933  1  0.643470  0.186870  0.530880  1.0  -0.5596
  O  O1934  1  0.607980  0.151370  0.530850  1.0  -0.5611
  O  O1935  1  0.643470  0.686870  0.030880  1.0  -0.5596
  O  O1936  1  0.607980  0.651370  0.030850  1.0  -0.5611
  O  O1937  1  0.143470  0.813130  0.969120  1.0  -0.5593
  O  O1938  1  0.107980  0.848630  0.969150  1.0  -0.5612
  O  O1939  1  0.143470  0.313130  0.469120  1.0  -0.5593
  O  O1940  1  0.107980  0.348630  0.469150  1.0  -0.5612
  O  O1941  1  0.643470  0.813130  0.469120  1.0  -0.5593
  O  O1942  1  0.607980  0.848630  0.469150  1.0  -0.5612
  O  O1943  1  0.643470  0.313130  0.969120  1.0  -0.5593
  O  O1944  1  0.607980  0.348630  0.969150  1.0  -0.5612
  O  O1945  1  0.856530  0.186870  0.969120  1.0  -0.5589
  O  O1946  1  0.892020  0.151370  0.969150  1.0  -0.5613
  O  O1947  1  0.856530  0.686870  0.469120  1.0  -0.5589
  O  O1948  1  0.892020  0.651370  0.469150  1.0  -0.5613
  O  O1949  1  0.356530  0.186870  0.469120  1.0  -0.5589
  O  O1950  1  0.392020  0.151370  0.469150  1.0  -0.5613
  O  O1951  1  0.356530  0.686870  0.969120  1.0  -0.5589
  O  O1952  1  0.392020  0.651370  0.969150  1.0  -0.5613
  O  O1953  1  0.030880  0.856530  0.813130  1.0  -0.5592
  O  O1954  1  0.030850  0.892020  0.848630  1.0  -0.5601
  O  O1955  1  0.030880  0.356530  0.313130  1.0  -0.5592
  O  O1956  1  0.030850  0.392020  0.348630  1.0  -0.5601
  O  O1957  1  0.530880  0.856530  0.313130  1.0  -0.5592
  O  O1958  1  0.530850  0.892020  0.348630  1.0  -0.5601
  O  O1959  1  0.530880  0.356530  0.813130  1.0  -0.5592
  O  O1960  1  0.530850  0.392020  0.848630  1.0  -0.5601
  O  O1961  1  0.030880  0.143470  0.186870  1.0  -0.5582
  O  O1962  1  0.030850  0.107980  0.151370  1.0  -0.5604
  O  O1963  1  0.030880  0.643470  0.686870  1.0  -0.5584
  O  O1964  1  0.030850  0.607980  0.651370  1.0  -0.5604
  O  O1965  1  0.530880  0.143470  0.686870  1.0  -0.5584
  O  O1966  1  0.530850  0.107980  0.651370  1.0  -0.5604
  O  O1967  1  0.530880  0.643470  0.186870  1.0  -0.5584
  O  O1968  1  0.530850  0.607980  0.151370  1.0  -0.5604
  O  O1969  1  0.969120  0.143470  0.813130  1.0  -0.5583
  O  O1970  1  0.969150  0.107980  0.848630  1.0  -0.5604
  O  O1971  1  0.969120  0.643470  0.313130  1.0  -0.5583
  O  O1972  1  0.969150  0.607980  0.348630  1.0  -0.5604
  O  O1973  1  0.469120  0.143470  0.313130  1.0  -0.5583
  O  O1974  1  0.469150  0.107980  0.348630  1.0  -0.5604
  O  O1975  1  0.469120  0.643470  0.813130  1.0  -0.5583
  O  O1976  1  0.469150  0.607980  0.848630  1.0  -0.5604
  O  O1977  1  0.969120  0.856530  0.186870  1.0  -0.5583
  O  O1978  1  0.969150  0.892020  0.151370  1.0  -0.5604
  O  O1979  1  0.969120  0.356530  0.686870  1.0  -0.5583
  O  O1980  1  0.969150  0.392020  0.651370  1.0  -0.5604
  O  O1981  1  0.469120  0.856530  0.686870  1.0  -0.5583
  O  O1982  1  0.469150  0.892020  0.651370  1.0  -0.5604
  O  O1983  1  0.469120  0.356530  0.186870  1.0  -0.5583
  O  O1984  1  0.469150  0.392020  0.151370  1.0  -0.5604
  O  O1985  1  0.813130  0.030880  0.856530  1.0  -0.5581
  O  O1986  1  0.848630  0.030850  0.892020  1.0  -0.5608
  O  O1987  1  0.813130  0.530880  0.356530  1.0  -0.5579
  O  O1988  1  0.848630  0.530850  0.392020  1.0  -0.5608
  O  O1989  1  0.313130  0.030880  0.356530  1.0  -0.5581
  O  O1990  1  0.348630  0.030850  0.392020  1.0  -0.5608
  O  O1991  1  0.313130  0.530880  0.856530  1.0  -0.5581
  O  O1992  1  0.348630  0.530850  0.892020  1.0  -0.5608
  O  O1993  1  0.186870  0.030880  0.143470  1.0  -0.5578
  O  O1994  1  0.151370  0.030850  0.107980  1.0  -0.5606
  O  O1995  1  0.186870  0.530880  0.643470  1.0  -0.558
  O  O1996  1  0.151370  0.530850  0.607980  1.0  -0.5606
  O  O1997  1  0.686870  0.030880  0.643470  1.0  -0.558
  O  O1998  1  0.651370  0.030850  0.607980  1.0  -0.5606
  O  O1999  1  0.686870  0.530880  0.143470  1.0  -0.558
  O  O2000  1  0.651370  0.530850  0.107980  1.0  -0.5606
  O  O2001  1  0.813130  0.969120  0.143470  1.0  -0.5576
  O  O2002  1  0.848630  0.969150  0.107980  1.0  -0.5607
  O  O2003  1  0.813130  0.469120  0.643470  1.0  -0.5576
  O  O2004  1  0.848630  0.469150  0.607980  1.0  -0.5607
  O  O2005  1  0.313130  0.969120  0.643470  1.0  -0.5576
  O  O2006  1  0.348630  0.969150  0.607980  1.0  -0.5607
  O  O2007  1  0.313130  0.469120  0.143470  1.0  -0.5576
  O  O2008  1  0.348630  0.469150  0.107980  1.0  -0.5607
  O  O2009  1  0.186870  0.969120  0.856530  1.0  -0.5574
  O  O2010  1  0.151370  0.969150  0.892020  1.0  -0.5604
  O  O2011  1  0.186870  0.469120  0.356530  1.0  -0.5574
  O  O2012  1  0.151370  0.469150  0.392020  1.0  -0.5605
  O  O2013  1  0.686870  0.969120  0.356530  1.0  -0.5574
  O  O2014  1  0.651370  0.969150  0.392020  1.0  -0.5604
  O  O2015  1  0.686870  0.469120  0.856530  1.0  -0.5574
  O  O2016  1  0.651370  0.469150  0.892020  1.0  -0.5604
  O  O2017  1  0.813130  0.856530  0.969120  1.0  -0.5584
  O  O2018  1  0.848630  0.892020  0.969150  1.0  -0.5618
  O  O2019  1  0.813130  0.356530  0.469120  1.0  -0.5584
  O  O2020  1  0.848630  0.392020  0.469150  1.0  -0.5618
  O  O2021  1  0.313130  0.856530  0.469120  1.0  -0.5584
  O  O2022  1  0.348630  0.892020  0.469150  1.0  -0.5618
  O  O2023  1  0.313130  0.356530  0.969120  1.0  -0.5584
  O  O2024  1  0.348630  0.392020  0.969150  1.0  -0.5618
  O  O2025  1  0.186870  0.143470  0.969120  1.0  -0.5589
  O  O2026  1  0.151370  0.107980  0.969150  1.0  -0.5615
  O  O2027  1  0.186870  0.643470  0.469120  1.0  -0.5589
  O  O2028  1  0.151370  0.607980  0.469150  1.0  -0.5615
  O  O2029  1  0.686870  0.143470  0.469120  1.0  -0.5589
  O  O2030  1  0.651370  0.107980  0.469150  1.0  -0.5615
  O  O2031  1  0.686870  0.643470  0.969120  1.0  -0.5589
  O  O2032  1  0.651370  0.607980  0.969150  1.0  -0.5615
  O  O2033  1  0.813130  0.143470  0.030880  1.0  -0.5586
  O  O2034  1  0.848630  0.107980  0.030850  1.0  -0.5616
  O  O2035  1  0.813130  0.643470  0.530880  1.0  -0.5588
  O  O2036  1  0.848630  0.607980  0.530850  1.0  -0.5616
  O  O2037  1  0.313130  0.143470  0.530880  1.0  -0.5588
  O  O2038  1  0.348630  0.107980  0.530850  1.0  -0.5616
  O  O2039  1  0.313130  0.643470  0.030880  1.0  -0.5586
  O  O2040  1  0.348630  0.607980  0.030850  1.0  -0.5616
  O  O2041  1  0.186870  0.856530  0.030880  1.0  -0.5589
  O  O2042  1  0.151370  0.892020  0.030850  1.0  -0.5614
  O  O2043  1  0.186870  0.356530  0.530880  1.0  -0.5589
  O  O2044  1  0.151370  0.392020  0.530850  1.0  -0.5614
  O  O2045  1  0.686870  0.856530  0.530880  1.0  -0.5589
  O  O2046  1  0.651370  0.892020  0.530850  1.0  -0.5614
  O  O2047  1  0.686870  0.356530  0.030880  1.0  -0.5589
  O  O2048  1  0.651370  0.392020  0.030850  1.0  -0.5614
  O  O2049  1  0.856530  0.030880  0.186870  1.0  -0.5581
  O  O2050  1  0.892020  0.030850  0.151370  1.0  -0.5601
  O  O2051  1  0.856530  0.530880  0.686870  1.0  -0.5581
  O  O2052  1  0.892020  0.530850  0.651370  1.0  -0.5601
  O  O2053  1  0.356530  0.030880  0.686870  1.0  -0.5581
  O  O2054  1  0.392020  0.030850  0.651370  1.0  -0.5601
  O  O2055  1  0.356530  0.530880  0.186870  1.0  -0.5581
  O  O2056  1  0.392020  0.530850  0.151370  1.0  -0.5601
  O  O2057  1  0.143470  0.030880  0.813130  1.0  -0.5589
  O  O2058  1  0.107980  0.030850  0.848630  1.0  -0.5599
  O  O2059  1  0.143470  0.530880  0.313130  1.0  -0.5589
  O  O2060  1  0.107980  0.530850  0.348630  1.0  -0.5599
  O  O2061  1  0.643470  0.030880  0.313130  1.0  -0.5589
  O  O2062  1  0.607980  0.030850  0.348630  1.0  -0.5599
  O  O2063  1  0.643470  0.530880  0.813130  1.0  -0.5589
  O  O2064  1  0.607980  0.530850  0.848630  1.0  -0.5599
  O  O2065  1  0.143470  0.969120  0.186870  1.0  -0.5582
  O  O2066  1  0.107980  0.969150  0.151370  1.0  -0.5599
  O  O2067  1  0.143470  0.469120  0.686870  1.0  -0.558
  O  O2068  1  0.107980  0.469150  0.651370  1.0  -0.5599
  O  O2069  1  0.643470  0.969120  0.686870  1.0  -0.5582
  O  O2070  1  0.607980  0.969150  0.651370  1.0  -0.5599
  O  O2071  1  0.643470  0.469120  0.186870  1.0  -0.5582
  O  O2072  1  0.607980  0.469150  0.151370  1.0  -0.5599
  O  O2073  1  0.856530  0.969120  0.813130  1.0  -0.5579
  O  O2074  1  0.892020  0.969150  0.848630  1.0  -0.5597
  O  O2075  1  0.856530  0.469120  0.313130  1.0  -0.5577
  O  O2076  1  0.892020  0.469150  0.348630  1.0  -0.5597
  O  O2077  1  0.356530  0.969120  0.313130  1.0  -0.5579
  O  O2078  1  0.392020  0.969150  0.348630  1.0  -0.5597
  O  O2079  1  0.356530  0.469120  0.813130  1.0  -0.5579
  O  O2080  1  0.392020  0.469150  0.848630  1.0  -0.5597
  O  O2081  1  0.030880  0.813130  0.143470  1.0  -0.5583
  O  O2082  1  0.030850  0.848630  0.107980  1.0  -0.5606
  O  O2083  1  0.030880  0.313130  0.643470  1.0  -0.5583
  O  O2084  1  0.030850  0.348630  0.607980  1.0  -0.5606
  O  O2085  1  0.530880  0.813130  0.643470  1.0  -0.5585
  O  O2086  1  0.530850  0.848630  0.607980  1.0  -0.5605
  O  O2087  1  0.530880  0.313130  0.143470  1.0  -0.5583
  O  O2088  1  0.530850  0.348630  0.107980  1.0  -0.5605
  O  O2089  1  0.030880  0.186870  0.856530  1.0  -0.5584
  O  O2090  1  0.030850  0.151370  0.892020  1.0  -0.561
  O  O2091  1  0.030880  0.686870  0.356530  1.0  -0.5584
  O  O2092  1  0.030850  0.651370  0.392020  1.0  -0.561
  O  O2093  1  0.530880  0.186870  0.356530  1.0  -0.5584
  O  O2094  1  0.530850  0.151370  0.392020  1.0  -0.561
  O  O2095  1  0.530880  0.686870  0.856530  1.0  -0.5584
  O  O2096  1  0.530850  0.651370  0.892020  1.0  -0.561
  O  O2097  1  0.969120  0.813130  0.856530  1.0  -0.558
  O  O2098  1  0.969150  0.848630  0.892020  1.0  -0.5604
  O  O2099  1  0.969120  0.313130  0.356530  1.0  -0.558
  O  O2100  1  0.969150  0.348630  0.392020  1.0  -0.5604
  O  O2101  1  0.469120  0.813130  0.356530  1.0  -0.558
  O  O2102  1  0.469150  0.848630  0.392020  1.0  -0.5604
  O  O2103  1  0.469120  0.313130  0.856530  1.0  -0.558
  O  O2104  1  0.469150  0.348630  0.892020  1.0  -0.5604
  O  O2105  1  0.969120  0.186870  0.143470  1.0  -0.5579
  O  O2106  1  0.969150  0.151370  0.107980  1.0  -0.5611
  O  O2107  1  0.969120  0.686870  0.643470  1.0  -0.5579
  O  O2108  1  0.969150  0.651370  0.607980  1.0  -0.5611
  O  O2109  1  0.469120  0.186870  0.643470  1.0  -0.5579
  O  O2110  1  0.469150  0.151370  0.607980  1.0  -0.5611
  O  O2111  1  0.469120  0.686870  0.143470  1.0  -0.5579
  O  O2112  1  0.469150  0.651370  0.107980  1.0  -0.5611
  O  O2113  1  0.165190  0.334810  0.834810  1.0  -0.7628
  O  O2114  1  0.834810  0.665190  0.834810  1.0  -0.7638
  O  O2115  1  0.834810  0.165190  0.334810  1.0  -0.7638
  O  O2116  1  0.334810  0.165190  0.834810  1.0  -0.7638
  O  O2117  1  0.834810  0.334810  0.165190  1.0  -0.764
  O  O2118  1  0.334810  0.334810  0.665190  1.0  -0.764
  O  O2119  1  0.165190  0.665190  0.165190  1.0  -0.7633
  O  O2120  1  0.334810  0.665190  0.334810  1.0  -0.7638
  O  O2121  1  0.834810  0.834810  0.665190  1.0  -0.764
  O  O2122  1  0.334810  0.834810  0.165190  1.0  -0.764
  O  O2123  1  0.165190  0.834810  0.334810  1.0  -0.7628
  O  O2124  1  0.165190  0.165190  0.665190  1.0  -0.7633
  O  O2125  1  0.665190  0.834810  0.834810  1.0  -0.7628
  O  O2126  1  0.665190  0.334810  0.334810  1.0  -0.7628
  O  O2127  1  0.665190  0.165190  0.165190  1.0  -0.7633
  O  O2128  1  0.665190  0.665190  0.665190  1.0  -0.7633
  O  O2129  1  0.334810  0.165190  0.165190  1.0  -0.7642
  O  O2130  1  0.334810  0.665190  0.665190  1.0  -0.7642
  O  O2131  1  0.665190  0.834810  0.165190  1.0  -0.763
  O  O2132  1  0.665190  0.334810  0.665190  1.0  -0.763
  O  O2133  1  0.165190  0.334810  0.165190  1.0  -0.763
  O  O2134  1  0.334810  0.834810  0.834810  1.0  -0.7638
  O  O2135  1  0.334810  0.334810  0.334810  1.0  -0.7638
  O  O2136  1  0.665190  0.165190  0.834810  1.0  -0.7629
  O  O2137  1  0.665190  0.665190  0.334810  1.0  -0.7629
  O  O2138  1  0.165190  0.165190  0.334810  1.0  -0.7629
  O  O2139  1  0.165190  0.834810  0.665190  1.0  -0.763
  O  O2140  1  0.834810  0.834810  0.334810  1.0  -0.7638
  O  O2141  1  0.834810  0.165190  0.665190  1.0  -0.7642
  O  O2142  1  0.834810  0.334810  0.834810  1.0  -0.7638
  O  O2143  1  0.834810  0.665190  0.165190  1.0  -0.7642
  O  O2144  1  0.165190  0.665190  0.834810  1.0  -0.7629
