# generated using pymatgen
data_Zn3H74C102(NO4)6
_symmetry_space_group_name_H-M   'P 1'
_cell_length_a   20.37560000
_cell_length_b   28.39270000
_cell_length_c   28.39270000
_cell_angle_alpha   90.00000000
_cell_angle_beta   90.00000000
_cell_angle_gamma   90.00000000
_symmetry_Int_Tables_number   1
_chemical_formula_structural   Zn3H74C102(NO4)6
_chemical_formula_sum   'Zn12 H296 C408 N24 O96'
_cell_volume   16425.69648303
_cell_formula_units_Z   4
loop_
 _symmetry_equiv_pos_site_id
 _symmetry_equiv_pos_as_xyz
  1  'x, y, z'
loop_
 _atom_site_type_symbol
 _atom_site_label
 _atom_site_symmetry_multiplicity
 _atom_site_fract_x
 _atom_site_fract_y
 _atom_site_fract_z
 _atom_site_occupancy
 _atom_site_charge
  Zn  Zn1  1  0.641700  0.083510  0.781220  1.0  0.8888
  Zn  Zn2  1  0.141700  0.916490  0.218780  1.0  0.8878
  Zn  Zn3  1  0.891700  0.718780  0.583510  1.0  0.8862
  Zn  Zn4  1  0.391700  0.281220  0.416490  1.0  0.8878
  Zn  Zn5  1  0.608300  0.416490  0.281220  1.0  0.8893
  Zn  Zn6  1  0.108300  0.583510  0.718780  1.0  0.8864
  Zn  Zn7  1  0.358300  0.781220  0.083510  1.0  0.8856
  Zn  Zn8  1  0.858300  0.218780  0.916490  1.0  0.8858
  Zn  Zn9  1  0.750000  0.147970  0.852030  1.0  1.1753
  Zn  Zn10  1  0.250000  0.852030  0.147970  1.0  1.1743
  Zn  Zn11  1  0.000000  0.647970  0.647970  1.0  1.1753
  Zn  Zn12  1  0.500000  0.352030  0.352030  1.0  1.1743
  H  H13  1  0.538900  0.110500  0.661200  1.0  0.1101
  H  H14  1  0.539600  0.126700  0.608400  1.0  0.0974
  H  H15  1  0.645500  0.111300  0.662700  1.0  0.0984
  H  H16  1  0.710700  0.133900  0.594700  1.0  0.1067
  H  H17  1  0.647200  0.152400  0.569300  1.0  0.0963
  H  H18  1  0.705300  0.045300  0.619700  1.0  0.0934
  H  H19  1  0.697200  0.973400  0.590400  1.0  0.1064
  H  H20  1  0.638000  0.959700  0.525300  1.0  0.1202
  H  H21  1  0.565600  0.022100  0.498300  1.0  0.1254
  H  H22  1  0.593600  0.098100  0.522600  1.0  0.0858
  H  H23  1  0.074400  0.482600  0.800200  1.0  0.1043
  H  H24  1  0.069700  0.429100  0.814000  1.0  0.1106
  H  H25  1  0.082900  0.460400  0.722200  1.0  0.1089
  H  H26  1  0.031600  0.369200  0.737600  1.0  0.1114
  H  H27  1  0.069900  0.385900  0.692800  1.0  0.1005
  H  H28  1  0.156500  0.329300  0.806100  1.0  0.1086
  H  H29  1  0.268000  0.322600  0.791000  1.0  0.107
  H  H30  1  0.312800  0.357700  0.724600  1.0  0.1083
  H  H31  1  0.246000  0.399400  0.673200  1.0  0.0991
  H  H32  1  0.134500  0.406100  0.688300  1.0  0.1198
  H  H33  1  0.812000  0.522100  0.365700  1.0  0.1329
  H  H34  1  0.757600  0.506900  0.329000  1.0  0.0902
  H  H35  1  0.808500  0.470200  0.399700  1.0  0.0929
  H  H36  1  0.792900  0.394900  0.356600  1.0  0.142
  H  H37  1  0.800600  0.429700  0.314900  1.0  0.1704
  H  H38  1  0.828200  0.411900  0.541900  1.0  0.118
  H  H39  1  0.854100  0.337600  0.661100  1.0  0.0916
  H  H40  1  0.741500  0.284600  0.558900  1.0  0.1129
  H  H41  1  0.856000  0.267500  0.690500  1.0  0.1277
  H  H42  1  0.820800  0.205800  0.739700  1.0  0.1082
  H  H43  1  0.694900  0.249300  0.613500  1.0  0.1132
  H  H44  1  0.886000  0.463800  0.565100  1.0  0.1279
  H  H45  1  0.942000  0.523000  0.592200  1.0  0.104
  H  H46  1  0.914900  0.392200  0.685600  1.0  0.1045
  H  H47  1  0.692900  0.295900  0.494400  1.0  0.1102
  H  H48  1  0.648600  0.305400  0.422600  1.0  0.0976
  H  H49  1  0.785600  0.416400  0.481700  1.0  0.1137
  H  H50  1  0.038900  0.889500  0.338800  1.0  0.1088
  H  H51  1  0.039600  0.873300  0.391600  1.0  0.098
  H  H52  1  0.145500  0.888700  0.337300  1.0  0.0983
  H  H53  1  0.210700  0.866100  0.405300  1.0  0.1055
  H  H54  1  0.147200  0.847600  0.430700  1.0  0.0963
  H  H55  1  0.205300  0.954700  0.380300  1.0  0.0945
  H  H56  1  0.197200  0.026600  0.409600  1.0  0.1059
  H  H57  1  0.138000  0.040300  0.474700  1.0  0.1209
  H  H58  1  0.065600  0.977900  0.501700  1.0  0.1254
  H  H59  1  0.093600  0.901900  0.477400  1.0  0.0867
  H  H60  1  0.574400  0.517400  0.199800  1.0  0.1051
  H  H61  1  0.569700  0.570900  0.186000  1.0  0.1105
  H  H62  1  0.582900  0.539600  0.277800  1.0  0.109
  H  H63  1  0.531600  0.630800  0.262400  1.0  0.1106
  H  H64  1  0.569900  0.614100  0.307200  1.0  0.1033
  H  H65  1  0.656500  0.670700  0.193900  1.0  0.1079
  H  H66  1  0.768000  0.677400  0.209000  1.0  0.1062
  H  H67  1  0.812800  0.642300  0.275400  1.0  0.1077
  H  H68  1  0.746000  0.600600  0.326800  1.0  0.0999
  H  H69  1  0.634500  0.593900  0.311700  1.0  0.1224
  H  H70  1  0.312000  0.477900  0.634300  1.0  0.1308
  H  H71  1  0.257600  0.493100  0.671000  1.0  0.0908
  H  H72  1  0.308500  0.529800  0.600300  1.0  0.0957
  H  H73  1  0.292900  0.605100  0.643400  1.0  0.1452
  H  H74  1  0.300600  0.570300  0.685100  1.0  0.1713
  H  H75  1  0.328200  0.588100  0.458100  1.0  0.1188
  H  H76  1  0.354100  0.662400  0.338900  1.0  0.091
  H  H77  1  0.241500  0.715400  0.441100  1.0  0.1125
  H  H78  1  0.356000  0.732500  0.309500  1.0  0.1277
  H  H79  1  0.320800  0.794200  0.260300  1.0  0.1088
  H  H80  1  0.194900  0.750700  0.386500  1.0  0.1129
  H  H81  1  0.386000  0.536200  0.434900  1.0  0.1269
  H  H82  1  0.442000  0.477000  0.407800  1.0  0.1036
  H  H83  1  0.414900  0.607800  0.314400  1.0  0.1057
  H  H84  1  0.192900  0.704100  0.505600  1.0  0.1113
  H  H85  1  0.148600  0.694600  0.577400  1.0  0.098
  H  H86  1  0.285600  0.583600  0.518300  1.0  0.1137
  H  H87  1  0.788900  0.838800  0.610500  1.0  0.1071
  H  H88  1  0.789600  0.891600  0.626700  1.0  0.0984
  H  H89  1  0.895500  0.837300  0.611300  1.0  0.0981
  H  H90  1  0.960700  0.905300  0.633900  1.0  0.1055
  H  H91  1  0.897200  0.930700  0.652400  1.0  0.0962
  H  H92  1  0.955300  0.880300  0.545300  1.0  0.0937
  H  H93  1  0.947200  0.909600  0.473400  1.0  0.1075
  H  H94  1  0.888000  0.974700  0.459700  1.0  0.1203
  H  H95  1  0.815600  0.001700  0.522100  1.0  0.1261
  H  H96  1  0.843600  0.977400  0.598100  1.0  0.0856
  H  H97  1  0.324400  0.699800  0.982600  1.0  0.1056
  H  H98  1  0.319700  0.686000  0.929100  1.0  0.1098
  H  H99  1  0.332900  0.777800  0.960400  1.0  0.1081
  H  H100  1  0.281600  0.762400  0.869200  1.0  0.1127
  H  H101  1  0.319900  0.807200  0.885900  1.0  0.0993
  H  H102  1  0.406500  0.693900  0.829300  1.0  0.1083
  H  H103  1  0.518000  0.709000  0.822600  1.0  0.107
  H  H104  1  0.562800  0.775400  0.857700  1.0  0.1081
  H  H105  1  0.496000  0.826800  0.899400  1.0  0.0984
  H  H106  1  0.384500  0.811700  0.906100  1.0  0.1211
  H  H107  1  0.062000  0.134300  0.022100  1.0  0.1321
  H  H108  1  0.007600  0.171000  0.006900  1.0  0.09
  H  H109  1  0.058500  0.100300  0.970200  1.0  0.0938
  H  H110  1  0.042900  0.143400  0.894900  1.0  0.1433
  H  H111  1  0.050600  0.185100  0.929700  1.0  0.1665
  H  H112  1  0.078200  0.958100  0.911900  1.0  0.1186
  H  H113  1  0.104100  0.838900  0.837600  1.0  0.0914
  H  H114  1  0.991500  0.941100  0.784600  1.0  0.1129
  H  H115  1  0.106000  0.809500  0.767500  1.0  0.1267
  H  H116  1  0.070800  0.760300  0.705800  1.0  0.1085
  H  H117  1  0.944900  0.886500  0.749300  1.0  0.114
  H  H118  1  0.136000  0.934900  0.963800  1.0  0.1275
  H  H119  1  0.192000  0.907800  0.023000  1.0  0.1029
  H  H120  1  0.164900  0.814400  0.892200  1.0  0.1062
  H  H121  1  0.942900  0.005600  0.795900  1.0  0.1118
  H  H122  1  0.898600  0.077400  0.805400  1.0  0.0993
  H  H123  1  0.035600  0.018300  0.916400  1.0  0.1118
  H  H124  1  0.288900  0.161200  0.389500  1.0  0.1096
  H  H125  1  0.289600  0.108400  0.373300  1.0  0.0979
  H  H126  1  0.395500  0.162700  0.388700  1.0  0.0972
  H  H127  1  0.460700  0.094700  0.366100  1.0  0.1044
  H  H128  1  0.397200  0.069300  0.347600  1.0  0.0966
  H  H129  1  0.455300  0.119700  0.454700  1.0  0.0936
  H  H130  1  0.447200  0.090400  0.526600  1.0  0.1072
  H  H131  1  0.388000  0.025300  0.540300  1.0  0.1208
  H  H132  1  0.315600  0.998300  0.477900  1.0  0.1258
  H  H133  1  0.343600  0.022600  0.401900  1.0  0.0855
  H  H134  1  0.824400  0.300200  0.017400  1.0  0.1053
  H  H135  1  0.819700  0.314000  0.070900  1.0  0.1106
  H  H136  1  0.832900  0.222200  0.039600  1.0  0.1085
  H  H137  1  0.781600  0.237600  0.130800  1.0  0.1116
  H  H138  1  0.819900  0.192800  0.114100  1.0  0.1
  H  H139  1  0.906500  0.306100  0.170700  1.0  0.1097
  H  H140  1  0.018000  0.291000  0.177400  1.0  0.1064
  H  H141  1  0.062800  0.224600  0.142300  1.0  0.1077
  H  H142  1  0.996000  0.173200  0.100600  1.0  0.0984
  H  H143  1  0.884500  0.188300  0.093900  1.0  0.1204
  H  H144  1  0.562000  0.865700  0.977900  1.0  0.1317
  H  H145  1  0.507600  0.829000  0.993100  1.0  0.088
  H  H146  1  0.558500  0.899700  0.029800  1.0  0.0956
  H  H147  1  0.542900  0.856600  0.105100  1.0  0.1429
  H  H148  1  0.550600  0.814900  0.070300  1.0  0.1661
  H  H149  1  0.578200  0.041900  0.088100  1.0  0.1186
  H  H150  1  0.604100  0.161100  0.162400  1.0  0.0906
  H  H151  1  0.491500  0.058900  0.215400  1.0  0.1132
  H  H152  1  0.606000  0.190500  0.232500  1.0  0.1263
  H  H153  1  0.570800  0.239700  0.294200  1.0  0.109
  H  H154  1  0.444900  0.113500  0.250700  1.0  0.1136
  H  H155  1  0.636000  0.065100  0.036200  1.0  0.128
  H  H156  1  0.692000  0.092200  0.977000  1.0  0.1031
  H  H157  1  0.664900  0.185600  0.107800  1.0  0.1065
  H  H158  1  0.442900  0.994400  0.204100  1.0  0.1112
  H  H159  1  0.398600  0.922600  0.194600  1.0  0.0989
  H  H160  1  0.535600  0.981700  0.083600  1.0  0.1125
  H  H161  1  0.711100  0.389500  0.161200  1.0  0.1093
  H  H162  1  0.710400  0.373300  0.108400  1.0  0.0971
  H  H163  1  0.604500  0.388700  0.162700  1.0  0.0972
  H  H164  1  0.539300  0.366100  0.094700  1.0  0.1097
  H  H165  1  0.602800  0.347600  0.069300  1.0  0.0956
  H  H166  1  0.544700  0.454700  0.119700  1.0  0.0929
  H  H167  1  0.552800  0.526600  0.090400  1.0  0.1062
  H  H168  1  0.612000  0.540300  0.025300  1.0  0.1203
  H  H169  1  0.684400  0.477900  0.998300  1.0  0.1246
  H  H170  1  0.656400  0.401900  0.022600  1.0  0.0859
  H  H171  1  0.175600  0.017400  0.300200  1.0  0.1049
  H  H172  1  0.180300  0.070900  0.314000  1.0  0.1105
  H  H173  1  0.167100  0.039600  0.222200  1.0  0.1095
  H  H174  1  0.218400  0.130800  0.237600  1.0  0.1112
  H  H175  1  0.180100  0.114100  0.192800  1.0  0.1012
  H  H176  1  0.093500  0.170700  0.306100  1.0  0.1082
  H  H177  1  0.982000  0.177400  0.291000  1.0  0.1071
  H  H178  1  0.937200  0.142300  0.224600  1.0  0.1076
  H  H179  1  0.004000  0.100600  0.173200  1.0  0.099
  H  H180  1  0.115500  0.093900  0.188300  1.0  0.1202
  H  H181  1  0.438000  0.977900  0.865700  1.0  0.133
  H  H182  1  0.492400  0.993100  0.829000  1.0  0.0878
  H  H183  1  0.441500  0.029800  0.899700  1.0  0.0917
  H  H184  1  0.457100  0.105100  0.856600  1.0  0.1466
  H  H185  1  0.449400  0.070300  0.814900  1.0  0.1704
  H  H186  1  0.421800  0.088100  0.041900  1.0  0.1191
  H  H187  1  0.395900  0.162400  0.161100  1.0  0.0912
  H  H188  1  0.508500  0.215400  0.058900  1.0  0.1115
  H  H189  1  0.394000  0.232500  0.190500  1.0  0.1277
  H  H190  1  0.429200  0.294200  0.239700  1.0  0.1086
  H  H191  1  0.555100  0.250700  0.113500  1.0  0.1139
  H  H192  1  0.364000  0.036200  0.065100  1.0  0.1279
  H  H193  1  0.308000  0.977000  0.092200  1.0  0.1033
  H  H194  1  0.335100  0.107800  0.185600  1.0  0.1056
  H  H195  1  0.557100  0.204100  0.994400  1.0  0.1111
  H  H196  1  0.601400  0.194600  0.922600  1.0  0.0986
  H  H197  1  0.464400  0.083600  0.981700  1.0  0.1145
  H  H198  1  0.211100  0.610500  0.838800  1.0  0.1081
  H  H199  1  0.210400  0.626700  0.891600  1.0  0.0981
  H  H200  1  0.104500  0.611300  0.837300  1.0  0.0987
  H  H201  1  0.039300  0.633900  0.905300  1.0  0.1105
  H  H202  1  0.102800  0.652400  0.930700  1.0  0.0966
  H  H203  1  0.044700  0.545300  0.880300  1.0  0.0938
  H  H204  1  0.052800  0.473400  0.909600  1.0  0.1061
  H  H205  1  0.112000  0.459700  0.974700  1.0  0.1205
  H  H206  1  0.184400  0.522100  0.001700  1.0  0.1254
  H  H207  1  0.156400  0.598100  0.977400  1.0  0.0873
  H  H208  1  0.675600  0.982600  0.699800  1.0  0.1038
  H  H209  1  0.680300  0.929100  0.686000  1.0  0.1104
  H  H210  1  0.667100  0.960400  0.777800  1.0  0.11
  H  H211  1  0.718400  0.869200  0.762400  1.0  0.1111
  H  H212  1  0.680100  0.885900  0.807200  1.0  0.1028
  H  H213  1  0.593500  0.829300  0.693900  1.0  0.1086
  H  H214  1  0.482000  0.822600  0.709000  1.0  0.1052
  H  H215  1  0.437200  0.857700  0.775400  1.0  0.1063
  H  H216  1  0.504000  0.899400  0.826800  1.0  0.0992
  H  H217  1  0.615500  0.906100  0.811700  1.0  0.1223
  H  H218  1  0.938000  0.022100  0.134300  1.0  0.1338
  H  H219  1  0.992400  0.006900  0.171000  1.0  0.0911
  H  H220  1  0.941500  0.970200  0.100300  1.0  0.093
  H  H221  1  0.957100  0.894900  0.143400  1.0  0.1432
  H  H222  1  0.949400  0.929700  0.185100  1.0  0.1731
  H  H223  1  0.921800  0.911900  0.958100  1.0  0.1196
  H  H224  1  0.895900  0.837600  0.838900  1.0  0.092
  H  H225  1  0.008500  0.784600  0.941100  1.0  0.1123
  H  H226  1  0.894000  0.767500  0.809500  1.0  0.1282
  H  H227  1  0.929200  0.705800  0.760300  1.0  0.1085
  H  H228  1  0.055100  0.749300  0.886500  1.0  0.1129
  H  H229  1  0.864000  0.963800  0.934900  1.0  0.1279
  H  H230  1  0.808000  0.023000  0.907800  1.0  0.1035
  H  H231  1  0.835100  0.892200  0.814400  1.0  0.1051
  H  H232  1  0.057100  0.795900  0.005600  1.0  0.1109
  H  H233  1  0.101400  0.805400  0.077400  1.0  0.0976
  H  H234  1  0.964400  0.916400  0.018300  1.0  0.1135
  H  H235  1  0.461100  0.661200  0.110500  1.0  0.1081
  H  H236  1  0.460400  0.608400  0.126700  1.0  0.0977
  H  H237  1  0.354500  0.662700  0.111300  1.0  0.098
  H  H238  1  0.289300  0.594700  0.133900  1.0  0.1103
  H  H239  1  0.352800  0.569300  0.152400  1.0  0.097
  H  H240  1  0.294700  0.619700  0.045300  1.0  0.0937
  H  H241  1  0.302800  0.590400  0.973400  1.0  0.1067
  H  H242  1  0.362000  0.525300  0.959700  1.0  0.1196
  H  H243  1  0.434400  0.498300  0.022100  1.0  0.1251
  H  H244  1  0.406400  0.522600  0.098100  1.0  0.0861
  H  H245  1  0.925600  0.800200  0.482600  1.0  0.1047
  H  H246  1  0.930300  0.814000  0.429100  1.0  0.1107
  H  H247  1  0.917100  0.722200  0.460400  1.0  0.1093
  H  H248  1  0.968400  0.737600  0.369200  1.0  0.1125
  H  H249  1  0.930100  0.692800  0.385900  1.0  0.0981
  H  H250  1  0.843500  0.806100  0.329300  1.0  0.1092
  H  H251  1  0.732000  0.791000  0.322600  1.0  0.1073
  H  H252  1  0.687200  0.724600  0.357700  1.0  0.1065
  H  H253  1  0.754000  0.673200  0.399400  1.0  0.0984
  H  H254  1  0.865500  0.688300  0.406100  1.0  0.1218
  H  H255  1  0.188000  0.365700  0.522100  1.0  0.1342
  H  H256  1  0.242400  0.329000  0.506900  1.0  0.0868
  H  H257  1  0.191500  0.399700  0.470200  1.0  0.0917
  H  H258  1  0.207100  0.356600  0.394900  1.0  0.1452
  H  H259  1  0.199400  0.314900  0.429700  1.0  0.1677
  H  H260  1  0.171800  0.541900  0.411900  1.0  0.1205
  H  H261  1  0.145900  0.661100  0.337600  1.0  0.0914
  H  H262  1  0.258500  0.558900  0.284600  1.0  0.1122
  H  H263  1  0.144000  0.690500  0.267500  1.0  0.1268
  H  H264  1  0.179200  0.739700  0.205800  1.0  0.1086
  H  H265  1  0.305100  0.613500  0.249300  1.0  0.1134
  H  H266  1  0.114000  0.565100  0.463800  1.0  0.1283
  H  H267  1  0.058000  0.592200  0.523000  1.0  0.1038
  H  H268  1  0.085100  0.685600  0.392200  1.0  0.1064
  H  H269  1  0.307100  0.494400  0.295900  1.0  0.1125
  H  H270  1  0.351400  0.422600  0.305400  1.0  0.0994
  H  H271  1  0.214400  0.481700  0.416400  1.0  0.1128
  H  H272  1  0.961100  0.338800  0.889500  1.0  0.1093
  H  H273  1  0.960400  0.391600  0.873300  1.0  0.0969
  H  H274  1  0.854500  0.337300  0.888700  1.0  0.0976
  H  H275  1  0.789300  0.405300  0.866100  1.0  0.1096
  H  H276  1  0.852800  0.430700  0.847600  1.0  0.0966
  H  H277  1  0.794700  0.380300  0.954700  1.0  0.0928
  H  H278  1  0.802800  0.409600  0.026600  1.0  0.1072
  H  H279  1  0.862000  0.474700  0.040300  1.0  0.1206
  H  H280  1  0.934400  0.501700  0.977900  1.0  0.125
  H  H281  1  0.906400  0.477400  0.901900  1.0  0.0862
  H  H282  1  0.425600  0.199800  0.517400  1.0  0.1039
  H  H283  1  0.430300  0.186000  0.570900  1.0  0.1111
  H  H284  1  0.417100  0.277800  0.539600  1.0  0.1094
  H  H285  1  0.468400  0.262400  0.630800  1.0  0.1125
  H  H286  1  0.430100  0.307200  0.614100  1.0  0.0997
  H  H287  1  0.343500  0.193900  0.670700  1.0  0.1094
  H  H288  1  0.232000  0.209000  0.677400  1.0  0.1071
  H  H289  1  0.187200  0.275400  0.642300  1.0  0.107
  H  H290  1  0.254000  0.326800  0.600600  1.0  0.0985
  H  H291  1  0.365500  0.311700  0.593900  1.0  0.1215
  H  H292  1  0.688000  0.634300  0.477900  1.0  0.1333
  H  H293  1  0.742400  0.671000  0.493100  1.0  0.0896
  H  H294  1  0.691500  0.600300  0.529800  1.0  0.0911
  H  H295  1  0.707100  0.643400  0.605100  1.0  0.146
  H  H296  1  0.699400  0.685100  0.570300  1.0  0.1671
  H  H297  1  0.671800  0.458100  0.588100  1.0  0.119
  H  H298  1  0.645900  0.338900  0.662400  1.0  0.0919
  H  H299  1  0.758500  0.441100  0.715400  1.0  0.1125
  H  H300  1  0.644000  0.309500  0.732500  1.0  0.1269
  H  H301  1  0.679200  0.260300  0.794200  1.0  0.109
  H  H302  1  0.805100  0.386500  0.750700  1.0  0.1137
  H  H303  1  0.614000  0.434900  0.536200  1.0  0.1277
  H  H304  1  0.558000  0.407800  0.477000  1.0  0.103
  H  H305  1  0.585100  0.314400  0.607800  1.0  0.1073
  H  H306  1  0.807100  0.505600  0.704100  1.0  0.111
  H  H307  1  0.851400  0.577400  0.694600  1.0  0.099
  H  H308  1  0.714400  0.518300  0.583600  1.0  0.113
  C  C309  1  0.581500  0.205400  0.666200  1.0  0.4752
  C  C310  1  0.554900  0.134400  0.639800  1.0  0.0258
  C  C311  1  0.628900  0.134800  0.640400  1.0  0.0314
  C  C312  1  0.663800  0.129100  0.591200  1.0  -0.2959
  C  C313  1  0.650500  0.079900  0.572500  1.0  0.1287
  C  C314  1  0.680200  0.040900  0.592800  1.0  -0.1161
  C  C315  1  0.674800  0.998000  0.575900  1.0  -0.1055
  C  C316  1  0.638400  0.989400  0.539100  1.0  -0.1544
  C  C317  1  0.598500  0.027400  0.520400  1.0  -0.1407
  C  C318  1  0.612700  0.072300  0.537500  1.0  -0.1208
  C  C319  1  0.947900  0.461000  0.767200  1.0  0.3607
  C  C320  1  0.050300  0.453700  0.794900  1.0  0.0115
  C  C321  1  0.053200  0.439200  0.739300  1.0  0.0766
  C  C322  1  0.067770  0.388620  0.726830  1.0  -0.2313
  C  C323  1  0.134430  0.368320  0.748670  1.0  -0.0681
  C  C324  1  0.174430  0.343320  0.779450  1.0  -0.0707
  C  C325  1  0.241240  0.339330  0.770430  1.0  -0.1031
  C  C326  1  0.268060  0.360340  0.730620  1.0  -0.0753
  C  C327  1  0.228060  0.385340  0.699830  1.0  -0.1175
  C  C328  1  0.161250  0.389340  0.708860  1.0  -0.0858
  C  C329  1  0.696540  0.486620  0.415600  1.0  0.3362
  C  C330  1  0.770200  0.506080  0.361970  1.0  -0.0556
  C  C331  1  0.773400  0.464240  0.376870  1.0  0.1
  C  C332  1  0.812870  0.424620  0.347560  1.0  -0.029
  C  C333  1  0.821700  0.384750  0.559610  1.0  -0.1117
  C  C334  1  0.851200  0.380200  0.604000  1.0  0.0138
  C  C335  1  0.836100  0.340200  0.631100  1.0  -0.1139
  C  C336  1  0.795600  0.304900  0.615200  1.0  -0.0149
  C  C337  1  0.768600  0.308400  0.570200  1.0  -0.1309
  C  C338  1  0.781800  0.347700  0.541800  1.0  -0.0134
  C  C339  1  0.776800  0.265600  0.646900  1.0  -0.0106
  C  C340  1  0.816300  0.252400  0.684800  1.0  -0.1592
  C  C341  1  0.794200  0.214900  0.714800  1.0  -0.0593
  C  C342  1  0.736300  0.192300  0.708300  1.0  -0.0859
  C  C343  1  0.698800  0.203700  0.669800  1.0  0.2008
  C  C344  1  0.720600  0.241400  0.639400  1.0  -0.1339
  C  C345  1  0.892300  0.418400  0.621800  1.0  0.0377
  C  C346  1  0.903800  0.461400  0.595100  1.0  -0.1108
  C  C347  1  0.937600  0.496400  0.611000  1.0  -0.0743
  C  C348  1  0.968400  0.496300  0.656200  1.0  -0.0958
  C  C349  1  0.958500  0.456500  0.682400  1.0  0.1688
  C  C350  1  0.920800  0.418200  0.666200  1.0  -0.1093
  C  C351  1  0.748700  0.353500  0.494500  1.0  0.1306
  C  C352  1  0.704100  0.322300  0.476800  1.0  -0.0805
  C  C353  1  0.675800  0.329000  0.434400  1.0  -0.0542
  C  C354  1  0.685200  0.368700  0.407600  1.0  -0.0925
  C  C355  1  0.727000  0.403100  0.428000  1.0  0.0906
  C  C356  1  0.757300  0.393800  0.469500  1.0  -0.1039
  C  C357  1  0.717900  0.157000  0.745800  1.0  0.7012
  C  C358  1  0.005400  0.539100  0.671600  1.0  0.7199
  C  C359  1  0.646400  0.376400  0.363900  1.0  0.7026
  C  C360  1  0.081500  0.794600  0.333800  1.0  0.4728
  C  C361  1  0.054900  0.865600  0.360200  1.0  0.0274
  C  C362  1  0.128900  0.865200  0.359600  1.0  0.0315
  C  C363  1  0.163800  0.870900  0.408800  1.0  -0.2959
  C  C364  1  0.150500  0.920100  0.427500  1.0  0.1288
  C  C365  1  0.180200  0.959100  0.407200  1.0  -0.116
  C  C366  1  0.174800  0.002000  0.424100  1.0  -0.1061
  C  C367  1  0.138400  0.010600  0.460900  1.0  -0.1518
  C  C368  1  0.098500  0.972600  0.479600  1.0  -0.1421
  C  C369  1  0.112700  0.927700  0.462500  1.0  -0.1221
  C  C370  1  0.447900  0.539000  0.232800  1.0  0.3608
  C  C371  1  0.550300  0.546300  0.205100  1.0  0.012
  C  C372  1  0.553200  0.560800  0.260700  1.0  0.0764
  C  C373  1  0.567770  0.611380  0.273170  1.0  -0.2317
  C  C374  1  0.634430  0.631680  0.251330  1.0  -0.0664
  C  C375  1  0.674430  0.656680  0.220550  1.0  -0.0671
  C  C376  1  0.741240  0.660670  0.229570  1.0  -0.1048
  C  C377  1  0.768060  0.639660  0.269380  1.0  -0.0729
  C  C378  1  0.728060  0.614660  0.300170  1.0  -0.1169
  C  C379  1  0.661250  0.610660  0.291140  1.0  -0.0852
  C  C380  1  0.196540  0.513380  0.584400  1.0  0.3341
  C  C381  1  0.270200  0.493920  0.638030  1.0  -0.0538
  C  C382  1  0.273400  0.535760  0.623130  1.0  0.0935
  C  C383  1  0.312870  0.575380  0.652440  1.0  -0.0287
  C  C384  1  0.321700  0.615250  0.440390  1.0  -0.1091
  C  C385  1  0.351200  0.619800  0.396000  1.0  0.0153
  C  C386  1  0.336100  0.659800  0.368900  1.0  -0.116
  C  C387  1  0.295600  0.695100  0.384800  1.0  -0.0138
  C  C388  1  0.268600  0.691600  0.429800  1.0  -0.1307
  C  C389  1  0.281800  0.652300  0.458200  1.0  -0.0154
  C  C390  1  0.276800  0.734400  0.353100  1.0  -0.0118
  C  C391  1  0.316300  0.747600  0.315200  1.0  -0.1603
  C  C392  1  0.294200  0.785100  0.285200  1.0  -0.0605
  C  C393  1  0.236300  0.807700  0.291700  1.0  -0.0862
  C  C394  1  0.198800  0.796300  0.330200  1.0  0.2004
  C  C395  1  0.220600  0.758600  0.360600  1.0  -0.1342
  C  C396  1  0.392300  0.581600  0.378200  1.0  0.0376
  C  C397  1  0.403800  0.538600  0.404900  1.0  -0.1093
  C  C398  1  0.437600  0.503600  0.389000  1.0  -0.074
  C  C399  1  0.468400  0.503700  0.343800  1.0  -0.0958
  C  C400  1  0.458500  0.543500  0.317600  1.0  0.1693
  C  C401  1  0.420800  0.581800  0.333800  1.0  -0.1105
  C  C402  1  0.248700  0.646500  0.505500  1.0  0.1306
  C  C403  1  0.204100  0.677700  0.523200  1.0  -0.0809
  C  C404  1  0.175800  0.671000  0.565600  1.0  -0.0549
  C  C405  1  0.185200  0.631300  0.592400  1.0  -0.0907
  C  C406  1  0.227000  0.596900  0.572000  1.0  0.0901
  C  C407  1  0.257300  0.606200  0.530500  1.0  -0.1033
  C  C408  1  0.217900  0.843000  0.254200  1.0  0.7008
  C  C409  1  0.505400  0.460900  0.328400  1.0  0.7203
  C  C410  1  0.146400  0.623600  0.636100  1.0  0.7017
  C  C411  1  0.831500  0.833800  0.705400  1.0  0.4716
  C  C412  1  0.804900  0.860200  0.634400  1.0  0.0267
  C  C413  1  0.878900  0.859600  0.634800  1.0  0.029
  C  C414  1  0.913800  0.908800  0.629100  1.0  -0.2953
  C  C415  1  0.900500  0.927500  0.579900  1.0  0.129
  C  C416  1  0.930200  0.907200  0.540900  1.0  -0.1164
  C  C417  1  0.924800  0.924100  0.498000  1.0  -0.1041
  C  C418  1  0.888400  0.960900  0.489400  1.0  -0.1498
  C  C419  1  0.848500  0.979600  0.527400  1.0  -0.1447
  C  C420  1  0.862700  0.962500  0.572300  1.0  -0.1266
  C  C421  1  0.197900  0.732800  0.961000  1.0  0.3622
  C  C422  1  0.300300  0.705100  0.953700  1.0  0.0142
  C  C423  1  0.303200  0.760700  0.939200  1.0  0.0757
  C  C424  1  0.317770  0.773170  0.888620  1.0  -0.2234
  C  C425  1  0.384430  0.751330  0.868320  1.0  -0.0714
  C  C426  1  0.424430  0.720550  0.843320  1.0  -0.065
  C  C427  1  0.491240  0.729570  0.839330  1.0  -0.1094
  C  C428  1  0.518060  0.769380  0.860340  1.0  -0.0724
  C  C429  1  0.478060  0.800170  0.885340  1.0  -0.1172
  C  C430  1  0.411250  0.791140  0.889340  1.0  -0.0862
  C  C431  1  0.946540  0.084400  0.986620  1.0  0.3363
  C  C432  1  0.020200  0.138030  0.006080  1.0  -0.0562
  C  C433  1  0.023400  0.123130  0.964240  1.0  0.1023
  C  C434  1  0.062870  0.152440  0.924620  1.0  -0.0293
  C  C435  1  0.071700  0.940390  0.884750  1.0  -0.1123
  C  C436  1  0.101200  0.896000  0.880200  1.0  0.0161
  C  C437  1  0.086100  0.868900  0.840200  1.0  -0.1141
  C  C438  1  0.045600  0.884800  0.804900  1.0  -0.0159
  C  C439  1  0.018600  0.929800  0.808400  1.0  -0.1314
  C  C440  1  0.031800  0.958200  0.847700  1.0  -0.0115
  C  C441  1  0.026800  0.853100  0.765600  1.0  -0.014
  C  C442  1  0.066300  0.815200  0.752400  1.0  -0.1596
  C  C443  1  0.044200  0.785200  0.714900  1.0  -0.0559
  C  C444  1  0.986300  0.791700  0.692300  1.0  -0.0829
  C  C445  1  0.948800  0.830200  0.703700  1.0  0.2018
  C  C446  1  0.970600  0.860600  0.741400  1.0  -0.1331
  C  C447  1  0.142300  0.878200  0.918400  1.0  0.0399
  C  C448  1  0.153800  0.904900  0.961400  1.0  -0.1142
  C  C449  1  0.187600  0.889000  0.996400  1.0  -0.074
  C  C450  1  0.218400  0.843800  0.996300  1.0  -0.0982
  C  C451  1  0.208500  0.817600  0.956500  1.0  0.1681
  C  C452  1  0.170800  0.833800  0.918200  1.0  -0.1102
  C  C453  1  0.998700  0.005500  0.853500  1.0  0.1293
  C  C454  1  0.954100  0.023200  0.822300  1.0  -0.0831
  C  C455  1  0.925800  0.065600  0.829000  1.0  -0.0525
  C  C456  1  0.935200  0.092400  0.868700  1.0  -0.0919
  C  C457  1  0.977000  0.072000  0.903100  1.0  0.0895
  C  C458  1  0.007300  0.030500  0.893800  1.0  -0.1038
  C  C459  1  0.967900  0.754200  0.657000  1.0  0.7002
  C  C460  1  0.255400  0.828400  0.039100  1.0  0.7186
  C  C461  1  0.896400  0.136100  0.876400  1.0  0.7017
  C  C462  1  0.331500  0.166200  0.294600  1.0  0.4749
  C  C463  1  0.304900  0.139800  0.365600  1.0  0.0277
  C  C464  1  0.378900  0.140400  0.365200  1.0  0.0304
  C  C465  1  0.413800  0.091200  0.370900  1.0  -0.2944
  C  C466  1  0.400500  0.072500  0.420100  1.0  0.1281
  C  C467  1  0.430200  0.092800  0.459100  1.0  -0.1169
  C  C468  1  0.424800  0.075900  0.502000  1.0  -0.1064
  C  C469  1  0.388400  0.039100  0.510600  1.0  -0.1471
  C  C470  1  0.348500  0.020400  0.472600  1.0  -0.1444
  C  C471  1  0.362700  0.037500  0.427700  1.0  -0.1265
  C  C472  1  0.697900  0.267200  0.039000  1.0  0.3616
  C  C473  1  0.800300  0.294900  0.046300  1.0  0.0139
  C  C474  1  0.803200  0.239300  0.060800  1.0  0.0753
  C  C475  1  0.817770  0.226830  0.111380  1.0  -0.2262
  C  C476  1  0.884430  0.248670  0.131680  1.0  -0.0651
  C  C477  1  0.924430  0.279450  0.156680  1.0  -0.0657
  C  C478  1  0.991240  0.270430  0.160670  1.0  -0.1073
  C  C479  1  0.018060  0.230620  0.139660  1.0  -0.0729
  C  C480  1  0.978060  0.199830  0.114660  1.0  -0.1157
  C  C481  1  0.911250  0.208860  0.110660  1.0  -0.0859
  C  C482  1  0.446540  0.915600  0.013380  1.0  0.3384
  C  C483  1  0.520200  0.861970  0.993920  1.0  -0.056
  C  C484  1  0.523400  0.876870  0.035760  1.0  0.0951
  C  C485  1  0.562870  0.847560  0.075380  1.0  -0.024
  C  C486  1  0.571700  0.059610  0.115250  1.0  -0.1112
  C  C487  1  0.601200  0.104000  0.119800  1.0  0.0166
  C  C488  1  0.586100  0.131100  0.159800  1.0  -0.1134
  C  C489  1  0.545600  0.115200  0.195100  1.0  -0.0157
  C  C490  1  0.518600  0.070200  0.191600  1.0  -0.1303
  C  C491  1  0.531800  0.041800  0.152300  1.0  -0.0108
  C  C492  1  0.526800  0.146900  0.234400  1.0  -0.0133
  C  C493  1  0.566300  0.184800  0.247600  1.0  -0.1627
  C  C494  1  0.544200  0.214800  0.285100  1.0  -0.0553
  C  C495  1  0.486300  0.208300  0.307700  1.0  -0.082
  C  C496  1  0.448800  0.169800  0.296300  1.0  0.2011
  C  C497  1  0.470600  0.139400  0.258600  1.0  -0.1326
  C  C498  1  0.642300  0.121800  0.081600  1.0  0.0399
  C  C499  1  0.653800  0.095100  0.038600  1.0  -0.1155
  C  C500  1  0.687600  0.111000  0.003600  1.0  -0.0746
  C  C501  1  0.718400  0.156200  0.003700  1.0  -0.0999
  C  C502  1  0.708500  0.182400  0.043500  1.0  0.1684
  C  C503  1  0.670800  0.166200  0.081800  1.0  -0.1097
  C  C504  1  0.498700  0.994500  0.146500  1.0  0.1292
  C  C505  1  0.454100  0.976800  0.177700  1.0  -0.084
  C  C506  1  0.425800  0.934400  0.171000  1.0  -0.0541
  C  C507  1  0.435200  0.907600  0.131300  1.0  -0.0934
  C  C508  1  0.477000  0.928000  0.096900  1.0  0.0905
  C  C509  1  0.507300  0.969500  0.106200  1.0  -0.1046
  C  C510  1  0.467900  0.245800  0.343000  1.0  0.7014
  C  C511  1  0.755400  0.171600  0.960900  1.0  0.719
  C  C512  1  0.396400  0.863900  0.123600  1.0  0.7019
  C  C513  1  0.668500  0.294600  0.166200  1.0  0.4759
  C  C514  1  0.695100  0.365600  0.139800  1.0  0.0279
  C  C515  1  0.621100  0.365200  0.140400  1.0  0.0312
  C  C516  1  0.586200  0.370900  0.091200  1.0  -0.2974
  C  C517  1  0.599500  0.420100  0.072500  1.0  0.1281
  C  C518  1  0.569800  0.459100  0.092800  1.0  -0.1144
  C  C519  1  0.575200  0.502000  0.075900  1.0  -0.1054
  C  C520  1  0.611600  0.510600  0.039100  1.0  -0.1517
  C  C521  1  0.651500  0.472600  0.020400  1.0  -0.1402
  C  C522  1  0.637300  0.427700  0.037500  1.0  -0.1216
  C  C523  1  0.302100  0.039000  0.267200  1.0  0.3599
  C  C524  1  0.199700  0.046300  0.294900  1.0  0.0121
  C  C525  1  0.196800  0.060800  0.239300  1.0  0.0753
  C  C526  1  0.182230  0.111380  0.226830  1.0  -0.2316
  C  C527  1  0.115570  0.131680  0.248670  1.0  -0.0636
  C  C528  1  0.075570  0.156680  0.279450  1.0  -0.0683
  C  C529  1  0.008760  0.160670  0.270430  1.0  -0.1037
  C  C530  1  0.981940  0.139660  0.230620  1.0  -0.0759
  C  C531  1  0.021940  0.114660  0.199830  1.0  -0.118
  C  C532  1  0.088750  0.110660  0.208860  1.0  -0.0867
  C  C533  1  0.553460  0.013380  0.915600  1.0  0.331
  C  C534  1  0.479800  0.993920  0.861970  1.0  -0.0553
  C  C535  1  0.476600  0.035760  0.876870  1.0  0.0972
  C  C536  1  0.437130  0.075380  0.847560  1.0  -0.0307
  C  C537  1  0.428300  0.115250  0.059610  1.0  -0.1076
  C  C538  1  0.398800  0.119800  0.104000  1.0  0.0129
  C  C539  1  0.413900  0.159800  0.131100  1.0  -0.116
  C  C540  1  0.454400  0.195100  0.115200  1.0  -0.0124
  C  C541  1  0.481400  0.191600  0.070200  1.0  -0.1318
  C  C542  1  0.468200  0.152300  0.041800  1.0  -0.014
  C  C543  1  0.473200  0.234400  0.146900  1.0  -0.01
  C  C544  1  0.433700  0.247600  0.184800  1.0  -0.1623
  C  C545  1  0.455800  0.285100  0.214800  1.0  -0.0585
  C  C546  1  0.513700  0.307700  0.208300  1.0  -0.0855
  C  C547  1  0.551200  0.296300  0.169800  1.0  0.1996
  C  C548  1  0.529400  0.258600  0.139400  1.0  -0.1343
  C  C549  1  0.357700  0.081600  0.121800  1.0  0.0382
  C  C550  1  0.346200  0.038600  0.095100  1.0  -0.113
  C  C551  1  0.312400  0.003600  0.111000  1.0  -0.0764
  C  C552  1  0.281600  0.003700  0.156200  1.0  -0.0951
  C  C553  1  0.291500  0.043500  0.182400  1.0  0.1674
  C  C554  1  0.329200  0.081800  0.166200  1.0  -0.1093
  C  C555  1  0.501300  0.146500  0.994500  1.0  0.1312
  C  C556  1  0.545900  0.177700  0.976800  1.0  -0.0815
  C  C557  1  0.574200  0.171000  0.934400  1.0  -0.0562
  C  C558  1  0.564800  0.131300  0.907600  1.0  -0.0912
  C  C559  1  0.523000  0.096900  0.928000  1.0  0.09
  C  C560  1  0.492700  0.106200  0.969500  1.0  -0.1028
  C  C561  1  0.532100  0.343000  0.245800  1.0  0.6999
  C  C562  1  0.244600  0.960900  0.171600  1.0  0.72
  C  C563  1  0.603600  0.123600  0.863900  1.0  0.7033
  C  C564  1  0.168500  0.705400  0.833800  1.0  0.4767
  C  C565  1  0.195100  0.634400  0.860200  1.0  0.027
  C  C566  1  0.121100  0.634800  0.859600  1.0  0.0309
  C  C567  1  0.086200  0.629100  0.908800  1.0  -0.2959
  C  C568  1  0.099500  0.579900  0.927500  1.0  0.1272
  C  C569  1  0.069800  0.540900  0.907200  1.0  -0.1152
  C  C570  1  0.075200  0.498000  0.924100  1.0  -0.1054
  C  C571  1  0.111600  0.489400  0.960900  1.0  -0.1535
  C  C572  1  0.151500  0.527400  0.979600  1.0  -0.143
  C  C573  1  0.137300  0.572300  0.962500  1.0  -0.1213
  C  C574  1  0.802100  0.961000  0.732800  1.0  0.3607
  C  C575  1  0.699700  0.953700  0.705100  1.0  0.0122
  C  C576  1  0.696800  0.939200  0.760700  1.0  0.0754
  C  C577  1  0.682230  0.888620  0.773170  1.0  -0.2323
  C  C578  1  0.615570  0.868320  0.751330  1.0  -0.0707
  C  C579  1  0.575570  0.843320  0.720550  1.0  -0.0657
  C  C580  1  0.508760  0.839330  0.729570  1.0  -0.1053
  C  C581  1  0.481940  0.860340  0.769380  1.0  -0.0756
  C  C582  1  0.521940  0.885340  0.800170  1.0  -0.1175
  C  C583  1  0.588750  0.889340  0.791140  1.0  -0.0871
  C  C584  1  0.053460  0.986620  0.084400  1.0  0.3333
  C  C585  1  0.979800  0.006080  0.138030  1.0  -0.0541
  C  C586  1  0.976600  0.964240  0.123130  1.0  0.0928
  C  C587  1  0.937130  0.924620  0.152440  1.0  -0.0266
  C  C588  1  0.928300  0.884750  0.940390  1.0  -0.1086
  C  C589  1  0.898800  0.880200  0.896000  1.0  0.0147
  C  C590  1  0.913900  0.840200  0.868900  1.0  -0.1183
  C  C591  1  0.954400  0.804900  0.884800  1.0  -0.0113
  C  C592  1  0.981400  0.808400  0.929800  1.0  -0.1319
  C  C593  1  0.968200  0.847700  0.958200  1.0  -0.0117
  C  C594  1  0.973200  0.765600  0.853100  1.0  -0.0082
  C  C595  1  0.933700  0.752400  0.815200  1.0  -0.1616
  C  C596  1  0.955800  0.714900  0.785200  1.0  -0.0587
  C  C597  1  0.013700  0.692300  0.791700  1.0  -0.085
  C  C598  1  0.051200  0.703700  0.830200  1.0  0.2001
  C  C599  1  0.029400  0.741400  0.860600  1.0  -0.1342
  C  C600  1  0.857700  0.918400  0.878200  1.0  0.0389
  C  C601  1  0.846200  0.961400  0.904900  1.0  -0.1114
  C  C602  1  0.812400  0.996400  0.889000  1.0  -0.0757
  C  C603  1  0.781600  0.996300  0.843800  1.0  -0.0954
  C  C604  1  0.791500  0.956500  0.817600  1.0  0.1683
  C  C605  1  0.829200  0.918200  0.833800  1.0  -0.1104
  C  C606  1  0.001300  0.853500  0.005500  1.0  0.1321
  C  C607  1  0.045900  0.822300  0.023200  1.0  -0.082
  C  C608  1  0.074200  0.829000  0.065600  1.0  -0.0552
  C  C609  1  0.064800  0.868700  0.092400  1.0  -0.0925
  C  C610  1  0.023000  0.903100  0.072000  1.0  0.09
  C  C611  1  0.992700  0.893800  0.030500  1.0  -0.1031
  C  C612  1  0.032100  0.657000  0.754200  1.0  0.7004
  C  C613  1  0.744600  0.039100  0.828400  1.0  0.72
  C  C614  1  0.103600  0.876400  0.136100  1.0  0.7028
  C  C615  1  0.418500  0.666200  0.205400  1.0  0.4736
  C  C616  1  0.445100  0.639800  0.134400  1.0  0.0293
  C  C617  1  0.371100  0.640400  0.134800  1.0  0.03
  C  C618  1  0.336200  0.591200  0.129100  1.0  -0.2964
  C  C619  1  0.349500  0.572500  0.079900  1.0  0.1265
  C  C620  1  0.319800  0.592800  0.040900  1.0  -0.1155
  C  C621  1  0.325200  0.575900  0.998000  1.0  -0.1039
  C  C622  1  0.361600  0.539100  0.989400  1.0  -0.1498
  C  C623  1  0.401500  0.520400  0.027400  1.0  -0.1448
  C  C624  1  0.387300  0.537500  0.072300  1.0  -0.1265
  C  C625  1  0.052100  0.767200  0.461000  1.0  0.3622
  C  C626  1  0.949700  0.794900  0.453700  1.0  0.0158
  C  C627  1  0.946800  0.739300  0.439200  1.0  0.0744
  C  C628  1  0.932230  0.726830  0.388620  1.0  -0.2237
  C  C629  1  0.865570  0.748670  0.368320  1.0  -0.0679
  C  C630  1  0.825570  0.779450  0.343320  1.0  -0.0663
  C  C631  1  0.758760  0.770430  0.339330  1.0  -0.1086
  C  C632  1  0.731940  0.730620  0.360340  1.0  -0.0743
  C  C633  1  0.771940  0.699830  0.385340  1.0  -0.1168
  C  C634  1  0.838750  0.708860  0.389340  1.0  -0.0876
  C  C635  1  0.303460  0.415600  0.486620  1.0  0.3353
  C  C636  1  0.229800  0.361970  0.506080  1.0  -0.0554
  C  C637  1  0.226600  0.376870  0.464240  1.0  0.1018
  C  C638  1  0.187130  0.347560  0.424620  1.0  -0.0272
  C  C639  1  0.178300  0.559610  0.384750  1.0  -0.1096
  C  C640  1  0.148800  0.604000  0.380200  1.0  0.0161
  C  C641  1  0.163900  0.631100  0.340200  1.0  -0.1178
  C  C642  1  0.204400  0.615200  0.304900  1.0  -0.0135
  C  C643  1  0.231400  0.570200  0.308400  1.0  -0.1306
  C  C644  1  0.218200  0.541800  0.347700  1.0  -0.0114
  C  C645  1  0.223200  0.646900  0.265600  1.0  -0.0121
  C  C646  1  0.183700  0.684800  0.252400  1.0  -0.1614
  C  C647  1  0.205800  0.714800  0.214900  1.0  -0.0551
  C  C648  1  0.263700  0.708300  0.192300  1.0  -0.0824
  C  C649  1  0.301200  0.669800  0.203700  1.0  0.2008
  C  C650  1  0.279400  0.639400  0.241400  1.0  -0.1319
  C  C651  1  0.107700  0.621800  0.418400  1.0  0.0391
  C  C652  1  0.096200  0.595100  0.461400  1.0  -0.1161
  C  C653  1  0.062400  0.611000  0.496400  1.0  -0.0755
  C  C654  1  0.031600  0.656200  0.496300  1.0  -0.0984
  C  C655  1  0.041500  0.682400  0.456500  1.0  0.1667
  C  C656  1  0.079200  0.666200  0.418200  1.0  -0.1097
  C  C657  1  0.251300  0.494500  0.353500  1.0  0.1302
  C  C658  1  0.295900  0.476800  0.322300  1.0  -0.0848
  C  C659  1  0.324200  0.434400  0.329000  1.0  -0.0542
  C  C660  1  0.314800  0.407600  0.368700  1.0  -0.0932
  C  C661  1  0.273000  0.428000  0.403100  1.0  0.0897
  C  C662  1  0.242700  0.469500  0.393800  1.0  -0.1036
  C  C663  1  0.282100  0.745800  0.157000  1.0  0.6998
  C  C664  1  0.994600  0.671600  0.539100  1.0  0.7184
  C  C665  1  0.353600  0.363900  0.376400  1.0  0.7026
  C  C666  1  0.918500  0.333800  0.794600  1.0  0.4752
  C  C667  1  0.945100  0.360200  0.865600  1.0  0.029
  C  C668  1  0.871100  0.359600  0.865200  1.0  0.0296
  C  C669  1  0.836200  0.408800  0.870900  1.0  -0.2955
  C  C670  1  0.849500  0.427500  0.920100  1.0  0.1275
  C  C671  1  0.819800  0.407200  0.959100  1.0  -0.1148
  C  C672  1  0.825200  0.424100  0.002000  1.0  -0.1059
  C  C673  1  0.861600  0.460900  0.010600  1.0  -0.1482
  C  C674  1  0.901500  0.479600  0.972600  1.0  -0.1433
  C  C675  1  0.887300  0.462500  0.927700  1.0  -0.1257
  C  C676  1  0.552100  0.232800  0.539000  1.0  0.3587
  C  C677  1  0.449700  0.205100  0.546300  1.0  0.0132
  C  C678  1  0.446800  0.260700  0.560800  1.0  0.0745
  C  C679  1  0.432230  0.273170  0.611380  1.0  -0.2261
  C  C680  1  0.365570  0.251330  0.631680  1.0  -0.0673
  C  C681  1  0.325570  0.220550  0.656680  1.0  -0.0659
  C  C682  1  0.258760  0.229570  0.660670  1.0  -0.111
  C  C683  1  0.231940  0.269380  0.639660  1.0  -0.0751
  C  C684  1  0.271940  0.300170  0.614660  1.0  -0.1166
  C  C685  1  0.338750  0.291140  0.610660  1.0  -0.0859
  C  C686  1  0.803460  0.584400  0.513380  1.0  0.3327
  C  C687  1  0.729800  0.638030  0.493920  1.0  -0.0555
  C  C688  1  0.726600  0.623130  0.535760  1.0  0.0937
  C  C689  1  0.687130  0.652440  0.575380  1.0  -0.0266
  C  C690  1  0.678300  0.440390  0.615250  1.0  -0.1099
  C  C691  1  0.648800  0.396000  0.619800  1.0  0.015
  C  C692  1  0.663900  0.368900  0.659800  1.0  -0.116
  C  C693  1  0.704400  0.384800  0.695100  1.0  -0.013
  C  C694  1  0.731400  0.429800  0.691600  1.0  -0.1298
  C  C695  1  0.718200  0.458200  0.652300  1.0  -0.0111
  C  C696  1  0.723200  0.353100  0.734400  1.0  -0.011
  C  C697  1  0.683700  0.315200  0.747600  1.0  -0.1655
  C  C698  1  0.705800  0.285200  0.785100  1.0  -0.0543
  C  C699  1  0.763700  0.291700  0.807700  1.0  -0.0813
  C  C700  1  0.801200  0.330200  0.796300  1.0  0.2007
  C  C701  1  0.779400  0.360600  0.758600  1.0  -0.1347
  C  C702  1  0.607700  0.378200  0.581600  1.0  0.0404
  C  C703  1  0.596200  0.404900  0.538600  1.0  -0.1163
  C  C704  1  0.562400  0.389000  0.503600  1.0  -0.0767
  C  C705  1  0.531600  0.343800  0.503700  1.0  -0.0979
  C  C706  1  0.541500  0.317600  0.543500  1.0  0.167
  C  C707  1  0.579200  0.333800  0.581800  1.0  -0.1101
  C  C708  1  0.751300  0.505500  0.646500  1.0  0.1321
  C  C709  1  0.795900  0.523200  0.677700  1.0  -0.0854
  C  C710  1  0.824200  0.565600  0.671000  1.0  -0.0566
  C  C711  1  0.814800  0.592400  0.631300  1.0  -0.0937
  C  C712  1  0.773000  0.572000  0.596900  1.0  0.0895
  C  C713  1  0.742700  0.530500  0.606200  1.0  -0.1042
  C  C714  1  0.782100  0.254200  0.843000  1.0  0.7003
  C  C715  1  0.494600  0.328400  0.460900  1.0  0.7189
  C  C716  1  0.853600  0.636100  0.623600  1.0  0.701
  N  N717  1  0.638900  0.183000  0.659200  1.0  -0.1422
  N  N718  1  0.985300  0.451300  0.729300  1.0  -0.1032
  N  N719  1  0.733990  0.450030  0.405420  1.0  0.0633
  N  N720  1  0.138900  0.817000  0.340800  1.0  -0.141
  N  N721  1  0.485300  0.548700  0.270700  1.0  -0.1029
  N  N722  1  0.233990  0.549970  0.594580  1.0  0.0617
  N  N723  1  0.888900  0.840800  0.683000  1.0  -0.1417
  N  N724  1  0.235300  0.770700  0.951300  1.0  -0.1036
  N  N725  1  0.983990  0.094580  0.950030  1.0  0.0639
  N  N726  1  0.388900  0.159200  0.317000  1.0  -0.1413
  N  N727  1  0.735300  0.229300  0.048700  1.0  -0.1051
  N  N728  1  0.483990  0.905420  0.049970  1.0  0.061
  N  N729  1  0.611100  0.317000  0.159200  1.0  -0.1429
  N  N730  1  0.264700  0.048700  0.229300  1.0  -0.103
  N  N731  1  0.516010  0.049970  0.905420  1.0  0.0624
  N  N732  1  0.111100  0.683000  0.840800  1.0  -0.141
  N  N733  1  0.764700  0.951300  0.770700  1.0  -0.1022
  N  N734  1  0.016010  0.950030  0.094580  1.0  0.0595
  N  N735  1  0.361100  0.659200  0.183000  1.0  -0.1426
  N  N736  1  0.014700  0.729300  0.451300  1.0  -0.1035
  N  N737  1  0.266010  0.405420  0.450030  1.0  0.0596
  N  N738  1  0.861100  0.340800  0.817000  1.0  -0.1415
  N  N739  1  0.514700  0.270700  0.548700  1.0  -0.104
  N  N740  1  0.766010  0.594580  0.549970  1.0  0.0609
  O  O741  1  0.574300  0.247300  0.676900  1.0  -0.5784
  O  O742  1  0.530000  0.178600  0.653200  1.0  -0.3316
  O  O743  1  0.890500  0.468600  0.769700  1.0  -0.4914
  O  O744  1  0.989300  0.459300  0.805900  1.0  -0.3123
  O  O745  1  0.636900  0.491290  0.423100  1.0  -0.5528
  O  O746  1  0.725490  0.525110  0.388250  1.0  -0.4706
  O  O747  1  0.663450  0.136190  0.741060  1.0  -0.5938
  O  O748  1  0.754490  0.150900  0.778690  1.0  -0.5909
  O  O749  1  0.002090  0.574590  0.644750  1.0  -0.6158
  O  O750  1  0.041680  0.537180  0.707680  1.0  -0.5869
  O  O751  1  0.603090  0.348740  0.354360  1.0  -0.6279
  O  O752  1  0.663230  0.410340  0.337180  1.0  -0.6043
  O  O753  1  0.074300  0.752700  0.323100  1.0  -0.5781
  O  O754  1  0.030000  0.821400  0.346800  1.0  -0.3336
  O  O755  1  0.390500  0.531400  0.230300  1.0  -0.491
  O  O756  1  0.489300  0.540700  0.194100  1.0  -0.3144
  O  O757  1  0.136900  0.508710  0.576900  1.0  -0.553
  O  O758  1  0.225490  0.474890  0.611750  1.0  -0.4689
  O  O759  1  0.163450  0.863810  0.258940  1.0  -0.5933
  O  O760  1  0.254490  0.849100  0.221310  1.0  -0.5904
  O  O761  1  0.502090  0.425410  0.355250  1.0  -0.6164
  O  O762  1  0.541680  0.462820  0.292320  1.0  -0.5866
  O  O763  1  0.103090  0.651260  0.645640  1.0  -0.629
  O  O764  1  0.163230  0.589660  0.662820  1.0  -0.6042
  O  O765  1  0.824300  0.823100  0.747300  1.0  -0.5788
  O  O766  1  0.780000  0.846800  0.678600  1.0  -0.333
  O  O767  1  0.140500  0.730300  0.968600  1.0  -0.4906
  O  O768  1  0.239300  0.694100  0.959300  1.0  -0.3139
  O  O769  1  0.886900  0.076900  0.991290  1.0  -0.5529
  O  O770  1  0.975490  0.111750  0.025110  1.0  -0.4683
  O  O771  1  0.913450  0.758940  0.636190  1.0  -0.5933
  O  O772  1  0.004490  0.721310  0.650900  1.0  -0.5897
  O  O773  1  0.252090  0.855250  0.074590  1.0  -0.616
  O  O774  1  0.291680  0.792320  0.037180  1.0  -0.5859
  O  O775  1  0.853090  0.145640  0.848740  1.0  -0.629
  O  O776  1  0.913230  0.162820  0.910340  1.0  -0.6051
  O  O777  1  0.324300  0.176900  0.252700  1.0  -0.5792
  O  O778  1  0.280000  0.153200  0.321400  1.0  -0.3321
  O  O779  1  0.640500  0.269700  0.031400  1.0  -0.4919
  O  O780  1  0.739300  0.305900  0.040700  1.0  -0.3132
  O  O781  1  0.386900  0.923100  0.008710  1.0  -0.5563
  O  O782  1  0.475490  0.888250  0.974890  1.0  -0.4662
  O  O783  1  0.413450  0.241060  0.363810  1.0  -0.5925
  O  O784  1  0.504490  0.278690  0.349100  1.0  -0.5903
  O  O785  1  0.752090  0.144750  0.925410  1.0  -0.6165
  O  O786  1  0.791680  0.207680  0.962820  1.0  -0.5854
  O  O787  1  0.353090  0.854360  0.151260  1.0  -0.6291
  O  O788  1  0.413230  0.837180  0.089660  1.0  -0.6057
  O  O789  1  0.675700  0.252700  0.176900  1.0  -0.5789
  O  O790  1  0.720000  0.321400  0.153200  1.0  -0.3311
  O  O791  1  0.359500  0.031400  0.269700  1.0  -0.4896
  O  O792  1  0.260700  0.040700  0.305900  1.0  -0.311
  O  O793  1  0.613100  0.008710  0.923100  1.0  -0.5525
  O  O794  1  0.524510  0.974890  0.888250  1.0  -0.4658
  O  O795  1  0.586550  0.363810  0.241060  1.0  -0.5935
  O  O796  1  0.495510  0.349100  0.278690  1.0  -0.5918
  O  O797  1  0.247910  0.925410  0.144750  1.0  -0.6168
  O  O798  1  0.208320  0.962820  0.207680  1.0  -0.587
  O  O799  1  0.646910  0.151260  0.854360  1.0  -0.6284
  O  O800  1  0.586770  0.089660  0.837180  1.0  -0.6052
  O  O801  1  0.175700  0.747300  0.823100  1.0  -0.5766
  O  O802  1  0.220000  0.678600  0.846800  1.0  -0.33
  O  O803  1  0.859500  0.968600  0.730300  1.0  -0.4882
  O  O804  1  0.760700  0.959300  0.694100  1.0  -0.3109
  O  O805  1  0.113100  0.991290  0.076900  1.0  -0.5525
  O  O806  1  0.024510  0.025110  0.111750  1.0  -0.4699
  O  O807  1  0.086550  0.636190  0.758940  1.0  -0.5934
  O  O808  1  0.995510  0.650900  0.721310  1.0  -0.5909
  O  O809  1  0.747910  0.074590  0.855250  1.0  -0.617
  O  O810  1  0.708320  0.037180  0.792320  1.0  -0.5862
  O  O811  1  0.146910  0.848740  0.145640  1.0  -0.6276
  O  O812  1  0.086770  0.910340  0.162820  1.0  -0.6058
  O  O813  1  0.425700  0.676900  0.247300  1.0  -0.5781
  O  O814  1  0.470000  0.653200  0.178600  1.0  -0.3303
  O  O815  1  0.109500  0.769700  0.468600  1.0  -0.4898
  O  O816  1  0.010700  0.805900  0.459300  1.0  -0.3121
  O  O817  1  0.363100  0.423100  0.491290  1.0  -0.5556
  O  O818  1  0.274510  0.388250  0.525110  1.0  -0.4663
  O  O819  1  0.336550  0.741060  0.136190  1.0  -0.5927
  O  O820  1  0.245510  0.778690  0.150900  1.0  -0.5904
  O  O821  1  0.997910  0.644750  0.574590  1.0  -0.6174
  O  O822  1  0.958320  0.707680  0.537180  1.0  -0.5864
  O  O823  1  0.396910  0.354360  0.348740  1.0  -0.6288
  O  O824  1  0.336770  0.337180  0.410340  1.0  -0.6063
  O  O825  1  0.925700  0.323100  0.752700  1.0  -0.5791
  O  O826  1  0.970000  0.346800  0.821400  1.0  -0.3297
  O  O827  1  0.609500  0.230300  0.531400  1.0  -0.491
  O  O828  1  0.510700  0.194100  0.540700  1.0  -0.3128
  O  O829  1  0.863100  0.576900  0.508710  1.0  -0.5557
  O  O830  1  0.774510  0.611750  0.474890  1.0  -0.4675
  O  O831  1  0.836550  0.258940  0.863810  1.0  -0.5927
  O  O832  1  0.745510  0.221310  0.849100  1.0  -0.5914
  O  O833  1  0.497910  0.355250  0.425410  1.0  -0.6162
  O  O834  1  0.458320  0.292320  0.462820  1.0  -0.5855
  O  O835  1  0.896910  0.645640  0.651260  1.0  -0.6297
  O  O836  1  0.836770  0.662820  0.589660  1.0  -0.6065
