# generated using pymatgen
data_Sr4H8C40S8O17
_symmetry_space_group_name_H-M   'P 1'
_cell_length_a   41.00510000
_cell_length_b   41.00510000
_cell_length_c   41.00510000
_cell_angle_alpha   90.00000000
_cell_angle_beta   90.00000000
_cell_angle_gamma   90.00000000
_symmetry_Int_Tables_number   1
_chemical_formula_structural   Sr4H8C40S8O17
_chemical_formula_sum   'Sr96 H192 C960 S192 O408'
_cell_volume   68946.72249936
_cell_formula_units_Z   24
loop_
 _symmetry_equiv_pos_site_id
 _symmetry_equiv_pos_as_xyz
  1  'x, y, z'
loop_
 _atom_site_type_symbol
 _atom_site_label
 _atom_site_symmetry_multiplicity
 _atom_site_fract_x
 _atom_site_fract_y
 _atom_site_fract_z
 _atom_site_occupancy
 _atom_site_charge
  Sr  Sr1  1  0.687960  0.768120  0.000000  1.0  1.6287
  Sr  Sr2  1  0.687960  0.268120  0.500000  1.0  1.6287
  Sr  Sr3  1  0.187960  0.768120  0.500000  1.0  1.6287
  Sr  Sr4  1  0.187960  0.268120  0.000000  1.0  1.6287
  Sr  Sr5  1  0.312040  0.231880  0.000000  1.0  1.629
  Sr  Sr6  1  0.312040  0.731880  0.500000  1.0  1.629
  Sr  Sr7  1  0.812040  0.231880  0.500000  1.0  1.629
  Sr  Sr8  1  0.812040  0.731880  0.000000  1.0  1.629
  Sr  Sr9  1  0.312040  0.768120  0.000000  1.0  1.6294
  Sr  Sr10  1  0.312040  0.268120  0.500000  1.0  1.6294
  Sr  Sr11  1  0.812040  0.768120  0.500000  1.0  1.6294
  Sr  Sr12  1  0.812040  0.268120  0.000000  1.0  1.6294
  Sr  Sr13  1  0.687960  0.231880  0.000000  1.0  1.6282
  Sr  Sr14  1  0.687960  0.731880  0.500000  1.0  1.6282
  Sr  Sr15  1  0.187960  0.231880  0.500000  1.0  1.6282
  Sr  Sr16  1  0.187960  0.731880  0.000000  1.0  1.6282
  Sr  Sr17  1  0.000000  0.687960  0.768120  1.0  1.6295
  Sr  Sr18  1  0.000000  0.187960  0.268120  1.0  1.6295
  Sr  Sr19  1  0.500000  0.687960  0.268120  1.0  1.6295
  Sr  Sr20  1  0.500000  0.187960  0.768120  1.0  1.6295
  Sr  Sr21  1  0.000000  0.312040  0.231880  1.0  1.6289
  Sr  Sr22  1  0.000000  0.812040  0.731880  1.0  1.6289
  Sr  Sr23  1  0.500000  0.312040  0.731880  1.0  1.6289
  Sr  Sr24  1  0.500000  0.812040  0.231880  1.0  1.6289
  Sr  Sr25  1  0.000000  0.312040  0.768120  1.0  1.6293
  Sr  Sr26  1  0.000000  0.812040  0.268120  1.0  1.6293
  Sr  Sr27  1  0.500000  0.312040  0.268120  1.0  1.6293
  Sr  Sr28  1  0.500000  0.812040  0.768120  1.0  1.6293
  Sr  Sr29  1  0.000000  0.687960  0.231880  1.0  1.6287
  Sr  Sr30  1  0.000000  0.187960  0.731880  1.0  1.6287
  Sr  Sr31  1  0.500000  0.687960  0.731880  1.0  1.6287
  Sr  Sr32  1  0.500000  0.187960  0.231880  1.0  1.6287
  Sr  Sr33  1  0.768120  0.000000  0.687960  1.0  1.6286
  Sr  Sr34  1  0.768120  0.500000  0.187960  1.0  1.6286
  Sr  Sr35  1  0.268120  0.000000  0.187960  1.0  1.6286
  Sr  Sr36  1  0.268120  0.500000  0.687960  1.0  1.6286
  Sr  Sr37  1  0.231880  0.000000  0.312040  1.0  1.6303
  Sr  Sr38  1  0.231880  0.500000  0.812040  1.0  1.6303
  Sr  Sr39  1  0.731880  0.000000  0.812040  1.0  1.6303
  Sr  Sr40  1  0.731880  0.500000  0.312040  1.0  1.6303
  Sr  Sr41  1  0.768120  0.000000  0.312040  1.0  1.6299
  Sr  Sr42  1  0.768120  0.500000  0.812040  1.0  1.6299
  Sr  Sr43  1  0.268120  0.000000  0.812040  1.0  1.6299
  Sr  Sr44  1  0.268120  0.500000  0.312040  1.0  1.6299
  Sr  Sr45  1  0.231880  0.000000  0.687960  1.0  1.6291
  Sr  Sr46  1  0.231880  0.500000  0.187960  1.0  1.6291
  Sr  Sr47  1  0.731880  0.000000  0.187960  1.0  1.6291
  Sr  Sr48  1  0.731880  0.500000  0.687960  1.0  1.6291
  Sr  Sr49  1  0.268120  0.187960  0.500000  1.0  1.6287
  Sr  Sr50  1  0.268120  0.687960  0.000000  1.0  1.6287
  Sr  Sr51  1  0.768120  0.187960  0.000000  1.0  1.6287
  Sr  Sr52  1  0.768120  0.687960  0.500000  1.0  1.6287
  Sr  Sr53  1  0.731880  0.812040  0.500000  1.0  1.6292
  Sr  Sr54  1  0.731880  0.312040  0.000000  1.0  1.6292
  Sr  Sr55  1  0.231880  0.812040  0.000000  1.0  1.6292
  Sr  Sr56  1  0.231880  0.312040  0.500000  1.0  1.6292
  Sr  Sr57  1  0.268120  0.812040  0.500000  1.0  1.6288
  Sr  Sr58  1  0.268120  0.312040  0.000000  1.0  1.6288
  Sr  Sr59  1  0.768120  0.812040  0.000000  1.0  1.6288
  Sr  Sr60  1  0.768120  0.312040  0.500000  1.0  1.6288
  Sr  Sr61  1  0.731880  0.187960  0.500000  1.0  1.6293
  Sr  Sr62  1  0.731880  0.687960  0.000000  1.0  1.6293
  Sr  Sr63  1  0.231880  0.187960  0.000000  1.0  1.6293
  Sr  Sr64  1  0.231880  0.687960  0.500000  1.0  1.6293
  Sr  Sr65  1  0.187960  0.500000  0.731880  1.0  1.629
  Sr  Sr66  1  0.187960  0.000000  0.231880  1.0  1.629
  Sr  Sr67  1  0.687960  0.500000  0.231880  1.0  1.629
  Sr  Sr68  1  0.687960  0.000000  0.731880  1.0  1.629
  Sr  Sr69  1  0.812040  0.500000  0.268120  1.0  1.6297
  Sr  Sr70  1  0.812040  0.000000  0.768120  1.0  1.6297
  Sr  Sr71  1  0.312040  0.500000  0.768120  1.0  1.6297
  Sr  Sr72  1  0.312040  0.000000  0.268120  1.0  1.6297
  Sr  Sr73  1  0.812040  0.500000  0.731880  1.0  1.6294
  Sr  Sr74  1  0.812040  0.000000  0.231880  1.0  1.6294
  Sr  Sr75  1  0.312040  0.500000  0.231880  1.0  1.6294
  Sr  Sr76  1  0.312040  0.000000  0.731880  1.0  1.6294
  Sr  Sr77  1  0.187960  0.500000  0.268120  1.0  1.629
  Sr  Sr78  1  0.187960  0.000000  0.768120  1.0  1.629
  Sr  Sr79  1  0.687960  0.500000  0.768120  1.0  1.629
  Sr  Sr80  1  0.687960  0.000000  0.268120  1.0  1.629
  Sr  Sr81  1  0.500000  0.268120  0.812040  1.0  1.63
  Sr  Sr82  1  0.500000  0.768120  0.312040  1.0  1.63
  Sr  Sr83  1  0.000000  0.268120  0.312040  1.0  1.63
  Sr  Sr84  1  0.000000  0.768120  0.812040  1.0  1.63
  Sr  Sr85  1  0.500000  0.731880  0.187960  1.0  1.628
  Sr  Sr86  1  0.500000  0.231880  0.687960  1.0  1.628
  Sr  Sr87  1  0.000000  0.731880  0.687960  1.0  1.628
  Sr  Sr88  1  0.000000  0.231880  0.187960  1.0  1.628
  Sr  Sr89  1  0.500000  0.268120  0.187960  1.0  1.6287
  Sr  Sr90  1  0.500000  0.768120  0.687960  1.0  1.6287
  Sr  Sr91  1  0.000000  0.268120  0.687960  1.0  1.6287
  Sr  Sr92  1  0.000000  0.768120  0.187960  1.0  1.6287
  Sr  Sr93  1  0.500000  0.731880  0.812040  1.0  1.6294
  Sr  Sr94  1  0.500000  0.231880  0.312040  1.0  1.6294
  Sr  Sr95  1  0.000000  0.731880  0.312040  1.0  1.6294
  Sr  Sr96  1  0.000000  0.231880  0.812040  1.0  1.6294
  H  H97  1  0.699900  0.665900  0.918100  1.0  0.1263
  H  H98  1  0.699900  0.165900  0.418100  1.0  0.1263
  H  H99  1  0.199900  0.665900  0.418100  1.0  0.1263
  H  H100  1  0.199900  0.165900  0.918100  1.0  0.1263
  H  H101  1  0.300100  0.334100  0.918100  1.0  0.1275
  H  H102  1  0.300100  0.834100  0.418100  1.0  0.1275
  H  H103  1  0.800100  0.334100  0.418100  1.0  0.1275
  H  H104  1  0.800100  0.834100  0.918100  1.0  0.1275
  H  H105  1  0.300100  0.665900  0.081900  1.0  0.1279
  H  H106  1  0.300100  0.165900  0.581900  1.0  0.1279
  H  H107  1  0.800100  0.665900  0.581900  1.0  0.1279
  H  H108  1  0.800100  0.165900  0.081900  1.0  0.1279
  H  H109  1  0.699900  0.334100  0.081900  1.0  0.1274
  H  H110  1  0.699900  0.834100  0.581900  1.0  0.1274
  H  H111  1  0.199900  0.334100  0.581900  1.0  0.1274
  H  H112  1  0.199900  0.834100  0.081900  1.0  0.1274
  H  H113  1  0.918100  0.699900  0.665900  1.0  0.1282
  H  H114  1  0.918100  0.199900  0.165900  1.0  0.1282
  H  H115  1  0.418100  0.699900  0.165900  1.0  0.1282
  H  H116  1  0.418100  0.199900  0.665900  1.0  0.1282
  H  H117  1  0.918100  0.300100  0.334100  1.0  0.1283
  H  H118  1  0.918100  0.800100  0.834100  1.0  0.1283
  H  H119  1  0.418100  0.300100  0.834100  1.0  0.1283
  H  H120  1  0.418100  0.800100  0.334100  1.0  0.1283
  H  H121  1  0.081900  0.300100  0.665900  1.0  0.1281
  H  H122  1  0.081900  0.800100  0.165900  1.0  0.1281
  H  H123  1  0.581900  0.300100  0.165900  1.0  0.1281
  H  H124  1  0.581900  0.800100  0.665900  1.0  0.1281
  H  H125  1  0.081900  0.699900  0.334100  1.0  0.1284
  H  H126  1  0.081900  0.199900  0.834100  1.0  0.1284
  H  H127  1  0.581900  0.699900  0.834100  1.0  0.1284
  H  H128  1  0.581900  0.199900  0.334100  1.0  0.1284
  H  H129  1  0.665900  0.918100  0.699900  1.0  0.1271
  H  H130  1  0.665900  0.418100  0.199900  1.0  0.1271
  H  H131  1  0.165900  0.918100  0.199900  1.0  0.1271
  H  H132  1  0.165900  0.418100  0.699900  1.0  0.1271
  H  H133  1  0.334100  0.918100  0.300100  1.0  0.1286
  H  H134  1  0.334100  0.418100  0.800100  1.0  0.1286
  H  H135  1  0.834100  0.918100  0.800100  1.0  0.1286
  H  H136  1  0.834100  0.418100  0.300100  1.0  0.1286
  H  H137  1  0.665900  0.081900  0.300100  1.0  0.1282
  H  H138  1  0.665900  0.581900  0.800100  1.0  0.1282
  H  H139  1  0.165900  0.081900  0.800100  1.0  0.1282
  H  H140  1  0.165900  0.581900  0.300100  1.0  0.1282
  H  H141  1  0.334100  0.081900  0.699900  1.0  0.1273
  H  H142  1  0.334100  0.581900  0.199900  1.0  0.1273
  H  H143  1  0.834100  0.081900  0.199900  1.0  0.1273
  H  H144  1  0.834100  0.581900  0.699900  1.0  0.1273
  H  H145  1  0.165900  0.199900  0.581900  1.0  0.1278
  H  H146  1  0.165900  0.699900  0.081900  1.0  0.1278
  H  H147  1  0.665900  0.199900  0.081900  1.0  0.1278
  H  H148  1  0.665900  0.699900  0.581900  1.0  0.1278
  H  H149  1  0.834100  0.800100  0.581900  1.0  0.1275
  H  H150  1  0.834100  0.300100  0.081900  1.0  0.1275
  H  H151  1  0.334100  0.800100  0.081900  1.0  0.1275
  H  H152  1  0.334100  0.300100  0.581900  1.0  0.1275
  H  H153  1  0.165900  0.800100  0.418100  1.0  0.1271
  H  H154  1  0.165900  0.300100  0.918100  1.0  0.1271
  H  H155  1  0.665900  0.800100  0.918100  1.0  0.1271
  H  H156  1  0.665900  0.300100  0.418100  1.0  0.1271
  H  H157  1  0.834100  0.199900  0.418100  1.0  0.1271
  H  H158  1  0.834100  0.699900  0.918100  1.0  0.1271
  H  H159  1  0.334100  0.199900  0.918100  1.0  0.1271
  H  H160  1  0.334100  0.699900  0.418100  1.0  0.1271
  H  H161  1  0.199900  0.418100  0.834100  1.0  0.1278
  H  H162  1  0.199900  0.918100  0.334100  1.0  0.1278
  H  H163  1  0.699900  0.418100  0.334100  1.0  0.1278
  H  H164  1  0.699900  0.918100  0.834100  1.0  0.1278
  H  H165  1  0.800100  0.418100  0.165900  1.0  0.1286
  H  H166  1  0.800100  0.918100  0.665900  1.0  0.1286
  H  H167  1  0.300100  0.418100  0.665900  1.0  0.1286
  H  H168  1  0.300100  0.918100  0.165900  1.0  0.1286
  H  H169  1  0.800100  0.581900  0.834100  1.0  0.1291
  H  H170  1  0.800100  0.081900  0.334100  1.0  0.1291
  H  H171  1  0.300100  0.581900  0.334100  1.0  0.1291
  H  H172  1  0.300100  0.081900  0.834100  1.0  0.1291
  H  H173  1  0.199900  0.581900  0.165900  1.0  0.1274
  H  H174  1  0.199900  0.081900  0.665900  1.0  0.1274
  H  H175  1  0.699900  0.581900  0.665900  1.0  0.1274
  H  H176  1  0.699900  0.081900  0.165900  1.0  0.1274
  H  H177  1  0.418100  0.165900  0.800100  1.0  0.1277
  H  H178  1  0.418100  0.665900  0.300100  1.0  0.1277
  H  H179  1  0.918100  0.165900  0.300100  1.0  0.1277
  H  H180  1  0.918100  0.665900  0.800100  1.0  0.1277
  H  H181  1  0.418100  0.834100  0.199900  1.0  0.1271
  H  H182  1  0.418100  0.334100  0.699900  1.0  0.1271
  H  H183  1  0.918100  0.834100  0.699900  1.0  0.1271
  H  H184  1  0.918100  0.334100  0.199900  1.0  0.1271
  H  H185  1  0.581900  0.165900  0.199900  1.0  0.1276
  H  H186  1  0.581900  0.665900  0.699900  1.0  0.1276
  H  H187  1  0.081900  0.165900  0.699900  1.0  0.1276
  H  H188  1  0.081900  0.665900  0.199900  1.0  0.1276
  H  H189  1  0.581900  0.834100  0.800100  1.0  0.1284
  H  H190  1  0.581900  0.334100  0.300100  1.0  0.1284
  H  H191  1  0.081900  0.834100  0.300100  1.0  0.1284
  H  H192  1  0.081900  0.334100  0.800100  1.0  0.1284
  H  H193  1  0.300100  0.334100  0.081900  1.0  0.1283
  H  H194  1  0.300100  0.834100  0.581900  1.0  0.1283
  H  H195  1  0.800100  0.334100  0.581900  1.0  0.1283
  H  H196  1  0.800100  0.834100  0.081900  1.0  0.1283
  H  H197  1  0.699900  0.665900  0.081900  1.0  0.1268
  H  H198  1  0.699900  0.165900  0.581900  1.0  0.1268
  H  H199  1  0.199900  0.665900  0.581900  1.0  0.1268
  H  H200  1  0.199900  0.165900  0.081900  1.0  0.1268
  H  H201  1  0.699900  0.334100  0.918100  1.0  0.1264
  H  H202  1  0.699900  0.834100  0.418100  1.0  0.1264
  H  H203  1  0.199900  0.334100  0.418100  1.0  0.1264
  H  H204  1  0.199900  0.834100  0.918100  1.0  0.1264
  H  H205  1  0.300100  0.665900  0.918100  1.0  0.1277
  H  H206  1  0.300100  0.165900  0.418100  1.0  0.1277
  H  H207  1  0.800100  0.665900  0.418100  1.0  0.1277
  H  H208  1  0.800100  0.165900  0.918100  1.0  0.1277
  H  H209  1  0.081900  0.300100  0.334100  1.0  0.1288
  H  H210  1  0.081900  0.800100  0.834100  1.0  0.1288
  H  H211  1  0.581900  0.300100  0.834100  1.0  0.1288
  H  H212  1  0.581900  0.800100  0.334100  1.0  0.1288
  H  H213  1  0.081900  0.699900  0.665900  1.0  0.1282
  H  H214  1  0.081900  0.199900  0.165900  1.0  0.1282
  H  H215  1  0.581900  0.699900  0.165900  1.0  0.1282
  H  H216  1  0.581900  0.199900  0.665900  1.0  0.1282
  H  H217  1  0.918100  0.699900  0.334100  1.0  0.1285
  H  H218  1  0.918100  0.199900  0.834100  1.0  0.1285
  H  H219  1  0.418100  0.699900  0.834100  1.0  0.1285
  H  H220  1  0.418100  0.199900  0.334100  1.0  0.1285
  H  H221  1  0.918100  0.300100  0.665900  1.0  0.128
  H  H222  1  0.918100  0.800100  0.165900  1.0  0.128
  H  H223  1  0.418100  0.300100  0.165900  1.0  0.128
  H  H224  1  0.418100  0.800100  0.665900  1.0  0.128
  H  H225  1  0.334100  0.081900  0.300100  1.0  0.128
  H  H226  1  0.334100  0.581900  0.800100  1.0  0.128
  H  H227  1  0.834100  0.081900  0.800100  1.0  0.128
  H  H228  1  0.834100  0.581900  0.300100  1.0  0.128
  H  H229  1  0.665900  0.081900  0.699900  1.0  0.1277
  H  H230  1  0.665900  0.581900  0.199900  1.0  0.1277
  H  H231  1  0.165900  0.081900  0.199900  1.0  0.1277
  H  H232  1  0.165900  0.581900  0.699900  1.0  0.1277
  H  H233  1  0.334100  0.918100  0.699900  1.0  0.1271
  H  H234  1  0.334100  0.418100  0.199900  1.0  0.1271
  H  H235  1  0.834100  0.918100  0.199900  1.0  0.1271
  H  H236  1  0.834100  0.418100  0.699900  1.0  0.1271
  H  H237  1  0.665900  0.918100  0.300100  1.0  0.1286
  H  H238  1  0.665900  0.418100  0.800100  1.0  0.1286
  H  H239  1  0.165900  0.918100  0.800100  1.0  0.1286
  H  H240  1  0.165900  0.418100  0.300100  1.0  0.1286
  H  H241  1  0.834100  0.800100  0.418100  1.0  0.127
  H  H242  1  0.834100  0.300100  0.918100  1.0  0.127
  H  H243  1  0.334100  0.800100  0.918100  1.0  0.127
  H  H244  1  0.334100  0.300100  0.418100  1.0  0.127
  H  H245  1  0.165900  0.199900  0.418100  1.0  0.1269
  H  H246  1  0.165900  0.699900  0.918100  1.0  0.1269
  H  H247  1  0.665900  0.199900  0.918100  1.0  0.1269
  H  H248  1  0.665900  0.699900  0.418100  1.0  0.1269
  H  H249  1  0.834100  0.199900  0.581900  1.0  0.1279
  H  H250  1  0.834100  0.699900  0.081900  1.0  0.1279
  H  H251  1  0.334100  0.199900  0.081900  1.0  0.1279
  H  H252  1  0.334100  0.699900  0.581900  1.0  0.1279
  H  H253  1  0.165900  0.800100  0.581900  1.0  0.1276
  H  H254  1  0.165900  0.300100  0.081900  1.0  0.1276
  H  H255  1  0.665900  0.800100  0.081900  1.0  0.1276
  H  H256  1  0.665900  0.300100  0.581900  1.0  0.1276
  H  H257  1  0.800100  0.581900  0.165900  1.0  0.1285
  H  H258  1  0.800100  0.081900  0.665900  1.0  0.1285
  H  H259  1  0.300100  0.581900  0.665900  1.0  0.1285
  H  H260  1  0.300100  0.081900  0.165900  1.0  0.1285
  H  H261  1  0.199900  0.581900  0.834100  1.0  0.1279
  H  H262  1  0.199900  0.081900  0.334100  1.0  0.1279
  H  H263  1  0.699900  0.581900  0.334100  1.0  0.1279
  H  H264  1  0.699900  0.081900  0.834100  1.0  0.1279
  H  H265  1  0.199900  0.418100  0.165900  1.0  0.1275
  H  H266  1  0.199900  0.918100  0.665900  1.0  0.1275
  H  H267  1  0.699900  0.418100  0.665900  1.0  0.1275
  H  H268  1  0.699900  0.918100  0.165900  1.0  0.1275
  H  H269  1  0.800100  0.418100  0.834100  1.0  0.129
  H  H270  1  0.800100  0.918100  0.334100  1.0  0.129
  H  H271  1  0.300100  0.418100  0.334100  1.0  0.129
  H  H272  1  0.300100  0.918100  0.834100  1.0  0.129
  H  H273  1  0.581900  0.834100  0.199900  1.0  0.1273
  H  H274  1  0.581900  0.334100  0.699900  1.0  0.1273
  H  H275  1  0.081900  0.834100  0.699900  1.0  0.1273
  H  H276  1  0.081900  0.334100  0.199900  1.0  0.1273
  H  H277  1  0.581900  0.165900  0.800100  1.0  0.1279
  H  H278  1  0.581900  0.665900  0.300100  1.0  0.1279
  H  H279  1  0.081900  0.165900  0.300100  1.0  0.1279
  H  H280  1  0.081900  0.665900  0.800100  1.0  0.1279
  H  H281  1  0.418100  0.834100  0.800100  1.0  0.1284
  H  H282  1  0.418100  0.334100  0.300100  1.0  0.1284
  H  H283  1  0.918100  0.834100  0.300100  1.0  0.1284
  H  H284  1  0.918100  0.334100  0.800100  1.0  0.1284
  H  H285  1  0.418100  0.165900  0.199900  1.0  0.1269
  H  H286  1  0.418100  0.665900  0.699900  1.0  0.1269
  H  H287  1  0.918100  0.165900  0.699900  1.0  0.1269
  H  H288  1  0.918100  0.665900  0.199900  1.0  0.1269
  C  C289  1  0.670770  0.723060  0.944860  1.0  0.7507
  C  C290  1  0.663510  0.701270  0.917160  1.0  -0.1424
  C  C291  1  0.681500  0.673870  0.907580  1.0  -0.1005
  C  C292  1  0.639200  0.676790  0.868000  1.0  -0.1201
  C  C293  1  0.666900  0.659900  0.878800  1.0  0.0089
  C  C294  1  0.670770  0.223060  0.444860  1.0  0.7507
  C  C295  1  0.663510  0.201270  0.417160  1.0  -0.1424
  C  C296  1  0.681500  0.173870  0.407580  1.0  -0.1005
  C  C297  1  0.639200  0.176790  0.368000  1.0  -0.1201
  C  C298  1  0.666900  0.159900  0.378800  1.0  0.0089
  C  C299  1  0.170770  0.723060  0.444860  1.0  0.7507
  C  C300  1  0.163510  0.701270  0.417160  1.0  -0.1424
  C  C301  1  0.181500  0.673870  0.407580  1.0  -0.1005
  C  C302  1  0.139200  0.676790  0.368000  1.0  -0.1201
  C  C303  1  0.166900  0.659900  0.378800  1.0  0.0089
  C  C304  1  0.170770  0.223060  0.944860  1.0  0.7507
  C  C305  1  0.163510  0.201270  0.917160  1.0  -0.1424
  C  C306  1  0.181500  0.173870  0.907580  1.0  -0.1005
  C  C307  1  0.139200  0.176790  0.868000  1.0  -0.1201
  C  C308  1  0.166900  0.159900  0.878800  1.0  0.0089
  C  C309  1  0.329230  0.276940  0.944860  1.0  0.7507
  C  C310  1  0.336490  0.298730  0.917160  1.0  -0.1434
  C  C311  1  0.318500  0.326130  0.907580  1.0  -0.1019
  C  C312  1  0.360800  0.323210  0.868000  1.0  -0.1207
  C  C313  1  0.333100  0.340100  0.878800  1.0  0.0092
  C  C314  1  0.329230  0.776940  0.444860  1.0  0.7507
  C  C315  1  0.336490  0.798730  0.417160  1.0  -0.1434
  C  C316  1  0.318500  0.826130  0.407580  1.0  -0.1019
  C  C317  1  0.360800  0.823210  0.368000  1.0  -0.1207
  C  C318  1  0.333100  0.840100  0.378800  1.0  0.0092
  C  C319  1  0.829230  0.276940  0.444860  1.0  0.7507
  C  C320  1  0.836490  0.298730  0.417160  1.0  -0.1434
  C  C321  1  0.818500  0.326130  0.407580  1.0  -0.1019
  C  C322  1  0.860800  0.323210  0.368000  1.0  -0.1207
  C  C323  1  0.833100  0.340100  0.378800  1.0  0.0092
  C  C324  1  0.829230  0.776940  0.944860  1.0  0.7507
  C  C325  1  0.836490  0.798730  0.917160  1.0  -0.1434
  C  C326  1  0.818500  0.826130  0.907580  1.0  -0.1019
  C  C327  1  0.860800  0.823210  0.868000  1.0  -0.1207
  C  C328  1  0.833100  0.840100  0.878800  1.0  0.0092
  C  C329  1  0.329230  0.723060  0.055140  1.0  0.75
  C  C330  1  0.336490  0.701270  0.082840  1.0  -0.1432
  C  C331  1  0.318500  0.673870  0.092420  1.0  -0.1026
  C  C332  1  0.360800  0.676790  0.132000  1.0  -0.1207
  C  C333  1  0.333100  0.659900  0.121200  1.0  0.009
  C  C334  1  0.329230  0.223060  0.555140  1.0  0.75
  C  C335  1  0.336490  0.201270  0.582840  1.0  -0.1432
  C  C336  1  0.318500  0.173870  0.592420  1.0  -0.1026
  C  C337  1  0.360800  0.176790  0.632000  1.0  -0.1207
  C  C338  1  0.333100  0.159900  0.621200  1.0  0.009
  C  C339  1  0.829230  0.723060  0.555140  1.0  0.75
  C  C340  1  0.836490  0.701270  0.582840  1.0  -0.1432
  C  C341  1  0.818500  0.673870  0.592420  1.0  -0.1026
  C  C342  1  0.860800  0.676790  0.632000  1.0  -0.1207
  C  C343  1  0.833100  0.659900  0.621200  1.0  0.009
  C  C344  1  0.829230  0.223060  0.055140  1.0  0.75
  C  C345  1  0.836490  0.201270  0.082840  1.0  -0.1432
  C  C346  1  0.818500  0.173870  0.092420  1.0  -0.1026
  C  C347  1  0.860800  0.176790  0.132000  1.0  -0.1207
  C  C348  1  0.833100  0.159900  0.121200  1.0  0.009
  C  C349  1  0.670770  0.276940  0.055140  1.0  0.7498
  C  C350  1  0.663510  0.298730  0.082840  1.0  -0.1431
  C  C351  1  0.681500  0.326130  0.092420  1.0  -0.1007
  C  C352  1  0.639200  0.323210  0.132000  1.0  -0.121
  C  C353  1  0.666900  0.340100  0.121200  1.0  0.009
  C  C354  1  0.670770  0.776940  0.555140  1.0  0.7498
  C  C355  1  0.663510  0.798730  0.582840  1.0  -0.1431
  C  C356  1  0.681500  0.826130  0.592420  1.0  -0.1007
  C  C357  1  0.639200  0.823210  0.632000  1.0  -0.121
  C  C358  1  0.666900  0.840100  0.621200  1.0  0.009
  C  C359  1  0.170770  0.276940  0.555140  1.0  0.7498
  C  C360  1  0.163510  0.298730  0.582840  1.0  -0.1431
  C  C361  1  0.181500  0.326130  0.592420  1.0  -0.1007
  C  C362  1  0.139200  0.323210  0.632000  1.0  -0.121
  C  C363  1  0.166900  0.340100  0.621200  1.0  0.009
  C  C364  1  0.170770  0.776940  0.055140  1.0  0.7498
  C  C365  1  0.163510  0.798730  0.082840  1.0  -0.1431
  C  C366  1  0.181500  0.826130  0.092420  1.0  -0.1007
  C  C367  1  0.139200  0.823210  0.132000  1.0  -0.121
  C  C368  1  0.166900  0.840100  0.121200  1.0  0.009
  C  C369  1  0.944860  0.670770  0.723060  1.0  0.747
  C  C370  1  0.917160  0.663510  0.701270  1.0  -0.1434
  C  C371  1  0.907580  0.681500  0.673870  1.0  -0.1005
  C  C372  1  0.868000  0.639200  0.676790  1.0  -0.1218
  C  C373  1  0.878800  0.666900  0.659900  1.0  0.0083
  C  C374  1  0.944860  0.170770  0.223060  1.0  0.747
  C  C375  1  0.917160  0.163510  0.201270  1.0  -0.1434
  C  C376  1  0.907580  0.181500  0.173870  1.0  -0.1005
  C  C377  1  0.868000  0.139200  0.176790  1.0  -0.1218
  C  C378  1  0.878800  0.166900  0.159900  1.0  0.0083
  C  C379  1  0.444860  0.670770  0.223060  1.0  0.747
  C  C380  1  0.417160  0.663510  0.201270  1.0  -0.1434
  C  C381  1  0.407580  0.681500  0.173870  1.0  -0.1005
  C  C382  1  0.368000  0.639200  0.176790  1.0  -0.1218
  C  C383  1  0.378800  0.666900  0.159900  1.0  0.0083
  C  C384  1  0.444860  0.170770  0.723060  1.0  0.747
  C  C385  1  0.417160  0.163510  0.701270  1.0  -0.1434
  C  C386  1  0.407580  0.181500  0.673870  1.0  -0.1005
  C  C387  1  0.368000  0.139200  0.676790  1.0  -0.1218
  C  C388  1  0.378800  0.166900  0.659900  1.0  0.0083
  C  C389  1  0.944860  0.329230  0.276940  1.0  0.7465
  C  C390  1  0.917160  0.336490  0.298730  1.0  -0.1439
  C  C391  1  0.907580  0.318500  0.326130  1.0  -0.1005
  C  C392  1  0.868000  0.360800  0.323210  1.0  -0.1212
  C  C393  1  0.878800  0.333100  0.340100  1.0  0.0088
  C  C394  1  0.944860  0.829230  0.776940  1.0  0.7465
  C  C395  1  0.917160  0.836490  0.798730  1.0  -0.1439
  C  C396  1  0.907580  0.818500  0.826130  1.0  -0.1005
  C  C397  1  0.868000  0.860800  0.823210  1.0  -0.1212
  C  C398  1  0.878800  0.833100  0.840100  1.0  0.0088
  C  C399  1  0.444860  0.329230  0.776940  1.0  0.7465
  C  C400  1  0.417160  0.336490  0.798730  1.0  -0.1439
  C  C401  1  0.407580  0.318500  0.826130  1.0  -0.1005
  C  C402  1  0.368000  0.360800  0.823210  1.0  -0.1212
  C  C403  1  0.378800  0.333100  0.840100  1.0  0.0088
  C  C404  1  0.444860  0.829230  0.276940  1.0  0.7465
  C  C405  1  0.417160  0.836490  0.298730  1.0  -0.1439
  C  C406  1  0.407580  0.818500  0.326130  1.0  -0.1005
  C  C407  1  0.368000  0.860800  0.323210  1.0  -0.1212
  C  C408  1  0.378800  0.833100  0.340100  1.0  0.0088
  C  C409  1  0.055140  0.329230  0.723060  1.0  0.7489
  C  C410  1  0.082840  0.336490  0.701270  1.0  -0.143
  C  C411  1  0.092420  0.318500  0.673870  1.0  -0.1026
  C  C412  1  0.132000  0.360800  0.676790  1.0  -0.1228
  C  C413  1  0.121200  0.333100  0.659900  1.0  0.0076
  C  C414  1  0.055140  0.829230  0.223060  1.0  0.7489
  C  C415  1  0.082840  0.836490  0.201270  1.0  -0.143
  C  C416  1  0.092420  0.818500  0.173870  1.0  -0.1026
  C  C417  1  0.132000  0.860800  0.176790  1.0  -0.1228
  C  C418  1  0.121200  0.833100  0.159900  1.0  0.0076
  C  C419  1  0.555140  0.329230  0.223060  1.0  0.7489
  C  C420  1  0.582840  0.336490  0.201270  1.0  -0.143
  C  C421  1  0.592420  0.318500  0.173870  1.0  -0.1026
  C  C422  1  0.632000  0.360800  0.176790  1.0  -0.1228
  C  C423  1  0.621200  0.333100  0.159900  1.0  0.0076
  C  C424  1  0.555140  0.829230  0.723060  1.0  0.7489
  C  C425  1  0.582840  0.836490  0.701270  1.0  -0.143
  C  C426  1  0.592420  0.818500  0.673870  1.0  -0.1026
  C  C427  1  0.632000  0.860800  0.676790  1.0  -0.1228
  C  C428  1  0.621200  0.833100  0.659900  1.0  0.0076
  C  C429  1  0.055140  0.670770  0.276940  1.0  0.7488
  C  C430  1  0.082840  0.663510  0.298730  1.0  -0.1439
  C  C431  1  0.092420  0.681500  0.326130  1.0  -0.1017
  C  C432  1  0.132000  0.639200  0.323210  1.0  -0.1226
  C  C433  1  0.121200  0.666900  0.340100  1.0  0.0074
  C  C434  1  0.055140  0.170770  0.776940  1.0  0.7488
  C  C435  1  0.082840  0.163510  0.798730  1.0  -0.1439
  C  C436  1  0.092420  0.181500  0.826130  1.0  -0.1017
  C  C437  1  0.132000  0.139200  0.823210  1.0  -0.1226
  C  C438  1  0.121200  0.166900  0.840100  1.0  0.0074
  C  C439  1  0.555140  0.670770  0.776940  1.0  0.7488
  C  C440  1  0.582840  0.663510  0.798730  1.0  -0.1439
  C  C441  1  0.592420  0.681500  0.826130  1.0  -0.1017
  C  C442  1  0.632000  0.639200  0.823210  1.0  -0.1226
  C  C443  1  0.621200  0.666900  0.840100  1.0  0.0074
  C  C444  1  0.555140  0.170770  0.276940  1.0  0.7488
  C  C445  1  0.582840  0.163510  0.298730  1.0  -0.1439
  C  C446  1  0.592420  0.181500  0.326130  1.0  -0.1017
  C  C447  1  0.632000  0.139200  0.323210  1.0  -0.1226
  C  C448  1  0.621200  0.166900  0.340100  1.0  0.0074
  C  C449  1  0.723060  0.944860  0.670770  1.0  0.7491
  C  C450  1  0.701270  0.917160  0.663510  1.0  -0.1447
  C  C451  1  0.673870  0.907580  0.681500  1.0  -0.1019
  C  C452  1  0.676790  0.868000  0.639200  1.0  -0.1187
  C  C453  1  0.659900  0.878800  0.666900  1.0  0.0088
  C  C454  1  0.723060  0.444860  0.170770  1.0  0.7491
  C  C455  1  0.701270  0.417160  0.163510  1.0  -0.1447
  C  C456  1  0.673870  0.407580  0.181500  1.0  -0.1019
  C  C457  1  0.676790  0.368000  0.139200  1.0  -0.1187
  C  C458  1  0.659900  0.378800  0.166900  1.0  0.0088
  C  C459  1  0.223060  0.944860  0.170770  1.0  0.7491
  C  C460  1  0.201270  0.917160  0.163510  1.0  -0.1447
  C  C461  1  0.173870  0.907580  0.181500  1.0  -0.1019
  C  C462  1  0.176790  0.868000  0.139200  1.0  -0.1187
  C  C463  1  0.159900  0.878800  0.166900  1.0  0.0088
  C  C464  1  0.223060  0.444860  0.670770  1.0  0.7491
  C  C465  1  0.201270  0.417160  0.663510  1.0  -0.1447
  C  C466  1  0.173870  0.407580  0.681500  1.0  -0.1019
  C  C467  1  0.176790  0.368000  0.639200  1.0  -0.1187
  C  C468  1  0.159900  0.378800  0.666900  1.0  0.0088
  C  C469  1  0.276940  0.944860  0.329230  1.0  0.7494
  C  C470  1  0.298730  0.917160  0.336490  1.0  -0.1432
  C  C471  1  0.326130  0.907580  0.318500  1.0  -0.1017
  C  C472  1  0.323210  0.868000  0.360800  1.0  -0.119
  C  C473  1  0.340100  0.878800  0.333100  1.0  0.0087
  C  C474  1  0.276940  0.444860  0.829230  1.0  0.7494
  C  C475  1  0.298730  0.417160  0.836490  1.0  -0.1432
  C  C476  1  0.326130  0.407580  0.818500  1.0  -0.1017
  C  C477  1  0.323210  0.368000  0.860800  1.0  -0.119
  C  C478  1  0.340100  0.378800  0.833100  1.0  0.0087
  C  C479  1  0.776940  0.944860  0.829230  1.0  0.7494
  C  C480  1  0.798730  0.917160  0.836490  1.0  -0.1432
  C  C481  1  0.826130  0.907580  0.818500  1.0  -0.1017
  C  C482  1  0.823210  0.868000  0.860800  1.0  -0.119
  C  C483  1  0.840100  0.878800  0.833100  1.0  0.0087
  C  C484  1  0.776940  0.444860  0.329230  1.0  0.7494
  C  C485  1  0.798730  0.417160  0.336490  1.0  -0.1432
  C  C486  1  0.826130  0.407580  0.318500  1.0  -0.1017
  C  C487  1  0.823210  0.368000  0.360800  1.0  -0.119
  C  C488  1  0.840100  0.378800  0.333100  1.0  0.0087
  C  C489  1  0.723060  0.055140  0.329230  1.0  0.7491
  C  C490  1  0.701270  0.082840  0.336490  1.0  -0.1434
  C  C491  1  0.673870  0.092420  0.318500  1.0  -0.1025
  C  C492  1  0.676790  0.132000  0.360800  1.0  -0.1196
  C  C493  1  0.659900  0.121200  0.333100  1.0  0.0091
  C  C494  1  0.723060  0.555140  0.829230  1.0  0.7491
  C  C495  1  0.701270  0.582840  0.836490  1.0  -0.1434
  C  C496  1  0.673870  0.592420  0.818500  1.0  -0.1025
  C  C497  1  0.676790  0.632000  0.860800  1.0  -0.1196
  C  C498  1  0.659900  0.621200  0.833100  1.0  0.0091
  C  C499  1  0.223060  0.055140  0.829230  1.0  0.7491
  C  C500  1  0.201270  0.082840  0.836490  1.0  -0.1434
  C  C501  1  0.173870  0.092420  0.818500  1.0  -0.1025
  C  C502  1  0.176790  0.132000  0.860800  1.0  -0.1196
  C  C503  1  0.159900  0.121200  0.833100  1.0  0.0091
  C  C504  1  0.223060  0.555140  0.329230  1.0  0.7491
  C  C505  1  0.201270  0.582840  0.336490  1.0  -0.1434
  C  C506  1  0.173870  0.592420  0.318500  1.0  -0.1025
  C  C507  1  0.176790  0.632000  0.360800  1.0  -0.1196
  C  C508  1  0.159900  0.621200  0.333100  1.0  0.0091
  C  C509  1  0.276940  0.055140  0.670770  1.0  0.7492
  C  C510  1  0.298730  0.082840  0.663510  1.0  -0.144
  C  C511  1  0.326130  0.092420  0.681500  1.0  -0.1008
  C  C512  1  0.323210  0.132000  0.639200  1.0  -0.1188
  C  C513  1  0.340100  0.121200  0.666900  1.0  0.009
  C  C514  1  0.276940  0.555140  0.170770  1.0  0.7492
  C  C515  1  0.298730  0.582840  0.163510  1.0  -0.144
  C  C516  1  0.326130  0.592420  0.181500  1.0  -0.1008
  C  C517  1  0.323210  0.632000  0.139200  1.0  -0.1188
  C  C518  1  0.340100  0.621200  0.166900  1.0  0.009
  C  C519  1  0.776940  0.055140  0.170770  1.0  0.7492
  C  C520  1  0.798730  0.082840  0.163510  1.0  -0.144
  C  C521  1  0.826130  0.092420  0.181500  1.0  -0.1008
  C  C522  1  0.823210  0.132000  0.139200  1.0  -0.1188
  C  C523  1  0.840100  0.121200  0.166900  1.0  0.009
  C  C524  1  0.776940  0.555140  0.670770  1.0  0.7492
  C  C525  1  0.798730  0.582840  0.663510  1.0  -0.144
  C  C526  1  0.826130  0.592420  0.681500  1.0  -0.1008
  C  C527  1  0.823210  0.632000  0.639200  1.0  -0.1188
  C  C528  1  0.840100  0.621200  0.666900  1.0  0.009
  C  C529  1  0.223060  0.170770  0.555140  1.0  0.7498
  C  C530  1  0.201270  0.163510  0.582840  1.0  -0.1436
  C  C531  1  0.173870  0.181500  0.592420  1.0  -0.1002
  C  C532  1  0.176790  0.139200  0.632000  1.0  -0.1203
  C  C533  1  0.159900  0.166900  0.621200  1.0  0.0089
  C  C534  1  0.223060  0.670770  0.055140  1.0  0.7498
  C  C535  1  0.201270  0.663510  0.082840  1.0  -0.1436
  C  C536  1  0.173870  0.681500  0.092420  1.0  -0.1002
  C  C537  1  0.176790  0.639200  0.132000  1.0  -0.1203
  C  C538  1  0.159900  0.666900  0.121200  1.0  0.0089
  C  C539  1  0.723060  0.170770  0.055140  1.0  0.7498
  C  C540  1  0.701270  0.163510  0.082840  1.0  -0.1436
  C  C541  1  0.673870  0.181500  0.092420  1.0  -0.1002
  C  C542  1  0.676790  0.139200  0.132000  1.0  -0.1203
  C  C543  1  0.659900  0.166900  0.121200  1.0  0.0089
  C  C544  1  0.723060  0.670770  0.555140  1.0  0.7498
  C  C545  1  0.701270  0.663510  0.582840  1.0  -0.1436
  C  C546  1  0.673870  0.681500  0.592420  1.0  -0.1002
  C  C547  1  0.676790  0.639200  0.632000  1.0  -0.1203
  C  C548  1  0.659900  0.666900  0.621200  1.0  0.0089
  C  C549  1  0.776940  0.829230  0.555140  1.0  0.7499
  C  C550  1  0.798730  0.836490  0.582840  1.0  -0.1429
  C  C551  1  0.826130  0.818500  0.592420  1.0  -0.1002
  C  C552  1  0.823210  0.860800  0.632000  1.0  -0.1193
  C  C553  1  0.840100  0.833100  0.621200  1.0  0.0091
  C  C554  1  0.776940  0.329230  0.055140  1.0  0.7499
  C  C555  1  0.798730  0.336490  0.082840  1.0  -0.1429
  C  C556  1  0.826130  0.318500  0.092420  1.0  -0.1002
  C  C557  1  0.823210  0.360800  0.132000  1.0  -0.1193
  C  C558  1  0.840100  0.333100  0.121200  1.0  0.0091
  C  C559  1  0.276940  0.829230  0.055140  1.0  0.7499
  C  C560  1  0.298730  0.836490  0.082840  1.0  -0.1429
  C  C561  1  0.326130  0.818500  0.092420  1.0  -0.1002
  C  C562  1  0.323210  0.860800  0.132000  1.0  -0.1193
  C  C563  1  0.340100  0.833100  0.121200  1.0  0.0091
  C  C564  1  0.276940  0.329230  0.555140  1.0  0.7499
  C  C565  1  0.298730  0.336490  0.582840  1.0  -0.1429
  C  C566  1  0.326130  0.318500  0.592420  1.0  -0.1002
  C  C567  1  0.323210  0.360800  0.632000  1.0  -0.1193
  C  C568  1  0.340100  0.333100  0.621200  1.0  0.0091
  C  C569  1  0.223060  0.829230  0.444860  1.0  0.7506
  C  C570  1  0.201270  0.836490  0.417160  1.0  -0.1434
  C  C571  1  0.173870  0.818500  0.407580  1.0  -0.1011
  C  C572  1  0.176790  0.860800  0.368000  1.0  -0.12
  C  C573  1  0.159900  0.833100  0.378800  1.0  0.0093
  C  C574  1  0.223060  0.329230  0.944860  1.0  0.7506
  C  C575  1  0.201270  0.336490  0.917160  1.0  -0.1434
  C  C576  1  0.173870  0.318500  0.907580  1.0  -0.1011
  C  C577  1  0.176790  0.360800  0.868000  1.0  -0.12
  C  C578  1  0.159900  0.333100  0.878800  1.0  0.0093
  C  C579  1  0.723060  0.829230  0.944860  1.0  0.7506
  C  C580  1  0.701270  0.836490  0.917160  1.0  -0.1434
  C  C581  1  0.673870  0.818500  0.907580  1.0  -0.1011
  C  C582  1  0.676790  0.860800  0.868000  1.0  -0.12
  C  C583  1  0.659900  0.833100  0.878800  1.0  0.0093
  C  C584  1  0.723060  0.329230  0.444860  1.0  0.7506
  C  C585  1  0.701270  0.336490  0.417160  1.0  -0.1434
  C  C586  1  0.673870  0.318500  0.407580  1.0  -0.1011
  C  C587  1  0.676790  0.360800  0.368000  1.0  -0.12
  C  C588  1  0.659900  0.333100  0.378800  1.0  0.0093
  C  C589  1  0.776940  0.170770  0.444860  1.0  0.7509
  C  C590  1  0.798730  0.163510  0.417160  1.0  -0.1434
  C  C591  1  0.826130  0.181500  0.407580  1.0  -0.0997
  C  C592  1  0.823210  0.139200  0.368000  1.0  -0.1196
  C  C593  1  0.840100  0.166900  0.378800  1.0  0.0088
  C  C594  1  0.776940  0.670770  0.944860  1.0  0.7509
  C  C595  1  0.798730  0.663510  0.917160  1.0  -0.1434
  C  C596  1  0.826130  0.681500  0.907580  1.0  -0.0997
  C  C597  1  0.823210  0.639200  0.868000  1.0  -0.1196
  C  C598  1  0.840100  0.666900  0.878800  1.0  0.0088
  C  C599  1  0.276940  0.170770  0.944860  1.0  0.7509
  C  C600  1  0.298730  0.163510  0.917160  1.0  -0.1434
  C  C601  1  0.326130  0.181500  0.907580  1.0  -0.0997
  C  C602  1  0.323210  0.139200  0.868000  1.0  -0.1196
  C  C603  1  0.340100  0.166900  0.878800  1.0  0.0088
  C  C604  1  0.276940  0.670770  0.444860  1.0  0.7509
  C  C605  1  0.298730  0.663510  0.417160  1.0  -0.1434
  C  C606  1  0.326130  0.681500  0.407580  1.0  -0.0997
  C  C607  1  0.323210  0.639200  0.368000  1.0  -0.1196
  C  C608  1  0.340100  0.666900  0.378800  1.0  0.0088
  C  C609  1  0.170770  0.444860  0.776940  1.0  0.7507
  C  C610  1  0.163510  0.417160  0.798730  1.0  -0.1424
  C  C611  1  0.181500  0.407580  0.826130  1.0  -0.1005
  C  C612  1  0.139200  0.368000  0.823210  1.0  -0.1211
  C  C613  1  0.166900  0.378800  0.840100  1.0  0.0089
  C  C614  1  0.170770  0.944860  0.276940  1.0  0.7507
  C  C615  1  0.163510  0.917160  0.298730  1.0  -0.1424
  C  C616  1  0.181500  0.907580  0.326130  1.0  -0.1005
  C  C617  1  0.139200  0.868000  0.323210  1.0  -0.1211
  C  C618  1  0.166900  0.878800  0.340100  1.0  0.0089
  C  C619  1  0.670770  0.444860  0.276940  1.0  0.7507
  C  C620  1  0.663510  0.417160  0.298730  1.0  -0.1424
  C  C621  1  0.681500  0.407580  0.326130  1.0  -0.1005
  C  C622  1  0.639200  0.368000  0.323210  1.0  -0.1211
  C  C623  1  0.666900  0.378800  0.340100  1.0  0.0089
  C  C624  1  0.670770  0.944860  0.776940  1.0  0.7507
  C  C625  1  0.663510  0.917160  0.798730  1.0  -0.1424
  C  C626  1  0.681500  0.907580  0.826130  1.0  -0.1005
  C  C627  1  0.639200  0.868000  0.823210  1.0  -0.1211
  C  C628  1  0.666900  0.878800  0.840100  1.0  0.0089
  C  C629  1  0.829230  0.444860  0.223060  1.0  0.7507
  C  C630  1  0.836490  0.417160  0.201270  1.0  -0.1421
  C  C631  1  0.818500  0.407580  0.173870  1.0  -0.1023
  C  C632  1  0.860800  0.368000  0.176790  1.0  -0.1222
  C  C633  1  0.833100  0.378800  0.159900  1.0  0.0089
  C  C634  1  0.829230  0.944860  0.723060  1.0  0.7507
  C  C635  1  0.836490  0.917160  0.701270  1.0  -0.1421
  C  C636  1  0.818500  0.907580  0.673870  1.0  -0.1023
  C  C637  1  0.860800  0.868000  0.676790  1.0  -0.1222
  C  C638  1  0.833100  0.878800  0.659900  1.0  0.0089
  C  C639  1  0.329230  0.444860  0.723060  1.0  0.7507
  C  C640  1  0.336490  0.417160  0.701270  1.0  -0.1421
  C  C641  1  0.318500  0.407580  0.673870  1.0  -0.1023
  C  C642  1  0.360800  0.368000  0.676790  1.0  -0.1222
  C  C643  1  0.333100  0.378800  0.659900  1.0  0.0089
  C  C644  1  0.329230  0.944860  0.223060  1.0  0.7507
  C  C645  1  0.336490  0.917160  0.201270  1.0  -0.1421
  C  C646  1  0.318500  0.907580  0.173870  1.0  -0.1023
  C  C647  1  0.360800  0.868000  0.176790  1.0  -0.1222
  C  C648  1  0.333100  0.878800  0.159900  1.0  0.0089
  C  C649  1  0.829230  0.555140  0.776940  1.0  0.7505
  C  C650  1  0.836490  0.582840  0.798730  1.0  -0.143
  C  C651  1  0.818500  0.592420  0.826130  1.0  -0.1019
  C  C652  1  0.860800  0.632000  0.823210  1.0  -0.1214
  C  C653  1  0.833100  0.621200  0.840100  1.0  0.0093
  C  C654  1  0.829230  0.055140  0.276940  1.0  0.7505
  C  C655  1  0.836490  0.082840  0.298730  1.0  -0.143
  C  C656  1  0.818500  0.092420  0.326130  1.0  -0.1019
  C  C657  1  0.860800  0.132000  0.323210  1.0  -0.1214
  C  C658  1  0.833100  0.121200  0.340100  1.0  0.0093
  C  C659  1  0.329230  0.555140  0.276940  1.0  0.7505
  C  C660  1  0.336490  0.582840  0.298730  1.0  -0.143
  C  C661  1  0.318500  0.592420  0.326130  1.0  -0.1019
  C  C662  1  0.360800  0.632000  0.323210  1.0  -0.1214
  C  C663  1  0.333100  0.621200  0.340100  1.0  0.0093
  C  C664  1  0.329230  0.055140  0.776940  1.0  0.7505
  C  C665  1  0.336490  0.082840  0.798730  1.0  -0.143
  C  C666  1  0.318500  0.092420  0.826130  1.0  -0.1019
  C  C667  1  0.360800  0.132000  0.823210  1.0  -0.1214
  C  C668  1  0.333100  0.121200  0.840100  1.0  0.0093
  C  C669  1  0.170770  0.555140  0.223060  1.0  0.7505
  C  C670  1  0.163510  0.582840  0.201270  1.0  -0.141
  C  C671  1  0.181500  0.592420  0.173870  1.0  -0.1008
  C  C672  1  0.139200  0.632000  0.176790  1.0  -0.1215
  C  C673  1  0.166900  0.621200  0.159900  1.0  0.0092
  C  C674  1  0.170770  0.055140  0.723060  1.0  0.7505
  C  C675  1  0.163510  0.082840  0.701270  1.0  -0.141
  C  C676  1  0.181500  0.092420  0.673870  1.0  -0.1008
  C  C677  1  0.139200  0.132000  0.676790  1.0  -0.1215
  C  C678  1  0.166900  0.121200  0.659900  1.0  0.0092
  C  C679  1  0.670770  0.555140  0.723060  1.0  0.7505
  C  C680  1  0.663510  0.582840  0.701270  1.0  -0.141
  C  C681  1  0.681500  0.592420  0.673870  1.0  -0.1008
  C  C682  1  0.639200  0.632000  0.676790  1.0  -0.1215
  C  C683  1  0.666900  0.621200  0.659900  1.0  0.0092
  C  C684  1  0.670770  0.055140  0.223060  1.0  0.7505
  C  C685  1  0.663510  0.082840  0.201270  1.0  -0.141
  C  C686  1  0.681500  0.092420  0.173870  1.0  -0.1008
  C  C687  1  0.639200  0.132000  0.176790  1.0  -0.1215
  C  C688  1  0.666900  0.121200  0.159900  1.0  0.0092
  C  C689  1  0.444860  0.223060  0.829230  1.0  0.7475
  C  C690  1  0.417160  0.201270  0.836490  1.0  -0.1448
  C  C691  1  0.407580  0.173870  0.818500  1.0  -0.1027
  C  C692  1  0.368000  0.176790  0.860800  1.0  -0.1205
  C  C693  1  0.378800  0.159900  0.833100  1.0  0.0082
  C  C694  1  0.444860  0.723060  0.329230  1.0  0.7475
  C  C695  1  0.417160  0.701270  0.336490  1.0  -0.1448
  C  C696  1  0.407580  0.673870  0.318500  1.0  -0.1027
  C  C697  1  0.368000  0.676790  0.360800  1.0  -0.1205
  C  C698  1  0.378800  0.659900  0.333100  1.0  0.0082
  C  C699  1  0.944860  0.223060  0.329230  1.0  0.7475
  C  C700  1  0.917160  0.201270  0.336490  1.0  -0.1448
  C  C701  1  0.907580  0.173870  0.318500  1.0  -0.1027
  C  C702  1  0.868000  0.176790  0.360800  1.0  -0.1205
  C  C703  1  0.878800  0.159900  0.333100  1.0  0.0082
  C  C704  1  0.944860  0.723060  0.829230  1.0  0.7475
  C  C705  1  0.917160  0.701270  0.836490  1.0  -0.1448
  C  C706  1  0.907580  0.673870  0.818500  1.0  -0.1027
  C  C707  1  0.868000  0.676790  0.860800  1.0  -0.1205
  C  C708  1  0.878800  0.659900  0.833100  1.0  0.0082
  C  C709  1  0.444860  0.776940  0.170770  1.0  0.7467
  C  C710  1  0.417160  0.798730  0.163510  1.0  -0.1461
  C  C711  1  0.407580  0.826130  0.181500  1.0  -0.1016
  C  C712  1  0.368000  0.823210  0.139200  1.0  -0.1195
  C  C713  1  0.378800  0.840100  0.166900  1.0  0.0083
  C  C714  1  0.444860  0.276940  0.670770  1.0  0.7467
  C  C715  1  0.417160  0.298730  0.663510  1.0  -0.1461
  C  C716  1  0.407580  0.326130  0.681500  1.0  -0.1016
  C  C717  1  0.368000  0.323210  0.639200  1.0  -0.1195
  C  C718  1  0.378800  0.340100  0.666900  1.0  0.0083
  C  C719  1  0.944860  0.776940  0.670770  1.0  0.7467
  C  C720  1  0.917160  0.798730  0.663510  1.0  -0.1461
  C  C721  1  0.907580  0.826130  0.681500  1.0  -0.1016
  C  C722  1  0.868000  0.823210  0.639200  1.0  -0.1195
  C  C723  1  0.878800  0.840100  0.666900  1.0  0.0083
  C  C724  1  0.944860  0.276940  0.170770  1.0  0.7467
  C  C725  1  0.917160  0.298730  0.163510  1.0  -0.1461
  C  C726  1  0.907580  0.326130  0.181500  1.0  -0.1016
  C  C727  1  0.868000  0.323210  0.139200  1.0  -0.1195
  C  C728  1  0.878800  0.340100  0.166900  1.0  0.0083
  C  C729  1  0.555140  0.223060  0.170770  1.0  0.7489
  C  C730  1  0.582840  0.201270  0.163510  1.0  -0.1447
  C  C731  1  0.592420  0.173870  0.181500  1.0  -0.1034
  C  C732  1  0.632000  0.176790  0.139200  1.0  -0.1201
  C  C733  1  0.621200  0.159900  0.166900  1.0  0.0071
  C  C734  1  0.555140  0.723060  0.670770  1.0  0.7489
  C  C735  1  0.582840  0.701270  0.663510  1.0  -0.1447
  C  C736  1  0.592420  0.673870  0.681500  1.0  -0.1034
  C  C737  1  0.632000  0.676790  0.639200  1.0  -0.1201
  C  C738  1  0.621200  0.659900  0.666900  1.0  0.0071
  C  C739  1  0.055140  0.223060  0.670770  1.0  0.7489
  C  C740  1  0.082840  0.201270  0.663510  1.0  -0.1447
  C  C741  1  0.092420  0.173870  0.681500  1.0  -0.1034
  C  C742  1  0.132000  0.176790  0.639200  1.0  -0.1201
  C  C743  1  0.121200  0.159900  0.666900  1.0  0.0071
  C  C744  1  0.055140  0.723060  0.170770  1.0  0.7489
  C  C745  1  0.082840  0.701270  0.163510  1.0  -0.1447
  C  C746  1  0.092420  0.673870  0.181500  1.0  -0.1034
  C  C747  1  0.132000  0.676790  0.139200  1.0  -0.1201
  C  C748  1  0.121200  0.659900  0.166900  1.0  0.0071
  C  C749  1  0.555140  0.776940  0.829230  1.0  0.7492
  C  C750  1  0.582840  0.798730  0.836490  1.0  -0.1441
  C  C751  1  0.592420  0.826130  0.818500  1.0  -0.1035
  C  C752  1  0.632000  0.823210  0.860800  1.0  -0.1211
  C  C753  1  0.621200  0.840100  0.833100  1.0  0.0072
  C  C754  1  0.555140  0.276940  0.329230  1.0  0.7492
  C  C755  1  0.582840  0.298730  0.336490  1.0  -0.1441
  C  C756  1  0.592420  0.326130  0.318500  1.0  -0.1035
  C  C757  1  0.632000  0.323210  0.360800  1.0  -0.1211
  C  C758  1  0.621200  0.340100  0.333100  1.0  0.0072
  C  C759  1  0.055140  0.776940  0.329230  1.0  0.7492
  C  C760  1  0.082840  0.798730  0.336490  1.0  -0.1441
  C  C761  1  0.092420  0.826130  0.318500  1.0  -0.1035
  C  C762  1  0.132000  0.823210  0.360800  1.0  -0.1211
  C  C763  1  0.121200  0.840100  0.333100  1.0  0.0072
  C  C764  1  0.055140  0.276940  0.829230  1.0  0.7492
  C  C765  1  0.082840  0.298730  0.836490  1.0  -0.1441
  C  C766  1  0.092420  0.326130  0.818500  1.0  -0.1035
  C  C767  1  0.132000  0.323210  0.860800  1.0  -0.1211
  C  C768  1  0.121200  0.340100  0.833100  1.0  0.0072
  C  C769  1  0.329230  0.276940  0.055140  1.0  0.7493
  C  C770  1  0.336490  0.298730  0.082840  1.0  -0.1434
  C  C771  1  0.318500  0.326130  0.092420  1.0  -0.102
  C  C772  1  0.360800  0.323210  0.132000  1.0  -0.1207
  C  C773  1  0.333100  0.340100  0.121200  1.0  0.0091
  C  C774  1  0.329230  0.776940  0.555140  1.0  0.7493
  C  C775  1  0.336490  0.798730  0.582840  1.0  -0.1434
  C  C776  1  0.318500  0.826130  0.592420  1.0  -0.102
  C  C777  1  0.360800  0.823210  0.632000  1.0  -0.1207
  C  C778  1  0.333100  0.840100  0.621200  1.0  0.0091
  C  C779  1  0.829230  0.276940  0.555140  1.0  0.7493
  C  C780  1  0.836490  0.298730  0.582840  1.0  -0.1434
  C  C781  1  0.818500  0.326130  0.592420  1.0  -0.102
  C  C782  1  0.860800  0.323210  0.632000  1.0  -0.1207
  C  C783  1  0.833100  0.340100  0.621200  1.0  0.0091
  C  C784  1  0.829230  0.776940  0.055140  1.0  0.7493
  C  C785  1  0.836490  0.798730  0.082840  1.0  -0.1434
  C  C786  1  0.818500  0.826130  0.092420  1.0  -0.102
  C  C787  1  0.860800  0.823210  0.132000  1.0  -0.1207
  C  C788  1  0.833100  0.840100  0.121200  1.0  0.0091
  C  C789  1  0.670770  0.723060  0.055140  1.0  0.7504
  C  C790  1  0.663510  0.701270  0.082840  1.0  -0.1424
  C  C791  1  0.681500  0.673870  0.092420  1.0  -0.1013
  C  C792  1  0.639200  0.676790  0.132000  1.0  -0.1204
  C  C793  1  0.666900  0.659900  0.121200  1.0  0.0088
  C  C794  1  0.670770  0.223060  0.555140  1.0  0.7504
  C  C795  1  0.663510  0.201270  0.582840  1.0  -0.1424
  C  C796  1  0.681500  0.173870  0.592420  1.0  -0.1013
  C  C797  1  0.639200  0.176790  0.632000  1.0  -0.1204
  C  C798  1  0.666900  0.159900  0.621200  1.0  0.0088
  C  C799  1  0.170770  0.723060  0.555140  1.0  0.7504
  C  C800  1  0.163510  0.701270  0.582840  1.0  -0.1424
  C  C801  1  0.181500  0.673870  0.592420  1.0  -0.1013
  C  C802  1  0.139200  0.676790  0.632000  1.0  -0.1204
  C  C803  1  0.166900  0.659900  0.621200  1.0  0.0088
  C  C804  1  0.170770  0.223060  0.055140  1.0  0.7504
  C  C805  1  0.163510  0.201270  0.082840  1.0  -0.1424
  C  C806  1  0.181500  0.173870  0.092420  1.0  -0.1013
  C  C807  1  0.139200  0.176790  0.132000  1.0  -0.1204
  C  C808  1  0.166900  0.159900  0.121200  1.0  0.0088
  C  C809  1  0.670770  0.276940  0.944860  1.0  0.7506
  C  C810  1  0.663510  0.298730  0.917160  1.0  -0.1431
  C  C811  1  0.681500  0.326130  0.907580  1.0  -0.1002
  C  C812  1  0.639200  0.323210  0.868000  1.0  -0.1208
  C  C813  1  0.666900  0.340100  0.878800  1.0  0.009
  C  C814  1  0.670770  0.776940  0.444860  1.0  0.7506
  C  C815  1  0.663510  0.798730  0.417160  1.0  -0.1431
  C  C816  1  0.681500  0.826130  0.407580  1.0  -0.1002
  C  C817  1  0.639200  0.823210  0.368000  1.0  -0.1208
  C  C818  1  0.666900  0.840100  0.378800  1.0  0.009
  C  C819  1  0.170770  0.276940  0.444860  1.0  0.7506
  C  C820  1  0.163510  0.298730  0.417160  1.0  -0.1431
  C  C821  1  0.181500  0.326130  0.407580  1.0  -0.1002
  C  C822  1  0.139200  0.323210  0.368000  1.0  -0.1208
  C  C823  1  0.166900  0.340100  0.378800  1.0  0.009
  C  C824  1  0.170770  0.776940  0.944860  1.0  0.7506
  C  C825  1  0.163510  0.798730  0.917160  1.0  -0.1431
  C  C826  1  0.181500  0.826130  0.907580  1.0  -0.1002
  C  C827  1  0.139200  0.823210  0.868000  1.0  -0.1208
  C  C828  1  0.166900  0.840100  0.878800  1.0  0.009
  C  C829  1  0.329230  0.723060  0.944860  1.0  0.751
  C  C830  1  0.336490  0.701270  0.917160  1.0  -0.1433
  C  C831  1  0.318500  0.673870  0.907580  1.0  -0.1021
  C  C832  1  0.360800  0.676790  0.868000  1.0  -0.1206
  C  C833  1  0.333100  0.659900  0.878800  1.0  0.0091
  C  C834  1  0.329230  0.223060  0.444860  1.0  0.751
  C  C835  1  0.336490  0.201270  0.417160  1.0  -0.1433
  C  C836  1  0.318500  0.173870  0.407580  1.0  -0.1021
  C  C837  1  0.360800  0.176790  0.368000  1.0  -0.1206
  C  C838  1  0.333100  0.159900  0.378800  1.0  0.0091
  C  C839  1  0.829230  0.723060  0.444860  1.0  0.751
  C  C840  1  0.836490  0.701270  0.417160  1.0  -0.1433
  C  C841  1  0.818500  0.673870  0.407580  1.0  -0.1021
  C  C842  1  0.860800  0.676790  0.368000  1.0  -0.1206
  C  C843  1  0.833100  0.659900  0.378800  1.0  0.0091
  C  C844  1  0.829230  0.223060  0.944860  1.0  0.751
  C  C845  1  0.836490  0.201270  0.917160  1.0  -0.1433
  C  C846  1  0.818500  0.173870  0.907580  1.0  -0.1021
  C  C847  1  0.860800  0.176790  0.868000  1.0  -0.1206
  C  C848  1  0.833100  0.159900  0.878800  1.0  0.0091
  C  C849  1  0.055140  0.329230  0.276940  1.0  0.7488
  C  C850  1  0.082840  0.336490  0.298730  1.0  -0.1433
  C  C851  1  0.092420  0.318500  0.326130  1.0  -0.1024
  C  C852  1  0.132000  0.360800  0.323210  1.0  -0.1218
  C  C853  1  0.121200  0.333100  0.340100  1.0  0.0077
  C  C854  1  0.055140  0.829230  0.776940  1.0  0.7488
  C  C855  1  0.082840  0.836490  0.798730  1.0  -0.1433
  C  C856  1  0.092420  0.818500  0.826130  1.0  -0.1024
  C  C857  1  0.132000  0.860800  0.823210  1.0  -0.1218
  C  C858  1  0.121200  0.833100  0.840100  1.0  0.0077
  C  C859  1  0.555140  0.329230  0.776940  1.0  0.7488
  C  C860  1  0.582840  0.336490  0.798730  1.0  -0.1433
  C  C861  1  0.592420  0.318500  0.826130  1.0  -0.1024
  C  C862  1  0.632000  0.360800  0.823210  1.0  -0.1218
  C  C863  1  0.621200  0.333100  0.840100  1.0  0.0077
  C  C864  1  0.555140  0.829230  0.276940  1.0  0.7488
  C  C865  1  0.582840  0.836490  0.298730  1.0  -0.1433
  C  C866  1  0.592420  0.818500  0.326130  1.0  -0.1024
  C  C867  1  0.632000  0.860800  0.323210  1.0  -0.1218
  C  C868  1  0.621200  0.833100  0.340100  1.0  0.0077
  C  C869  1  0.055140  0.670770  0.723060  1.0  0.7489
  C  C870  1  0.082840  0.663510  0.701270  1.0  -0.1427
  C  C871  1  0.092420  0.681500  0.673870  1.0  -0.1018
  C  C872  1  0.132000  0.639200  0.676790  1.0  -0.1226
  C  C873  1  0.121200  0.666900  0.659900  1.0  0.0073
  C  C874  1  0.055140  0.170770  0.223060  1.0  0.7489
  C  C875  1  0.082840  0.163510  0.201270  1.0  -0.1427
  C  C876  1  0.092420  0.181500  0.173870  1.0  -0.1018
  C  C877  1  0.132000  0.139200  0.176790  1.0  -0.1226
  C  C878  1  0.121200  0.166900  0.159900  1.0  0.0073
  C  C879  1  0.555140  0.670770  0.223060  1.0  0.7489
  C  C880  1  0.582840  0.663510  0.201270  1.0  -0.1427
  C  C881  1  0.592420  0.681500  0.173870  1.0  -0.1018
  C  C882  1  0.632000  0.639200  0.176790  1.0  -0.1226
  C  C883  1  0.621200  0.666900  0.159900  1.0  0.0073
  C  C884  1  0.555140  0.170770  0.723060  1.0  0.7489
  C  C885  1  0.582840  0.163510  0.701270  1.0  -0.1427
  C  C886  1  0.592420  0.181500  0.673870  1.0  -0.1018
  C  C887  1  0.632000  0.139200  0.676790  1.0  -0.1226
  C  C888  1  0.621200  0.166900  0.659900  1.0  0.0073
  C  C889  1  0.944860  0.670770  0.276940  1.0  0.7467
  C  C890  1  0.917160  0.663510  0.298730  1.0  -0.1443
  C  C891  1  0.907580  0.681500  0.326130  1.0  -0.1004
  C  C892  1  0.868000  0.639200  0.323210  1.0  -0.1216
  C  C893  1  0.878800  0.666900  0.340100  1.0  0.0084
  C  C894  1  0.944860  0.170770  0.776940  1.0  0.7467
  C  C895  1  0.917160  0.163510  0.798730  1.0  -0.1443
  C  C896  1  0.907580  0.181500  0.826130  1.0  -0.1004
  C  C897  1  0.868000  0.139200  0.823210  1.0  -0.1216
  C  C898  1  0.878800  0.166900  0.840100  1.0  0.0084
  C  C899  1  0.444860  0.670770  0.776940  1.0  0.7467
  C  C900  1  0.417160  0.663510  0.798730  1.0  -0.1443
  C  C901  1  0.407580  0.681500  0.826130  1.0  -0.1004
  C  C902  1  0.368000  0.639200  0.823210  1.0  -0.1216
  C  C903  1  0.378800  0.666900  0.840100  1.0  0.0084
  C  C904  1  0.444860  0.170770  0.276940  1.0  0.7467
  C  C905  1  0.417160  0.163510  0.298730  1.0  -0.1443
  C  C906  1  0.407580  0.181500  0.326130  1.0  -0.1004
  C  C907  1  0.368000  0.139200  0.323210  1.0  -0.1216
  C  C908  1  0.378800  0.166900  0.340100  1.0  0.0084
  C  C909  1  0.944860  0.329230  0.723060  1.0  0.7466
  C  C910  1  0.917160  0.336490  0.701270  1.0  -0.1437
  C  C911  1  0.907580  0.318500  0.673870  1.0  -0.1008
  C  C912  1  0.868000  0.360800  0.676790  1.0  -0.1222
  C  C913  1  0.878800  0.333100  0.659900  1.0  0.0086
  C  C914  1  0.944860  0.829230  0.223060  1.0  0.7466
  C  C915  1  0.917160  0.836490  0.201270  1.0  -0.1437
  C  C916  1  0.907580  0.818500  0.173870  1.0  -0.1008
  C  C917  1  0.868000  0.860800  0.176790  1.0  -0.1222
  C  C918  1  0.878800  0.833100  0.159900  1.0  0.0086
  C  C919  1  0.444860  0.329230  0.223060  1.0  0.7466
  C  C920  1  0.417160  0.336490  0.201270  1.0  -0.1437
  C  C921  1  0.407580  0.318500  0.173870  1.0  -0.1008
  C  C922  1  0.368000  0.360800  0.176790  1.0  -0.1222
  C  C923  1  0.378800  0.333100  0.159900  1.0  0.0086
  C  C924  1  0.444860  0.829230  0.723060  1.0  0.7466
  C  C925  1  0.417160  0.836490  0.701270  1.0  -0.1437
  C  C926  1  0.407580  0.818500  0.673870  1.0  -0.1008
  C  C927  1  0.368000  0.860800  0.676790  1.0  -0.1222
  C  C928  1  0.378800  0.833100  0.659900  1.0  0.0086
  C  C929  1  0.276940  0.055140  0.329230  1.0  0.7493
  C  C930  1  0.298730  0.082840  0.336490  1.0  -0.1431
  C  C931  1  0.326130  0.092420  0.318500  1.0  -0.1019
  C  C932  1  0.323210  0.132000  0.360800  1.0  -0.1189
  C  C933  1  0.340100  0.121200  0.333100  1.0  0.009
  C  C934  1  0.276940  0.555140  0.829230  1.0  0.7493
  C  C935  1  0.298730  0.582840  0.836490  1.0  -0.1431
  C  C936  1  0.326130  0.592420  0.818500  1.0  -0.1019
  C  C937  1  0.323210  0.632000  0.860800  1.0  -0.1189
  C  C938  1  0.340100  0.621200  0.833100  1.0  0.009
  C  C939  1  0.776940  0.055140  0.829230  1.0  0.7493
  C  C940  1  0.798730  0.082840  0.836490  1.0  -0.1431
  C  C941  1  0.826130  0.092420  0.818500  1.0  -0.1019
  C  C942  1  0.823210  0.132000  0.860800  1.0  -0.1189
  C  C943  1  0.840100  0.121200  0.833100  1.0  0.009
  C  C944  1  0.776940  0.555140  0.329230  1.0  0.7493
  C  C945  1  0.798730  0.582840  0.336490  1.0  -0.1431
  C  C946  1  0.826130  0.592420  0.318500  1.0  -0.1019
  C  C947  1  0.823210  0.632000  0.360800  1.0  -0.1189
  C  C948  1  0.840100  0.621200  0.333100  1.0  0.009
  C  C949  1  0.723060  0.055140  0.670770  1.0  0.7488
  C  C950  1  0.701270  0.082840  0.663510  1.0  -0.1446
  C  C951  1  0.673870  0.092420  0.681500  1.0  -0.1018
  C  C952  1  0.676790  0.132000  0.639200  1.0  -0.1191
  C  C953  1  0.659900  0.121200  0.666900  1.0  0.0092
  C  C954  1  0.723060  0.555140  0.170770  1.0  0.7488
  C  C955  1  0.701270  0.582840  0.163510  1.0  -0.1446
  C  C956  1  0.673870  0.592420  0.181500  1.0  -0.1018
  C  C957  1  0.676790  0.632000  0.139200  1.0  -0.1191
  C  C958  1  0.659900  0.621200  0.166900  1.0  0.0092
  C  C959  1  0.223060  0.055140  0.170770  1.0  0.7488
  C  C960  1  0.201270  0.082840  0.163510  1.0  -0.1446
  C  C961  1  0.173870  0.092420  0.181500  1.0  -0.1018
  C  C962  1  0.176790  0.132000  0.139200  1.0  -0.1191
  C  C963  1  0.159900  0.121200  0.166900  1.0  0.0092
  C  C964  1  0.223060  0.555140  0.670770  1.0  0.7488
  C  C965  1  0.201270  0.582840  0.663510  1.0  -0.1446
  C  C966  1  0.173870  0.592420  0.681500  1.0  -0.1018
  C  C967  1  0.176790  0.632000  0.639200  1.0  -0.1191
  C  C968  1  0.159900  0.621200  0.666900  1.0  0.0092
  C  C969  1  0.276940  0.944860  0.670770  1.0  0.7493
  C  C970  1  0.298730  0.917160  0.663510  1.0  -0.1441
  C  C971  1  0.326130  0.907580  0.681500  1.0  -0.1009
  C  C972  1  0.323210  0.868000  0.639200  1.0  -0.1183
  C  C973  1  0.340100  0.878800  0.666900  1.0  0.0086
  C  C974  1  0.276940  0.444860  0.170770  1.0  0.7493
  C  C975  1  0.298730  0.417160  0.163510  1.0  -0.1441
  C  C976  1  0.326130  0.407580  0.181500  1.0  -0.1009
  C  C977  1  0.323210  0.368000  0.139200  1.0  -0.1183
  C  C978  1  0.340100  0.378800  0.166900  1.0  0.0086
  C  C979  1  0.776940  0.944860  0.170770  1.0  0.7493
  C  C980  1  0.798730  0.917160  0.163510  1.0  -0.1441
  C  C981  1  0.826130  0.907580  0.181500  1.0  -0.1009
  C  C982  1  0.823210  0.868000  0.139200  1.0  -0.1183
  C  C983  1  0.840100  0.878800  0.166900  1.0  0.0086
  C  C984  1  0.776940  0.444860  0.670770  1.0  0.7493
  C  C985  1  0.798730  0.417160  0.663510  1.0  -0.1441
  C  C986  1  0.826130  0.407580  0.681500  1.0  -0.1009
  C  C987  1  0.823210  0.368000  0.639200  1.0  -0.1183
  C  C988  1  0.840100  0.378800  0.666900  1.0  0.0086
  C  C989  1  0.723060  0.944860  0.329230  1.0  0.7493
  C  C990  1  0.701270  0.917160  0.336490  1.0  -0.1437
  C  C991  1  0.673870  0.907580  0.318500  1.0  -0.1023
  C  C992  1  0.676790  0.868000  0.360800  1.0  -0.1197
  C  C993  1  0.659900  0.878800  0.333100  1.0  0.0088
  C  C994  1  0.723060  0.444860  0.829230  1.0  0.7493
  C  C995  1  0.701270  0.417160  0.836490  1.0  -0.1437
  C  C996  1  0.673870  0.407580  0.818500  1.0  -0.1023
  C  C997  1  0.676790  0.368000  0.860800  1.0  -0.1197
  C  C998  1  0.659900  0.378800  0.833100  1.0  0.0088
  C  C999  1  0.223060  0.944860  0.829230  1.0  0.7493
  C  C1000  1  0.201270  0.917160  0.836490  1.0  -0.1437
  C  C1001  1  0.173870  0.907580  0.818500  1.0  -0.1023
  C  C1002  1  0.176790  0.868000  0.860800  1.0  -0.1197
  C  C1003  1  0.159900  0.878800  0.833100  1.0  0.0088
  C  C1004  1  0.223060  0.444860  0.329230  1.0  0.7493
  C  C1005  1  0.201270  0.417160  0.336490  1.0  -0.1437
  C  C1006  1  0.173870  0.407580  0.318500  1.0  -0.1023
  C  C1007  1  0.176790  0.368000  0.360800  1.0  -0.1197
  C  C1008  1  0.159900  0.378800  0.333100  1.0  0.0088
  C  C1009  1  0.776940  0.829230  0.444860  1.0  0.7506
  C  C1010  1  0.798730  0.836490  0.417160  1.0  -0.1427
  C  C1011  1  0.826130  0.818500  0.407580  1.0  -0.0999
  C  C1012  1  0.823210  0.860800  0.368000  1.0  -0.1188
  C  C1013  1  0.840100  0.833100  0.378800  1.0  0.0092
  C  C1014  1  0.776940  0.329230  0.944860  1.0  0.7506
  C  C1015  1  0.798730  0.336490  0.917160  1.0  -0.1427
  C  C1016  1  0.826130  0.318500  0.907580  1.0  -0.0999
  C  C1017  1  0.823210  0.360800  0.868000  1.0  -0.1188
  C  C1018  1  0.840100  0.333100  0.878800  1.0  0.0092
  C  C1019  1  0.276940  0.829230  0.944860  1.0  0.7506
  C  C1020  1  0.298730  0.836490  0.917160  1.0  -0.1427
  C  C1021  1  0.326130  0.818500  0.907580  1.0  -0.0999
  C  C1022  1  0.323210  0.860800  0.868000  1.0  -0.1188
  C  C1023  1  0.340100  0.833100  0.878800  1.0  0.0092
  C  C1024  1  0.276940  0.329230  0.444860  1.0  0.7506
  C  C1025  1  0.298730  0.336490  0.417160  1.0  -0.1427
  C  C1026  1  0.326130  0.318500  0.407580  1.0  -0.0999
  C  C1027  1  0.323210  0.360800  0.368000  1.0  -0.1188
  C  C1028  1  0.340100  0.333100  0.378800  1.0  0.0092
  C  C1029  1  0.223060  0.170770  0.444860  1.0  0.7506
  C  C1030  1  0.201270  0.163510  0.417160  1.0  -0.1436
  C  C1031  1  0.173870  0.181500  0.407580  1.0  -0.1003
  C  C1032  1  0.176790  0.139200  0.368000  1.0  -0.12
  C  C1033  1  0.159900  0.166900  0.378800  1.0  0.009
  C  C1034  1  0.223060  0.670770  0.944860  1.0  0.7506
  C  C1035  1  0.201270  0.663510  0.917160  1.0  -0.1436
  C  C1036  1  0.173870  0.681500  0.907580  1.0  -0.1003
  C  C1037  1  0.176790  0.639200  0.868000  1.0  -0.12
  C  C1038  1  0.159900  0.666900  0.878800  1.0  0.009
  C  C1039  1  0.723060  0.170770  0.944860  1.0  0.7506
  C  C1040  1  0.701270  0.163510  0.917160  1.0  -0.1436
  C  C1041  1  0.673870  0.181500  0.907580  1.0  -0.1003
  C  C1042  1  0.676790  0.139200  0.868000  1.0  -0.12
  C  C1043  1  0.659900  0.166900  0.878800  1.0  0.009
  C  C1044  1  0.723060  0.670770  0.444860  1.0  0.7506
  C  C1045  1  0.701270  0.663510  0.417160  1.0  -0.1436
  C  C1046  1  0.673870  0.681500  0.407580  1.0  -0.1003
  C  C1047  1  0.676790  0.639200  0.368000  1.0  -0.12
  C  C1048  1  0.659900  0.666900  0.378800  1.0  0.009
  C  C1049  1  0.776940  0.170770  0.555140  1.0  0.7502
  C  C1050  1  0.798730  0.163510  0.582840  1.0  -0.1434
  C  C1051  1  0.826130  0.181500  0.592420  1.0  -0.0999
  C  C1052  1  0.823210  0.139200  0.632000  1.0  -0.1201
  C  C1053  1  0.840100  0.166900  0.621200  1.0  0.0088
  C  C1054  1  0.776940  0.670770  0.055140  1.0  0.7502
  C  C1055  1  0.798730  0.663510  0.082840  1.0  -0.1434
  C  C1056  1  0.826130  0.681500  0.092420  1.0  -0.0999
  C  C1057  1  0.823210  0.639200  0.132000  1.0  -0.1201
  C  C1058  1  0.840100  0.666900  0.121200  1.0  0.0088
  C  C1059  1  0.276940  0.170770  0.055140  1.0  0.7502
  C  C1060  1  0.298730  0.163510  0.082840  1.0  -0.1434
  C  C1061  1  0.326130  0.181500  0.092420  1.0  -0.0999
  C  C1062  1  0.323210  0.139200  0.132000  1.0  -0.1201
  C  C1063  1  0.340100  0.166900  0.121200  1.0  0.0088
  C  C1064  1  0.276940  0.670770  0.555140  1.0  0.7502
  C  C1065  1  0.298730  0.663510  0.582840  1.0  -0.1434
  C  C1066  1  0.326130  0.681500  0.592420  1.0  -0.0999
  C  C1067  1  0.323210  0.639200  0.632000  1.0  -0.1201
  C  C1068  1  0.340100  0.666900  0.621200  1.0  0.0088
  C  C1069  1  0.223060  0.829230  0.555140  1.0  0.7499
  C  C1070  1  0.201270  0.836490  0.582840  1.0  -0.1435
  C  C1071  1  0.173870  0.818500  0.592420  1.0  -0.1011
  C  C1072  1  0.176790  0.860800  0.632000  1.0  -0.1202
  C  C1073  1  0.159900  0.833100  0.621200  1.0  0.0092
  C  C1074  1  0.223060  0.329230  0.055140  1.0  0.7499
  C  C1075  1  0.201270  0.336490  0.082840  1.0  -0.1435
  C  C1076  1  0.173870  0.318500  0.092420  1.0  -0.1011
  C  C1077  1  0.176790  0.360800  0.132000  1.0  -0.1202
  C  C1078  1  0.159900  0.333100  0.121200  1.0  0.0092
  C  C1079  1  0.723060  0.829230  0.055140  1.0  0.7499
  C  C1080  1  0.701270  0.836490  0.082840  1.0  -0.1435
  C  C1081  1  0.673870  0.818500  0.092420  1.0  -0.1011
  C  C1082  1  0.676790  0.860800  0.132000  1.0  -0.1202
  C  C1083  1  0.659900  0.833100  0.121200  1.0  0.0092
  C  C1084  1  0.723060  0.329230  0.555140  1.0  0.7499
  C  C1085  1  0.701270  0.336490  0.582840  1.0  -0.1435
  C  C1086  1  0.673870  0.318500  0.592420  1.0  -0.1011
  C  C1087  1  0.676790  0.360800  0.632000  1.0  -0.1202
  C  C1088  1  0.659900  0.333100  0.621200  1.0  0.0092
  C  C1089  1  0.829230  0.555140  0.223060  1.0  0.7507
  C  C1090  1  0.836490  0.582840  0.201270  1.0  -0.1419
  C  C1091  1  0.818500  0.592420  0.173870  1.0  -0.1023
  C  C1092  1  0.860800  0.632000  0.176790  1.0  -0.1218
  C  C1093  1  0.833100  0.621200  0.159900  1.0  0.0092
  C  C1094  1  0.829230  0.055140  0.723060  1.0  0.7507
  C  C1095  1  0.836490  0.082840  0.701270  1.0  -0.1419
  C  C1096  1  0.818500  0.092420  0.673870  1.0  -0.1023
  C  C1097  1  0.860800  0.132000  0.676790  1.0  -0.1218
  C  C1098  1  0.833100  0.121200  0.659900  1.0  0.0092
  C  C1099  1  0.329230  0.555140  0.723060  1.0  0.7507
  C  C1100  1  0.336490  0.582840  0.701270  1.0  -0.1419
  C  C1101  1  0.318500  0.592420  0.673870  1.0  -0.1023
  C  C1102  1  0.360800  0.632000  0.676790  1.0  -0.1218
  C  C1103  1  0.333100  0.621200  0.659900  1.0  0.0092
  C  C1104  1  0.329230  0.055140  0.223060  1.0  0.7507
  C  C1105  1  0.336490  0.082840  0.201270  1.0  -0.1419
  C  C1106  1  0.318500  0.092420  0.173870  1.0  -0.1023
  C  C1107  1  0.360800  0.132000  0.176790  1.0  -0.1218
  C  C1108  1  0.333100  0.121200  0.159900  1.0  0.0092
  C  C1109  1  0.170770  0.555140  0.776940  1.0  0.7504
  C  C1110  1  0.163510  0.582840  0.798730  1.0  -0.1421
  C  C1111  1  0.181500  0.592420  0.826130  1.0  -0.1005
  C  C1112  1  0.139200  0.632000  0.823210  1.0  -0.1214
  C  C1113  1  0.166900  0.621200  0.840100  1.0  0.0093
  C  C1114  1  0.170770  0.055140  0.276940  1.0  0.7504
  C  C1115  1  0.163510  0.082840  0.298730  1.0  -0.1421
  C  C1116  1  0.181500  0.092420  0.326130  1.0  -0.1005
  C  C1117  1  0.139200  0.132000  0.323210  1.0  -0.1214
  C  C1118  1  0.166900  0.121200  0.340100  1.0  0.0093
  C  C1119  1  0.670770  0.555140  0.276940  1.0  0.7504
  C  C1120  1  0.663510  0.582840  0.298730  1.0  -0.1421
  C  C1121  1  0.681500  0.592420  0.326130  1.0  -0.1005
  C  C1122  1  0.639200  0.632000  0.323210  1.0  -0.1214
  C  C1123  1  0.666900  0.621200  0.340100  1.0  0.0093
  C  C1124  1  0.670770  0.055140  0.776940  1.0  0.7504
  C  C1125  1  0.663510  0.082840  0.798730  1.0  -0.1421
  C  C1126  1  0.681500  0.092420  0.826130  1.0  -0.1005
  C  C1127  1  0.639200  0.132000  0.823210  1.0  -0.1214
  C  C1128  1  0.666900  0.121200  0.840100  1.0  0.0093
  C  C1129  1  0.170770  0.444860  0.223060  1.0  0.7506
  C  C1130  1  0.163510  0.417160  0.201270  1.0  -0.1411
  C  C1131  1  0.181500  0.407580  0.173870  1.0  -0.1006
  C  C1132  1  0.139200  0.368000  0.176790  1.0  -0.1218
  C  C1133  1  0.166900  0.378800  0.159900  1.0  0.0089
  C  C1134  1  0.170770  0.944860  0.723060  1.0  0.7506
  C  C1135  1  0.163510  0.917160  0.701270  1.0  -0.1411
  C  C1136  1  0.181500  0.907580  0.673870  1.0  -0.1006
  C  C1137  1  0.139200  0.868000  0.676790  1.0  -0.1218
  C  C1138  1  0.166900  0.878800  0.659900  1.0  0.0089
  C  C1139  1  0.670770  0.444860  0.723060  1.0  0.7506
  C  C1140  1  0.663510  0.417160  0.701270  1.0  -0.1411
  C  C1141  1  0.681500  0.407580  0.673870  1.0  -0.1006
  C  C1142  1  0.639200  0.368000  0.676790  1.0  -0.1218
  C  C1143  1  0.666900  0.378800  0.659900  1.0  0.0089
  C  C1144  1  0.670770  0.944860  0.223060  1.0  0.7506
  C  C1145  1  0.663510  0.917160  0.201270  1.0  -0.1411
  C  C1146  1  0.681500  0.907580  0.173870  1.0  -0.1006
  C  C1147  1  0.639200  0.868000  0.176790  1.0  -0.1218
  C  C1148  1  0.666900  0.878800  0.159900  1.0  0.0089
  C  C1149  1  0.829230  0.444860  0.776940  1.0  0.7507
  C  C1150  1  0.836490  0.417160  0.798730  1.0  -0.1432
  C  C1151  1  0.818500  0.407580  0.826130  1.0  -0.1021
  C  C1152  1  0.860800  0.368000  0.823210  1.0  -0.1213
  C  C1153  1  0.833100  0.378800  0.840100  1.0  0.009
  C  C1154  1  0.829230  0.944860  0.276940  1.0  0.7507
  C  C1155  1  0.836490  0.917160  0.298730  1.0  -0.1432
  C  C1156  1  0.818500  0.907580  0.326130  1.0  -0.1021
  C  C1157  1  0.860800  0.868000  0.323210  1.0  -0.1213
  C  C1158  1  0.833100  0.878800  0.340100  1.0  0.009
  C  C1159  1  0.329230  0.444860  0.276940  1.0  0.7507
  C  C1160  1  0.336490  0.417160  0.298730  1.0  -0.1432
  C  C1161  1  0.318500  0.407580  0.326130  1.0  -0.1021
  C  C1162  1  0.360800  0.368000  0.323210  1.0  -0.1213
  C  C1163  1  0.333100  0.378800  0.340100  1.0  0.009
  C  C1164  1  0.329230  0.944860  0.776940  1.0  0.7507
  C  C1165  1  0.336490  0.917160  0.798730  1.0  -0.1432
  C  C1166  1  0.318500  0.907580  0.826130  1.0  -0.1021
  C  C1167  1  0.360800  0.868000  0.823210  1.0  -0.1213
  C  C1168  1  0.333100  0.878800  0.840100  1.0  0.009
  C  C1169  1  0.555140  0.776940  0.170770  1.0  0.749
  C  C1170  1  0.582840  0.798730  0.163510  1.0  -0.1457
  C  C1171  1  0.592420  0.826130  0.181500  1.0  -0.1031
  C  C1172  1  0.632000  0.823210  0.139200  1.0  -0.1206
  C  C1173  1  0.621200  0.840100  0.166900  1.0  0.0072
  C  C1174  1  0.555140  0.276940  0.670770  1.0  0.749
  C  C1175  1  0.582840  0.298730  0.663510  1.0  -0.1457
  C  C1176  1  0.592420  0.326130  0.681500  1.0  -0.1031
  C  C1177  1  0.632000  0.323210  0.639200  1.0  -0.1206
  C  C1178  1  0.621200  0.340100  0.666900  1.0  0.0072
  C  C1179  1  0.055140  0.776940  0.670770  1.0  0.749
  C  C1180  1  0.082840  0.798730  0.663510  1.0  -0.1457
  C  C1181  1  0.092420  0.826130  0.681500  1.0  -0.1031
  C  C1182  1  0.132000  0.823210  0.639200  1.0  -0.1206
  C  C1183  1  0.121200  0.840100  0.666900  1.0  0.0072
  C  C1184  1  0.055140  0.276940  0.170770  1.0  0.749
  C  C1185  1  0.082840  0.298730  0.163510  1.0  -0.1457
  C  C1186  1  0.092420  0.326130  0.181500  1.0  -0.1031
  C  C1187  1  0.132000  0.323210  0.139200  1.0  -0.1206
  C  C1188  1  0.121200  0.340100  0.166900  1.0  0.0072
  C  C1189  1  0.555140  0.223060  0.829230  1.0  0.7491
  C  C1190  1  0.582840  0.201270  0.836490  1.0  -0.1442
  C  C1191  1  0.592420  0.173870  0.818500  1.0  -0.104
  C  C1192  1  0.632000  0.176790  0.860800  1.0  -0.121
  C  C1193  1  0.621200  0.159900  0.833100  1.0  0.007
  C  C1194  1  0.555140  0.723060  0.329230  1.0  0.7491
  C  C1195  1  0.582840  0.701270  0.336490  1.0  -0.1442
  C  C1196  1  0.592420  0.673870  0.318500  1.0  -0.104
  C  C1197  1  0.632000  0.676790  0.360800  1.0  -0.121
  C  C1198  1  0.621200  0.659900  0.333100  1.0  0.007
  C  C1199  1  0.055140  0.223060  0.329230  1.0  0.7491
  C  C1200  1  0.082840  0.201270  0.336490  1.0  -0.1442
  C  C1201  1  0.092420  0.173870  0.318500  1.0  -0.104
  C  C1202  1  0.132000  0.176790  0.360800  1.0  -0.121
  C  C1203  1  0.121200  0.159900  0.333100  1.0  0.007
  C  C1204  1  0.055140  0.723060  0.829230  1.0  0.7491
  C  C1205  1  0.082840  0.701270  0.836490  1.0  -0.1442
  C  C1206  1  0.092420  0.673870  0.818500  1.0  -0.104
  C  C1207  1  0.132000  0.676790  0.860800  1.0  -0.121
  C  C1208  1  0.121200  0.659900  0.833100  1.0  0.007
  C  C1209  1  0.444860  0.776940  0.829230  1.0  0.7471
  C  C1210  1  0.417160  0.798730  0.836490  1.0  -0.1447
  C  C1211  1  0.407580  0.826130  0.818500  1.0  -0.1023
  C  C1212  1  0.368000  0.823210  0.860800  1.0  -0.1203
  C  C1213  1  0.378800  0.840100  0.833100  1.0  0.0083
  C  C1214  1  0.444860  0.276940  0.329230  1.0  0.7471
  C  C1215  1  0.417160  0.298730  0.336490  1.0  -0.1447
  C  C1216  1  0.407580  0.326130  0.318500  1.0  -0.1023
  C  C1217  1  0.368000  0.323210  0.360800  1.0  -0.1203
  C  C1218  1  0.378800  0.340100  0.333100  1.0  0.0083
  C  C1219  1  0.944860  0.776940  0.329230  1.0  0.7471
  C  C1220  1  0.917160  0.798730  0.336490  1.0  -0.1447
  C  C1221  1  0.907580  0.826130  0.318500  1.0  -0.1023
  C  C1222  1  0.868000  0.823210  0.360800  1.0  -0.1203
  C  C1223  1  0.878800  0.840100  0.333100  1.0  0.0083
  C  C1224  1  0.944860  0.276940  0.829230  1.0  0.7471
  C  C1225  1  0.917160  0.298730  0.836490  1.0  -0.1447
  C  C1226  1  0.907580  0.326130  0.818500  1.0  -0.1023
  C  C1227  1  0.868000  0.323210  0.860800  1.0  -0.1203
  C  C1228  1  0.878800  0.340100  0.833100  1.0  0.0083
  C  C1229  1  0.444860  0.223060  0.170770  1.0  0.7471
  C  C1230  1  0.417160  0.201270  0.163510  1.0  -0.1453
  C  C1231  1  0.407580  0.173870  0.181500  1.0  -0.1017
  C  C1232  1  0.368000  0.176790  0.139200  1.0  -0.1193
  C  C1233  1  0.378800  0.159900  0.166900  1.0  0.0082
  C  C1234  1  0.444860  0.723060  0.670770  1.0  0.7471
  C  C1235  1  0.417160  0.701270  0.663510  1.0  -0.1453
  C  C1236  1  0.407580  0.673870  0.681500  1.0  -0.1017
  C  C1237  1  0.368000  0.676790  0.639200  1.0  -0.1193
  C  C1238  1  0.378800  0.659900  0.666900  1.0  0.0082
  C  C1239  1  0.944860  0.223060  0.670770  1.0  0.7471
  C  C1240  1  0.917160  0.201270  0.663510  1.0  -0.1453
  C  C1241  1  0.907580  0.173870  0.681500  1.0  -0.1017
  C  C1242  1  0.868000  0.176790  0.639200  1.0  -0.1193
  C  C1243  1  0.878800  0.159900  0.666900  1.0  0.0082
  C  C1244  1  0.944860  0.723060  0.170770  1.0  0.7471
  C  C1245  1  0.917160  0.701270  0.163510  1.0  -0.1453
  C  C1246  1  0.907580  0.673870  0.181500  1.0  -0.1017
  C  C1247  1  0.868000  0.676790  0.139200  1.0  -0.1193
  C  C1248  1  0.878800  0.659900  0.166900  1.0  0.0082
  S  S1249  1  0.630260  0.709640  0.892610  1.0  0.1164
  S  S1250  1  0.630260  0.209640  0.392610  1.0  0.1164
  S  S1251  1  0.130260  0.709640  0.392610  1.0  0.1164
  S  S1252  1  0.130260  0.209640  0.892610  1.0  0.1164
  S  S1253  1  0.369740  0.290360  0.892610  1.0  0.116
  S  S1254  1  0.369740  0.790360  0.392610  1.0  0.116
  S  S1255  1  0.869740  0.290360  0.392610  1.0  0.116
  S  S1256  1  0.869740  0.790360  0.892610  1.0  0.116
  S  S1257  1  0.369740  0.709640  0.107390  1.0  0.1166
  S  S1258  1  0.369740  0.209640  0.607390  1.0  0.1166
  S  S1259  1  0.869740  0.709640  0.607390  1.0  0.1166
  S  S1260  1  0.869740  0.209640  0.107390  1.0  0.1166
  S  S1261  1  0.630260  0.290360  0.107390  1.0  0.1176
  S  S1262  1  0.630260  0.790360  0.607390  1.0  0.1176
  S  S1263  1  0.130260  0.290360  0.607390  1.0  0.1176
  S  S1264  1  0.130260  0.790360  0.107390  1.0  0.1176
  S  S1265  1  0.892610  0.630260  0.709640  1.0  0.1163
  S  S1266  1  0.892610  0.130260  0.209640  1.0  0.1163
  S  S1267  1  0.392610  0.630260  0.209640  1.0  0.1163
  S  S1268  1  0.392610  0.130260  0.709640  1.0  0.1163
  S  S1269  1  0.892610  0.369740  0.290360  1.0  0.1155
  S  S1270  1  0.892610  0.869740  0.790360  1.0  0.1155
  S  S1271  1  0.392610  0.369740  0.790360  1.0  0.1155
  S  S1272  1  0.392610  0.869740  0.290360  1.0  0.1155
  S  S1273  1  0.107390  0.369740  0.709640  1.0  0.116
  S  S1274  1  0.107390  0.869740  0.209640  1.0  0.116
  S  S1275  1  0.607390  0.369740  0.209640  1.0  0.116
  S  S1276  1  0.607390  0.869740  0.709640  1.0  0.116
  S  S1277  1  0.107390  0.630260  0.290360  1.0  0.1168
  S  S1278  1  0.107390  0.130260  0.790360  1.0  0.1168
  S  S1279  1  0.607390  0.630260  0.790360  1.0  0.1168
  S  S1280  1  0.607390  0.130260  0.290360  1.0  0.1168
  S  S1281  1  0.709640  0.892610  0.630260  1.0  0.1137
  S  S1282  1  0.709640  0.392610  0.130260  1.0  0.1137
  S  S1283  1  0.209640  0.892610  0.130260  1.0  0.1137
  S  S1284  1  0.209640  0.392610  0.630260  1.0  0.1137
  S  S1285  1  0.290360  0.892610  0.369740  1.0  0.1154
  S  S1286  1  0.290360  0.392610  0.869740  1.0  0.1154
  S  S1287  1  0.790360  0.892610  0.869740  1.0  0.1154
  S  S1288  1  0.790360  0.392610  0.369740  1.0  0.1154
  S  S1289  1  0.709640  0.107390  0.369740  1.0  0.1147
  S  S1290  1  0.709640  0.607390  0.869740  1.0  0.1147
  S  S1291  1  0.209640  0.107390  0.869740  1.0  0.1147
  S  S1292  1  0.209640  0.607390  0.369740  1.0  0.1147
  S  S1293  1  0.290360  0.107390  0.630260  1.0  0.1149
  S  S1294  1  0.290360  0.607390  0.130260  1.0  0.1149
  S  S1295  1  0.790360  0.107390  0.130260  1.0  0.1149
  S  S1296  1  0.790360  0.607390  0.630260  1.0  0.1149
  S  S1297  1  0.209640  0.130260  0.607390  1.0  0.1179
  S  S1298  1  0.209640  0.630260  0.107390  1.0  0.1179
  S  S1299  1  0.709640  0.130260  0.107390  1.0  0.1179
  S  S1300  1  0.709640  0.630260  0.607390  1.0  0.1179
  S  S1301  1  0.790360  0.869740  0.607390  1.0  0.1177
  S  S1302  1  0.790360  0.369740  0.107390  1.0  0.1177
  S  S1303  1  0.290360  0.869740  0.107390  1.0  0.1177
  S  S1304  1  0.290360  0.369740  0.607390  1.0  0.1177
  S  S1305  1  0.209640  0.869740  0.392610  1.0  0.1171
  S  S1306  1  0.209640  0.369740  0.892610  1.0  0.1171
  S  S1307  1  0.709640  0.869740  0.892610  1.0  0.1171
  S  S1308  1  0.709640  0.369740  0.392610  1.0  0.1171
  S  S1309  1  0.790360  0.130260  0.392610  1.0  0.1174
  S  S1310  1  0.790360  0.630260  0.892610  1.0  0.1174
  S  S1311  1  0.290360  0.130260  0.892610  1.0  0.1174
  S  S1312  1  0.290360  0.630260  0.392610  1.0  0.1174
  S  S1313  1  0.130260  0.392610  0.790360  1.0  0.1164
  S  S1314  1  0.130260  0.892610  0.290360  1.0  0.1164
  S  S1315  1  0.630260  0.392610  0.290360  1.0  0.1164
  S  S1316  1  0.630260  0.892610  0.790360  1.0  0.1164
  S  S1317  1  0.869740  0.392610  0.209640  1.0  0.1159
  S  S1318  1  0.869740  0.892610  0.709640  1.0  0.1159
  S  S1319  1  0.369740  0.392610  0.709640  1.0  0.1159
  S  S1320  1  0.369740  0.892610  0.209640  1.0  0.1159
  S  S1321  1  0.869740  0.607390  0.790360  1.0  0.1147
  S  S1322  1  0.869740  0.107390  0.290360  1.0  0.1147
  S  S1323  1  0.369740  0.607390  0.290360  1.0  0.1147
  S  S1324  1  0.369740  0.107390  0.790360  1.0  0.1147
  S  S1325  1  0.130260  0.607390  0.209640  1.0  0.1164
  S  S1326  1  0.130260  0.107390  0.709640  1.0  0.1164
  S  S1327  1  0.630260  0.607390  0.709640  1.0  0.1164
  S  S1328  1  0.630260  0.107390  0.209640  1.0  0.1164
  S  S1329  1  0.392610  0.209640  0.869740  1.0  0.115
  S  S1330  1  0.392610  0.709640  0.369740  1.0  0.115
  S  S1331  1  0.892610  0.209640  0.369740  1.0  0.115
  S  S1332  1  0.892610  0.709640  0.869740  1.0  0.115
  S  S1333  1  0.392610  0.790360  0.130260  1.0  0.1143
  S  S1334  1  0.392610  0.290360  0.630260  1.0  0.1143
  S  S1335  1  0.892610  0.790360  0.630260  1.0  0.1143
  S  S1336  1  0.892610  0.290360  0.130260  1.0  0.1143
  S  S1337  1  0.607390  0.209640  0.130260  1.0  0.1142
  S  S1338  1  0.607390  0.709640  0.630260  1.0  0.1142
  S  S1339  1  0.107390  0.209640  0.630260  1.0  0.1142
  S  S1340  1  0.107390  0.709640  0.130260  1.0  0.1142
  S  S1341  1  0.607390  0.790360  0.869740  1.0  0.1135
  S  S1342  1  0.607390  0.290360  0.369740  1.0  0.1135
  S  S1343  1  0.107390  0.790360  0.369740  1.0  0.1135
  S  S1344  1  0.107390  0.290360  0.869740  1.0  0.1135
  S  S1345  1  0.369740  0.290360  0.107390  1.0  0.1166
  S  S1346  1  0.369740  0.790360  0.607390  1.0  0.1166
  S  S1347  1  0.869740  0.290360  0.607390  1.0  0.1166
  S  S1348  1  0.869740  0.790360  0.107390  1.0  0.1166
  S  S1349  1  0.630260  0.709640  0.107390  1.0  0.1169
  S  S1350  1  0.630260  0.209640  0.607390  1.0  0.1169
  S  S1351  1  0.130260  0.709640  0.607390  1.0  0.1169
  S  S1352  1  0.130260  0.209640  0.107390  1.0  0.1169
  S  S1353  1  0.630260  0.290360  0.892610  1.0  0.1166
  S  S1354  1  0.630260  0.790360  0.392610  1.0  0.1166
  S  S1355  1  0.130260  0.290360  0.392610  1.0  0.1166
  S  S1356  1  0.130260  0.790360  0.892610  1.0  0.1166
  S  S1357  1  0.369740  0.709640  0.892610  1.0  0.1164
  S  S1358  1  0.369740  0.209640  0.392610  1.0  0.1164
  S  S1359  1  0.869740  0.709640  0.392610  1.0  0.1164
  S  S1360  1  0.869740  0.209640  0.892610  1.0  0.1164
  S  S1361  1  0.107390  0.369740  0.290360  1.0  0.1156
  S  S1362  1  0.107390  0.869740  0.790360  1.0  0.1156
  S  S1363  1  0.607390  0.369740  0.790360  1.0  0.1156
  S  S1364  1  0.607390  0.869740  0.290360  1.0  0.1156
  S  S1365  1  0.107390  0.630260  0.709640  1.0  0.1162
  S  S1366  1  0.107390  0.130260  0.209640  1.0  0.1162
  S  S1367  1  0.607390  0.630260  0.209640  1.0  0.1162
  S  S1368  1  0.607390  0.130260  0.709640  1.0  0.1162
  S  S1369  1  0.892610  0.630260  0.290360  1.0  0.1165
  S  S1370  1  0.892610  0.130260  0.790360  1.0  0.1165
  S  S1371  1  0.392610  0.630260  0.790360  1.0  0.1165
  S  S1372  1  0.392610  0.130260  0.290360  1.0  0.1165
  S  S1373  1  0.892610  0.369740  0.709640  1.0  0.1164
  S  S1374  1  0.892610  0.869740  0.209640  1.0  0.1164
  S  S1375  1  0.392610  0.369740  0.209640  1.0  0.1164
  S  S1376  1  0.392610  0.869740  0.709640  1.0  0.1164
  S  S1377  1  0.290360  0.107390  0.369740  1.0  0.115
  S  S1378  1  0.290360  0.607390  0.869740  1.0  0.115
  S  S1379  1  0.790360  0.107390  0.869740  1.0  0.115
  S  S1380  1  0.790360  0.607390  0.369740  1.0  0.115
  S  S1381  1  0.709640  0.107390  0.630260  1.0  0.1134
  S  S1382  1  0.709640  0.607390  0.130260  1.0  0.1134
  S  S1383  1  0.209640  0.107390  0.130260  1.0  0.1134
  S  S1384  1  0.209640  0.607390  0.630260  1.0  0.1134
  S  S1385  1  0.290360  0.892610  0.630260  1.0  0.1151
  S  S1386  1  0.290360  0.392610  0.130260  1.0  0.1151
  S  S1387  1  0.790360  0.892610  0.130260  1.0  0.1151
  S  S1388  1  0.790360  0.392610  0.630260  1.0  0.1151
  S  S1389  1  0.709640  0.892610  0.369740  1.0  0.1153
  S  S1390  1  0.709640  0.392610  0.869740  1.0  0.1153
  S  S1391  1  0.209640  0.892610  0.869740  1.0  0.1153
  S  S1392  1  0.209640  0.392610  0.369740  1.0  0.1153
  S  S1393  1  0.790360  0.869740  0.392610  1.0  0.1177
  S  S1394  1  0.790360  0.369740  0.892610  1.0  0.1177
  S  S1395  1  0.290360  0.869740  0.892610  1.0  0.1177
  S  S1396  1  0.290360  0.369740  0.392610  1.0  0.1177
  S  S1397  1  0.209640  0.130260  0.392610  1.0  0.1172
  S  S1398  1  0.209640  0.630260  0.892610  1.0  0.1172
  S  S1399  1  0.709640  0.130260  0.892610  1.0  0.1172
  S  S1400  1  0.709640  0.630260  0.392610  1.0  0.1172
  S  S1401  1  0.790360  0.130260  0.607390  1.0  0.1182
  S  S1402  1  0.790360  0.630260  0.107390  1.0  0.1182
  S  S1403  1  0.290360  0.130260  0.107390  1.0  0.1182
  S  S1404  1  0.290360  0.630260  0.607390  1.0  0.1182
  S  S1405  1  0.209640  0.869740  0.607390  1.0  0.1173
  S  S1406  1  0.209640  0.369740  0.107390  1.0  0.1173
  S  S1407  1  0.709640  0.869740  0.107390  1.0  0.1173
  S  S1408  1  0.709640  0.369740  0.607390  1.0  0.1173
  S  S1409  1  0.869740  0.607390  0.209640  1.0  0.1154
  S  S1410  1  0.869740  0.107390  0.709640  1.0  0.1154
  S  S1411  1  0.369740  0.607390  0.709640  1.0  0.1154
  S  S1412  1  0.369740  0.107390  0.209640  1.0  0.1154
  S  S1413  1  0.130260  0.607390  0.790360  1.0  0.1163
  S  S1414  1  0.130260  0.107390  0.290360  1.0  0.1163
  S  S1415  1  0.630260  0.607390  0.290360  1.0  0.1163
  S  S1416  1  0.630260  0.107390  0.790360  1.0  0.1163
  S  S1417  1  0.130260  0.392610  0.209640  1.0  0.1164
  S  S1418  1  0.130260  0.892610  0.709640  1.0  0.1164
  S  S1419  1  0.630260  0.392610  0.709640  1.0  0.1164
  S  S1420  1  0.630260  0.892610  0.209640  1.0  0.1164
  S  S1421  1  0.869740  0.392610  0.790360  1.0  0.115
  S  S1422  1  0.869740  0.892610  0.290360  1.0  0.115
  S  S1423  1  0.369740  0.392610  0.290360  1.0  0.115
  S  S1424  1  0.369740  0.892610  0.790360  1.0  0.115
  S  S1425  1  0.607390  0.790360  0.130260  1.0  0.1148
  S  S1426  1  0.607390  0.290360  0.630260  1.0  0.1148
  S  S1427  1  0.107390  0.790360  0.630260  1.0  0.1148
  S  S1428  1  0.107390  0.290360  0.130260  1.0  0.1148
  S  S1429  1  0.607390  0.209640  0.869740  1.0  0.1147
  S  S1430  1  0.607390  0.709640  0.369740  1.0  0.1147
  S  S1431  1  0.107390  0.209640  0.369740  1.0  0.1147
  S  S1432  1  0.107390  0.709640  0.869740  1.0  0.1147
  S  S1433  1  0.392610  0.790360  0.869740  1.0  0.1138
  S  S1434  1  0.392610  0.290360  0.369740  1.0  0.1138
  S  S1435  1  0.892610  0.790360  0.369740  1.0  0.1138
  S  S1436  1  0.892610  0.290360  0.869740  1.0  0.1138
  S  S1437  1  0.392610  0.209640  0.130260  1.0  0.1136
  S  S1438  1  0.392610  0.709640  0.630260  1.0  0.1136
  S  S1439  1  0.892610  0.209640  0.630260  1.0  0.1136
  S  S1440  1  0.892610  0.709640  0.130260  1.0  0.1136
  O  O1441  1  0.652530  0.747070  0.949900  1.0  -0.6698
  O  O1442  1  0.695210  0.716540  0.962130  1.0  -0.6988
  O  O1443  1  0.652530  0.247070  0.449900  1.0  -0.6698
  O  O1444  1  0.695210  0.216540  0.462130  1.0  -0.6988
  O  O1445  1  0.152530  0.747070  0.449900  1.0  -0.6698
  O  O1446  1  0.195210  0.716540  0.462130  1.0  -0.6988
  O  O1447  1  0.152530  0.247070  0.949900  1.0  -0.6698
  O  O1448  1  0.195210  0.216540  0.962130  1.0  -0.6988
  O  O1449  1  0.347470  0.252930  0.949900  1.0  -0.669
  O  O1450  1  0.304790  0.283460  0.962130  1.0  -0.697
  O  O1451  1  0.347470  0.752930  0.449900  1.0  -0.669
  O  O1452  1  0.304790  0.783460  0.462130  1.0  -0.697
  O  O1453  1  0.847470  0.252930  0.449900  1.0  -0.669
  O  O1454  1  0.804790  0.283460  0.462130  1.0  -0.697
  O  O1455  1  0.847470  0.752930  0.949900  1.0  -0.669
  O  O1456  1  0.804790  0.783460  0.962130  1.0  -0.697
  O  O1457  1  0.347470  0.747070  0.050100  1.0  -0.6706
  O  O1458  1  0.304790  0.716540  0.037870  1.0  -0.6972
  O  O1459  1  0.347470  0.247070  0.550100  1.0  -0.6706
  O  O1460  1  0.304790  0.216540  0.537870  1.0  -0.6972
  O  O1461  1  0.847470  0.747070  0.550100  1.0  -0.6706
  O  O1462  1  0.804790  0.716540  0.537870  1.0  -0.6972
  O  O1463  1  0.847470  0.247070  0.050100  1.0  -0.6706
  O  O1464  1  0.804790  0.216540  0.037870  1.0  -0.6972
  O  O1465  1  0.652530  0.252930  0.050100  1.0  -0.6675
  O  O1466  1  0.695210  0.283460  0.037870  1.0  -0.6991
  O  O1467  1  0.652530  0.752930  0.550100  1.0  -0.6675
  O  O1468  1  0.695210  0.783460  0.537870  1.0  -0.6991
  O  O1469  1  0.152530  0.252930  0.550100  1.0  -0.6675
  O  O1470  1  0.195210  0.283460  0.537870  1.0  -0.6991
  O  O1471  1  0.152530  0.752930  0.050100  1.0  -0.6675
  O  O1472  1  0.195210  0.783460  0.037870  1.0  -0.6991
  O  O1473  1  0.949900  0.652530  0.747070  1.0  -0.6675
  O  O1474  1  0.962130  0.695210  0.716540  1.0  -0.6974
  O  O1475  1  0.949900  0.152530  0.247070  1.0  -0.6675
  O  O1476  1  0.962130  0.195210  0.216540  1.0  -0.6974
  O  O1477  1  0.449900  0.652530  0.247070  1.0  -0.6675
  O  O1478  1  0.462130  0.695210  0.216540  1.0  -0.6974
  O  O1479  1  0.449900  0.152530  0.747070  1.0  -0.6675
  O  O1480  1  0.462130  0.195210  0.716540  1.0  -0.6974
  O  O1481  1  0.949900  0.347470  0.252930  1.0  -0.6712
  O  O1482  1  0.962130  0.304790  0.283460  1.0  -0.6963
  O  O1483  1  0.949900  0.847470  0.752930  1.0  -0.6712
  O  O1484  1  0.962130  0.804790  0.783460  1.0  -0.6963
  O  O1485  1  0.449900  0.347470  0.752930  1.0  -0.6712
  O  O1486  1  0.462130  0.304790  0.783460  1.0  -0.6963
  O  O1487  1  0.449900  0.847470  0.252930  1.0  -0.6712
  O  O1488  1  0.462130  0.804790  0.283460  1.0  -0.6963
  O  O1489  1  0.050100  0.347470  0.747070  1.0  -0.6721
  O  O1490  1  0.037870  0.304790  0.716540  1.0  -0.6961
  O  O1491  1  0.050100  0.847470  0.247070  1.0  -0.6721
  O  O1492  1  0.037870  0.804790  0.216540  1.0  -0.6961
  O  O1493  1  0.550100  0.347470  0.247070  1.0  -0.6721
  O  O1494  1  0.537870  0.304790  0.216540  1.0  -0.6961
  O  O1495  1  0.550100  0.847470  0.747070  1.0  -0.6721
  O  O1496  1  0.537870  0.804790  0.716540  1.0  -0.6961
  O  O1497  1  0.050100  0.652530  0.252930  1.0  -0.6697
  O  O1498  1  0.037870  0.695210  0.283460  1.0  -0.6967
  O  O1499  1  0.050100  0.152530  0.752930  1.0  -0.6697
  O  O1500  1  0.037870  0.195210  0.783460  1.0  -0.6967
  O  O1501  1  0.550100  0.652530  0.752930  1.0  -0.6697
  O  O1502  1  0.537870  0.695210  0.783460  1.0  -0.6967
  O  O1503  1  0.550100  0.152530  0.252930  1.0  -0.6697
  O  O1504  1  0.537870  0.195210  0.283460  1.0  -0.6967
  O  O1505  1  0.747070  0.949900  0.652530  1.0  -0.6726
  O  O1506  1  0.716540  0.962130  0.695210  1.0  -0.6989
  O  O1507  1  0.747070  0.449900  0.152530  1.0  -0.6726
  O  O1508  1  0.716540  0.462130  0.195210  1.0  -0.6989
  O  O1509  1  0.247070  0.949900  0.152530  1.0  -0.6726
  O  O1510  1  0.216540  0.962130  0.195210  1.0  -0.6989
  O  O1511  1  0.247070  0.449900  0.652530  1.0  -0.6726
  O  O1512  1  0.216540  0.462130  0.695210  1.0  -0.6989
  O  O1513  1  0.252930  0.949900  0.347470  1.0  -0.6712
  O  O1514  1  0.283460  0.962130  0.304790  1.0  -0.6986
  O  O1515  1  0.252930  0.449900  0.847470  1.0  -0.6712
  O  O1516  1  0.283460  0.462130  0.804790  1.0  -0.6986
  O  O1517  1  0.752930  0.949900  0.847470  1.0  -0.6712
  O  O1518  1  0.783460  0.962130  0.804790  1.0  -0.6986
  O  O1519  1  0.752930  0.449900  0.347470  1.0  -0.6712
  O  O1520  1  0.783460  0.462130  0.304790  1.0  -0.6986
  O  O1521  1  0.747070  0.050100  0.347470  1.0  -0.6711
  O  O1522  1  0.716540  0.037870  0.304790  1.0  -0.7009
  O  O1523  1  0.747070  0.550100  0.847470  1.0  -0.6711
  O  O1524  1  0.716540  0.537870  0.804790  1.0  -0.7009
  O  O1525  1  0.247070  0.050100  0.847470  1.0  -0.6711
  O  O1526  1  0.216540  0.037870  0.804790  1.0  -0.7009
  O  O1527  1  0.247070  0.550100  0.347470  1.0  -0.6711
  O  O1528  1  0.216540  0.537870  0.304790  1.0  -0.7009
  O  O1529  1  0.252930  0.050100  0.652530  1.0  -0.6731
  O  O1530  1  0.283460  0.037870  0.695210  1.0  -0.6971
  O  O1531  1  0.252930  0.550100  0.152530  1.0  -0.6731
  O  O1532  1  0.283460  0.537870  0.195210  1.0  -0.6971
  O  O1533  1  0.752930  0.050100  0.152530  1.0  -0.6731
  O  O1534  1  0.783460  0.037870  0.195210  1.0  -0.6971
  O  O1535  1  0.752930  0.550100  0.652530  1.0  -0.6731
  O  O1536  1  0.783460  0.537870  0.695210  1.0  -0.6971
  O  O1537  1  0.247070  0.152530  0.550100  1.0  -0.6655
  O  O1538  1  0.216540  0.195210  0.537870  1.0  -0.7003
  O  O1539  1  0.247070  0.652530  0.050100  1.0  -0.6655
  O  O1540  1  0.216540  0.695210  0.037870  1.0  -0.7003
  O  O1541  1  0.747070  0.152530  0.050100  1.0  -0.6655
  O  O1542  1  0.716540  0.195210  0.037870  1.0  -0.7003
  O  O1543  1  0.747070  0.652530  0.550100  1.0  -0.6655
  O  O1544  1  0.716540  0.695210  0.537870  1.0  -0.7003
  O  O1545  1  0.752930  0.847470  0.550100  1.0  -0.6688
  O  O1546  1  0.783460  0.804790  0.537870  1.0  -0.6966
  O  O1547  1  0.752930  0.347470  0.050100  1.0  -0.6688
  O  O1548  1  0.783460  0.304790  0.037870  1.0  -0.6966
  O  O1549  1  0.252930  0.847470  0.050100  1.0  -0.6688
  O  O1550  1  0.283460  0.804790  0.037870  1.0  -0.6966
  O  O1551  1  0.252930  0.347470  0.550100  1.0  -0.6688
  O  O1552  1  0.283460  0.304790  0.537870  1.0  -0.6966
  O  O1553  1  0.247070  0.847470  0.449900  1.0  -0.669
  O  O1554  1  0.216540  0.804790  0.462130  1.0  -0.6983
  O  O1555  1  0.247070  0.347470  0.949900  1.0  -0.669
  O  O1556  1  0.216540  0.304790  0.962130  1.0  -0.6983
  O  O1557  1  0.747070  0.847470  0.949900  1.0  -0.669
  O  O1558  1  0.716540  0.804790  0.962130  1.0  -0.6983
  O  O1559  1  0.747070  0.347470  0.449900  1.0  -0.669
  O  O1560  1  0.716540  0.304790  0.462130  1.0  -0.6983
  O  O1561  1  0.752930  0.152530  0.449900  1.0  -0.6659
  O  O1562  1  0.783460  0.195210  0.462130  1.0  -0.6974
  O  O1563  1  0.752930  0.652530  0.949900  1.0  -0.6659
  O  O1564  1  0.783460  0.695210  0.962130  1.0  -0.6974
  O  O1565  1  0.252930  0.152530  0.949900  1.0  -0.6659
  O  O1566  1  0.283460  0.195210  0.962130  1.0  -0.6974
  O  O1567  1  0.252930  0.652530  0.449900  1.0  -0.6659
  O  O1568  1  0.283460  0.695210  0.462130  1.0  -0.6974
  O  O1569  1  0.152530  0.449900  0.752930  1.0  -0.6711
  O  O1570  1  0.195210  0.462130  0.783460  1.0  -0.6994
  O  O1571  1  0.152530  0.949900  0.252930  1.0  -0.6711
  O  O1572  1  0.195210  0.962130  0.283460  1.0  -0.6994
  O  O1573  1  0.652530  0.449900  0.252930  1.0  -0.6711
  O  O1574  1  0.695210  0.462130  0.283460  1.0  -0.6994
  O  O1575  1  0.652530  0.949900  0.752930  1.0  -0.6711
  O  O1576  1  0.695210  0.962130  0.783460  1.0  -0.6994
  O  O1577  1  0.847470  0.449900  0.247070  1.0  -0.6741
  O  O1578  1  0.804790  0.462130  0.216540  1.0  -0.6978
  O  O1579  1  0.847470  0.949900  0.747070  1.0  -0.6741
  O  O1580  1  0.804790  0.962130  0.716540  1.0  -0.6978
  O  O1581  1  0.347470  0.449900  0.747070  1.0  -0.6741
  O  O1582  1  0.304790  0.462130  0.716540  1.0  -0.6978
  O  O1583  1  0.347470  0.949900  0.247070  1.0  -0.6741
  O  O1584  1  0.304790  0.962130  0.216540  1.0  -0.6978
  O  O1585  1  0.847470  0.550100  0.752930  1.0  -0.6736
  O  O1586  1  0.804790  0.537870  0.783460  1.0  -0.6981
  O  O1587  1  0.847470  0.050100  0.252930  1.0  -0.6736
  O  O1588  1  0.804790  0.037870  0.283460  1.0  -0.6981
  O  O1589  1  0.347470  0.550100  0.252930  1.0  -0.6736
  O  O1590  1  0.304790  0.537870  0.283460  1.0  -0.6981
  O  O1591  1  0.347470  0.050100  0.752930  1.0  -0.6736
  O  O1592  1  0.304790  0.037870  0.783460  1.0  -0.6981
  O  O1593  1  0.152530  0.550100  0.247070  1.0  -0.6702
  O  O1594  1  0.195210  0.537870  0.216540  1.0  -0.6997
  O  O1595  1  0.152530  0.050100  0.747070  1.0  -0.6702
  O  O1596  1  0.195210  0.037870  0.716540  1.0  -0.6997
  O  O1597  1  0.652530  0.550100  0.747070  1.0  -0.6702
  O  O1598  1  0.695210  0.537870  0.716540  1.0  -0.6997
  O  O1599  1  0.652530  0.050100  0.247070  1.0  -0.6702
  O  O1600  1  0.695210  0.037870  0.216540  1.0  -0.6997
  O  O1601  1  0.449900  0.247070  0.847470  1.0  -0.6712
  O  O1602  1  0.462130  0.216540  0.804790  1.0  -0.6982
  O  O1603  1  0.449900  0.747070  0.347470  1.0  -0.6712
  O  O1604  1  0.462130  0.716540  0.304790  1.0  -0.6982
  O  O1605  1  0.949900  0.247070  0.347470  1.0  -0.6712
  O  O1606  1  0.962130  0.216540  0.304790  1.0  -0.6982
  O  O1607  1  0.949900  0.747070  0.847470  1.0  -0.6712
  O  O1608  1  0.962130  0.716540  0.804790  1.0  -0.6982
  O  O1609  1  0.449900  0.752930  0.152530  1.0  -0.6711
  O  O1610  1  0.462130  0.783460  0.195210  1.0  -0.6963
  O  O1611  1  0.449900  0.252930  0.652530  1.0  -0.6711
  O  O1612  1  0.462130  0.283460  0.695210  1.0  -0.6963
  O  O1613  1  0.949900  0.752930  0.652530  1.0  -0.6711
  O  O1614  1  0.962130  0.783460  0.695210  1.0  -0.6963
  O  O1615  1  0.949900  0.252930  0.152530  1.0  -0.6711
  O  O1616  1  0.962130  0.283460  0.195210  1.0  -0.6963
  O  O1617  1  0.550100  0.247070  0.152530  1.0  -0.6749
  O  O1618  1  0.537870  0.216540  0.195210  1.0  -0.6957
  O  O1619  1  0.550100  0.747070  0.652530  1.0  -0.6749
  O  O1620  1  0.537870  0.716540  0.695210  1.0  -0.6957
  O  O1621  1  0.050100  0.247070  0.652530  1.0  -0.6749
  O  O1622  1  0.037870  0.216540  0.695210  1.0  -0.6957
  O  O1623  1  0.050100  0.747070  0.152530  1.0  -0.6749
  O  O1624  1  0.037870  0.716540  0.195210  1.0  -0.6957
  O  O1625  1  0.550100  0.752930  0.847470  1.0  -0.67
  O  O1626  1  0.537870  0.783460  0.804790  1.0  -0.6971
  O  O1627  1  0.550100  0.252930  0.347470  1.0  -0.67
  O  O1628  1  0.537870  0.283460  0.304790  1.0  -0.6971
  O  O1629  1  0.050100  0.752930  0.347470  1.0  -0.67
  O  O1630  1  0.037870  0.783460  0.304790  1.0  -0.6971
  O  O1631  1  0.050100  0.252930  0.847470  1.0  -0.67
  O  O1632  1  0.037870  0.283460  0.804790  1.0  -0.6971
  O  O1633  1  0.347470  0.252930  0.050100  1.0  -0.6684
  O  O1634  1  0.304790  0.283460  0.037870  1.0  -0.6969
  O  O1635  1  0.347470  0.752930  0.550100  1.0  -0.6684
  O  O1636  1  0.304790  0.783460  0.537870  1.0  -0.6969
  O  O1637  1  0.847470  0.252930  0.550100  1.0  -0.6684
  O  O1638  1  0.804790  0.283460  0.537870  1.0  -0.6969
  O  O1639  1  0.847470  0.752930  0.050100  1.0  -0.6684
  O  O1640  1  0.804790  0.783460  0.037870  1.0  -0.6969
  O  O1641  1  0.652530  0.747070  0.050100  1.0  -0.6699
  O  O1642  1  0.695210  0.716540  0.037870  1.0  -0.6994
  O  O1643  1  0.652530  0.247070  0.550100  1.0  -0.6699
  O  O1644  1  0.695210  0.216540  0.537870  1.0  -0.6994
  O  O1645  1  0.152530  0.747070  0.550100  1.0  -0.6699
  O  O1646  1  0.195210  0.716540  0.537870  1.0  -0.6994
  O  O1647  1  0.152530  0.247070  0.050100  1.0  -0.6699
  O  O1648  1  0.195210  0.216540  0.037870  1.0  -0.6994
  O  O1649  1  0.652530  0.252930  0.949900  1.0  -0.6667
  O  O1650  1  0.695210  0.283460  0.962130  1.0  -0.699
  O  O1651  1  0.652530  0.752930  0.449900  1.0  -0.6667
  O  O1652  1  0.695210  0.783460  0.462130  1.0  -0.699
  O  O1653  1  0.152530  0.252930  0.449900  1.0  -0.6667
  O  O1654  1  0.195210  0.283460  0.462130  1.0  -0.699
  O  O1655  1  0.152530  0.752930  0.949900  1.0  -0.6667
  O  O1656  1  0.195210  0.783460  0.962130  1.0  -0.699
  O  O1657  1  0.347470  0.747070  0.949900  1.0  -0.6717
  O  O1658  1  0.304790  0.716540  0.962130  1.0  -0.6969
  O  O1659  1  0.347470  0.247070  0.449900  1.0  -0.6717
  O  O1660  1  0.304790  0.216540  0.462130  1.0  -0.6969
  O  O1661  1  0.847470  0.747070  0.449900  1.0  -0.6717
  O  O1662  1  0.804790  0.716540  0.462130  1.0  -0.6969
  O  O1663  1  0.847470  0.247070  0.949900  1.0  -0.6717
  O  O1664  1  0.804790  0.216540  0.962130  1.0  -0.6969
  O  O1665  1  0.050100  0.347470  0.252930  1.0  -0.6732
  O  O1666  1  0.037870  0.304790  0.283460  1.0  -0.6962
  O  O1667  1  0.050100  0.847470  0.752930  1.0  -0.6732
  O  O1668  1  0.037870  0.804790  0.783460  1.0  -0.6962
  O  O1669  1  0.550100  0.347470  0.752930  1.0  -0.6732
  O  O1670  1  0.537870  0.304790  0.783460  1.0  -0.6962
  O  O1671  1  0.550100  0.847470  0.252930  1.0  -0.6732
  O  O1672  1  0.537870  0.804790  0.283460  1.0  -0.6962
  O  O1673  1  0.050100  0.652530  0.747070  1.0  -0.6686
  O  O1674  1  0.037870  0.695210  0.716540  1.0  -0.6971
  O  O1675  1  0.050100  0.152530  0.247070  1.0  -0.6686
  O  O1676  1  0.037870  0.195210  0.216540  1.0  -0.6971
  O  O1677  1  0.550100  0.652530  0.247070  1.0  -0.6686
  O  O1678  1  0.537870  0.695210  0.216540  1.0  -0.6971
  O  O1679  1  0.550100  0.152530  0.747070  1.0  -0.6686
  O  O1680  1  0.537870  0.195210  0.716540  1.0  -0.6971
  O  O1681  1  0.949900  0.652530  0.252930  1.0  -0.6684
  O  O1682  1  0.962130  0.695210  0.283460  1.0  -0.697
  O  O1683  1  0.949900  0.152530  0.752930  1.0  -0.6684
  O  O1684  1  0.962130  0.195210  0.783460  1.0  -0.697
  O  O1685  1  0.449900  0.652530  0.752930  1.0  -0.6684
  O  O1686  1  0.462130  0.695210  0.783460  1.0  -0.697
  O  O1687  1  0.449900  0.152530  0.252930  1.0  -0.6684
  O  O1688  1  0.462130  0.195210  0.283460  1.0  -0.697
  O  O1689  1  0.949900  0.347470  0.747070  1.0  -0.6705
  O  O1690  1  0.962130  0.304790  0.716540  1.0  -0.6963
  O  O1691  1  0.949900  0.847470  0.247070  1.0  -0.6705
  O  O1692  1  0.962130  0.804790  0.216540  1.0  -0.6963
  O  O1693  1  0.449900  0.347470  0.247070  1.0  -0.6705
  O  O1694  1  0.462130  0.304790  0.216540  1.0  -0.6963
  O  O1695  1  0.449900  0.847470  0.747070  1.0  -0.6705
  O  O1696  1  0.462130  0.804790  0.716540  1.0  -0.6963
  O  O1697  1  0.252930  0.050100  0.347470  1.0  -0.6706
  O  O1698  1  0.283460  0.037870  0.304790  1.0  -0.699
  O  O1699  1  0.252930  0.550100  0.847470  1.0  -0.6706
  O  O1700  1  0.283460  0.537870  0.804790  1.0  -0.699
  O  O1701  1  0.752930  0.050100  0.847470  1.0  -0.6706
  O  O1702  1  0.783460  0.037870  0.804790  1.0  -0.699
  O  O1703  1  0.752930  0.550100  0.347470  1.0  -0.6706
  O  O1704  1  0.783460  0.537870  0.304790  1.0  -0.699
  O  O1705  1  0.747070  0.050100  0.652530  1.0  -0.6735
  O  O1706  1  0.716540  0.037870  0.695210  1.0  -0.6988
  O  O1707  1  0.747070  0.550100  0.152530  1.0  -0.6735
  O  O1708  1  0.716540  0.537870  0.195210  1.0  -0.6988
  O  O1709  1  0.247070  0.050100  0.152530  1.0  -0.6735
  O  O1710  1  0.216540  0.037870  0.195210  1.0  -0.6988
  O  O1711  1  0.247070  0.550100  0.652530  1.0  -0.6735
  O  O1712  1  0.216540  0.537870  0.695210  1.0  -0.6988
  O  O1713  1  0.252930  0.949900  0.652530  1.0  -0.6723
  O  O1714  1  0.283460  0.962130  0.695210  1.0  -0.6968
  O  O1715  1  0.252930  0.449900  0.152530  1.0  -0.6723
  O  O1716  1  0.283460  0.462130  0.195210  1.0  -0.6968
  O  O1717  1  0.752930  0.949900  0.152530  1.0  -0.6723
  O  O1718  1  0.783460  0.962130  0.195210  1.0  -0.6968
  O  O1719  1  0.752930  0.449900  0.652530  1.0  -0.6723
  O  O1720  1  0.783460  0.462130  0.695210  1.0  -0.6968
  O  O1721  1  0.747070  0.949900  0.347470  1.0  -0.6719
  O  O1722  1  0.716540  0.962130  0.304790  1.0  -0.7007
  O  O1723  1  0.747070  0.449900  0.847470  1.0  -0.6719
  O  O1724  1  0.716540  0.462130  0.804790  1.0  -0.7007
  O  O1725  1  0.247070  0.949900  0.847470  1.0  -0.6719
  O  O1726  1  0.216540  0.962130  0.804790  1.0  -0.7007
  O  O1727  1  0.247070  0.449900  0.347470  1.0  -0.6719
  O  O1728  1  0.216540  0.462130  0.304790  1.0  -0.7007
  O  O1729  1  0.752930  0.847470  0.449900  1.0  -0.6686
  O  O1730  1  0.783460  0.804790  0.462130  1.0  -0.6964
  O  O1731  1  0.752930  0.347470  0.949900  1.0  -0.6686
  O  O1732  1  0.783460  0.304790  0.962130  1.0  -0.6964
  O  O1733  1  0.252930  0.847470  0.949900  1.0  -0.6686
  O  O1734  1  0.283460  0.804790  0.962130  1.0  -0.6964
  O  O1735  1  0.252930  0.347470  0.449900  1.0  -0.6686
  O  O1736  1  0.283460  0.304790  0.462130  1.0  -0.6964
  O  O1737  1  0.247070  0.152530  0.449900  1.0  -0.6662
  O  O1738  1  0.216540  0.195210  0.462130  1.0  -0.6994
  O  O1739  1  0.247070  0.652530  0.949900  1.0  -0.6662
  O  O1740  1  0.216540  0.695210  0.962130  1.0  -0.6994
  O  O1741  1  0.747070  0.152530  0.949900  1.0  -0.6662
  O  O1742  1  0.716540  0.195210  0.962130  1.0  -0.6994
  O  O1743  1  0.747070  0.652530  0.449900  1.0  -0.6662
  O  O1744  1  0.716540  0.695210  0.462130  1.0  -0.6994
  O  O1745  1  0.752930  0.152530  0.550100  1.0  -0.6657
  O  O1746  1  0.783460  0.195210  0.537870  1.0  -0.6979
  O  O1747  1  0.752930  0.652530  0.050100  1.0  -0.6657
  O  O1748  1  0.783460  0.695210  0.037870  1.0  -0.6979
  O  O1749  1  0.252930  0.152530  0.050100  1.0  -0.6657
  O  O1750  1  0.283460  0.195210  0.037870  1.0  -0.6979
  O  O1751  1  0.252930  0.652530  0.550100  1.0  -0.6657
  O  O1752  1  0.283460  0.695210  0.537870  1.0  -0.6979
  O  O1753  1  0.247070  0.847470  0.550100  1.0  -0.6685
  O  O1754  1  0.216540  0.804790  0.537870  1.0  -0.6988
  O  O1755  1  0.247070  0.347470  0.050100  1.0  -0.6685
  O  O1756  1  0.216540  0.304790  0.037870  1.0  -0.6988
  O  O1757  1  0.747070  0.847470  0.050100  1.0  -0.6685
  O  O1758  1  0.716540  0.804790  0.037870  1.0  -0.6988
  O  O1759  1  0.747070  0.347470  0.550100  1.0  -0.6685
  O  O1760  1  0.716540  0.304790  0.537870  1.0  -0.6988
  O  O1761  1  0.847470  0.550100  0.247070  1.0  -0.6735
  O  O1762  1  0.804790  0.537870  0.216540  1.0  -0.6982
  O  O1763  1  0.847470  0.050100  0.747070  1.0  -0.6735
  O  O1764  1  0.804790  0.037870  0.716540  1.0  -0.6982
  O  O1765  1  0.347470  0.550100  0.747070  1.0  -0.6735
  O  O1766  1  0.304790  0.537870  0.716540  1.0  -0.6982
  O  O1767  1  0.347470  0.050100  0.247070  1.0  -0.6735
  O  O1768  1  0.304790  0.037870  0.216540  1.0  -0.6982
  O  O1769  1  0.152530  0.550100  0.752930  1.0  -0.6715
  O  O1770  1  0.195210  0.537870  0.783460  1.0  -0.6995
  O  O1771  1  0.152530  0.050100  0.252930  1.0  -0.6715
  O  O1772  1  0.195210  0.037870  0.283460  1.0  -0.6995
  O  O1773  1  0.652530  0.550100  0.252930  1.0  -0.6715
  O  O1774  1  0.695210  0.537870  0.283460  1.0  -0.6995
  O  O1775  1  0.652530  0.050100  0.752930  1.0  -0.6715
  O  O1776  1  0.695210  0.037870  0.783460  1.0  -0.6995
  O  O1777  1  0.152530  0.449900  0.247070  1.0  -0.6709
  O  O1778  1  0.195210  0.462130  0.216540  1.0  -0.6997
  O  O1779  1  0.152530  0.949900  0.747070  1.0  -0.6709
  O  O1780  1  0.195210  0.962130  0.716540  1.0  -0.6997
  O  O1781  1  0.652530  0.449900  0.747070  1.0  -0.6709
  O  O1782  1  0.695210  0.462130  0.716540  1.0  -0.6997
  O  O1783  1  0.652530  0.949900  0.247070  1.0  -0.6709
  O  O1784  1  0.695210  0.962130  0.216540  1.0  -0.6997
  O  O1785  1  0.847470  0.449900  0.752930  1.0  -0.6728
  O  O1786  1  0.804790  0.462130  0.783460  1.0  -0.6976
  O  O1787  1  0.847470  0.949900  0.252930  1.0  -0.6728
  O  O1788  1  0.804790  0.962130  0.283460  1.0  -0.6976
  O  O1789  1  0.347470  0.449900  0.252930  1.0  -0.6728
  O  O1790  1  0.304790  0.462130  0.283460  1.0  -0.6976
  O  O1791  1  0.347470  0.949900  0.752930  1.0  -0.6728
  O  O1792  1  0.304790  0.962130  0.783460  1.0  -0.6976
  O  O1793  1  0.550100  0.752930  0.152530  1.0  -0.6718
  O  O1794  1  0.537870  0.783460  0.195210  1.0  -0.6957
  O  O1795  1  0.550100  0.252930  0.652530  1.0  -0.6718
  O  O1796  1  0.537870  0.283460  0.695210  1.0  -0.6957
  O  O1797  1  0.050100  0.752930  0.652530  1.0  -0.6718
  O  O1798  1  0.037870  0.783460  0.695210  1.0  -0.6957
  O  O1799  1  0.050100  0.252930  0.152530  1.0  -0.6718
  O  O1800  1  0.037870  0.283460  0.195210  1.0  -0.6957
  O  O1801  1  0.550100  0.247070  0.847470  1.0  -0.6728
  O  O1802  1  0.537870  0.216540  0.804790  1.0  -0.6977
  O  O1803  1  0.550100  0.747070  0.347470  1.0  -0.6728
  O  O1804  1  0.537870  0.716540  0.304790  1.0  -0.6977
  O  O1805  1  0.050100  0.247070  0.347470  1.0  -0.6728
  O  O1806  1  0.037870  0.216540  0.304790  1.0  -0.6977
  O  O1807  1  0.050100  0.747070  0.847470  1.0  -0.6728
  O  O1808  1  0.037870  0.716540  0.804790  1.0  -0.6977
  O  O1809  1  0.449900  0.752930  0.847470  1.0  -0.669
  O  O1810  1  0.462130  0.783460  0.804790  1.0  -0.6978
  O  O1811  1  0.449900  0.252930  0.347470  1.0  -0.669
  O  O1812  1  0.462130  0.283460  0.304790  1.0  -0.6978
  O  O1813  1  0.949900  0.752930  0.347470  1.0  -0.669
  O  O1814  1  0.962130  0.783460  0.304790  1.0  -0.6978
  O  O1815  1  0.949900  0.252930  0.847470  1.0  -0.669
  O  O1816  1  0.962130  0.283460  0.804790  1.0  -0.6978
  O  O1817  1  0.449900  0.247070  0.152530  1.0  -0.6729
  O  O1818  1  0.462130  0.216540  0.195210  1.0  -0.6961
  O  O1819  1  0.449900  0.747070  0.652530  1.0  -0.6729
  O  O1820  1  0.462130  0.716540  0.695210  1.0  -0.6961
  O  O1821  1  0.949900  0.247070  0.652530  1.0  -0.6729
  O  O1822  1  0.962130  0.216540  0.695210  1.0  -0.6961
  O  O1823  1  0.949900  0.747070  0.152530  1.0  -0.6729
  O  O1824  1  0.962130  0.716540  0.195210  1.0  -0.6961
  O  O1825  1  0.750000  0.750000  0.000000  1.0  -0.659
  O  O1826  1  0.250000  0.250000  0.000000  1.0  -0.659
  O  O1827  1  0.250000  0.750000  0.000000  1.0  -0.659
  O  O1828  1  0.750000  0.250000  0.000000  1.0  -0.659
  O  O1829  1  0.000000  0.750000  0.750000  1.0  -0.659
  O  O1830  1  0.000000  0.250000  0.250000  1.0  -0.659
  O  O1831  1  0.000000  0.250000  0.750000  1.0  -0.659
  O  O1832  1  0.000000  0.750000  0.250000  1.0  -0.659
  O  O1833  1  0.750000  0.000000  0.750000  1.0  -0.659
  O  O1834  1  0.250000  0.000000  0.250000  1.0  -0.659
  O  O1835  1  0.750000  0.000000  0.250000  1.0  -0.659
  O  O1836  1  0.250000  0.000000  0.750000  1.0  -0.659
  O  O1837  1  0.250000  0.250000  0.500000  1.0  -0.659
  O  O1838  1  0.750000  0.750000  0.500000  1.0  -0.659
  O  O1839  1  0.250000  0.750000  0.500000  1.0  -0.659
  O  O1840  1  0.750000  0.250000  0.500000  1.0  -0.659
  O  O1841  1  0.250000  0.500000  0.750000  1.0  -0.659
  O  O1842  1  0.750000  0.500000  0.250000  1.0  -0.659
  O  O1843  1  0.750000  0.500000  0.750000  1.0  -0.659
  O  O1844  1  0.250000  0.500000  0.250000  1.0  -0.659
  O  O1845  1  0.500000  0.250000  0.750000  1.0  -0.659
  O  O1846  1  0.500000  0.750000  0.250000  1.0  -0.659
  O  O1847  1  0.500000  0.250000  0.250000  1.0  -0.659
  O  O1848  1  0.500000  0.750000  0.750000  1.0  -0.659
