# generated using pymatgen
data_Cu2H11C16NO9
_symmetry_space_group_name_H-M   'P 1'
_cell_length_a   18.99000000
_cell_length_b   34.41800000
_cell_length_c   38.39300000
_cell_angle_alpha   90.00000000
_cell_angle_beta   90.00000000
_cell_angle_gamma   90.00000000
_symmetry_Int_Tables_number   1
_chemical_formula_structural   Cu2H11C16NO9
_chemical_formula_sum   'Cu64 H352 C512 N32 O288'
_cell_volume   25093.58110326
_cell_formula_units_Z   32
loop_
 _symmetry_equiv_pos_site_id
 _symmetry_equiv_pos_as_xyz
  1  'x, y, z'
loop_
 _atom_site_type_symbol
 _atom_site_label
 _atom_site_symmetry_multiplicity
 _atom_site_fract_x
 _atom_site_fract_y
 _atom_site_fract_z
 _atom_site_occupancy
 _atom_site_charge
  Cu  Cu1  1  0.409520  0.247510  0.840670  1.0  0.9522
  Cu  Cu2  1  0.239400  0.226410  0.838170  1.0  0.9393
  Cu  Cu3  1  0.409520  0.747510  0.340670  1.0  0.9522
  Cu  Cu4  1  0.239400  0.726410  0.338170  1.0  0.9393
  Cu  Cu5  1  0.909520  0.247510  0.340670  1.0  0.9522
  Cu  Cu6  1  0.739400  0.226410  0.338170  1.0  0.9393
  Cu  Cu7  1  0.909520  0.747510  0.840670  1.0  0.9522
  Cu  Cu8  1  0.739400  0.726410  0.838170  1.0  0.9393
  Cu  Cu9  1  0.340480  0.502490  0.840670  1.0  0.9526
  Cu  Cu10  1  0.510600  0.523590  0.838170  1.0  0.936
  Cu  Cu11  1  0.340480  0.002490  0.340670  1.0  0.9526
  Cu  Cu12  1  0.510600  0.023590  0.338170  1.0  0.936
  Cu  Cu13  1  0.840480  0.502490  0.340670  1.0  0.9526
  Cu  Cu14  1  0.010600  0.523590  0.338170  1.0  0.936
  Cu  Cu15  1  0.840480  0.002490  0.840670  1.0  0.9526
  Cu  Cu16  1  0.010600  0.023590  0.838170  1.0  0.936
  Cu  Cu17  1  0.340480  0.247510  0.909330  1.0  0.9536
  Cu  Cu18  1  0.510600  0.226410  0.911830  1.0  0.9354
  Cu  Cu19  1  0.340480  0.747510  0.409330  1.0  0.9536
  Cu  Cu20  1  0.510600  0.726410  0.411830  1.0  0.9354
  Cu  Cu21  1  0.840480  0.247510  0.409330  1.0  0.9536
  Cu  Cu22  1  0.010600  0.226410  0.411830  1.0  0.9354
  Cu  Cu23  1  0.840480  0.747510  0.909330  1.0  0.9536
  Cu  Cu24  1  0.010600  0.726410  0.911830  1.0  0.9354
  Cu  Cu25  1  0.409520  0.502490  0.909330  1.0  0.9514
  Cu  Cu26  1  0.239400  0.523590  0.911830  1.0  0.9337
  Cu  Cu27  1  0.409520  0.002490  0.409330  1.0  0.9514
  Cu  Cu28  1  0.239400  0.023590  0.411830  1.0  0.9337
  Cu  Cu29  1  0.909520  0.502490  0.409330  1.0  0.9514
  Cu  Cu30  1  0.739400  0.523590  0.411830  1.0  0.9337
  Cu  Cu31  1  0.909520  0.002490  0.909330  1.0  0.9514
  Cu  Cu32  1  0.739400  0.023590  0.911830  1.0  0.9337
  Cu  Cu33  1  0.590480  0.752490  0.159330  1.0  0.9524
  Cu  Cu34  1  0.760600  0.773590  0.161830  1.0  0.9328
  Cu  Cu35  1  0.590480  0.252490  0.659330  1.0  0.9524
  Cu  Cu36  1  0.760600  0.273590  0.661830  1.0  0.9328
  Cu  Cu37  1  0.090480  0.752490  0.659330  1.0  0.9524
  Cu  Cu38  1  0.260600  0.773590  0.661830  1.0  0.9328
  Cu  Cu39  1  0.090480  0.252490  0.159330  1.0  0.9524
  Cu  Cu40  1  0.260600  0.273590  0.161830  1.0  0.9328
  Cu  Cu41  1  0.659520  0.497510  0.159330  1.0  0.9525
  Cu  Cu42  1  0.489400  0.476410  0.161830  1.0  0.9348
  Cu  Cu43  1  0.659520  0.997510  0.659330  1.0  0.9525
  Cu  Cu44  1  0.489400  0.976410  0.661830  1.0  0.9348
  Cu  Cu45  1  0.159520  0.497510  0.659330  1.0  0.9525
  Cu  Cu46  1  0.989400  0.476410  0.661830  1.0  0.9348
  Cu  Cu47  1  0.159520  0.997510  0.159330  1.0  0.9525
  Cu  Cu48  1  0.989400  0.976410  0.161830  1.0  0.9348
  Cu  Cu49  1  0.659520  0.752490  0.090670  1.0  0.9516
  Cu  Cu50  1  0.489400  0.773590  0.088170  1.0  0.9383
  Cu  Cu51  1  0.659520  0.252490  0.590670  1.0  0.9516
  Cu  Cu52  1  0.489400  0.273590  0.588170  1.0  0.9383
  Cu  Cu53  1  0.159520  0.752490  0.590670  1.0  0.9516
  Cu  Cu54  1  0.989400  0.773590  0.588170  1.0  0.9383
  Cu  Cu55  1  0.159520  0.252490  0.090670  1.0  0.9516
  Cu  Cu56  1  0.989400  0.273590  0.088170  1.0  0.9383
  Cu  Cu57  1  0.590480  0.497510  0.090670  1.0  0.9535
  Cu  Cu58  1  0.760600  0.476410  0.088170  1.0  0.938
  Cu  Cu59  1  0.590480  0.997510  0.590670  1.0  0.9535
  Cu  Cu60  1  0.760600  0.976410  0.588170  1.0  0.938
  Cu  Cu61  1  0.090480  0.497510  0.590670  1.0  0.9535
  Cu  Cu62  1  0.260600  0.476410  0.588170  1.0  0.938
  Cu  Cu63  1  0.090480  0.997510  0.090670  1.0  0.9535
  Cu  Cu64  1  0.260600  0.976410  0.088170  1.0  0.938
  H  H65  1  0.295000  0.277200  0.871300  1.0  0.3175
  H  H66  1  0.501700  0.159800  0.822600  1.0  0.1279
  H  H67  1  0.530200  0.129200  0.795900  1.0  0.1422
  H  H68  1  0.546400  0.124500  0.835700  1.0  0.1253
  H  H69  1  0.415200  0.998300  0.818000  1.0  0.1263
  H  H70  1  0.337200  0.004500  0.805900  1.0  0.1385
  H  H71  1  0.354900  0.001900  0.845700  1.0  0.1462
  H  H72  1  0.470900  0.039200  0.758700  1.0  0.1288
  H  H73  1  0.671900  0.004200  0.770600  1.0  0.1325
  H  H74  1  0.566100  0.050600  0.851600  1.0  0.122
  H  H75  1  0.247000  0.127200  0.845800  1.0  0.3596
  H  H76  1  0.295000  0.777200  0.371300  1.0  0.3175
  H  H77  1  0.501700  0.659800  0.322600  1.0  0.1279
  H  H78  1  0.530200  0.629200  0.295900  1.0  0.1422
  H  H79  1  0.546400  0.624500  0.335700  1.0  0.1253
  H  H80  1  0.415200  0.498300  0.318000  1.0  0.1263
  H  H81  1  0.337200  0.504500  0.305900  1.0  0.1385
  H  H82  1  0.354900  0.501900  0.345700  1.0  0.1462
  H  H83  1  0.470900  0.539200  0.258700  1.0  0.1288
  H  H84  1  0.671900  0.504200  0.270600  1.0  0.1325
  H  H85  1  0.566100  0.550600  0.351600  1.0  0.122
  H  H86  1  0.247000  0.627200  0.345800  1.0  0.3596
  H  H87  1  0.795000  0.277200  0.371300  1.0  0.3175
  H  H88  1  0.001700  0.159800  0.322600  1.0  0.1279
  H  H89  1  0.030200  0.129200  0.295900  1.0  0.1422
  H  H90  1  0.046400  0.124500  0.335700  1.0  0.1253
  H  H91  1  0.915200  0.998300  0.318000  1.0  0.1263
  H  H92  1  0.837200  0.004500  0.305900  1.0  0.1385
  H  H93  1  0.854900  0.001900  0.345700  1.0  0.1462
  H  H94  1  0.970900  0.039200  0.258700  1.0  0.1288
  H  H95  1  0.171900  0.004200  0.270600  1.0  0.1325
  H  H96  1  0.066100  0.050600  0.351600  1.0  0.122
  H  H97  1  0.747000  0.127200  0.345800  1.0  0.3596
  H  H98  1  0.795000  0.777200  0.871300  1.0  0.3175
  H  H99  1  0.001700  0.659800  0.822600  1.0  0.1279
  H  H100  1  0.030200  0.629200  0.795900  1.0  0.1422
  H  H101  1  0.046400  0.624500  0.835700  1.0  0.1253
  H  H102  1  0.915200  0.498300  0.818000  1.0  0.1263
  H  H103  1  0.837200  0.504500  0.805900  1.0  0.1385
  H  H104  1  0.854900  0.501900  0.845700  1.0  0.1462
  H  H105  1  0.970900  0.539200  0.758700  1.0  0.1288
  H  H106  1  0.171900  0.504200  0.770600  1.0  0.1325
  H  H107  1  0.066100  0.550600  0.851600  1.0  0.122
  H  H108  1  0.747000  0.627200  0.845800  1.0  0.3596
  H  H109  1  0.455000  0.472800  0.871300  1.0  0.315
  H  H110  1  0.248300  0.590200  0.822600  1.0  0.1264
  H  H111  1  0.219800  0.620800  0.795900  1.0  0.1422
  H  H112  1  0.203600  0.625500  0.835700  1.0  0.1248
  H  H113  1  0.334800  0.751700  0.818000  1.0  0.1272
  H  H114  1  0.412800  0.745500  0.805900  1.0  0.1383
  H  H115  1  0.395100  0.748100  0.845700  1.0  0.1463
  H  H116  1  0.279100  0.710800  0.758700  1.0  0.1293
  H  H117  1  0.078100  0.745800  0.770600  1.0  0.1351
  H  H118  1  0.183900  0.699400  0.851600  1.0  0.1223
  H  H119  1  0.503000  0.622800  0.845800  1.0  0.36
  H  H120  1  0.455000  0.972800  0.371300  1.0  0.315
  H  H121  1  0.248300  0.090200  0.322600  1.0  0.1264
  H  H122  1  0.219800  0.120800  0.295900  1.0  0.1422
  H  H123  1  0.203600  0.125500  0.335700  1.0  0.1248
  H  H124  1  0.334800  0.251700  0.318000  1.0  0.1272
  H  H125  1  0.412800  0.245500  0.305900  1.0  0.1383
  H  H126  1  0.395100  0.248100  0.345700  1.0  0.1463
  H  H127  1  0.279100  0.210800  0.258700  1.0  0.1293
  H  H128  1  0.078100  0.245800  0.270600  1.0  0.1351
  H  H129  1  0.183900  0.199400  0.351600  1.0  0.1223
  H  H130  1  0.503000  0.122800  0.345800  1.0  0.36
  H  H131  1  0.955000  0.472800  0.371300  1.0  0.315
  H  H132  1  0.748300  0.590200  0.322600  1.0  0.1264
  H  H133  1  0.719800  0.620800  0.295900  1.0  0.1422
  H  H134  1  0.703600  0.625500  0.335700  1.0  0.1248
  H  H135  1  0.834800  0.751700  0.318000  1.0  0.1272
  H  H136  1  0.912800  0.745500  0.305900  1.0  0.1383
  H  H137  1  0.895100  0.748100  0.345700  1.0  0.1463
  H  H138  1  0.779100  0.710800  0.258700  1.0  0.1293
  H  H139  1  0.578100  0.745800  0.270600  1.0  0.1351
  H  H140  1  0.683900  0.699400  0.351600  1.0  0.1223
  H  H141  1  0.003000  0.622800  0.345800  1.0  0.36
  H  H142  1  0.955000  0.972800  0.871300  1.0  0.315
  H  H143  1  0.748300  0.090200  0.822600  1.0  0.1264
  H  H144  1  0.719800  0.120800  0.795900  1.0  0.1422
  H  H145  1  0.703600  0.125500  0.835700  1.0  0.1248
  H  H146  1  0.834800  0.251700  0.818000  1.0  0.1272
  H  H147  1  0.912800  0.245500  0.805900  1.0  0.1383
  H  H148  1  0.895100  0.248100  0.845700  1.0  0.1463
  H  H149  1  0.779100  0.210800  0.758700  1.0  0.1293
  H  H150  1  0.578100  0.245800  0.770600  1.0  0.1351
  H  H151  1  0.683900  0.199400  0.851600  1.0  0.1223
  H  H152  1  0.003000  0.122800  0.845800  1.0  0.36
  H  H153  1  0.455000  0.277200  0.878700  1.0  0.3171
  H  H154  1  0.248300  0.159800  0.927400  1.0  0.1268
  H  H155  1  0.219800  0.129200  0.954100  1.0  0.1434
  H  H156  1  0.203600  0.124500  0.914300  1.0  0.1248
  H  H157  1  0.334800  0.998300  0.932000  1.0  0.1276
  H  H158  1  0.412800  0.004500  0.944100  1.0  0.1385
  H  H159  1  0.395100  0.001900  0.904300  1.0  0.1466
  H  H160  1  0.279100  0.039200  0.991300  1.0  0.1294
  H  H161  1  0.078100  0.004200  0.979400  1.0  0.1348
  H  H162  1  0.183900  0.050600  0.898400  1.0  0.1233
  H  H163  1  0.503000  0.127200  0.904200  1.0  0.3586
  H  H164  1  0.455000  0.777200  0.378700  1.0  0.3171
  H  H165  1  0.248300  0.659800  0.427400  1.0  0.1268
  H  H166  1  0.219800  0.629200  0.454100  1.0  0.1434
  H  H167  1  0.203600  0.624500  0.414300  1.0  0.1248
  H  H168  1  0.334800  0.498300  0.432000  1.0  0.1276
  H  H169  1  0.412800  0.504500  0.444100  1.0  0.1385
  H  H170  1  0.395100  0.501900  0.404300  1.0  0.1466
  H  H171  1  0.279100  0.539200  0.491300  1.0  0.1294
  H  H172  1  0.078100  0.504200  0.479400  1.0  0.1348
  H  H173  1  0.183900  0.550600  0.398400  1.0  0.1233
  H  H174  1  0.503000  0.627200  0.404200  1.0  0.3586
  H  H175  1  0.955000  0.277200  0.378700  1.0  0.3171
  H  H176  1  0.748300  0.159800  0.427400  1.0  0.1268
  H  H177  1  0.719800  0.129200  0.454100  1.0  0.1434
  H  H178  1  0.703600  0.124500  0.414300  1.0  0.1248
  H  H179  1  0.834800  0.998300  0.432000  1.0  0.1276
  H  H180  1  0.912800  0.004500  0.444100  1.0  0.1385
  H  H181  1  0.895100  0.001900  0.404300  1.0  0.1476
  H  H182  1  0.779100  0.039200  0.491300  1.0  0.1294
  H  H183  1  0.578100  0.004200  0.479400  1.0  0.1348
  H  H184  1  0.683900  0.050600  0.398400  1.0  0.1233
  H  H185  1  0.003000  0.127200  0.404200  1.0  0.3586
  H  H186  1  0.955000  0.777200  0.878700  1.0  0.3171
  H  H187  1  0.748300  0.659800  0.927400  1.0  0.1268
  H  H188  1  0.719800  0.629200  0.954100  1.0  0.1434
  H  H189  1  0.703600  0.624500  0.914300  1.0  0.1248
  H  H190  1  0.834800  0.498300  0.932000  1.0  0.1276
  H  H191  1  0.912800  0.504500  0.944100  1.0  0.1385
  H  H192  1  0.895100  0.501900  0.904300  1.0  0.1466
  H  H193  1  0.779100  0.539200  0.991300  1.0  0.1294
  H  H194  1  0.578100  0.504200  0.979400  1.0  0.1348
  H  H195  1  0.683900  0.550600  0.898400  1.0  0.1233
  H  H196  1  0.003000  0.627200  0.904200  1.0  0.3586
  H  H197  1  0.295000  0.472800  0.878700  1.0  0.3155
  H  H198  1  0.501700  0.590200  0.927400  1.0  0.1269
  H  H199  1  0.530200  0.620800  0.954100  1.0  0.1431
  H  H200  1  0.546400  0.625500  0.914300  1.0  0.1243
  H  H201  1  0.415200  0.751700  0.932000  1.0  0.126
  H  H202  1  0.337200  0.745500  0.944100  1.0  0.1386
  H  H203  1  0.354900  0.748100  0.904300  1.0  0.1458
  H  H204  1  0.470900  0.710800  0.991300  1.0  0.1295
  H  H205  1  0.671900  0.745800  0.979400  1.0  0.1334
  H  H206  1  0.566100  0.699400  0.898400  1.0  0.1223
  H  H207  1  0.247000  0.622800  0.904200  1.0  0.3603
  H  H208  1  0.295000  0.972800  0.378700  1.0  0.3155
  H  H209  1  0.501700  0.090200  0.427400  1.0  0.1269
  H  H210  1  0.530200  0.120800  0.454100  1.0  0.1431
  H  H211  1  0.546400  0.125500  0.414300  1.0  0.1243
  H  H212  1  0.415200  0.251700  0.432000  1.0  0.126
  H  H213  1  0.337200  0.245500  0.444100  1.0  0.1386
  H  H214  1  0.354900  0.248100  0.404300  1.0  0.1458
  H  H215  1  0.470900  0.210800  0.491300  1.0  0.1295
  H  H216  1  0.671900  0.245800  0.479400  1.0  0.1334
  H  H217  1  0.566100  0.199400  0.398400  1.0  0.1223
  H  H218  1  0.247000  0.122800  0.404200  1.0  0.3603
  H  H219  1  0.795000  0.472800  0.378700  1.0  0.3155
  H  H220  1  0.001700  0.590200  0.427400  1.0  0.1269
  H  H221  1  0.030200  0.620800  0.454100  1.0  0.1431
  H  H222  1  0.046400  0.625500  0.414300  1.0  0.1243
  H  H223  1  0.915200  0.751700  0.432000  1.0  0.126
  H  H224  1  0.837200  0.745500  0.444100  1.0  0.1386
  H  H225  1  0.854900  0.748100  0.404300  1.0  0.1458
  H  H226  1  0.970900  0.710800  0.491300  1.0  0.1295
  H  H227  1  0.171900  0.745800  0.479400  1.0  0.1334
  H  H228  1  0.066100  0.699400  0.398400  1.0  0.1223
  H  H229  1  0.747000  0.622800  0.404200  1.0  0.3603
  H  H230  1  0.795000  0.972800  0.878700  1.0  0.3155
  H  H231  1  0.001700  0.090200  0.927400  1.0  0.1269
  H  H232  1  0.030200  0.120800  0.954100  1.0  0.1431
  H  H233  1  0.046400  0.125500  0.914300  1.0  0.1243
  H  H234  1  0.915200  0.251700  0.932000  1.0  0.126
  H  H235  1  0.837200  0.245500  0.944100  1.0  0.1386
  H  H236  1  0.854900  0.248100  0.904300  1.0  0.1458
  H  H237  1  0.970900  0.210800  0.991300  1.0  0.1295
  H  H238  1  0.171900  0.245800  0.979400  1.0  0.1334
  H  H239  1  0.066100  0.199400  0.898400  1.0  0.1223
  H  H240  1  0.747000  0.122800  0.904200  1.0  0.3603
  H  H241  1  0.705000  0.722800  0.128700  1.0  0.3151
  H  H242  1  0.498300  0.840200  0.177400  1.0  0.1268
  H  H243  1  0.469800  0.870800  0.204100  1.0  0.1434
  H  H244  1  0.453600  0.875500  0.164300  1.0  0.1244
  H  H245  1  0.584800  0.001700  0.182000  1.0  0.1272
  H  H246  1  0.662800  0.995500  0.194100  1.0  0.1379
  H  H247  1  0.645100  0.998100  0.154300  1.0  0.1458
  H  H248  1  0.529100  0.960800  0.241300  1.0  0.1298
  H  H249  1  0.328100  0.995800  0.229400  1.0  0.1348
  H  H250  1  0.433900  0.949400  0.148400  1.0  0.1228
  H  H251  1  0.753000  0.872800  0.154200  1.0  0.3601
  H  H252  1  0.705000  0.222800  0.628700  1.0  0.3151
  H  H253  1  0.498300  0.340200  0.677400  1.0  0.1268
  H  H254  1  0.469800  0.370800  0.704100  1.0  0.1434
  H  H255  1  0.453600  0.375500  0.664300  1.0  0.1244
  H  H256  1  0.584800  0.501700  0.682000  1.0  0.1272
  H  H257  1  0.662800  0.495500  0.694100  1.0  0.1379
  H  H258  1  0.645100  0.498100  0.654300  1.0  0.1458
  H  H259  1  0.529100  0.460800  0.741300  1.0  0.1298
  H  H260  1  0.328100  0.495800  0.729400  1.0  0.1348
  H  H261  1  0.433900  0.449400  0.648400  1.0  0.1228
  H  H262  1  0.753000  0.372800  0.654200  1.0  0.3601
  H  H263  1  0.205000  0.722800  0.628700  1.0  0.3151
  H  H264  1  0.998300  0.840200  0.677400  1.0  0.1268
  H  H265  1  0.969800  0.870800  0.704100  1.0  0.1434
  H  H266  1  0.953600  0.875500  0.664300  1.0  0.1244
  H  H267  1  0.084800  0.001700  0.682000  1.0  0.1272
  H  H268  1  0.162800  0.995500  0.694100  1.0  0.1379
  H  H269  1  0.145100  0.998100  0.654300  1.0  0.1458
  H  H270  1  0.029100  0.960800  0.741300  1.0  0.1298
  H  H271  1  0.828100  0.995800  0.729400  1.0  0.1348
  H  H272  1  0.933900  0.949400  0.648400  1.0  0.1228
  H  H273  1  0.253000  0.872800  0.654200  1.0  0.3601
  H  H274  1  0.205000  0.222800  0.128700  1.0  0.3151
  H  H275  1  0.998300  0.340200  0.177400  1.0  0.1268
  H  H276  1  0.969800  0.370800  0.204100  1.0  0.1434
  H  H277  1  0.953600  0.375500  0.164300  1.0  0.1244
  H  H278  1  0.084800  0.501700  0.182000  1.0  0.1272
  H  H279  1  0.162800  0.495500  0.194100  1.0  0.1379
  H  H280  1  0.145100  0.498100  0.154300  1.0  0.1458
  H  H281  1  0.029100  0.460800  0.241300  1.0  0.1298
  H  H282  1  0.828100  0.495800  0.229400  1.0  0.1348
  H  H283  1  0.933900  0.449400  0.148400  1.0  0.1228
  H  H284  1  0.253000  0.372800  0.154200  1.0  0.3601
  H  H285  1  0.545000  0.527200  0.128700  1.0  0.3177
  H  H286  1  0.751700  0.409800  0.177400  1.0  0.127
  H  H287  1  0.780200  0.379200  0.204100  1.0  0.143
  H  H288  1  0.796400  0.374500  0.164300  1.0  0.1246
  H  H289  1  0.665200  0.248300  0.182000  1.0  0.1264
  H  H290  1  0.587200  0.254500  0.194100  1.0  0.1397
  H  H291  1  0.604900  0.251900  0.154300  1.0  0.1465
  H  H292  1  0.720900  0.289200  0.241300  1.0  0.1291
  H  H293  1  0.921900  0.254200  0.229400  1.0  0.1328
  H  H294  1  0.816100  0.300600  0.148400  1.0  0.1227
  H  H295  1  0.497000  0.377200  0.154200  1.0  0.358
  H  H296  1  0.545000  0.027200  0.628700  1.0  0.3177
  H  H297  1  0.751700  0.909800  0.677400  1.0  0.127
  H  H298  1  0.780200  0.879200  0.704100  1.0  0.143
  H  H299  1  0.796400  0.874500  0.664300  1.0  0.1246
  H  H300  1  0.665200  0.748300  0.682000  1.0  0.1264
  H  H301  1  0.587200  0.754500  0.694100  1.0  0.1397
  H  H302  1  0.604900  0.751900  0.654300  1.0  0.1465
  H  H303  1  0.720900  0.789200  0.741300  1.0  0.1291
  H  H304  1  0.921900  0.754200  0.729400  1.0  0.1328
  H  H305  1  0.816100  0.800600  0.648400  1.0  0.1227
  H  H306  1  0.497000  0.877200  0.654200  1.0  0.358
  H  H307  1  0.045000  0.527200  0.628700  1.0  0.3177
  H  H308  1  0.251700  0.409800  0.677400  1.0  0.127
  H  H309  1  0.280200  0.379200  0.704100  1.0  0.143
  H  H310  1  0.296400  0.374500  0.664300  1.0  0.1246
  H  H311  1  0.165200  0.248300  0.682000  1.0  0.1264
  H  H312  1  0.087200  0.254500  0.694100  1.0  0.1397
  H  H313  1  0.104900  0.251900  0.654300  1.0  0.1465
  H  H314  1  0.220900  0.289200  0.741300  1.0  0.1291
  H  H315  1  0.421900  0.254200  0.729400  1.0  0.1328
  H  H316  1  0.316100  0.300600  0.648400  1.0  0.1227
  H  H317  1  0.997000  0.377200  0.654200  1.0  0.358
  H  H318  1  0.045000  0.027200  0.128700  1.0  0.3177
  H  H319  1  0.251700  0.909800  0.177400  1.0  0.127
  H  H320  1  0.280200  0.879200  0.204100  1.0  0.143
  H  H321  1  0.296400  0.874500  0.164300  1.0  0.1246
  H  H322  1  0.165200  0.748300  0.182000  1.0  0.1264
  H  H323  1  0.087200  0.754500  0.194100  1.0  0.1397
  H  H324  1  0.104900  0.751900  0.154300  1.0  0.1465
  H  H325  1  0.220900  0.789200  0.241300  1.0  0.1291
  H  H326  1  0.421900  0.754200  0.229400  1.0  0.1328
  H  H327  1  0.316100  0.800600  0.148400  1.0  0.1227
  H  H328  1  0.997000  0.877200  0.154200  1.0  0.358
  H  H329  1  0.545000  0.722800  0.121300  1.0  0.3154
  H  H330  1  0.751700  0.840200  0.072600  1.0  0.1262
  H  H331  1  0.780200  0.870800  0.045900  1.0  0.142
  H  H332  1  0.796400  0.875500  0.085700  1.0  0.125
  H  H333  1  0.665200  0.001700  0.068000  1.0  0.1261
  H  H334  1  0.587200  0.995500  0.055900  1.0  0.1377
  H  H335  1  0.604900  0.998100  0.095700  1.0  0.146
  H  H336  1  0.720900  0.960800  0.008700  1.0  0.1287
  H  H337  1  0.921900  0.995800  0.020600  1.0  0.1336
  H  H338  1  0.816100  0.949400  0.101600  1.0  0.1219
  H  H339  1  0.497000  0.872800  0.095800  1.0  0.3616
  H  H340  1  0.545000  0.222800  0.621300  1.0  0.3154
  H  H341  1  0.751700  0.340200  0.572600  1.0  0.1262
  H  H342  1  0.780200  0.370800  0.545900  1.0  0.142
  H  H343  1  0.796400  0.375500  0.585700  1.0  0.125
  H  H344  1  0.665200  0.501700  0.568000  1.0  0.1261
  H  H345  1  0.587200  0.495500  0.555900  1.0  0.1377
  H  H346  1  0.604900  0.498100  0.595700  1.0  0.146
  H  H347  1  0.720900  0.460800  0.508700  1.0  0.1287
  H  H348  1  0.921900  0.495800  0.520600  1.0  0.1336
  H  H349  1  0.816100  0.449400  0.601600  1.0  0.1219
  H  H350  1  0.497000  0.372800  0.595800  1.0  0.3616
  H  H351  1  0.045000  0.722800  0.621300  1.0  0.3154
  H  H352  1  0.251700  0.840200  0.572600  1.0  0.1262
  H  H353  1  0.280200  0.870800  0.545900  1.0  0.142
  H  H354  1  0.296400  0.875500  0.585700  1.0  0.125
  H  H355  1  0.165200  0.001700  0.568000  1.0  0.1261
  H  H356  1  0.087200  0.995500  0.555900  1.0  0.1377
  H  H357  1  0.104900  0.998100  0.595700  1.0  0.147
  H  H358  1  0.220900  0.960800  0.508700  1.0  0.1287
  H  H359  1  0.421900  0.995800  0.520600  1.0  0.1336
  H  H360  1  0.316100  0.949400  0.601600  1.0  0.1219
  H  H361  1  0.997000  0.872800  0.595800  1.0  0.3616
  H  H362  1  0.045000  0.222800  0.121300  1.0  0.3154
  H  H363  1  0.251700  0.340200  0.072600  1.0  0.1262
  H  H364  1  0.280200  0.370800  0.045900  1.0  0.142
  H  H365  1  0.296400  0.375500  0.085700  1.0  0.125
  H  H366  1  0.165200  0.501700  0.068000  1.0  0.1261
  H  H367  1  0.087200  0.495500  0.055900  1.0  0.1377
  H  H368  1  0.104900  0.498100  0.095700  1.0  0.146
  H  H369  1  0.220900  0.460800  0.008700  1.0  0.1287
  H  H370  1  0.421900  0.495800  0.020600  1.0  0.1336
  H  H371  1  0.316100  0.449400  0.101600  1.0  0.1219
  H  H372  1  0.997000  0.372800  0.095800  1.0  0.3616
  H  H373  1  0.705000  0.527200  0.121300  1.0  0.3168
  H  H374  1  0.498300  0.409800  0.072600  1.0  0.1279
  H  H375  1  0.469800  0.379200  0.045900  1.0  0.1426
  H  H376  1  0.453600  0.374500  0.085700  1.0  0.1249
  H  H377  1  0.584800  0.248300  0.068000  1.0  0.1278
  H  H378  1  0.662800  0.254500  0.055900  1.0  0.1389
  H  H379  1  0.645100  0.251900  0.095700  1.0  0.1464
  H  H380  1  0.529100  0.289200  0.008700  1.0  0.1292
  H  H381  1  0.328100  0.254200  0.020600  1.0  0.1345
  H  H382  1  0.433900  0.300600  0.101600  1.0  0.1224
  H  H383  1  0.753000  0.377200  0.095800  1.0  0.359
  H  H384  1  0.705000  0.027200  0.621300  1.0  0.3168
  H  H385  1  0.498300  0.909800  0.572600  1.0  0.1279
  H  H386  1  0.469800  0.879200  0.545900  1.0  0.1426
  H  H387  1  0.453600  0.874500  0.585700  1.0  0.1249
  H  H388  1  0.584800  0.748300  0.568000  1.0  0.1278
  H  H389  1  0.662800  0.754500  0.555900  1.0  0.1389
  H  H390  1  0.645100  0.751900  0.595700  1.0  0.1464
  H  H391  1  0.529100  0.789200  0.508700  1.0  0.1292
  H  H392  1  0.328100  0.754200  0.520600  1.0  0.1345
  H  H393  1  0.433900  0.800600  0.601600  1.0  0.1224
  H  H394  1  0.753000  0.877200  0.595800  1.0  0.359
  H  H395  1  0.205000  0.527200  0.621300  1.0  0.3168
  H  H396  1  0.998300  0.409800  0.572600  1.0  0.1279
  H  H397  1  0.969800  0.379200  0.545900  1.0  0.1426
  H  H398  1  0.953600  0.374500  0.585700  1.0  0.1249
  H  H399  1  0.084800  0.248300  0.568000  1.0  0.1278
  H  H400  1  0.162800  0.254500  0.555900  1.0  0.1389
  H  H401  1  0.145100  0.251900  0.595700  1.0  0.1464
  H  H402  1  0.029100  0.289200  0.508700  1.0  0.1292
  H  H403  1  0.828100  0.254200  0.520600  1.0  0.1345
  H  H404  1  0.933900  0.300600  0.601600  1.0  0.1224
  H  H405  1  0.253000  0.377200  0.595800  1.0  0.359
  H  H406  1  0.205000  0.027200  0.121300  1.0  0.3168
  H  H407  1  0.998300  0.909800  0.072600  1.0  0.1279
  H  H408  1  0.969800  0.879200  0.045900  1.0  0.1426
  H  H409  1  0.953600  0.874500  0.085700  1.0  0.1249
  H  H410  1  0.084800  0.748300  0.068000  1.0  0.1278
  H  H411  1  0.162800  0.754500  0.055900  1.0  0.1389
  H  H412  1  0.145100  0.751900  0.095700  1.0  0.1464
  H  H413  1  0.029100  0.789200  0.008700  1.0  0.1292
  H  H414  1  0.828100  0.754200  0.020600  1.0  0.1345
  H  H415  1  0.933900  0.800600  0.101600  1.0  0.1224
  H  H416  1  0.253000  0.877200  0.095800  1.0  0.359
  C  C417  1  0.354500  0.160710  0.834730  1.0  0.7015
  C  C418  1  0.259400  0.078200  0.836610  1.0  0.6014
  C  C419  1  0.377700  0.119080  0.830060  1.0  -0.0379
  C  C420  1  0.335900  0.083850  0.830730  1.0  -0.0447
  C  C421  1  0.382000  0.053810  0.824580  1.0  0.1508
  C  C422  1  0.445900  0.109360  0.823350  1.0  0.122
  C  C423  1  0.512000  0.132800  0.818980  1.0  -0.3935
  C  C424  1  0.371400  0.010800  0.823400  1.0  -0.386
  C  C425  1  0.508500  0.048210  0.806880  1.0  0.1258
  C  C426  1  0.510200  0.035910  0.772790  1.0  -0.0933
  C  C427  1  0.570400  0.018700  0.759450  1.0  -0.1132
  C  C428  1  0.630700  0.014290  0.780030  1.0  0.0237
  C  C429  1  0.627800  0.025400  0.815160  1.0  -0.1244
  C  C430  1  0.567500  0.042690  0.828440  1.0  -0.0917
  C  C431  1  0.691600  0.019250  0.838180  1.0  0.7355
  C  C432  1  0.573700  0.006810  0.721660  1.0  0.7267
  C  C433  1  0.354500  0.660710  0.334730  1.0  0.7015
  C  C434  1  0.259400  0.578200  0.336610  1.0  0.6014
  C  C435  1  0.377700  0.619080  0.330060  1.0  -0.0379
  C  C436  1  0.335900  0.583850  0.330730  1.0  -0.0447
  C  C437  1  0.382000  0.553810  0.324580  1.0  0.1508
  C  C438  1  0.445900  0.609360  0.323350  1.0  0.122
  C  C439  1  0.512000  0.632800  0.318980  1.0  -0.3935
  C  C440  1  0.371400  0.510800  0.323400  1.0  -0.386
  C  C441  1  0.508500  0.548210  0.306880  1.0  0.1258
  C  C442  1  0.510200  0.535910  0.272790  1.0  -0.0933
  C  C443  1  0.570400  0.518700  0.259450  1.0  -0.1132
  C  C444  1  0.630700  0.514290  0.280030  1.0  0.0237
  C  C445  1  0.627800  0.525400  0.315160  1.0  -0.1244
  C  C446  1  0.567500  0.542690  0.328440  1.0  -0.0917
  C  C447  1  0.691600  0.519250  0.338180  1.0  0.7355
  C  C448  1  0.573700  0.506810  0.221660  1.0  0.7267
  C  C449  1  0.854500  0.160710  0.334730  1.0  0.7015
  C  C450  1  0.759400  0.078200  0.336610  1.0  0.6014
  C  C451  1  0.877700  0.119080  0.330060  1.0  -0.0379
  C  C452  1  0.835900  0.083850  0.330730  1.0  -0.0447
  C  C453  1  0.882000  0.053810  0.324580  1.0  0.1508
  C  C454  1  0.945900  0.109360  0.323350  1.0  0.122
  C  C455  1  0.012000  0.132800  0.318980  1.0  -0.3935
  C  C456  1  0.871400  0.010800  0.323400  1.0  -0.386
  C  C457  1  0.008500  0.048210  0.306880  1.0  0.1258
  C  C458  1  0.010200  0.035910  0.272790  1.0  -0.0933
  C  C459  1  0.070400  0.018700  0.259450  1.0  -0.1132
  C  C460  1  0.130700  0.014290  0.280030  1.0  0.0237
  C  C461  1  0.127800  0.025400  0.315160  1.0  -0.1244
  C  C462  1  0.067500  0.042690  0.328440  1.0  -0.0917
  C  C463  1  0.191600  0.019250  0.338180  1.0  0.7355
  C  C464  1  0.073700  0.006810  0.221660  1.0  0.7267
  C  C465  1  0.854500  0.660710  0.834730  1.0  0.7015
  C  C466  1  0.759400  0.578200  0.836610  1.0  0.6014
  C  C467  1  0.877700  0.619080  0.830060  1.0  -0.0379
  C  C468  1  0.835900  0.583850  0.830730  1.0  -0.0447
  C  C469  1  0.882000  0.553810  0.824580  1.0  0.1508
  C  C470  1  0.945900  0.609360  0.823350  1.0  0.122
  C  C471  1  0.012000  0.632800  0.818980  1.0  -0.3935
  C  C472  1  0.871400  0.510800  0.823400  1.0  -0.386
  C  C473  1  0.008500  0.548210  0.806880  1.0  0.1258
  C  C474  1  0.010200  0.535910  0.772790  1.0  -0.0933
  C  C475  1  0.070400  0.518700  0.759450  1.0  -0.1132
  C  C476  1  0.130700  0.514290  0.780030  1.0  0.0237
  C  C477  1  0.127800  0.525400  0.815160  1.0  -0.1244
  C  C478  1  0.067500  0.542690  0.828440  1.0  -0.0917
  C  C479  1  0.191600  0.519250  0.838180  1.0  0.7355
  C  C480  1  0.073700  0.506810  0.721660  1.0  0.7267
  C  C481  1  0.395500  0.589290  0.834730  1.0  0.7017
  C  C482  1  0.490600  0.671800  0.836610  1.0  0.5991
  C  C483  1  0.372300  0.630920  0.830060  1.0  -0.0413
  C  C484  1  0.414100  0.666150  0.830730  1.0  -0.0443
  C  C485  1  0.368000  0.696190  0.824580  1.0  0.151
  C  C486  1  0.304100  0.640640  0.823350  1.0  0.1224
  C  C487  1  0.238000  0.617200  0.818980  1.0  -0.3916
  C  C488  1  0.378600  0.739200  0.823400  1.0  -0.3862
  C  C489  1  0.241500  0.701790  0.806880  1.0  0.126
  C  C490  1  0.239800  0.714090  0.772790  1.0  -0.0947
  C  C491  1  0.179600  0.731300  0.759450  1.0  -0.1124
  C  C492  1  0.119300  0.735710  0.780030  1.0  0.0237
  C  C493  1  0.122200  0.724600  0.815160  1.0  -0.1242
  C  C494  1  0.182500  0.707310  0.828440  1.0  -0.0916
  C  C495  1  0.058400  0.730750  0.838180  1.0  0.7368
  C  C496  1  0.176300  0.743190  0.721660  1.0  0.7275
  C  C497  1  0.395500  0.089290  0.334730  1.0  0.7017
  C  C498  1  0.490600  0.171800  0.336610  1.0  0.5991
  C  C499  1  0.372300  0.130920  0.330060  1.0  -0.0413
  C  C500  1  0.414100  0.166150  0.330730  1.0  -0.0443
  C  C501  1  0.368000  0.196190  0.324580  1.0  0.151
  C  C502  1  0.304100  0.140640  0.323350  1.0  0.1224
  C  C503  1  0.238000  0.117200  0.318980  1.0  -0.3916
  C  C504  1  0.378600  0.239200  0.323400  1.0  -0.3862
  C  C505  1  0.241500  0.201790  0.306880  1.0  0.126
  C  C506  1  0.239800  0.214090  0.272790  1.0  -0.0947
  C  C507  1  0.179600  0.231300  0.259450  1.0  -0.1124
  C  C508  1  0.119300  0.235710  0.280030  1.0  0.0237
  C  C509  1  0.122200  0.224600  0.315160  1.0  -0.1242
  C  C510  1  0.182500  0.207310  0.328440  1.0  -0.0916
  C  C511  1  0.058400  0.230750  0.338180  1.0  0.7368
  C  C512  1  0.176300  0.243190  0.221660  1.0  0.7275
  C  C513  1  0.895500  0.589290  0.334730  1.0  0.7017
  C  C514  1  0.990600  0.671800  0.336610  1.0  0.5991
  C  C515  1  0.872300  0.630920  0.330060  1.0  -0.0413
  C  C516  1  0.914100  0.666150  0.330730  1.0  -0.0443
  C  C517  1  0.868000  0.696190  0.324580  1.0  0.151
  C  C518  1  0.804100  0.640640  0.323350  1.0  0.1224
  C  C519  1  0.738000  0.617200  0.318980  1.0  -0.3916
  C  C520  1  0.878600  0.739200  0.323400  1.0  -0.3862
  C  C521  1  0.741500  0.701790  0.306880  1.0  0.126
  C  C522  1  0.739800  0.714090  0.272790  1.0  -0.0947
  C  C523  1  0.679600  0.731300  0.259450  1.0  -0.1124
  C  C524  1  0.619300  0.735710  0.280030  1.0  0.0237
  C  C525  1  0.622200  0.724600  0.315160  1.0  -0.1242
  C  C526  1  0.682500  0.707310  0.328440  1.0  -0.0916
  C  C527  1  0.558400  0.730750  0.338180  1.0  0.7368
  C  C528  1  0.676300  0.743190  0.221660  1.0  0.7275
  C  C529  1  0.895500  0.089290  0.834730  1.0  0.7017
  C  C530  1  0.990600  0.171800  0.836610  1.0  0.5991
  C  C531  1  0.872300  0.130920  0.830060  1.0  -0.0413
  C  C532  1  0.914100  0.166150  0.830730  1.0  -0.0443
  C  C533  1  0.868000  0.196190  0.824580  1.0  0.151
  C  C534  1  0.804100  0.140640  0.823350  1.0  0.1224
  C  C535  1  0.738000  0.117200  0.818980  1.0  -0.3916
  C  C536  1  0.878600  0.239200  0.823400  1.0  -0.3862
  C  C537  1  0.741500  0.201790  0.806880  1.0  0.126
  C  C538  1  0.739800  0.214090  0.772790  1.0  -0.0947
  C  C539  1  0.679600  0.231300  0.759450  1.0  -0.1124
  C  C540  1  0.619300  0.235710  0.780030  1.0  0.0237
  C  C541  1  0.622200  0.224600  0.815160  1.0  -0.1242
  C  C542  1  0.682500  0.207310  0.828440  1.0  -0.0916
  C  C543  1  0.558400  0.230750  0.838180  1.0  0.7368
  C  C544  1  0.676300  0.243190  0.721660  1.0  0.7275
  C  C545  1  0.395500  0.160710  0.915270  1.0  0.7031
  C  C546  1  0.490600  0.078200  0.913390  1.0  0.6063
  C  C547  1  0.372300  0.119080  0.919940  1.0  -0.0419
  C  C548  1  0.414100  0.083850  0.919270  1.0  -0.042
  C  C549  1  0.368000  0.053810  0.925420  1.0  0.1531
  C  C550  1  0.304100  0.109360  0.926650  1.0  0.1244
  C  C551  1  0.238000  0.132800  0.931020  1.0  -0.3912
  C  C552  1  0.378600  0.010800  0.926600  1.0  -0.3877
  C  C553  1  0.241500  0.048210  0.943120  1.0  0.1249
  C  C554  1  0.239800  0.035910  0.977210  1.0  -0.0974
  C  C555  1  0.179600  0.018700  0.990550  1.0  -0.1132
  C  C556  1  0.119300  0.014290  0.969970  1.0  0.0237
  C  C557  1  0.122200  0.025400  0.934840  1.0  -0.1245
  C  C558  1  0.182500  0.042690  0.921560  1.0  -0.0896
  C  C559  1  0.058400  0.019250  0.911820  1.0  0.7363
  C  C560  1  0.176300  0.006810  0.028340  1.0  0.7272
  C  C561  1  0.395500  0.660710  0.415270  1.0  0.7031
  C  C562  1  0.490600  0.578200  0.413390  1.0  0.6063
  C  C563  1  0.372300  0.619080  0.419940  1.0  -0.0419
  C  C564  1  0.414100  0.583850  0.419270  1.0  -0.042
  C  C565  1  0.368000  0.553810  0.425420  1.0  0.1531
  C  C566  1  0.304100  0.609360  0.426650  1.0  0.1244
  C  C567  1  0.238000  0.632800  0.431020  1.0  -0.3912
  C  C568  1  0.378600  0.510800  0.426600  1.0  -0.3877
  C  C569  1  0.241500  0.548210  0.443120  1.0  0.1249
  C  C570  1  0.239800  0.535910  0.477210  1.0  -0.0974
  C  C571  1  0.179600  0.518700  0.490550  1.0  -0.1132
  C  C572  1  0.119300  0.514290  0.469970  1.0  0.0237
  C  C573  1  0.122200  0.525400  0.434840  1.0  -0.1245
  C  C574  1  0.182500  0.542690  0.421560  1.0  -0.0896
  C  C575  1  0.058400  0.519250  0.411820  1.0  0.7363
  C  C576  1  0.176300  0.506810  0.528340  1.0  0.7272
  C  C577  1  0.895500  0.160710  0.415270  1.0  0.7031
  C  C578  1  0.990600  0.078200  0.413390  1.0  0.6063
  C  C579  1  0.872300  0.119080  0.419940  1.0  -0.0419
  C  C580  1  0.914100  0.083850  0.419270  1.0  -0.042
  C  C581  1  0.868000  0.053810  0.425420  1.0  0.1531
  C  C582  1  0.804100  0.109360  0.426650  1.0  0.1244
  C  C583  1  0.738000  0.132800  0.431020  1.0  -0.3912
  C  C584  1  0.878600  0.010800  0.426600  1.0  -0.3877
  C  C585  1  0.741500  0.048210  0.443120  1.0  0.1249
  C  C586  1  0.739800  0.035910  0.477210  1.0  -0.0974
  C  C587  1  0.679600  0.018700  0.490550  1.0  -0.1132
  C  C588  1  0.619300  0.014290  0.469970  1.0  0.0237
  C  C589  1  0.622200  0.025400  0.434840  1.0  -0.1245
  C  C590  1  0.682500  0.042690  0.421560  1.0  -0.0896
  C  C591  1  0.558400  0.019250  0.411820  1.0  0.7363
  C  C592  1  0.676300  0.006810  0.528340  1.0  0.7272
  C  C593  1  0.895500  0.660710  0.915270  1.0  0.7031
  C  C594  1  0.990600  0.578200  0.913390  1.0  0.6063
  C  C595  1  0.872300  0.619080  0.919940  1.0  -0.0419
  C  C596  1  0.914100  0.583850  0.919270  1.0  -0.042
  C  C597  1  0.868000  0.553810  0.925420  1.0  0.1531
  C  C598  1  0.804100  0.609360  0.926650  1.0  0.1244
  C  C599  1  0.738000  0.632800  0.931020  1.0  -0.3912
  C  C600  1  0.878600  0.510800  0.926600  1.0  -0.3877
  C  C601  1  0.741500  0.548210  0.943120  1.0  0.1249
  C  C602  1  0.739800  0.535910  0.977210  1.0  -0.0974
  C  C603  1  0.679600  0.518700  0.990550  1.0  -0.1132
  C  C604  1  0.619300  0.514290  0.969970  1.0  0.0237
  C  C605  1  0.622200  0.525400  0.934840  1.0  -0.1245
  C  C606  1  0.682500  0.542690  0.921560  1.0  -0.0896
  C  C607  1  0.558400  0.519250  0.911820  1.0  0.7363
  C  C608  1  0.676300  0.506810  0.028340  1.0  0.7272
  C  C609  1  0.354500  0.589290  0.915270  1.0  0.7026
  C  C610  1  0.259400  0.671800  0.913390  1.0  0.6049
  C  C611  1  0.377700  0.630920  0.919940  1.0  -0.0406
  C  C612  1  0.335900  0.666150  0.919270  1.0  -0.044
  C  C613  1  0.382000  0.696190  0.925420  1.0  0.1525
  C  C614  1  0.445900  0.640640  0.926650  1.0  0.1244
  C  C615  1  0.512000  0.617200  0.931020  1.0  -0.3928
  C  C616  1  0.371400  0.739200  0.926600  1.0  -0.3862
  C  C617  1  0.508500  0.701790  0.943120  1.0  0.1246
  C  C618  1  0.510200  0.714090  0.977210  1.0  -0.0979
  C  C619  1  0.570400  0.731300  0.990550  1.0  -0.1128
  C  C620  1  0.630700  0.735710  0.969970  1.0  0.025
  C  C621  1  0.627800  0.724600  0.934840  1.0  -0.1239
  C  C622  1  0.567500  0.707310  0.921560  1.0  -0.0909
  C  C623  1  0.691600  0.730750  0.911820  1.0  0.7362
  C  C624  1  0.573700  0.743190  0.028340  1.0  0.7275
  C  C625  1  0.354500  0.089290  0.415270  1.0  0.7026
  C  C626  1  0.259400  0.171800  0.413390  1.0  0.6049
  C  C627  1  0.377700  0.130920  0.419940  1.0  -0.0406
  C  C628  1  0.335900  0.166150  0.419270  1.0  -0.044
  C  C629  1  0.382000  0.196190  0.425420  1.0  0.1525
  C  C630  1  0.445900  0.140640  0.426650  1.0  0.1244
  C  C631  1  0.512000  0.117200  0.431020  1.0  -0.3928
  C  C632  1  0.371400  0.239200  0.426600  1.0  -0.3862
  C  C633  1  0.508500  0.201790  0.443120  1.0  0.1246
  C  C634  1  0.510200  0.214090  0.477210  1.0  -0.0979
  C  C635  1  0.570400  0.231300  0.490550  1.0  -0.1128
  C  C636  1  0.630700  0.235710  0.469970  1.0  0.025
  C  C637  1  0.627800  0.224600  0.434840  1.0  -0.1239
  C  C638  1  0.567500  0.207310  0.421560  1.0  -0.0909
  C  C639  1  0.691600  0.230750  0.411820  1.0  0.7362
  C  C640  1  0.573700  0.243190  0.528340  1.0  0.7275
  C  C641  1  0.854500  0.589290  0.415270  1.0  0.7026
  C  C642  1  0.759400  0.671800  0.413390  1.0  0.6049
  C  C643  1  0.877700  0.630920  0.419940  1.0  -0.0406
  C  C644  1  0.835900  0.666150  0.419270  1.0  -0.044
  C  C645  1  0.882000  0.696190  0.425420  1.0  0.1525
  C  C646  1  0.945900  0.640640  0.426650  1.0  0.1244
  C  C647  1  0.012000  0.617200  0.431020  1.0  -0.3928
  C  C648  1  0.871400  0.739200  0.426600  1.0  -0.3862
  C  C649  1  0.008500  0.701790  0.443120  1.0  0.1246
  C  C650  1  0.010200  0.714090  0.477210  1.0  -0.0979
  C  C651  1  0.070400  0.731300  0.490550  1.0  -0.1128
  C  C652  1  0.130700  0.735710  0.469970  1.0  0.025
  C  C653  1  0.127800  0.724600  0.434840  1.0  -0.1239
  C  C654  1  0.067500  0.707310  0.421560  1.0  -0.0909
  C  C655  1  0.191600  0.730750  0.411820  1.0  0.7362
  C  C656  1  0.073700  0.743190  0.528340  1.0  0.7275
  C  C657  1  0.854500  0.089290  0.915270  1.0  0.7026
  C  C658  1  0.759400  0.171800  0.913390  1.0  0.6049
  C  C659  1  0.877700  0.130920  0.919940  1.0  -0.0406
  C  C660  1  0.835900  0.166150  0.919270  1.0  -0.044
  C  C661  1  0.882000  0.196190  0.925420  1.0  0.1525
  C  C662  1  0.945900  0.140640  0.926650  1.0  0.1244
  C  C663  1  0.012000  0.117200  0.931020  1.0  -0.3928
  C  C664  1  0.871400  0.239200  0.926600  1.0  -0.3862
  C  C665  1  0.008500  0.201790  0.943120  1.0  0.1246
  C  C666  1  0.010200  0.214090  0.977210  1.0  -0.0979
  C  C667  1  0.070400  0.231300  0.990550  1.0  -0.1128
  C  C668  1  0.130700  0.235710  0.969970  1.0  0.025
  C  C669  1  0.127800  0.224600  0.934840  1.0  -0.1239
  C  C670  1  0.067500  0.207310  0.921560  1.0  -0.0909
  C  C671  1  0.191600  0.230750  0.911820  1.0  0.7362
  C  C672  1  0.073700  0.243190  0.028340  1.0  0.7275
  C  C673  1  0.645500  0.839290  0.165270  1.0  0.7038
  C  C674  1  0.740600  0.921800  0.163390  1.0  0.6056
  C  C675  1  0.622300  0.880920  0.169940  1.0  -0.0408
  C  C676  1  0.664100  0.916150  0.169270  1.0  -0.0422
  C  C677  1  0.618000  0.946190  0.175420  1.0  0.1526
  C  C678  1  0.554100  0.890640  0.176650  1.0  0.1254
  C  C679  1  0.488000  0.867200  0.181020  1.0  -0.3913
  C  C680  1  0.628600  0.989200  0.176600  1.0  -0.3876
  C  C681  1  0.491500  0.951790  0.193120  1.0  0.1248
  C  C682  1  0.489800  0.964090  0.227210  1.0  -0.0973
  C  C683  1  0.429600  0.981300  0.240550  1.0  -0.1132
  C  C684  1  0.369300  0.985710  0.219970  1.0  0.0239
  C  C685  1  0.372200  0.974600  0.184840  1.0  -0.1241
  C  C686  1  0.432500  0.957310  0.171560  1.0  -0.0911
  C  C687  1  0.308400  0.980750  0.161820  1.0  0.7368
  C  C688  1  0.426300  0.993190  0.278340  1.0  0.7278
  C  C689  1  0.645500  0.339290  0.665270  1.0  0.7038
  C  C690  1  0.740600  0.421800  0.663390  1.0  0.6056
  C  C691  1  0.622300  0.380920  0.669940  1.0  -0.0408
  C  C692  1  0.664100  0.416150  0.669270  1.0  -0.0422
  C  C693  1  0.618000  0.446190  0.675420  1.0  0.1526
  C  C694  1  0.554100  0.390640  0.676650  1.0  0.1254
  C  C695  1  0.488000  0.367200  0.681020  1.0  -0.3913
  C  C696  1  0.628600  0.489200  0.676600  1.0  -0.3876
  C  C697  1  0.491500  0.451790  0.693120  1.0  0.1248
  C  C698  1  0.489800  0.464090  0.727210  1.0  -0.0973
  C  C699  1  0.429600  0.481300  0.740550  1.0  -0.1132
  C  C700  1  0.369300  0.485710  0.719970  1.0  0.0239
  C  C701  1  0.372200  0.474600  0.684840  1.0  -0.1241
  C  C702  1  0.432500  0.457310  0.671560  1.0  -0.0911
  C  C703  1  0.308400  0.480750  0.661820  1.0  0.7368
  C  C704  1  0.426300  0.493190  0.778340  1.0  0.7278
  C  C705  1  0.145500  0.839290  0.665270  1.0  0.7038
  C  C706  1  0.240600  0.921800  0.663390  1.0  0.6056
  C  C707  1  0.122300  0.880920  0.669940  1.0  -0.0408
  C  C708  1  0.164100  0.916150  0.669270  1.0  -0.0422
  C  C709  1  0.118000  0.946190  0.675420  1.0  0.1526
  C  C710  1  0.054100  0.890640  0.676650  1.0  0.1254
  C  C711  1  0.988000  0.867200  0.681020  1.0  -0.3913
  C  C712  1  0.128600  0.989200  0.676600  1.0  -0.3876
  C  C713  1  0.991500  0.951790  0.693120  1.0  0.1248
  C  C714  1  0.989800  0.964090  0.727210  1.0  -0.0973
  C  C715  1  0.929600  0.981300  0.740550  1.0  -0.1132
  C  C716  1  0.869300  0.985710  0.719970  1.0  0.0239
  C  C717  1  0.872200  0.974600  0.684840  1.0  -0.1241
  C  C718  1  0.932500  0.957310  0.671560  1.0  -0.0911
  C  C719  1  0.808400  0.980750  0.661820  1.0  0.7368
  C  C720  1  0.926300  0.993190  0.778340  1.0  0.7278
  C  C721  1  0.145500  0.339290  0.165270  1.0  0.7038
  C  C722  1  0.240600  0.421800  0.163390  1.0  0.6056
  C  C723  1  0.122300  0.380920  0.169940  1.0  -0.0408
  C  C724  1  0.164100  0.416150  0.169270  1.0  -0.0422
  C  C725  1  0.118000  0.446190  0.175420  1.0  0.1526
  C  C726  1  0.054100  0.390640  0.176650  1.0  0.1254
  C  C727  1  0.988000  0.367200  0.181020  1.0  -0.3913
  C  C728  1  0.128600  0.489200  0.176600  1.0  -0.3876
  C  C729  1  0.991500  0.451790  0.193120  1.0  0.1248
  C  C730  1  0.989800  0.464090  0.227210  1.0  -0.0973
  C  C731  1  0.929600  0.481300  0.240550  1.0  -0.1132
  C  C732  1  0.869300  0.485710  0.219970  1.0  0.0239
  C  C733  1  0.872200  0.474600  0.184840  1.0  -0.1241
  C  C734  1  0.932500  0.457310  0.171560  1.0  -0.0911
  C  C735  1  0.808400  0.480750  0.161820  1.0  0.7368
  C  C736  1  0.926300  0.493190  0.278340  1.0  0.7278
  C  C737  1  0.604500  0.410710  0.165270  1.0  0.702
  C  C738  1  0.509400  0.328200  0.163390  1.0  0.6049
  C  C739  1  0.627700  0.369080  0.169940  1.0  -0.0416
  C  C740  1  0.585900  0.333850  0.169270  1.0  -0.044
  C  C741  1  0.632000  0.303810  0.175420  1.0  0.1531
  C  C742  1  0.695900  0.359360  0.176650  1.0  0.1236
  C  C743  1  0.762000  0.382800  0.181020  1.0  -0.3925
  C  C744  1  0.621400  0.260800  0.176600  1.0  -0.3868
  C  C745  1  0.758500  0.298210  0.193120  1.0  0.1247
  C  C746  1  0.760200  0.285910  0.227210  1.0  -0.098
  C  C747  1  0.820400  0.268700  0.240550  1.0  -0.1128
  C  C748  1  0.880700  0.264290  0.219970  1.0  0.0244
  C  C749  1  0.877800  0.275400  0.184840  1.0  -0.1242
  C  C750  1  0.817500  0.292690  0.171560  1.0  -0.0901
  C  C751  1  0.941600  0.269250  0.161820  1.0  0.7354
  C  C752  1  0.823700  0.256810  0.278340  1.0  0.727
  C  C753  1  0.604500  0.910710  0.665270  1.0  0.702
  C  C754  1  0.509400  0.828200  0.663390  1.0  0.6049
  C  C755  1  0.627700  0.869080  0.669940  1.0  -0.0416
  C  C756  1  0.585900  0.833850  0.669270  1.0  -0.044
  C  C757  1  0.632000  0.803810  0.675420  1.0  0.1531
  C  C758  1  0.695900  0.859360  0.676650  1.0  0.1236
  C  C759  1  0.762000  0.882800  0.681020  1.0  -0.3925
  C  C760  1  0.621400  0.760800  0.676600  1.0  -0.3868
  C  C761  1  0.758500  0.798210  0.693120  1.0  0.1247
  C  C762  1  0.760200  0.785910  0.727210  1.0  -0.098
  C  C763  1  0.820400  0.768700  0.740550  1.0  -0.1128
  C  C764  1  0.880700  0.764290  0.719970  1.0  0.0244
  C  C765  1  0.877800  0.775400  0.684840  1.0  -0.1242
  C  C766  1  0.817500  0.792690  0.671560  1.0  -0.0901
  C  C767  1  0.941600  0.769250  0.661820  1.0  0.7354
  C  C768  1  0.823700  0.756810  0.778340  1.0  0.727
  C  C769  1  0.104500  0.410710  0.665270  1.0  0.702
  C  C770  1  0.009400  0.328200  0.663390  1.0  0.6049
  C  C771  1  0.127700  0.369080  0.669940  1.0  -0.0416
  C  C772  1  0.085900  0.333850  0.669270  1.0  -0.044
  C  C773  1  0.132000  0.303810  0.675420  1.0  0.1531
  C  C774  1  0.195900  0.359360  0.676650  1.0  0.1236
  C  C775  1  0.262000  0.382800  0.681020  1.0  -0.3925
  C  C776  1  0.121400  0.260800  0.676600  1.0  -0.3868
  C  C777  1  0.258500  0.298210  0.693120  1.0  0.1247
  C  C778  1  0.260200  0.285910  0.727210  1.0  -0.098
  C  C779  1  0.320400  0.268700  0.740550  1.0  -0.1128
  C  C780  1  0.380700  0.264290  0.719970  1.0  0.0244
  C  C781  1  0.377800  0.275400  0.684840  1.0  -0.1242
  C  C782  1  0.317500  0.292690  0.671560  1.0  -0.0901
  C  C783  1  0.441600  0.269250  0.661820  1.0  0.7354
  C  C784  1  0.323700  0.256810  0.778340  1.0  0.727
  C  C785  1  0.104500  0.910710  0.165270  1.0  0.702
  C  C786  1  0.009400  0.828200  0.163390  1.0  0.6049
  C  C787  1  0.127700  0.869080  0.169940  1.0  -0.0416
  C  C788  1  0.085900  0.833850  0.169270  1.0  -0.044
  C  C789  1  0.132000  0.803810  0.175420  1.0  0.1531
  C  C790  1  0.195900  0.859360  0.176650  1.0  0.1236
  C  C791  1  0.262000  0.882800  0.181020  1.0  -0.3925
  C  C792  1  0.121400  0.760800  0.176600  1.0  -0.3868
  C  C793  1  0.258500  0.798210  0.193120  1.0  0.1247
  C  C794  1  0.260200  0.785910  0.227210  1.0  -0.098
  C  C795  1  0.320400  0.768700  0.240550  1.0  -0.1128
  C  C796  1  0.380700  0.764290  0.219970  1.0  0.0244
  C  C797  1  0.377800  0.775400  0.184840  1.0  -0.1242
  C  C798  1  0.317500  0.792690  0.171560  1.0  -0.0901
  C  C799  1  0.441600  0.769250  0.161820  1.0  0.7354
  C  C800  1  0.323700  0.756810  0.278340  1.0  0.727
  C  C801  1  0.604500  0.839290  0.084730  1.0  0.702
  C  C802  1  0.509400  0.921800  0.086610  1.0  0.6019
  C  C803  1  0.627700  0.880920  0.080060  1.0  -0.0401
  C  C804  1  0.585900  0.916150  0.080730  1.0  -0.045
  C  C805  1  0.632000  0.946190  0.074580  1.0  0.151
  C  C806  1  0.695900  0.890640  0.073350  1.0  0.1214
  C  C807  1  0.762000  0.867200  0.068980  1.0  -0.3932
  C  C808  1  0.621400  0.989200  0.073400  1.0  -0.3844
  C  C809  1  0.758500  0.951790  0.056880  1.0  0.1257
  C  C810  1  0.760200  0.964090  0.022790  1.0  -0.093
  C  C811  1  0.820400  0.981300  0.009450  1.0  -0.1121
  C  C812  1  0.880700  0.985710  0.030030  1.0  0.0248
  C  C813  1  0.877800  0.974600  0.065160  1.0  -0.1242
  C  C814  1  0.817500  0.957310  0.078440  1.0  -0.0909
  C  C815  1  0.941600  0.980750  0.088180  1.0  0.736
  C  C816  1  0.823700  0.993190  0.971660  1.0  0.7273
  C  C817  1  0.604500  0.339290  0.584730  1.0  0.702
  C  C818  1  0.509400  0.421800  0.586610  1.0  0.6019
  C  C819  1  0.627700  0.380920  0.580060  1.0  -0.0401
  C  C820  1  0.585900  0.416150  0.580730  1.0  -0.045
  C  C821  1  0.632000  0.446190  0.574580  1.0  0.151
  C  C822  1  0.695900  0.390640  0.573350  1.0  0.1214
  C  C823  1  0.762000  0.367200  0.568980  1.0  -0.3932
  C  C824  1  0.621400  0.489200  0.573400  1.0  -0.3844
  C  C825  1  0.758500  0.451790  0.556880  1.0  0.1257
  C  C826  1  0.760200  0.464090  0.522790  1.0  -0.093
  C  C827  1  0.820400  0.481300  0.509450  1.0  -0.1121
  C  C828  1  0.880700  0.485710  0.530030  1.0  0.0248
  C  C829  1  0.877800  0.474600  0.565160  1.0  -0.1242
  C  C830  1  0.817500  0.457310  0.578440  1.0  -0.0909
  C  C831  1  0.941600  0.480750  0.588180  1.0  0.736
  C  C832  1  0.823700  0.493190  0.471660  1.0  0.7273
  C  C833  1  0.104500  0.839290  0.584730  1.0  0.702
  C  C834  1  0.009400  0.921800  0.586610  1.0  0.6019
  C  C835  1  0.127700  0.880920  0.580060  1.0  -0.0401
  C  C836  1  0.085900  0.916150  0.580730  1.0  -0.045
  C  C837  1  0.132000  0.946190  0.574580  1.0  0.151
  C  C838  1  0.195900  0.890640  0.573350  1.0  0.1214
  C  C839  1  0.262000  0.867200  0.568980  1.0  -0.3932
  C  C840  1  0.121400  0.989200  0.573400  1.0  -0.3844
  C  C841  1  0.258500  0.951790  0.556880  1.0  0.1257
  C  C842  1  0.260200  0.964090  0.522790  1.0  -0.093
  C  C843  1  0.320400  0.981300  0.509450  1.0  -0.1121
  C  C844  1  0.380700  0.985710  0.530030  1.0  0.0248
  C  C845  1  0.377800  0.974600  0.565160  1.0  -0.1242
  C  C846  1  0.317500  0.957310  0.578440  1.0  -0.0909
  C  C847  1  0.441600  0.980750  0.588180  1.0  0.736
  C  C848  1  0.323700  0.993190  0.471660  1.0  0.7273
  C  C849  1  0.104500  0.339290  0.084730  1.0  0.702
  C  C850  1  0.009400  0.421800  0.086610  1.0  0.6019
  C  C851  1  0.127700  0.380920  0.080060  1.0  -0.0401
  C  C852  1  0.085900  0.416150  0.080730  1.0  -0.045
  C  C853  1  0.132000  0.446190  0.074580  1.0  0.151
  C  C854  1  0.195900  0.390640  0.073350  1.0  0.1214
  C  C855  1  0.262000  0.367200  0.068980  1.0  -0.3932
  C  C856  1  0.121400  0.489200  0.073400  1.0  -0.3844
  C  C857  1  0.258500  0.451790  0.056880  1.0  0.1257
  C  C858  1  0.260200  0.464090  0.022790  1.0  -0.093
  C  C859  1  0.320400  0.481300  0.009450  1.0  -0.1121
  C  C860  1  0.380700  0.485710  0.030030  1.0  0.0248
  C  C861  1  0.377800  0.474600  0.065160  1.0  -0.1242
  C  C862  1  0.317500  0.457310  0.078440  1.0  -0.0909
  C  C863  1  0.441600  0.480750  0.088180  1.0  0.736
  C  C864  1  0.323700  0.493190  0.971660  1.0  0.7273
  C  C865  1  0.645500  0.410710  0.084730  1.0  0.7012
  C  C866  1  0.740600  0.328200  0.086610  1.0  0.5998
  C  C867  1  0.622300  0.369080  0.080060  1.0  -0.0398
  C  C868  1  0.664100  0.333850  0.080730  1.0  -0.044
  C  C869  1  0.618000  0.303810  0.074580  1.0  0.1506
  C  C870  1  0.554100  0.359360  0.073350  1.0  0.1228
  C  C871  1  0.488000  0.382800  0.068980  1.0  -0.3917
  C  C872  1  0.628600  0.260800  0.073400  1.0  -0.3876
  C  C873  1  0.491500  0.298210  0.056880  1.0  0.126
  C  C874  1  0.489800  0.285910  0.022790  1.0  -0.0952
  C  C875  1  0.429600  0.268700  0.009450  1.0  -0.1135
  C  C876  1  0.369300  0.264290  0.030030  1.0  0.023
  C  C877  1  0.372200  0.275400  0.065160  1.0  -0.1245
  C  C878  1  0.432500  0.292690  0.078440  1.0  -0.0916
  C  C879  1  0.308400  0.269250  0.088180  1.0  0.7366
  C  C880  1  0.426300  0.256810  0.971660  1.0  0.7268
  C  C881  1  0.645500  0.910710  0.584730  1.0  0.7012
  C  C882  1  0.740600  0.828200  0.586610  1.0  0.5998
  C  C883  1  0.622300  0.869080  0.580060  1.0  -0.0398
  C  C884  1  0.664100  0.833850  0.580730  1.0  -0.044
  C  C885  1  0.618000  0.803810  0.574580  1.0  0.1506
  C  C886  1  0.554100  0.859360  0.573350  1.0  0.1228
  C  C887  1  0.488000  0.882800  0.568980  1.0  -0.3917
  C  C888  1  0.628600  0.760800  0.573400  1.0  -0.3876
  C  C889  1  0.491500  0.798210  0.556880  1.0  0.126
  C  C890  1  0.489800  0.785910  0.522790  1.0  -0.0952
  C  C891  1  0.429600  0.768700  0.509450  1.0  -0.1135
  C  C892  1  0.369300  0.764290  0.530030  1.0  0.023
  C  C893  1  0.372200  0.775400  0.565160  1.0  -0.1245
  C  C894  1  0.432500  0.792690  0.578440  1.0  -0.0916
  C  C895  1  0.308400  0.769250  0.588180  1.0  0.7366
  C  C896  1  0.426300  0.756810  0.471660  1.0  0.7268
  C  C897  1  0.145500  0.410710  0.584730  1.0  0.7012
  C  C898  1  0.240600  0.328200  0.586610  1.0  0.5998
  C  C899  1  0.122300  0.369080  0.580060  1.0  -0.0398
  C  C900  1  0.164100  0.333850  0.580730  1.0  -0.044
  C  C901  1  0.118000  0.303810  0.574580  1.0  0.1506
  C  C902  1  0.054100  0.359360  0.573350  1.0  0.1228
  C  C903  1  0.988000  0.382800  0.568980  1.0  -0.3917
  C  C904  1  0.128600  0.260800  0.573400  1.0  -0.3876
  C  C905  1  0.991500  0.298210  0.556880  1.0  0.126
  C  C906  1  0.989800  0.285910  0.522790  1.0  -0.0952
  C  C907  1  0.929600  0.268700  0.509450  1.0  -0.1135
  C  C908  1  0.869300  0.264290  0.530030  1.0  0.023
  C  C909  1  0.872200  0.275400  0.565160  1.0  -0.1245
  C  C910  1  0.932500  0.292690  0.578440  1.0  -0.0916
  C  C911  1  0.808400  0.269250  0.588180  1.0  0.7366
  C  C912  1  0.926300  0.256810  0.471660  1.0  0.7268
  C  C913  1  0.145500  0.910710  0.084730  1.0  0.7012
  C  C914  1  0.240600  0.828200  0.086610  1.0  0.5998
  C  C915  1  0.122300  0.869080  0.080060  1.0  -0.0398
  C  C916  1  0.164100  0.833850  0.080730  1.0  -0.044
  C  C917  1  0.118000  0.803810  0.074580  1.0  0.1506
  C  C918  1  0.054100  0.859360  0.073350  1.0  0.1228
  C  C919  1  0.988000  0.882800  0.068980  1.0  -0.3917
  C  C920  1  0.128600  0.760800  0.073400  1.0  -0.3876
  C  C921  1  0.991500  0.798210  0.056880  1.0  0.126
  C  C922  1  0.989800  0.785910  0.022790  1.0  -0.0952
  C  C923  1  0.929600  0.768700  0.009450  1.0  -0.1135
  C  C924  1  0.869300  0.764290  0.030030  1.0  0.023
  C  C925  1  0.872200  0.775400  0.065160  1.0  -0.1245
  C  C926  1  0.932500  0.792690  0.078440  1.0  -0.0916
  C  C927  1  0.808400  0.769250  0.088180  1.0  0.7366
  C  C928  1  0.926300  0.756810  0.971660  1.0  0.7268
  N  N929  1  0.448000  0.069200  0.819520  1.0  -0.1011
  N  N930  1  0.448000  0.569200  0.319520  1.0  -0.1011
  N  N931  1  0.948000  0.069200  0.319520  1.0  -0.1011
  N  N932  1  0.948000  0.569200  0.819520  1.0  -0.1011
  N  N933  1  0.302000  0.680800  0.819520  1.0  -0.1007
  N  N934  1  0.302000  0.180800  0.319520  1.0  -0.1007
  N  N935  1  0.802000  0.680800  0.319520  1.0  -0.1007
  N  N936  1  0.802000  0.180800  0.819520  1.0  -0.1007
  N  N937  1  0.302000  0.069200  0.930480  1.0  -0.1008
  N  N938  1  0.302000  0.569200  0.430480  1.0  -0.1008
  N  N939  1  0.802000  0.069200  0.430480  1.0  -0.1008
  N  N940  1  0.802000  0.569200  0.930480  1.0  -0.1008
  N  N941  1  0.448000  0.680800  0.930480  1.0  -0.1014
  N  N942  1  0.448000  0.180800  0.430480  1.0  -0.1014
  N  N943  1  0.948000  0.680800  0.430480  1.0  -0.1014
  N  N944  1  0.948000  0.180800  0.930480  1.0  -0.1014
  N  N945  1  0.552000  0.930800  0.180480  1.0  -0.1008
  N  N946  1  0.552000  0.430800  0.680480  1.0  -0.1008
  N  N947  1  0.052000  0.930800  0.680480  1.0  -0.1008
  N  N948  1  0.052000  0.430800  0.180480  1.0  -0.1008
  N  N949  1  0.698000  0.319200  0.180480  1.0  -0.1013
  N  N950  1  0.698000  0.819200  0.680480  1.0  -0.1013
  N  N951  1  0.198000  0.319200  0.680480  1.0  -0.1013
  N  N952  1  0.198000  0.819200  0.180480  1.0  -0.1013
  N  N953  1  0.698000  0.930800  0.069520  1.0  -0.1015
  N  N954  1  0.698000  0.430800  0.569520  1.0  -0.1015
  N  N955  1  0.198000  0.930800  0.569520  1.0  -0.1015
  N  N956  1  0.198000  0.430800  0.069520  1.0  -0.1015
  N  N957  1  0.552000  0.319200  0.069520  1.0  -0.1005
  N  N958  1  0.552000  0.819200  0.569520  1.0  -0.1005
  N  N959  1  0.052000  0.319200  0.569520  1.0  -0.1005
  N  N960  1  0.052000  0.819200  0.069520  1.0  -0.1005
  O  O961  1  0.313900  0.256440  0.860080  1.0  -0.9536
  O  O962  1  0.401000  0.186220  0.835000  1.0  -0.5884
  O  O963  1  0.288200  0.167790  0.836620  1.0  -0.6298
  O  O964  1  0.219100  0.107710  0.841320  1.0  -0.5492
  O  O965  1  0.233600  0.045330  0.837250  1.0  -0.4686
  O  O966  1  0.685100  0.030460  0.868840  1.0  -0.586
  O  O967  1  0.743800  0.002990  0.824340  1.0  -0.5779
  O  O968  1  0.632200  0.009240  0.707330  1.0  -0.5939
  O  O969  1  0.516100  0.995630  0.708460  1.0  -0.6161
  O  O970  1  0.313900  0.756440  0.360080  1.0  -0.9536
  O  O971  1  0.401000  0.686220  0.335000  1.0  -0.5884
  O  O972  1  0.288200  0.667790  0.336620  1.0  -0.6298
  O  O973  1  0.219100  0.607710  0.341320  1.0  -0.5492
  O  O974  1  0.233600  0.545330  0.337250  1.0  -0.4686
  O  O975  1  0.685100  0.530460  0.368840  1.0  -0.586
  O  O976  1  0.743800  0.502990  0.324340  1.0  -0.5779
  O  O977  1  0.632200  0.509240  0.207330  1.0  -0.5939
  O  O978  1  0.516100  0.495630  0.208460  1.0  -0.6161
  O  O979  1  0.813900  0.256440  0.360080  1.0  -0.9536
  O  O980  1  0.901000  0.186220  0.335000  1.0  -0.5884
  O  O981  1  0.788200  0.167790  0.336620  1.0  -0.6298
  O  O982  1  0.719100  0.107710  0.341320  1.0  -0.5492
  O  O983  1  0.733600  0.045330  0.337250  1.0  -0.4686
  O  O984  1  0.185100  0.030460  0.368840  1.0  -0.586
  O  O985  1  0.243800  0.002990  0.324340  1.0  -0.5779
  O  O986  1  0.132200  0.009240  0.207330  1.0  -0.5939
  O  O987  1  0.016100  0.995630  0.208460  1.0  -0.6161
  O  O988  1  0.813900  0.756440  0.860080  1.0  -0.9536
  O  O989  1  0.901000  0.686220  0.835000  1.0  -0.5884
  O  O990  1  0.788200  0.667790  0.836620  1.0  -0.6298
  O  O991  1  0.719100  0.607710  0.841320  1.0  -0.5492
  O  O992  1  0.733600  0.545330  0.837250  1.0  -0.4686
  O  O993  1  0.185100  0.530460  0.868840  1.0  -0.586
  O  O994  1  0.243800  0.502990  0.824340  1.0  -0.5779
  O  O995  1  0.132200  0.509240  0.707330  1.0  -0.5939
  O  O996  1  0.016100  0.495630  0.708460  1.0  -0.6161
  O  O997  1  0.436100  0.493560  0.860080  1.0  -0.9542
  O  O998  1  0.349000  0.563780  0.835000  1.0  -0.588
  O  O999  1  0.461800  0.582210  0.836620  1.0  -0.631
  O  O1000  1  0.530900  0.642290  0.841320  1.0  -0.5487
  O  O1001  1  0.516400  0.704670  0.837250  1.0  -0.4691
  O  O1002  1  0.064900  0.719540  0.868840  1.0  -0.5834
  O  O1003  1  0.006200  0.747010  0.824340  1.0  -0.5786
  O  O1004  1  0.117800  0.740760  0.707330  1.0  -0.5922
  O  O1005  1  0.233900  0.754370  0.708460  1.0  -0.6163
  O  O1006  1  0.436100  0.993560  0.360080  1.0  -0.9542
  O  O1007  1  0.349000  0.063780  0.335000  1.0  -0.588
  O  O1008  1  0.461800  0.082210  0.336620  1.0  -0.631
  O  O1009  1  0.530900  0.142290  0.341320  1.0  -0.5487
  O  O1010  1  0.516400  0.204670  0.337250  1.0  -0.4691
  O  O1011  1  0.064900  0.219540  0.368840  1.0  -0.5834
  O  O1012  1  0.006200  0.247010  0.324340  1.0  -0.5786
  O  O1013  1  0.117800  0.240760  0.207330  1.0  -0.5922
  O  O1014  1  0.233900  0.254370  0.208460  1.0  -0.6163
  O  O1015  1  0.936100  0.493560  0.360080  1.0  -0.9542
  O  O1016  1  0.849000  0.563780  0.335000  1.0  -0.588
  O  O1017  1  0.961800  0.582210  0.336620  1.0  -0.631
  O  O1018  1  0.030900  0.642290  0.341320  1.0  -0.5487
  O  O1019  1  0.016400  0.704670  0.337250  1.0  -0.4691
  O  O1020  1  0.564900  0.719540  0.368840  1.0  -0.5834
  O  O1021  1  0.506200  0.747010  0.324340  1.0  -0.5786
  O  O1022  1  0.617800  0.740760  0.207330  1.0  -0.5922
  O  O1023  1  0.733900  0.754370  0.208460  1.0  -0.6163
  O  O1024  1  0.936100  0.993560  0.860080  1.0  -0.9542
  O  O1025  1  0.849000  0.063780  0.835000  1.0  -0.588
  O  O1026  1  0.961800  0.082210  0.836620  1.0  -0.631
  O  O1027  1  0.030900  0.142290  0.841320  1.0  -0.5487
  O  O1028  1  0.016400  0.204670  0.837250  1.0  -0.4691
  O  O1029  1  0.564900  0.219540  0.868840  1.0  -0.5834
  O  O1030  1  0.506200  0.247010  0.824340  1.0  -0.5786
  O  O1031  1  0.617800  0.240760  0.707330  1.0  -0.5922
  O  O1032  1  0.733900  0.254370  0.708460  1.0  -0.6163
  O  O1033  1  0.436100  0.256440  0.889920  1.0  -0.9543
  O  O1034  1  0.349000  0.186220  0.915000  1.0  -0.5866
  O  O1035  1  0.461800  0.167790  0.913380  1.0  -0.6282
  O  O1036  1  0.530900  0.107710  0.908680  1.0  -0.5494
  O  O1037  1  0.516400  0.045330  0.912750  1.0  -0.4699
  O  O1038  1  0.064900  0.030460  0.881160  1.0  -0.5838
  O  O1039  1  0.006200  0.002990  0.925660  1.0  -0.58
  O  O1040  1  0.117800  0.009240  0.042670  1.0  -0.593
  O  O1041  1  0.233900  0.995630  0.041540  1.0  -0.6165
  O  O1042  1  0.436100  0.756440  0.389920  1.0  -0.9543
  O  O1043  1  0.349000  0.686220  0.415000  1.0  -0.5866
  O  O1044  1  0.461800  0.667790  0.413380  1.0  -0.6282
  O  O1045  1  0.530900  0.607710  0.408680  1.0  -0.5494
  O  O1046  1  0.516400  0.545330  0.412750  1.0  -0.4699
  O  O1047  1  0.064900  0.530460  0.381160  1.0  -0.5838
  O  O1048  1  0.006200  0.502990  0.425660  1.0  -0.58
  O  O1049  1  0.117800  0.509240  0.542670  1.0  -0.593
  O  O1050  1  0.233900  0.495630  0.541540  1.0  -0.6165
  O  O1051  1  0.936100  0.256440  0.389920  1.0  -0.9543
  O  O1052  1  0.849000  0.186220  0.415000  1.0  -0.5866
  O  O1053  1  0.961800  0.167790  0.413380  1.0  -0.6282
  O  O1054  1  0.030900  0.107710  0.408680  1.0  -0.5494
  O  O1055  1  0.016400  0.045330  0.412750  1.0  -0.4699
  O  O1056  1  0.564900  0.030460  0.381160  1.0  -0.5838
  O  O1057  1  0.506200  0.002990  0.425660  1.0  -0.58
  O  O1058  1  0.617800  0.009240  0.542670  1.0  -0.593
  O  O1059  1  0.733900  0.995630  0.541540  1.0  -0.6165
  O  O1060  1  0.936100  0.756440  0.889920  1.0  -0.9543
  O  O1061  1  0.849000  0.686220  0.915000  1.0  -0.5866
  O  O1062  1  0.961800  0.667790  0.913380  1.0  -0.6282
  O  O1063  1  0.030900  0.607710  0.908680  1.0  -0.5494
  O  O1064  1  0.016400  0.545330  0.912750  1.0  -0.4699
  O  O1065  1  0.564900  0.530460  0.881160  1.0  -0.5838
  O  O1066  1  0.506200  0.502990  0.925660  1.0  -0.58
  O  O1067  1  0.617800  0.509240  0.042670  1.0  -0.593
  O  O1068  1  0.733900  0.495630  0.041540  1.0  -0.6165
  O  O1069  1  0.313900  0.493560  0.889920  1.0  -0.954
  O  O1070  1  0.401000  0.563780  0.915000  1.0  -0.5875
  O  O1071  1  0.288200  0.582210  0.913380  1.0  -0.6267
  O  O1072  1  0.219100  0.642290  0.908680  1.0  -0.5496
  O  O1073  1  0.233600  0.704670  0.912750  1.0  -0.4685
  O  O1074  1  0.685100  0.719540  0.881160  1.0  -0.5838
  O  O1075  1  0.743800  0.747010  0.925660  1.0  -0.5787
  O  O1076  1  0.632200  0.740760  0.042670  1.0  -0.5931
  O  O1077  1  0.516100  0.754370  0.041540  1.0  -0.6157
  O  O1078  1  0.313900  0.993560  0.389920  1.0  -0.954
  O  O1079  1  0.401000  0.063780  0.415000  1.0  -0.5875
  O  O1080  1  0.288200  0.082210  0.413380  1.0  -0.6267
  O  O1081  1  0.219100  0.142290  0.408680  1.0  -0.5496
  O  O1082  1  0.233600  0.204670  0.412750  1.0  -0.4685
  O  O1083  1  0.685100  0.219540  0.381160  1.0  -0.5838
  O  O1084  1  0.743800  0.247010  0.425660  1.0  -0.5787
  O  O1085  1  0.632200  0.240760  0.542670  1.0  -0.5931
  O  O1086  1  0.516100  0.254370  0.541540  1.0  -0.6157
  O  O1087  1  0.813900  0.493560  0.389920  1.0  -0.954
  O  O1088  1  0.901000  0.563780  0.415000  1.0  -0.5875
  O  O1089  1  0.788200  0.582210  0.413380  1.0  -0.6267
  O  O1090  1  0.719100  0.642290  0.408680  1.0  -0.5496
  O  O1091  1  0.733600  0.704670  0.412750  1.0  -0.4685
  O  O1092  1  0.185100  0.719540  0.381160  1.0  -0.5838
  O  O1093  1  0.243800  0.747010  0.425660  1.0  -0.5787
  O  O1094  1  0.132200  0.740760  0.542670  1.0  -0.5931
  O  O1095  1  0.016100  0.754370  0.541540  1.0  -0.6157
  O  O1096  1  0.813900  0.993560  0.889920  1.0  -0.954
  O  O1097  1  0.901000  0.063780  0.915000  1.0  -0.5875
  O  O1098  1  0.788200  0.082210  0.913380  1.0  -0.6267
  O  O1099  1  0.719100  0.142290  0.908680  1.0  -0.5496
  O  O1100  1  0.733600  0.204670  0.912750  1.0  -0.4685
  O  O1101  1  0.185100  0.219540  0.881160  1.0  -0.5838
  O  O1102  1  0.243800  0.247010  0.925660  1.0  -0.5787
  O  O1103  1  0.132200  0.240760  0.042670  1.0  -0.5931
  O  O1104  1  0.016100  0.254370  0.041540  1.0  -0.6157
  O  O1105  1  0.686100  0.743560  0.139920  1.0  -0.954
  O  O1106  1  0.599000  0.813780  0.165000  1.0  -0.5864
  O  O1107  1  0.711800  0.832210  0.163380  1.0  -0.6266
  O  O1108  1  0.780900  0.892290  0.158680  1.0  -0.55
  O  O1109  1  0.766400  0.954670  0.162750  1.0  -0.4682
  O  O1110  1  0.314900  0.969540  0.131160  1.0  -0.5839
  O  O1111  1  0.256200  0.997010  0.175660  1.0  -0.5791
  O  O1112  1  0.367800  0.990760  0.292670  1.0  -0.5926
  O  O1113  1  0.483900  0.004370  0.291540  1.0  -0.6172
  O  O1114  1  0.686100  0.243560  0.639920  1.0  -0.954
  O  O1115  1  0.599000  0.313780  0.665000  1.0  -0.5864
  O  O1116  1  0.711800  0.332210  0.663380  1.0  -0.6266
  O  O1117  1  0.780900  0.392290  0.658680  1.0  -0.55
  O  O1118  1  0.766400  0.454670  0.662750  1.0  -0.4682
  O  O1119  1  0.314900  0.469540  0.631160  1.0  -0.5839
  O  O1120  1  0.256200  0.497010  0.675660  1.0  -0.5791
  O  O1121  1  0.367800  0.490760  0.792670  1.0  -0.5926
  O  O1122  1  0.483900  0.504370  0.791540  1.0  -0.6172
  O  O1123  1  0.186100  0.743560  0.639920  1.0  -0.954
  O  O1124  1  0.099000  0.813780  0.665000  1.0  -0.5864
  O  O1125  1  0.211800  0.832210  0.663380  1.0  -0.6266
  O  O1126  1  0.280900  0.892290  0.658680  1.0  -0.55
  O  O1127  1  0.266400  0.954670  0.662750  1.0  -0.4682
  O  O1128  1  0.814900  0.969540  0.631160  1.0  -0.5839
  O  O1129  1  0.756200  0.997010  0.675660  1.0  -0.5791
  O  O1130  1  0.867800  0.990760  0.792670  1.0  -0.5926
  O  O1131  1  0.983900  0.004370  0.791540  1.0  -0.6172
  O  O1132  1  0.186100  0.243560  0.139920  1.0  -0.954
  O  O1133  1  0.099000  0.313780  0.165000  1.0  -0.5864
  O  O1134  1  0.211800  0.332210  0.163380  1.0  -0.6266
  O  O1135  1  0.280900  0.392290  0.158680  1.0  -0.55
  O  O1136  1  0.266400  0.454670  0.162750  1.0  -0.4682
  O  O1137  1  0.814900  0.469540  0.131160  1.0  -0.5839
  O  O1138  1  0.756200  0.497010  0.175660  1.0  -0.5791
  O  O1139  1  0.867800  0.490760  0.292670  1.0  -0.5926
  O  O1140  1  0.983900  0.504370  0.291540  1.0  -0.6172
  O  O1141  1  0.563900  0.506440  0.139920  1.0  -0.9532
  O  O1142  1  0.651000  0.436220  0.165000  1.0  -0.5879
  O  O1143  1  0.538200  0.417790  0.163380  1.0  -0.6276
  O  O1144  1  0.469100  0.357710  0.158680  1.0  -0.5496
  O  O1145  1  0.483600  0.295330  0.162750  1.0  -0.468
  O  O1146  1  0.935100  0.280460  0.131160  1.0  -0.583
  O  O1147  1  0.993800  0.252990  0.175660  1.0  -0.5789
  O  O1148  1  0.882200  0.259240  0.292670  1.0  -0.5938
  O  O1149  1  0.766100  0.245630  0.291540  1.0  -0.6165
  O  O1150  1  0.563900  0.006440  0.639920  1.0  -0.9532
  O  O1151  1  0.651000  0.936220  0.665000  1.0  -0.5879
  O  O1152  1  0.538200  0.917790  0.663380  1.0  -0.6276
  O  O1153  1  0.469100  0.857710  0.658680  1.0  -0.5496
  O  O1154  1  0.483600  0.795330  0.662750  1.0  -0.468
  O  O1155  1  0.935100  0.780460  0.631160  1.0  -0.583
  O  O1156  1  0.993800  0.752990  0.675660  1.0  -0.5789
  O  O1157  1  0.882200  0.759240  0.792670  1.0  -0.5938
  O  O1158  1  0.766100  0.745630  0.791540  1.0  -0.6165
  O  O1159  1  0.063900  0.506440  0.639920  1.0  -0.9532
  O  O1160  1  0.151000  0.436220  0.665000  1.0  -0.5879
  O  O1161  1  0.038200  0.417790  0.663380  1.0  -0.6276
  O  O1162  1  0.969100  0.357710  0.658680  1.0  -0.5496
  O  O1163  1  0.983600  0.295330  0.662750  1.0  -0.468
  O  O1164  1  0.435100  0.280460  0.631160  1.0  -0.583
  O  O1165  1  0.493800  0.252990  0.675660  1.0  -0.5789
  O  O1166  1  0.382200  0.259240  0.792670  1.0  -0.5938
  O  O1167  1  0.266100  0.245630  0.791540  1.0  -0.6165
  O  O1168  1  0.063900  0.006440  0.139920  1.0  -0.9532
  O  O1169  1  0.151000  0.936220  0.165000  1.0  -0.5879
  O  O1170  1  0.038200  0.917790  0.163380  1.0  -0.6276
  O  O1171  1  0.969100  0.857710  0.158680  1.0  -0.5496
  O  O1172  1  0.983600  0.795330  0.162750  1.0  -0.468
  O  O1173  1  0.435100  0.780460  0.131160  1.0  -0.583
  O  O1174  1  0.493800  0.752990  0.175660  1.0  -0.5789
  O  O1175  1  0.382200  0.759240  0.292670  1.0  -0.5938
  O  O1176  1  0.266100  0.745630  0.291540  1.0  -0.6165
  O  O1177  1  0.563900  0.743560  0.110080  1.0  -0.9546
  O  O1178  1  0.651000  0.813780  0.085000  1.0  -0.5888
  O  O1179  1  0.538200  0.832210  0.086620  1.0  -0.6301
  O  O1180  1  0.469100  0.892290  0.091320  1.0  -0.5487
  O  O1181  1  0.483600  0.954670  0.087250  1.0  -0.4693
  O  O1182  1  0.935100  0.969540  0.118840  1.0  -0.5851
  O  O1183  1  0.993800  0.997010  0.074340  1.0  -0.5787
  O  O1184  1  0.882200  0.990760  0.957330  1.0  -0.5928
  O  O1185  1  0.766100  0.004370  0.958460  1.0  -0.6161
  O  O1186  1  0.563900  0.243560  0.610080  1.0  -0.9546
  O  O1187  1  0.651000  0.313780  0.585000  1.0  -0.5888
  O  O1188  1  0.538200  0.332210  0.586620  1.0  -0.6301
  O  O1189  1  0.469100  0.392290  0.591320  1.0  -0.5487
  O  O1190  1  0.483600  0.454670  0.587250  1.0  -0.4693
  O  O1191  1  0.935100  0.469540  0.618840  1.0  -0.5851
  O  O1192  1  0.993800  0.497010  0.574340  1.0  -0.5787
  O  O1193  1  0.882200  0.490760  0.457330  1.0  -0.5928
  O  O1194  1  0.766100  0.504370  0.458460  1.0  -0.6161
  O  O1195  1  0.063900  0.743560  0.610080  1.0  -0.9546
  O  O1196  1  0.151000  0.813780  0.585000  1.0  -0.5888
  O  O1197  1  0.038200  0.832210  0.586620  1.0  -0.6301
  O  O1198  1  0.969100  0.892290  0.591320  1.0  -0.5487
  O  O1199  1  0.983600  0.954670  0.587250  1.0  -0.4693
  O  O1200  1  0.435100  0.969540  0.618840  1.0  -0.5851
  O  O1201  1  0.493800  0.997010  0.574340  1.0  -0.5787
  O  O1202  1  0.382200  0.990760  0.457330  1.0  -0.5928
  O  O1203  1  0.266100  0.004370  0.458460  1.0  -0.6161
  O  O1204  1  0.063900  0.243560  0.110080  1.0  -0.9546
  O  O1205  1  0.151000  0.313780  0.085000  1.0  -0.5888
  O  O1206  1  0.038200  0.332210  0.086620  1.0  -0.6301
  O  O1207  1  0.969100  0.392290  0.091320  1.0  -0.5487
  O  O1208  1  0.983600  0.454670  0.087250  1.0  -0.4693
  O  O1209  1  0.435100  0.469540  0.118840  1.0  -0.5851
  O  O1210  1  0.493800  0.497010  0.074340  1.0  -0.5787
  O  O1211  1  0.382200  0.490760  0.957330  1.0  -0.5928
  O  O1212  1  0.266100  0.504370  0.958460  1.0  -0.6161
  O  O1213  1  0.686100  0.506440  0.110080  1.0  -0.9547
  O  O1214  1  0.599000  0.436220  0.085000  1.0  -0.5872
  O  O1215  1  0.711800  0.417790  0.086620  1.0  -0.6315
  O  O1216  1  0.780900  0.357710  0.091320  1.0  -0.5486
  O  O1217  1  0.766400  0.295330  0.087250  1.0  -0.4697
  O  O1218  1  0.314900  0.280460  0.118840  1.0  -0.5845
  O  O1219  1  0.256200  0.252990  0.074340  1.0  -0.5788
  O  O1220  1  0.367800  0.259240  0.957330  1.0  -0.5928
  O  O1221  1  0.483900  0.245630  0.958460  1.0  -0.6171
  O  O1222  1  0.686100  0.006440  0.610080  1.0  -0.9547
  O  O1223  1  0.599000  0.936220  0.585000  1.0  -0.5872
  O  O1224  1  0.711800  0.917790  0.586620  1.0  -0.6315
  O  O1225  1  0.780900  0.857710  0.591320  1.0  -0.5486
  O  O1226  1  0.766400  0.795330  0.587250  1.0  -0.4697
  O  O1227  1  0.314900  0.780460  0.618840  1.0  -0.5845
  O  O1228  1  0.256200  0.752990  0.574340  1.0  -0.5788
  O  O1229  1  0.367800  0.759240  0.457330  1.0  -0.5928
  O  O1230  1  0.483900  0.745630  0.458460  1.0  -0.6171
  O  O1231  1  0.186100  0.506440  0.610080  1.0  -0.9547
  O  O1232  1  0.099000  0.436220  0.585000  1.0  -0.5872
  O  O1233  1  0.211800  0.417790  0.586620  1.0  -0.6315
  O  O1234  1  0.280900  0.357710  0.591320  1.0  -0.5486
  O  O1235  1  0.266400  0.295330  0.587250  1.0  -0.4697
  O  O1236  1  0.814900  0.280460  0.618840  1.0  -0.5845
  O  O1237  1  0.756200  0.252990  0.574340  1.0  -0.5788
  O  O1238  1  0.867800  0.259240  0.457330  1.0  -0.5928
  O  O1239  1  0.983900  0.245630  0.458460  1.0  -0.6171
  O  O1240  1  0.186100  0.006440  0.110080  1.0  -0.9547
  O  O1241  1  0.099000  0.936220  0.085000  1.0  -0.5872
  O  O1242  1  0.211800  0.917790  0.086620  1.0  -0.6315
  O  O1243  1  0.280900  0.857710  0.091320  1.0  -0.5486
  O  O1244  1  0.266400  0.795330  0.087250  1.0  -0.4697
  O  O1245  1  0.814900  0.780460  0.118840  1.0  -0.5845
  O  O1246  1  0.756200  0.752990  0.074340  1.0  -0.5788
  O  O1247  1  0.867800  0.759240  0.957330  1.0  -0.5928
  O  O1248  1  0.983900  0.745630  0.958460  1.0  -0.6171
