# generated using pymatgen
data_Zr3H16C40(O7F13)2
_symmetry_space_group_name_H-M   'P 1'
_cell_length_a   34.35620000
_cell_length_b   34.35620000
_cell_length_c   15.00940000
_cell_angle_alpha   90.00000000
_cell_angle_beta   90.00000000
_cell_angle_gamma   90.00000000
_symmetry_Int_Tables_number   1
_chemical_formula_structural   Zr3H16C40(O7F13)2
_chemical_formula_sum   'Zr24 H128 C320 O112 F208'
_cell_volume   17716.32245230
_cell_formula_units_Z   8
loop_
 _symmetry_equiv_pos_site_id
 _symmetry_equiv_pos_as_xyz
  1  'x, y, z'
loop_
 _atom_site_type_symbol
 _atom_site_label
 _atom_site_symmetry_multiplicity
 _atom_site_fract_x
 _atom_site_fract_y
 _atom_site_fract_z
 _atom_site_occupancy
 _atom_site_charge
  Zr  Zr1  1  0.550450  0.050450  0.000000  1.0  2.1713
  Zr  Zr2  1  0.949550  0.449550  0.000000  1.0  2.1741
  Zr  Zr3  1  0.449550  0.550450  0.500000  1.0  2.172
  Zr  Zr4  1  0.050450  0.949550  0.500000  1.0  2.1731
  Zr  Zr5  1  0.449550  0.949550  0.000000  1.0  2.1741
  Zr  Zr6  1  0.050450  0.550450  0.000000  1.0  2.1714
  Zr  Zr7  1  0.550450  0.449550  0.500000  1.0  2.1731
  Zr  Zr8  1  0.949550  0.050450  0.500000  1.0  2.1721
  Zr  Zr9  1  0.469210  0.030790  0.134090  1.0  2.115
  Zr  Zr10  1  0.541460  0.958540  0.098760  1.0  2.145
  Zr  Zr11  1  0.030790  0.469210  0.134090  1.0  2.112
  Zr  Zr12  1  0.958540  0.541460  0.098760  1.0  2.1475
  Zr  Zr13  1  0.469210  0.469210  0.634090  1.0  2.1145
  Zr  Zr14  1  0.541460  0.541460  0.598760  1.0  2.1458
  Zr  Zr15  1  0.030790  0.030790  0.634090  1.0  2.1123
  Zr  Zr16  1  0.958540  0.958540  0.598760  1.0  2.1478
  Zr  Zr17  1  0.530790  0.530790  0.365910  1.0  2.1122
  Zr  Zr18  1  0.458540  0.458540  0.401240  1.0  2.1464
  Zr  Zr19  1  0.969210  0.969210  0.365910  1.0  2.1139
  Zr  Zr20  1  0.041460  0.041460  0.401240  1.0  2.1445
  Zr  Zr21  1  0.530790  0.969210  0.865910  1.0  2.1117
  Zr  Zr22  1  0.458540  0.041460  0.901240  1.0  2.1461
  Zr  Zr23  1  0.969210  0.530790  0.865910  1.0  2.1144
  Zr  Zr24  1  0.041460  0.458540  0.901240  1.0  2.1438
  H  H25  1  0.565900  0.168600  0.107500  1.0  0.2013
  H  H26  1  0.491600  0.198400  0.359800  1.0  0.312
  H  H27  1  0.490800  0.135300  0.301200  1.0  0.1977
  H  H28  1  0.565800  0.329000  0.425700  1.0  0.2031
  H  H29  1  0.471000  0.339200  0.266700  1.0  0.2029
  H  H30  1  0.477200  0.273800  0.225300  1.0  0.3431
  H  H31  1  0.566800  0.231700  0.166100  1.0  0.3541
  H  H32  1  0.572000  0.263600  0.384400  1.0  0.3535
  H  H33  1  0.934100  0.331400  0.107500  1.0  0.2019
  H  H34  1  0.008400  0.301600  0.359800  1.0  0.3115
  H  H35  1  0.009200  0.364700  0.301200  1.0  0.1975
  H  H36  1  0.934200  0.171000  0.425700  1.0  0.2035
  H  H37  1  0.029000  0.160800  0.266700  1.0  0.2032
  H  H38  1  0.022800  0.226200  0.225300  1.0  0.3456
  H  H39  1  0.933200  0.268300  0.166100  1.0  0.3543
  H  H40  1  0.928000  0.236400  0.384400  1.0  0.3529
  H  H41  1  0.331400  0.565900  0.607500  1.0  0.2019
  H  H42  1  0.301600  0.491600  0.859800  1.0  0.3125
  H  H43  1  0.364700  0.490800  0.801200  1.0  0.1985
  H  H44  1  0.171000  0.565800  0.925700  1.0  0.2029
  H  H45  1  0.160800  0.471000  0.766700  1.0  0.2013
  H  H46  1  0.226200  0.477200  0.725300  1.0  0.3421
  H  H47  1  0.268300  0.566800  0.666100  1.0  0.3511
  H  H48  1  0.236400  0.572000  0.884400  1.0  0.3494
  H  H49  1  0.168600  0.934100  0.607500  1.0  0.2018
  H  H50  1  0.198400  0.008400  0.859800  1.0  0.3126
  H  H51  1  0.135300  0.009200  0.801200  1.0  0.1982
  H  H52  1  0.329000  0.934200  0.925700  1.0  0.2028
  H  H53  1  0.339200  0.029000  0.766700  1.0  0.2029
  H  H54  1  0.273800  0.022800  0.725300  1.0  0.3458
  H  H55  1  0.231700  0.933200  0.666100  1.0  0.352
  H  H56  1  0.263600  0.928000  0.884400  1.0  0.3517
  H  H57  1  0.434100  0.668600  0.392500  1.0  0.202
  H  H58  1  0.508400  0.698400  0.140200  1.0  0.3108
  H  H59  1  0.509200  0.635300  0.198800  1.0  0.1982
  H  H60  1  0.434200  0.829000  0.074300  1.0  0.2038
  H  H61  1  0.529000  0.839200  0.233300  1.0  0.2036
  H  H62  1  0.522800  0.773800  0.274700  1.0  0.3437
  H  H63  1  0.433200  0.731700  0.333900  1.0  0.3543
  H  H64  1  0.428000  0.763600  0.115600  1.0  0.3534
  H  H65  1  0.065900  0.831400  0.392500  1.0  0.2016
  H  H66  1  0.991600  0.801600  0.140200  1.0  0.3128
  H  H67  1  0.990800  0.864700  0.198800  1.0  0.1984
  H  H68  1  0.065800  0.671000  0.074300  1.0  0.2031
  H  H69  1  0.971000  0.660800  0.233300  1.0  0.2027
  H  H70  1  0.977200  0.726200  0.274700  1.0  0.3408
  H  H71  1  0.066800  0.768300  0.333900  1.0  0.3557
  H  H72  1  0.072000  0.736400  0.115600  1.0  0.353
  H  H73  1  0.668600  0.065900  0.892500  1.0  0.2015
  H  H74  1  0.698400  0.991600  0.640200  1.0  0.3115
  H  H75  1  0.635300  0.990800  0.698800  1.0  0.198
  H  H76  1  0.829000  0.065800  0.574300  1.0  0.2029
  H  H77  1  0.839200  0.971000  0.733300  1.0  0.2028
  H  H78  1  0.773800  0.977200  0.774700  1.0  0.3425
  H  H79  1  0.731700  0.066800  0.833900  1.0  0.3509
  H  H80  1  0.763600  0.072000  0.615600  1.0  0.3515
  H  H81  1  0.831400  0.434100  0.892500  1.0  0.2019
  H  H82  1  0.801600  0.508400  0.640200  1.0  0.3126
  H  H83  1  0.864700  0.509200  0.698800  1.0  0.1989
  H  H84  1  0.671000  0.434200  0.574300  1.0  0.2029
  H  H85  1  0.660800  0.529000  0.733300  1.0  0.2027
  H  H86  1  0.726200  0.522800  0.774700  1.0  0.3425
  H  H87  1  0.768300  0.433200  0.833900  1.0  0.3527
  H  H88  1  0.736400  0.428000  0.615600  1.0  0.3498
  H  H89  1  0.434100  0.831400  0.892500  1.0  0.2017
  H  H90  1  0.508400  0.801600  0.640200  1.0  0.3126
  H  H91  1  0.509200  0.864700  0.698800  1.0  0.1979
  H  H92  1  0.434200  0.671000  0.574300  1.0  0.2034
  H  H93  1  0.529000  0.660800  0.733300  1.0  0.2034
  H  H94  1  0.522800  0.726200  0.774700  1.0  0.3429
  H  H95  1  0.433200  0.768300  0.833900  1.0  0.3551
  H  H96  1  0.428000  0.736400  0.615600  1.0  0.3524
  H  H97  1  0.065900  0.668600  0.892500  1.0  0.2013
  H  H98  1  0.991600  0.698400  0.640200  1.0  0.3116
  H  H99  1  0.990800  0.635300  0.698800  1.0  0.1976
  H  H100  1  0.065800  0.829000  0.574300  1.0  0.2034
  H  H101  1  0.971000  0.839200  0.733300  1.0  0.2032
  H  H102  1  0.977200  0.773800  0.774700  1.0  0.3415
  H  H103  1  0.066800  0.731700  0.833900  1.0  0.3549
  H  H104  1  0.072000  0.763600  0.615600  1.0  0.354
  H  H105  1  0.668600  0.434100  0.392500  1.0  0.2022
  H  H106  1  0.698400  0.508400  0.140200  1.0  0.3139
  H  H107  1  0.635300  0.509200  0.198800  1.0  0.1988
  H  H108  1  0.829000  0.434200  0.074300  1.0  0.2028
  H  H109  1  0.839200  0.529000  0.233300  1.0  0.2029
  H  H110  1  0.773800  0.522800  0.274700  1.0  0.3426
  H  H111  1  0.731700  0.433200  0.333900  1.0  0.3527
  H  H112  1  0.763600  0.428000  0.115600  1.0  0.3513
  H  H113  1  0.831400  0.065900  0.392500  1.0  0.2018
  H  H114  1  0.801600  0.991600  0.140200  1.0  0.3126
  H  H115  1  0.864700  0.990800  0.198800  1.0  0.1987
  H  H116  1  0.671000  0.065800  0.074300  1.0  0.2034
  H  H117  1  0.660800  0.971000  0.233300  1.0  0.2021
  H  H118  1  0.726200  0.977200  0.274700  1.0  0.3426
  H  H119  1  0.768300  0.066800  0.333900  1.0  0.3514
  H  H120  1  0.736400  0.072000  0.115600  1.0  0.3504
  H  H121  1  0.565900  0.331400  0.607500  1.0  0.2019
  H  H122  1  0.491600  0.301600  0.859800  1.0  0.3106
  H  H123  1  0.490800  0.364700  0.801200  1.0  0.1981
  H  H124  1  0.565800  0.171000  0.925700  1.0  0.2033
  H  H125  1  0.471000  0.160800  0.766700  1.0  0.2021
  H  H126  1  0.477200  0.226200  0.725300  1.0  0.3419
  H  H127  1  0.566800  0.268300  0.666100  1.0  0.3555
  H  H128  1  0.572000  0.236400  0.884400  1.0  0.3532
  H  H129  1  0.934100  0.168600  0.607500  1.0  0.2015
  H  H130  1  0.008400  0.198400  0.859800  1.0  0.3121
  H  H131  1  0.009200  0.135300  0.801200  1.0  0.1981
  H  H132  1  0.934200  0.329000  0.925700  1.0  0.2033
  H  H133  1  0.029000  0.339200  0.766700  1.0  0.2035
  H  H134  1  0.022800  0.273800  0.725300  1.0  0.347
  H  H135  1  0.933200  0.231700  0.666100  1.0  0.3531
  H  H136  1  0.928000  0.263600  0.884400  1.0  0.3533
  H  H137  1  0.331400  0.934100  0.107500  1.0  0.2017
  H  H138  1  0.301600  0.008400  0.359800  1.0  0.3106
  H  H139  1  0.364700  0.009200  0.301200  1.0  0.1982
  H  H140  1  0.171000  0.934200  0.425700  1.0  0.203
  H  H141  1  0.160800  0.029000  0.266700  1.0  0.2024
  H  H142  1  0.226200  0.022800  0.225300  1.0  0.345
  H  H143  1  0.268300  0.933200  0.166100  1.0  0.3524
  H  H144  1  0.236400  0.928000  0.384400  1.0  0.3508
  H  H145  1  0.168600  0.565900  0.107500  1.0  0.202
  H  H146  1  0.198400  0.491600  0.359800  1.0  0.3127
  H  H147  1  0.135300  0.490800  0.301200  1.0  0.1982
  H  H148  1  0.329000  0.565800  0.425700  1.0  0.2025
  H  H149  1  0.339200  0.471000  0.266700  1.0  0.2026
  H  H150  1  0.273800  0.477200  0.225300  1.0  0.3432
  H  H151  1  0.231700  0.566800  0.166100  1.0  0.3508
  H  H152  1  0.263600  0.572000  0.384400  1.0  0.3504
  C  C153  1  0.526300  0.106600  0.156300  1.0  0.8152
  C  C154  1  0.528300  0.146000  0.198900  1.0  -0.0512
  C  C155  1  0.550900  0.174700  0.158700  1.0  -0.0315
  C  C156  1  0.551300  0.212200  0.193500  1.0  -0.0291
  C  C157  1  0.529300  0.221000  0.268400  1.0  0.1186
  C  C158  1  0.506700  0.192400  0.308600  1.0  -0.0339
  C  C159  1  0.506200  0.154900  0.273800  1.0  -0.0691
  C  C160  1  0.576900  0.242300  0.146000  1.0  0.0945
  C  C161  1  0.525200  0.262600  0.301000  1.0  0.0477
  C  C162  1  0.551500  0.279000  0.360500  1.0  -0.0127
  C  C163  1  0.547800  0.317800  0.385100  1.0  -0.1047
  C  C164  1  0.517800  0.340200  0.350100  1.0  -0.0487
  C  C165  1  0.491500  0.323800  0.290600  1.0  -0.0989
  C  C166  1  0.495200  0.285000  0.266000  1.0  -0.0272
  C  C167  1  0.583300  0.257700  0.393500  1.0  0.0861
  C  C168  1  0.515400  0.381500  0.382600  1.0  0.821
  C  C169  1  0.467300  0.986000  0.464900  1.0  0.3802
  C  C170  1  0.481700  0.200600  0.391000  1.0  0.1059
  C  C171  1  0.473400  0.271400  0.193000  1.0  0.0364
  C  C172  1  0.973700  0.393400  0.156300  1.0  0.8144
  C  C173  1  0.971700  0.354000  0.198900  1.0  -0.0515
  C  C174  1  0.949100  0.325300  0.158700  1.0  -0.0314
  C  C175  1  0.948700  0.287800  0.193500  1.0  -0.0274
  C  C176  1  0.970700  0.279000  0.268400  1.0  0.1177
  C  C177  1  0.993300  0.307600  0.308600  1.0  -0.035
  C  C178  1  0.993800  0.345100  0.273800  1.0  -0.0684
  C  C179  1  0.923100  0.257700  0.146000  1.0  0.0957
  C  C180  1  0.974800  0.237400  0.301000  1.0  0.0473
  C  C181  1  0.948500  0.221000  0.360500  1.0  -0.0153
  C  C182  1  0.952200  0.182200  0.385100  1.0  -0.1072
  C  C183  1  0.982200  0.159800  0.350100  1.0  -0.0515
  C  C184  1  0.008500  0.176200  0.290600  1.0  -0.0965
  C  C185  1  0.004800  0.215000  0.266000  1.0  -0.0265
  C  C186  1  0.916700  0.242300  0.393500  1.0  0.084
  C  C187  1  0.984600  0.118500  0.382600  1.0  0.8223
  C  C188  1  0.032700  0.514000  0.464900  1.0  0.3792
  C  C189  1  0.018300  0.299400  0.391000  1.0  0.1045
  C  C190  1  0.026600  0.228600  0.193000  1.0  0.0337
  C  C191  1  0.393400  0.526300  0.656300  1.0  0.8135
  C  C192  1  0.354000  0.528300  0.698900  1.0  -0.0509
  C  C193  1  0.325300  0.550900  0.658700  1.0  -0.0278
  C  C194  1  0.287800  0.551300  0.693500  1.0  -0.024
  C  C195  1  0.279000  0.529300  0.768400  1.0  0.1164
  C  C196  1  0.307600  0.506700  0.808600  1.0  -0.0348
  C  C197  1  0.345100  0.506200  0.773800  1.0  -0.0643
  C  C198  1  0.257700  0.576900  0.646000  1.0  0.0973
  C  C199  1  0.237400  0.525200  0.801000  1.0  0.0449
  C  C200  1  0.221000  0.551500  0.860500  1.0  -0.0157
  C  C201  1  0.182200  0.547800  0.885100  1.0  -0.1041
  C  C202  1  0.159800  0.517800  0.850100  1.0  -0.0542
  C  C203  1  0.176200  0.491500  0.790600  1.0  -0.094
  C  C204  1  0.215000  0.495200  0.766000  1.0  -0.0304
  C  C205  1  0.242300  0.583300  0.893500  1.0  0.0881
  C  C206  1  0.118500  0.515400  0.882600  1.0  0.8205
  C  C207  1  0.514000  0.467300  0.964900  1.0  0.379
  C  C208  1  0.299400  0.481700  0.891000  1.0  0.1075
  C  C209  1  0.228600  0.473400  0.693000  1.0  0.0422
  C  C210  1  0.106600  0.973700  0.656300  1.0  0.8144
  C  C211  1  0.146000  0.971700  0.698900  1.0  -0.0504
  C  C212  1  0.174700  0.949100  0.658700  1.0  -0.0291
  C  C213  1  0.212200  0.948700  0.693500  1.0  -0.0284
  C  C214  1  0.221000  0.970700  0.768400  1.0  0.1173
  C  C215  1  0.192400  0.993300  0.808600  1.0  -0.0384
  C  C216  1  0.154900  0.993800  0.773800  1.0  -0.0642
  C  C217  1  0.242300  0.923100  0.646000  1.0  0.0969
  C  C218  1  0.262600  0.974800  0.801000  1.0  0.0455
  C  C219  1  0.279000  0.948500  0.860500  1.0  -0.0099
  C  C220  1  0.317800  0.952200  0.885100  1.0  -0.1024
  C  C221  1  0.340200  0.982200  0.850100  1.0  -0.0523
  C  C222  1  0.323800  0.008500  0.790600  1.0  -0.0946
  C  C223  1  0.285000  0.004800  0.766000  1.0  -0.0273
  C  C224  1  0.257700  0.916700  0.893500  1.0  0.0914
  C  C225  1  0.381500  0.984600  0.882600  1.0  0.8203
  C  C226  1  0.986000  0.032700  0.964900  1.0  0.3799
  C  C227  1  0.200600  0.018300  0.891000  1.0  0.1034
  C  C228  1  0.271400  0.026600  0.693000  1.0  0.0363
  C  C229  1  0.473700  0.606600  0.343700  1.0  0.8151
  C  C230  1  0.471700  0.646000  0.301100  1.0  -0.0518
  C  C231  1  0.449100  0.674700  0.341300  1.0  -0.033
  C  C232  1  0.448700  0.712200  0.306500  1.0  -0.0271
  C  C233  1  0.470700  0.721000  0.231600  1.0  0.1186
  C  C234  1  0.493300  0.692400  0.191400  1.0  -0.0377
  C  C235  1  0.493800  0.654900  0.226200  1.0  -0.0697
  C  C236  1  0.423100  0.742300  0.354000  1.0  0.0923
  C  C237  1  0.474800  0.762600  0.199000  1.0  0.0473
  C  C238  1  0.448500  0.779000  0.139500  1.0  -0.014
  C  C239  1  0.452200  0.817800  0.114900  1.0  -0.1087
  C  C240  1  0.482200  0.840200  0.149900  1.0  -0.049
  C  C241  1  0.508500  0.823800  0.209400  1.0  -0.0979
  C  C242  1  0.504800  0.785000  0.234000  1.0  -0.0227
  C  C243  1  0.416700  0.757700  0.106500  1.0  0.0846
  C  C244  1  0.484600  0.881500  0.117400  1.0  0.8211
  C  C245  1  0.532700  0.486000  0.035100  1.0  0.3778
  C  C246  1  0.518300  0.700600  0.109000  1.0  0.1092
  C  C247  1  0.526600  0.771400  0.307000  1.0  0.03
  C  C248  1  0.026300  0.893400  0.343700  1.0  0.8148
  C  C249  1  0.028300  0.854000  0.301100  1.0  -0.0514
  C  C250  1  0.050900  0.825300  0.341300  1.0  -0.0298
  C  C251  1  0.051300  0.787800  0.306500  1.0  -0.0277
  C  C252  1  0.029300  0.779000  0.231600  1.0  0.1182
  C  C253  1  0.006700  0.807600  0.191400  1.0  -0.0352
  C  C254  1  0.006200  0.845100  0.226200  1.0  -0.0682
  C  C255  1  0.076900  0.757700  0.354000  1.0  0.0962
  C  C256  1  0.025200  0.737400  0.199000  1.0  0.0476
  C  C257  1  0.051500  0.721000  0.139500  1.0  -0.0163
  C  C258  1  0.047800  0.682200  0.114900  1.0  -0.1061
  C  C259  1  0.017800  0.659800  0.149900  1.0  -0.0502
  C  C260  1  0.991500  0.676200  0.209400  1.0  -0.0992
  C  C261  1  0.995200  0.715000  0.234000  1.0  -0.0221
  C  C262  1  0.083300  0.742300  0.106500  1.0  0.0859
  C  C263  1  0.015400  0.618500  0.117400  1.0  0.8219
  C  C264  1  0.967300  0.014000  0.035100  1.0  0.3807
  C  C265  1  0.981700  0.799400  0.109000  1.0  0.1109
  C  C266  1  0.973400  0.728600  0.307000  1.0  0.0297
  C  C267  1  0.606600  0.026300  0.843700  1.0  0.8143
  C  C268  1  0.646000  0.028300  0.801100  1.0  -0.0505
  C  C269  1  0.674700  0.050900  0.841300  1.0  -0.0298
  C  C270  1  0.712200  0.051300  0.806500  1.0  -0.0281
  C  C271  1  0.721000  0.029300  0.731600  1.0  0.1171
  C  C272  1  0.692400  0.006700  0.691400  1.0  -0.0403
  C  C273  1  0.654900  0.006200  0.726200  1.0  -0.0632
  C  C274  1  0.742300  0.076900  0.854000  1.0  0.0945
  C  C275  1  0.762600  0.025200  0.699000  1.0  0.0453
  C  C276  1  0.779000  0.051500  0.639500  1.0  -0.0115
  C  C277  1  0.817800  0.047800  0.614900  1.0  -0.1034
  C  C278  1  0.840200  0.017800  0.649900  1.0  -0.0529
  C  C279  1  0.823800  0.991500  0.709400  1.0  -0.0956
  C  C280  1  0.785000  0.995200  0.734000  1.0  -0.0231
  C  C281  1  0.757700  0.083300  0.606500  1.0  0.089
  C  C282  1  0.881500  0.015400  0.617400  1.0  0.8206
  C  C283  1  0.486000  0.967300  0.535100  1.0  0.3805
  C  C284  1  0.700600  0.981700  0.609000  1.0  0.1144
  C  C285  1  0.771400  0.973400  0.807000  1.0  0.0349
  C  C286  1  0.893400  0.473700  0.843700  1.0  0.8139
  C  C287  1  0.854000  0.471700  0.801100  1.0  -0.0513
  C  C288  1  0.825300  0.449100  0.841300  1.0  -0.0292
  C  C289  1  0.787800  0.448700  0.806500  1.0  -0.0239
  C  C290  1  0.779000  0.470700  0.731600  1.0  0.1166
  C  C291  1  0.807600  0.493300  0.691400  1.0  -0.0366
  C  C292  1  0.845100  0.493800  0.726200  1.0  -0.0631
  C  C293  1  0.757700  0.423100  0.854000  1.0  0.0984
  C  C294  1  0.737400  0.474800  0.699000  1.0  0.0447
  C  C295  1  0.721000  0.448500  0.639500  1.0  -0.0163
  C  C296  1  0.682200  0.452200  0.614900  1.0  -0.1036
  C  C297  1  0.659800  0.482200  0.649900  1.0  -0.0531
  C  C298  1  0.676200  0.508500  0.709400  1.0  -0.0961
  C  C299  1  0.715000  0.504800  0.734000  1.0  -0.0269
  C  C300  1  0.742300  0.416700  0.606500  1.0  0.0905
  C  C301  1  0.618500  0.484600  0.617400  1.0  0.8199
  C  C302  1  0.014000  0.532700  0.535100  1.0  0.3784
  C  C303  1  0.799400  0.518300  0.609000  1.0  0.1103
  C  C304  1  0.728600  0.526600  0.807000  1.0  0.0313
  C  C305  1  0.473700  0.893400  0.843700  1.0  0.8143
  C  C306  1  0.471700  0.854000  0.801100  1.0  -0.0516
  C  C307  1  0.449100  0.825300  0.841300  1.0  -0.0325
  C  C308  1  0.448700  0.787800  0.806500  1.0  -0.0267
  C  C309  1  0.470700  0.779000  0.731600  1.0  0.118
  C  C310  1  0.493300  0.807600  0.691400  1.0  -0.0373
  C  C311  1  0.493800  0.845100  0.726200  1.0  -0.0678
  C  C312  1  0.423100  0.757700  0.854000  1.0  0.0967
  C  C313  1  0.474800  0.737400  0.699000  1.0  0.0472
  C  C314  1  0.448500  0.721000  0.639500  1.0  -0.0151
  C  C315  1  0.452200  0.682200  0.614900  1.0  -0.1073
  C  C316  1  0.482200  0.659800  0.649900  1.0  -0.0513
  C  C317  1  0.508500  0.676200  0.709400  1.0  -0.0979
  C  C318  1  0.504800  0.715000  0.734000  1.0  -0.0232
  C  C319  1  0.416700  0.742300  0.606500  1.0  0.0849
  C  C320  1  0.484600  0.618500  0.617400  1.0  0.822
  C  C321  1  0.532700  0.014000  0.535100  1.0  0.379
  C  C322  1  0.518300  0.799400  0.609000  1.0  0.109
  C  C323  1  0.526600  0.728600  0.807000  1.0  0.0299
  C  C324  1  0.026300  0.606600  0.843700  1.0  0.8155
  C  C325  1  0.028300  0.646000  0.801100  1.0  -0.0514
  C  C326  1  0.050900  0.674700  0.841300  1.0  -0.0313
  C  C327  1  0.051300  0.712200  0.806500  1.0  -0.0291
  C  C328  1  0.029300  0.721000  0.731600  1.0  0.1188
  C  C329  1  0.006700  0.692400  0.691400  1.0  -0.0354
  C  C330  1  0.006200  0.654900  0.726200  1.0  -0.0687
  C  C331  1  0.076900  0.742300  0.854000  1.0  0.0939
  C  C332  1  0.025200  0.762600  0.699000  1.0  0.0476
  C  C333  1  0.051500  0.779000  0.639500  1.0  -0.0129
  C  C334  1  0.047800  0.817800  0.614900  1.0  -0.1053
  C  C335  1  0.017800  0.840200  0.649900  1.0  -0.0486
  C  C336  1  0.991500  0.823800  0.709400  1.0  -0.101
  C  C337  1  0.995200  0.785000  0.734000  1.0  -0.0241
  C  C338  1  0.083300  0.757700  0.606500  1.0  0.0847
  C  C339  1  0.015400  0.881500  0.617400  1.0  0.821
  C  C340  1  0.967300  0.486000  0.535100  1.0  0.3803
  C  C341  1  0.981700  0.700600  0.609000  1.0  0.1106
  C  C342  1  0.973400  0.771400  0.807000  1.0  0.0302
  C  C343  1  0.606600  0.473700  0.343700  1.0  0.8145
  C  C344  1  0.646000  0.471700  0.301100  1.0  -0.0505
  C  C345  1  0.674700  0.449100  0.341300  1.0  -0.0294
  C  C346  1  0.712200  0.448700  0.306500  1.0  -0.0285
  C  C347  1  0.721000  0.470700  0.231600  1.0  0.1174
  C  C348  1  0.692400  0.493300  0.191400  1.0  -0.041
  C  C349  1  0.654900  0.493800  0.226200  1.0  -0.0636
  C  C350  1  0.742300  0.423100  0.354000  1.0  0.0972
  C  C351  1  0.762600  0.474800  0.199000  1.0  0.0454
  C  C352  1  0.779000  0.448500  0.139500  1.0  -0.0102
  C  C353  1  0.817800  0.452200  0.114900  1.0  -0.1029
  C  C354  1  0.840200  0.482200  0.149900  1.0  -0.0522
  C  C355  1  0.823800  0.508500  0.209400  1.0  -0.0968
  C  C356  1  0.785000  0.504800  0.234000  1.0  -0.0259
  C  C357  1  0.757700  0.416700  0.106500  1.0  0.0912
  C  C358  1  0.881500  0.484600  0.117400  1.0  0.8202
  C  C359  1  0.486000  0.532700  0.035100  1.0  0.3799
  C  C360  1  0.700600  0.518300  0.109000  1.0  0.1104
  C  C361  1  0.771400  0.526600  0.307000  1.0  0.0308
  C  C362  1  0.893400  0.026300  0.343700  1.0  0.8138
  C  C363  1  0.854000  0.028300  0.301100  1.0  -0.0515
  C  C364  1  0.825300  0.050900  0.341300  1.0  -0.029
  C  C365  1  0.787800  0.051300  0.306500  1.0  -0.0237
  C  C366  1  0.779000  0.029300  0.231600  1.0  0.1164
  C  C367  1  0.807600  0.006700  0.191400  1.0  -0.0359
  C  C368  1  0.845100  0.006200  0.226200  1.0  -0.0638
  C  C369  1  0.757700  0.076900  0.354000  1.0  0.0951
  C  C370  1  0.737400  0.025200  0.199000  1.0  0.0446
  C  C371  1  0.721000  0.051500  0.139500  1.0  -0.0161
  C  C372  1  0.682200  0.047800  0.114900  1.0  -0.1037
  C  C373  1  0.659800  0.017800  0.149900  1.0  -0.0541
  C  C374  1  0.676200  0.991500  0.209400  1.0  -0.0955
  C  C375  1  0.715000  0.995200  0.234000  1.0  -0.0248
  C  C376  1  0.742300  0.083300  0.106500  1.0  0.0893
  C  C377  1  0.618500  0.015400  0.117400  1.0  0.8205
  C  C378  1  0.014000  0.967300  0.035100  1.0  0.3789
  C  C379  1  0.799400  0.981700  0.109000  1.0  0.1153
  C  C380  1  0.728600  0.973400  0.307000  1.0  0.0348
  C  C381  1  0.526300  0.393400  0.656300  1.0  0.8148
  C  C382  1  0.528300  0.354000  0.698900  1.0  -0.0512
  C  C383  1  0.550900  0.325300  0.658700  1.0  -0.0295
  C  C384  1  0.551300  0.287800  0.693500  1.0  -0.0279
  C  C385  1  0.529300  0.279000  0.768400  1.0  0.1179
  C  C386  1  0.506700  0.307600  0.808600  1.0  -0.0344
  C  C387  1  0.506200  0.345100  0.773800  1.0  -0.0689
  C  C388  1  0.576900  0.257700  0.646000  1.0  0.0936
  C  C389  1  0.525200  0.237400  0.801000  1.0  0.0478
  C  C390  1  0.551500  0.221000  0.860500  1.0  -0.0159
  C  C391  1  0.547800  0.182200  0.885100  1.0  -0.1058
  C  C392  1  0.517800  0.159800  0.850100  1.0  -0.0503
  C  C393  1  0.491500  0.176200  0.790600  1.0  -0.0978
  C  C394  1  0.495200  0.215000  0.766000  1.0  -0.0244
  C  C395  1  0.583300  0.242300  0.893500  1.0  0.0847
  C  C396  1  0.515400  0.118500  0.882600  1.0  0.8221
  C  C397  1  0.467300  0.514000  0.964900  1.0  0.3813
  C  C398  1  0.481700  0.299400  0.891000  1.0  0.1044
  C  C399  1  0.473400  0.228600  0.693000  1.0  0.0351
  C  C400  1  0.973700  0.106600  0.656300  1.0  0.8148
  C  C401  1  0.971700  0.146000  0.698900  1.0  -0.0517
  C  C402  1  0.949100  0.174700  0.658700  1.0  -0.033
  C  C403  1  0.948700  0.212200  0.693500  1.0  -0.0272
  C  C404  1  0.970700  0.221000  0.768400  1.0  0.1183
  C  C405  1  0.993300  0.192400  0.808600  1.0  -0.0339
  C  C406  1  0.993800  0.154900  0.773800  1.0  -0.0702
  C  C407  1  0.923100  0.242300  0.646000  1.0  0.0948
  C  C408  1  0.974800  0.262600  0.801000  1.0  0.0474
  C  C409  1  0.948500  0.279000  0.860500  1.0  -0.0138
  C  C410  1  0.952200  0.317800  0.885100  1.0  -0.1089
  C  C411  1  0.982200  0.340200  0.850100  1.0  -0.0494
  C  C412  1  0.008500  0.323800  0.790600  1.0  -0.0962
  C  C413  1  0.004800  0.285000  0.766000  1.0  -0.0269
  C  C414  1  0.916700  0.257700  0.893500  1.0  0.0861
  C  C415  1  0.984600  0.381500  0.882600  1.0  0.821
  C  C416  1  0.032700  0.986000  0.964900  1.0  0.3793
  C  C417  1  0.018300  0.200600  0.891000  1.0  0.1059
  C  C418  1  0.026600  0.271400  0.693000  1.0  0.0341
  C  C419  1  0.393400  0.973700  0.156300  1.0  0.8134
  C  C420  1  0.354000  0.971700  0.198900  1.0  -0.0508
  C  C421  1  0.325300  0.949100  0.158700  1.0  -0.0284
  C  C422  1  0.287800  0.948700  0.193500  1.0  -0.0235
  C  C423  1  0.279000  0.970700  0.268400  1.0  0.1166
  C  C424  1  0.307600  0.993300  0.308600  1.0  -0.0351
  C  C425  1  0.345100  0.993800  0.273800  1.0  -0.0637
  C  C426  1  0.257700  0.923100  0.146000  1.0  0.0982
  C  C427  1  0.237400  0.974800  0.301000  1.0  0.045
  C  C428  1  0.221000  0.948500  0.360500  1.0  -0.0153
  C  C429  1  0.182200  0.952200  0.385100  1.0  -0.1038
  C  C430  1  0.159800  0.982200  0.350100  1.0  -0.0528
  C  C431  1  0.176200  0.008500  0.290600  1.0  -0.0935
  C  C432  1  0.215000  0.004800  0.266000  1.0  -0.0306
  C  C433  1  0.242300  0.916700  0.393500  1.0  0.0905
  C  C434  1  0.118500  0.984600  0.382600  1.0  0.82
  C  C435  1  0.514000  0.032700  0.464900  1.0  0.3792
  C  C436  1  0.299400  0.018300  0.391000  1.0  0.1049
  C  C437  1  0.228600  0.026600  0.193000  1.0  0.0373
  C  C438  1  0.106600  0.526300  0.156300  1.0  0.8143
  C  C439  1  0.146000  0.528300  0.198900  1.0  -0.0504
  C  C440  1  0.174700  0.550900  0.158700  1.0  -0.029
  C  C441  1  0.212200  0.551300  0.193500  1.0  -0.0287
  C  C442  1  0.221000  0.529300  0.268400  1.0  0.1171
  C  C443  1  0.192400  0.506700  0.308600  1.0  -0.038
  C  C444  1  0.154900  0.506200  0.273800  1.0  -0.0637
  C  C445  1  0.242300  0.576900  0.146000  1.0  0.0971
  C  C446  1  0.262600  0.525200  0.301000  1.0  0.0454
  C  C447  1  0.279000  0.551500  0.360500  1.0  -0.0117
  C  C448  1  0.317800  0.547800  0.385100  1.0  -0.1027
  C  C449  1  0.340200  0.517800  0.350100  1.0  -0.0532
  C  C450  1  0.323800  0.491500  0.290600  1.0  -0.0943
  C  C451  1  0.285000  0.495200  0.266000  1.0  -0.0256
  C  C452  1  0.257700  0.583300  0.393500  1.0  0.0884
  C  C453  1  0.381500  0.515400  0.382600  1.0  0.8204
  C  C454  1  0.986000  0.467300  0.464900  1.0  0.3808
  C  C455  1  0.200600  0.481700  0.391000  1.0  0.1069
  C  C456  1  0.271400  0.473400  0.193000  1.0  0.0417
  C  C457  1  0.464700  0.035300  0.337600  1.0  0.6935
  C  C458  1  0.479700  0.020300  0.425000  1.0  0.0317
  C  C459  1  0.035300  0.464700  0.337600  1.0  0.6947
  C  C460  1  0.020300  0.479700  0.425000  1.0  0.0305
  C  C461  1  0.464700  0.464700  0.837600  1.0  0.6936
  C  C462  1  0.479700  0.479700  0.925000  1.0  0.0314
  C  C463  1  0.035300  0.035300  0.837600  1.0  0.6946
  C  C464  1  0.020300  0.020300  0.925000  1.0  0.0306
  C  C465  1  0.535300  0.535300  0.162400  1.0  0.6953
  C  C466  1  0.520300  0.520300  0.075000  1.0  0.0312
  C  C467  1  0.964700  0.964700  0.162400  1.0  0.6942
  C  C468  1  0.979700  0.979700  0.075000  1.0  0.0319
  C  C469  1  0.535300  0.964700  0.662400  1.0  0.6956
  C  C470  1  0.520300  0.979700  0.575000  1.0  0.0309
  C  C471  1  0.964700  0.535300  0.662400  1.0  0.6939
  C  C472  1  0.979700  0.520300  0.575000  1.0  0.0323
  O  O473  1  0.497700  0.085300  0.185500  1.0  -0.5553
  O  O474  1  0.550300  0.097900  0.102700  1.0  -0.495
  O  O475  1  0.484200  0.400200  0.360400  1.0  -0.6346
  O  O476  1  0.542600  0.395100  0.419400  1.0  -0.5208
  O  O477  1  0.530200  0.020100  0.117500  1.0  -0.8844
  O  O478  1  0.439300  0.011500  0.016800  1.0  -1.0256
  O  O479  1  0.002300  0.414700  0.185500  1.0  -0.5526
  O  O480  1  0.949700  0.402100  0.102700  1.0  -0.495
  O  O481  1  0.015800  0.099800  0.360400  1.0  -0.6379
  O  O482  1  0.957400  0.104900  0.419400  1.0  -0.52
  O  O483  1  0.969800  0.479900  0.117500  1.0  -0.8842
  O  O484  1  0.060700  0.488500  0.016800  1.0  -1.0239
  O  O485  1  0.414700  0.497700  0.685500  1.0  -0.5514
  O  O486  1  0.402100  0.550300  0.602700  1.0  -0.4931
  O  O487  1  0.099800  0.484200  0.860400  1.0  -0.6346
  O  O488  1  0.104900  0.542600  0.919400  1.0  -0.5183
  O  O489  1  0.479900  0.530200  0.617500  1.0  -0.8842
  O  O490  1  0.488500  0.439300  0.516800  1.0  -1.0253
  O  O491  1  0.085300  0.002300  0.685500  1.0  -0.5523
  O  O492  1  0.097900  0.949700  0.602700  1.0  -0.4933
  O  O493  1  0.400200  0.015800  0.860400  1.0  -0.6334
  O  O494  1  0.395100  0.957400  0.919400  1.0  -0.5181
  O  O495  1  0.020100  0.969800  0.617500  1.0  -0.8852
  O  O496  1  0.011500  0.060700  0.516800  1.0  -1.0235
  O  O497  1  0.502300  0.585300  0.314500  1.0  -0.5529
  O  O498  1  0.449700  0.597900  0.397300  1.0  -0.4951
  O  O499  1  0.515800  0.900200  0.139600  1.0  -0.6386
  O  O500  1  0.457400  0.895100  0.080600  1.0  -0.5191
  O  O501  1  0.469800  0.520100  0.382500  1.0  -0.8841
  O  O502  1  0.560700  0.511500  0.483200  1.0  -1.0244
  O  O503  1  0.997700  0.914700  0.314500  1.0  -0.5552
  O  O504  1  0.050300  0.902100  0.397300  1.0  -0.4953
  O  O505  1  0.984200  0.599800  0.139600  1.0  -0.6358
  O  O506  1  0.042600  0.604900  0.080600  1.0  -0.5207
  O  O507  1  0.030200  0.979900  0.382500  1.0  -0.8845
  O  O508  1  0.939300  0.988500  0.483200  1.0  -1.0255
  O  O509  1  0.585300  0.997700  0.814500  1.0  -0.5521
  O  O510  1  0.597900  0.050300  0.897300  1.0  -0.4932
  O  O511  1  0.900200  0.984200  0.639600  1.0  -0.6351
  O  O512  1  0.895100  0.042600  0.580600  1.0  -0.5175
  O  O513  1  0.520100  0.030200  0.882500  1.0  -0.8844
  O  O514  1  0.511500  0.939300  0.983200  1.0  -1.0237
  O  O515  1  0.914700  0.502300  0.814500  1.0  -0.5516
  O  O516  1  0.902100  0.449700  0.897300  1.0  -0.4931
  O  O517  1  0.599800  0.515800  0.639600  1.0  -0.634
  O  O518  1  0.604900  0.457400  0.580600  1.0  -0.5181
  O  O519  1  0.979900  0.469800  0.882500  1.0  -0.8844
  O  O520  1  0.988500  0.560700  0.983200  1.0  -1.0255
  O  O521  1  0.502300  0.914700  0.814500  1.0  -0.5524
  O  O522  1  0.449700  0.902100  0.897300  1.0  -0.4954
  O  O523  1  0.515800  0.599800  0.639600  1.0  -0.6391
  O  O524  1  0.457400  0.604900  0.580600  1.0  -0.5192
  O  O525  1  0.469800  0.979900  0.882500  1.0  -0.8842
  O  O526  1  0.560700  0.988500  0.983200  1.0  -1.0237
  O  O527  1  0.997700  0.585300  0.814500  1.0  -0.5553
  O  O528  1  0.050300  0.597900  0.897300  1.0  -0.4951
  O  O529  1  0.984200  0.900200  0.639600  1.0  -0.6361
  O  O530  1  0.042600  0.895100  0.580600  1.0  -0.5205
  O  O531  1  0.030200  0.520100  0.882500  1.0  -0.8841
  O  O532  1  0.939300  0.511500  0.983200  1.0  -1.0257
  O  O533  1  0.585300  0.502300  0.314500  1.0  -0.5521
  O  O534  1  0.597900  0.449700  0.397300  1.0  -0.4933
  O  O535  1  0.900200  0.515800  0.139600  1.0  -0.6338
  O  O536  1  0.895100  0.457400  0.080600  1.0  -0.5178
  O  O537  1  0.520100  0.469800  0.382500  1.0  -0.8846
  O  O538  1  0.511500  0.560700  0.483200  1.0  -1.0237
  O  O539  1  0.914700  0.997700  0.314500  1.0  -0.5515
  O  O540  1  0.902100  0.050300  0.397300  1.0  -0.4932
  O  O541  1  0.599800  0.984200  0.139600  1.0  -0.6352
  O  O542  1  0.604900  0.042600  0.080600  1.0  -0.5174
  O  O543  1  0.979900  0.030200  0.382500  1.0  -0.8845
  O  O544  1  0.988500  0.939300  0.483200  1.0  -1.0253
  O  O545  1  0.497700  0.414700  0.685500  1.0  -0.5549
  O  O546  1  0.550300  0.402100  0.602700  1.0  -0.4951
  O  O547  1  0.484200  0.099800  0.860400  1.0  -0.6357
  O  O548  1  0.542600  0.104900  0.919400  1.0  -0.5209
  O  O549  1  0.530200  0.479900  0.617500  1.0  -0.8841
  O  O550  1  0.439300  0.488500  0.516800  1.0  -1.0256
  O  O551  1  0.002300  0.085300  0.685500  1.0  -0.5532
  O  O552  1  0.949700  0.097900  0.602700  1.0  -0.4949
  O  O553  1  0.015800  0.400200  0.860400  1.0  -0.6381
  O  O554  1  0.957400  0.395100  0.919400  1.0  -0.5199
  O  O555  1  0.969800  0.020100  0.617500  1.0  -0.8848
  O  O556  1  0.060700  0.011500  0.516800  1.0  -1.0243
  O  O557  1  0.414700  0.002300  0.185500  1.0  -0.5516
  O  O558  1  0.402100  0.949700  0.102700  1.0  -0.4931
  O  O559  1  0.099800  0.015800  0.360400  1.0  -0.6337
  O  O560  1  0.104900  0.957400  0.419400  1.0  -0.5186
  O  O561  1  0.479900  0.969800  0.117500  1.0  -0.8847
  O  O562  1  0.488500  0.060700  0.016800  1.0  -1.0252
  O  O563  1  0.085300  0.497700  0.185500  1.0  -0.552
  O  O564  1  0.097900  0.550300  0.102700  1.0  -0.493
  O  O565  1  0.400200  0.484200  0.360400  1.0  -0.6344
  O  O566  1  0.395100  0.542600  0.419400  1.0  -0.5184
  O  O567  1  0.020100  0.530200  0.117500  1.0  -0.8846
  O  O568  1  0.011500  0.439300  0.016800  1.0  -1.0238
  O  O569  1  0.476700  0.023300  0.271900  1.0  -0.5409
  O  O570  1  0.438100  0.061900  0.355000  1.0  -0.4052
  O  O571  1  0.023300  0.476700  0.271900  1.0  -0.5415
  O  O572  1  0.061900  0.438100  0.355000  1.0  -0.4033
  O  O573  1  0.476700  0.476700  0.771900  1.0  -0.5407
  O  O574  1  0.438100  0.438100  0.855000  1.0  -0.4038
  O  O575  1  0.023300  0.023300  0.771900  1.0  -0.5414
  O  O576  1  0.061900  0.061900  0.855000  1.0  -0.4048
  O  O577  1  0.523300  0.523300  0.228100  1.0  -0.542
  O  O578  1  0.561900  0.561900  0.145000  1.0  -0.4038
  O  O579  1  0.976700  0.976700  0.228100  1.0  -0.5415
  O  O580  1  0.938100  0.938100  0.145000  1.0  -0.4045
  O  O581  1  0.523300  0.976700  0.728100  1.0  -0.5423
  O  O582  1  0.561900  0.938100  0.645000  1.0  -0.4025
  O  O583  1  0.976700  0.523300  0.728100  1.0  -0.5415
  O  O584  1  0.938100  0.561900  0.645000  1.0  -0.4059
  F  F585  1  0.603800  0.224800  0.092000  1.0  -0.2453
  F  F586  1  0.597700  0.264800  0.202000  1.0  -0.268
  F  F587  1  0.556700  0.266100  0.092000  1.0  -0.2765
  F  F588  1  0.604800  0.273600  0.459400  1.0  -0.2612
  F  F589  1  0.577400  0.222200  0.429300  1.0  -0.2781
  F  F590  1  0.612000  0.248000  0.335300  1.0  -0.2502
  F  F591  1  0.434100  0.969900  0.430800  1.0  -0.046
  F  F592  1  0.500500  0.218900  0.456800  1.0  -0.3118
  F  F593  1  0.467700  0.167500  0.429100  1.0  -0.2151
  F  F594  1  0.449800  0.221800  0.372400  1.0  -0.2609
  F  F595  1  0.445300  0.294600  0.158000  1.0  -0.2272
  F  F596  1  0.451900  0.238900  0.201000  1.0  -0.2498
  F  F597  1  0.491000  0.263000  0.116000  1.0  -0.2632
  F  F598  1  0.896200  0.275200  0.092000  1.0  -0.2409
  F  F599  1  0.902300  0.235200  0.202000  1.0  -0.2603
  F  F600  1  0.943300  0.233900  0.092000  1.0  -0.2764
  F  F601  1  0.895200  0.226400  0.459400  1.0  -0.2568
  F  F602  1  0.922600  0.277800  0.429300  1.0  -0.2732
  F  F603  1  0.888000  0.252000  0.335300  1.0  -0.2465
  F  F604  1  0.065900  0.530100  0.430800  1.0  -0.0458
  F  F605  1  0.999500  0.281100  0.456800  1.0  -0.3135
  F  F606  1  0.032300  0.332500  0.429100  1.0  -0.2184
  F  F607  1  0.050200  0.278200  0.372400  1.0  -0.2599
  F  F608  1  0.054700  0.205400  0.158000  1.0  -0.2356
  F  F609  1  0.048100  0.261100  0.201000  1.0  -0.2555
  F  F610  1  0.009000  0.237000  0.116000  1.0  -0.2627
  F  F611  1  0.275200  0.603800  0.592000  1.0  -0.2473
  F  F612  1  0.235200  0.597700  0.702000  1.0  -0.2629
  F  F613  1  0.233900  0.556700  0.592000  1.0  -0.2731
  F  F614  1  0.226400  0.604800  0.959400  1.0  -0.262
  F  F615  1  0.277800  0.577400  0.929300  1.0  -0.2694
  F  F616  1  0.252000  0.612000  0.835300  1.0  -0.2555
  F  F617  1  0.530100  0.434100  0.930800  1.0  -0.0483
  F  F618  1  0.281100  0.500500  0.956800  1.0  -0.3142
  F  F619  1  0.332500  0.467700  0.929100  1.0  -0.2178
  F  F620  1  0.278200  0.449800  0.872400  1.0  -0.2672
  F  F621  1  0.205400  0.445300  0.658000  1.0  -0.2382
  F  F622  1  0.261100  0.451900  0.701000  1.0  -0.2558
  F  F623  1  0.237000  0.491000  0.616000  1.0  -0.2625
  F  F624  1  0.224800  0.896200  0.592000  1.0  -0.2506
  F  F625  1  0.264800  0.902300  0.702000  1.0  -0.2673
  F  F626  1  0.266100  0.943300  0.592000  1.0  -0.2817
  F  F627  1  0.273600  0.895200  0.959400  1.0  -0.2652
  F  F628  1  0.222200  0.922600  0.929300  1.0  -0.2691
  F  F629  1  0.248000  0.888000  0.835300  1.0  -0.2536
  F  F630  1  0.969900  0.065900  0.930800  1.0  -0.0491
  F  F631  1  0.218900  0.999500  0.956800  1.0  -0.3117
  F  F632  1  0.167500  0.032300  0.929100  1.0  -0.2115
  F  F633  1  0.221800  0.050200  0.872400  1.0  -0.2682
  F  F634  1  0.294600  0.054700  0.658000  1.0  -0.2403
  F  F635  1  0.238900  0.048100  0.701000  1.0  -0.2577
  F  F636  1  0.263000  0.009000  0.616000  1.0  -0.2608
  F  F637  1  0.396200  0.724800  0.408000  1.0  -0.2395
  F  F638  1  0.402300  0.764800  0.298000  1.0  -0.2632
  F  F639  1  0.443300  0.766100  0.408000  1.0  -0.2753
  F  F640  1  0.395200  0.773600  0.040600  1.0  -0.2551
  F  F641  1  0.422600  0.722200  0.070700  1.0  -0.2741
  F  F642  1  0.388000  0.748000  0.164700  1.0  -0.2459
  F  F643  1  0.565900  0.469900  0.069200  1.0  -0.0455
  F  F644  1  0.499500  0.718900  0.043200  1.0  -0.3113
  F  F645  1  0.532300  0.667500  0.070900  1.0  -0.2191
  F  F646  1  0.550200  0.721800  0.127600  1.0  -0.2605
  F  F647  1  0.554700  0.794600  0.342000  1.0  -0.2344
  F  F648  1  0.548100  0.738900  0.299000  1.0  -0.2566
  F  F649  1  0.509000  0.763000  0.384000  1.0  -0.2614
  F  F650  1  0.103800  0.775200  0.408000  1.0  -0.2444
  F  F651  1  0.097700  0.735200  0.298000  1.0  -0.2653
  F  F652  1  0.056700  0.733900  0.408000  1.0  -0.2783
  F  F653  1  0.104800  0.726400  0.040600  1.0  -0.2624
  F  F654  1  0.077400  0.777800  0.070700  1.0  -0.2788
  F  F655  1  0.112000  0.752000  0.164700  1.0  -0.2494
  F  F656  1  0.934100  0.030100  0.069200  1.0  -0.0467
  F  F657  1  0.000500  0.781100  0.043200  1.0  -0.3107
  F  F658  1  0.967700  0.832500  0.070900  1.0  -0.2131
  F  F659  1  0.949800  0.778200  0.127600  1.0  -0.2614
  F  F660  1  0.945300  0.705400  0.342000  1.0  -0.2266
  F  F661  1  0.951900  0.761100  0.299000  1.0  -0.2487
  F  F662  1  0.991000  0.737000  0.384000  1.0  -0.2621
  F  F663  1  0.724800  0.103800  0.908000  1.0  -0.2466
  F  F664  1  0.764800  0.097700  0.798000  1.0  -0.2695
  F  F665  1  0.766100  0.056700  0.908000  1.0  -0.2817
  F  F666  1  0.773600  0.104800  0.540600  1.0  -0.2626
  F  F667  1  0.722200  0.077400  0.570700  1.0  -0.2711
  F  F668  1  0.748000  0.112000  0.664700  1.0  -0.2546
  F  F669  1  0.469900  0.934100  0.569200  1.0  -0.0473
  F  F670  1  0.718900  0.000500  0.543200  1.0  -0.3089
  F  F671  1  0.667500  0.967700  0.570900  1.0  -0.2113
  F  F672  1  0.721800  0.949800  0.627600  1.0  -0.2685
  F  F673  1  0.794600  0.945300  0.842000  1.0  -0.2419
  F  F674  1  0.738900  0.951900  0.799000  1.0  -0.2582
  F  F675  1  0.763000  0.991000  0.884000  1.0  -0.2621
  F  F676  1  0.775200  0.396200  0.908000  1.0  -0.2493
  F  F677  1  0.735200  0.402300  0.798000  1.0  -0.2596
  F  F678  1  0.733900  0.443300  0.908000  1.0  -0.2734
  F  F679  1  0.726400  0.395200  0.540600  1.0  -0.2643
  F  F680  1  0.777800  0.422600  0.570700  1.0  -0.2704
  F  F681  1  0.752000  0.388000  0.664700  1.0  -0.2513
  F  F682  1  0.030100  0.565900  0.569200  1.0  -0.0488
  F  F683  1  0.781100  0.499500  0.543200  1.0  -0.3116
  F  F684  1  0.832500  0.532300  0.570900  1.0  -0.2151
  F  F685  1  0.778200  0.550200  0.627600  1.0  -0.27
  F  F686  1  0.705400  0.554700  0.842000  1.0  -0.2347
  F  F687  1  0.761100  0.548100  0.799000  1.0  -0.2542
  F  F688  1  0.737000  0.509000  0.884000  1.0  -0.2614
  F  F689  1  0.396200  0.775200  0.908000  1.0  -0.2396
  F  F690  1  0.402300  0.735200  0.798000  1.0  -0.2592
  F  F691  1  0.443300  0.733900  0.908000  1.0  -0.2758
  F  F692  1  0.395200  0.726400  0.540600  1.0  -0.2567
  F  F693  1  0.422600  0.777800  0.570700  1.0  -0.2743
  F  F694  1  0.388000  0.752000  0.664700  1.0  -0.2463
  F  F695  1  0.565900  0.030100  0.569200  1.0  -0.0456
  F  F696  1  0.499500  0.781100  0.543200  1.0  -0.3119
  F  F697  1  0.532300  0.832500  0.570900  1.0  -0.2163
  F  F698  1  0.550200  0.778200  0.627600  1.0  -0.2612
  F  F699  1  0.554700  0.705400  0.842000  1.0  -0.2352
  F  F700  1  0.548100  0.761100  0.799000  1.0  -0.2555
  F  F701  1  0.509000  0.737000  0.884000  1.0  -0.2614
  F  F702  1  0.103800  0.724800  0.908000  1.0  -0.2436
  F  F703  1  0.097700  0.764800  0.798000  1.0  -0.2678
  F  F704  1  0.056700  0.766100  0.908000  1.0  -0.2765
  F  F705  1  0.104800  0.773600  0.540600  1.0  -0.2611
  F  F706  1  0.077400  0.722200  0.570700  1.0  -0.281
  F  F707  1  0.112000  0.748000  0.664700  1.0  -0.2493
  F  F708  1  0.934100  0.469900  0.569200  1.0  -0.0457
  F  F709  1  0.000500  0.718900  0.543200  1.0  -0.3092
  F  F710  1  0.967700  0.667500  0.570900  1.0  -0.2139
  F  F711  1  0.949800  0.721800  0.627600  1.0  -0.2622
  F  F712  1  0.945300  0.794600  0.842000  1.0  -0.226
  F  F713  1  0.951900  0.738900  0.799000  1.0  -0.2487
  F  F714  1  0.991000  0.763000  0.884000  1.0  -0.2623
  F  F715  1  0.724800  0.396200  0.408000  1.0  -0.2502
  F  F716  1  0.764800  0.402300  0.298000  1.0  -0.267
  F  F717  1  0.766100  0.443300  0.408000  1.0  -0.2823
  F  F718  1  0.773600  0.395200  0.040600  1.0  -0.2649
  F  F719  1  0.722200  0.422600  0.070700  1.0  -0.2699
  F  F720  1  0.748000  0.388000  0.164700  1.0  -0.2524
  F  F721  1  0.469900  0.565900  0.069200  1.0  -0.0492
  F  F722  1  0.718900  0.499500  0.043200  1.0  -0.3099
  F  F723  1  0.667500  0.532300  0.070900  1.0  -0.2116
  F  F724  1  0.721800  0.550200  0.127600  1.0  -0.2704
  F  F725  1  0.794600  0.554700  0.342000  1.0  -0.2388
  F  F726  1  0.738900  0.548100  0.299000  1.0  -0.2575
  F  F727  1  0.763000  0.509000  0.384000  1.0  -0.2603
  F  F728  1  0.775200  0.103800  0.408000  1.0  -0.2466
  F  F729  1  0.735200  0.097700  0.298000  1.0  -0.2622
  F  F730  1  0.733900  0.056700  0.408000  1.0  -0.2735
  F  F731  1  0.726400  0.104800  0.040600  1.0  -0.2614
  F  F732  1  0.777800  0.077400  0.070700  1.0  -0.2712
  F  F733  1  0.752000  0.112000  0.164700  1.0  -0.2547
  F  F734  1  0.030100  0.934100  0.069200  1.0  -0.0483
  F  F735  1  0.781100  0.000500  0.043200  1.0  -0.3117
  F  F736  1  0.832500  0.967700  0.070900  1.0  -0.2149
  F  F737  1  0.778200  0.949800  0.127600  1.0  -0.2687
  F  F738  1  0.705400  0.945300  0.342000  1.0  -0.2364
  F  F739  1  0.761100  0.951900  0.299000  1.0  -0.255
  F  F740  1  0.737000  0.991000  0.384000  1.0  -0.2624
  F  F741  1  0.603800  0.275200  0.592000  1.0  -0.2456
  F  F742  1  0.597700  0.235200  0.702000  1.0  -0.2659
  F  F743  1  0.556700  0.233900  0.592000  1.0  -0.2787
  F  F744  1  0.604800  0.226400  0.959400  1.0  -0.2618
  F  F745  1  0.577400  0.277800  0.929300  1.0  -0.2781
  F  F746  1  0.612000  0.252000  0.835300  1.0  -0.2503
  F  F747  1  0.434100  0.530100  0.930800  1.0  -0.0467
  F  F748  1  0.500500  0.281100  0.956800  1.0  -0.3118
  F  F749  1  0.467700  0.332500  0.929100  1.0  -0.2146
  F  F750  1  0.449800  0.278200  0.872400  1.0  -0.261
  F  F751  1  0.445300  0.205400  0.658000  1.0  -0.2277
  F  F752  1  0.451900  0.261100  0.701000  1.0  -0.2487
  F  F753  1  0.491000  0.237000  0.616000  1.0  -0.2633
  F  F754  1  0.896200  0.224800  0.592000  1.0  -0.2415
  F  F755  1  0.902300  0.264800  0.702000  1.0  -0.2638
  F  F756  1  0.943300  0.266100  0.592000  1.0  -0.2756
  F  F757  1  0.895200  0.273600  0.959400  1.0  -0.2557
  F  F758  1  0.922600  0.222200  0.929300  1.0  -0.2712
  F  F759  1  0.888000  0.248000  0.835300  1.0  -0.2465
  F  F760  1  0.065900  0.969900  0.930800  1.0  -0.0462
  F  F761  1  0.999500  0.218900  0.956800  1.0  -0.3139
  F  F762  1  0.032300  0.167500  0.929100  1.0  -0.2209
  F  F763  1  0.050200  0.221800  0.872400  1.0  -0.259
  F  F764  1  0.054700  0.294600  0.658000  1.0  -0.2334
  F  F765  1  0.048100  0.238900  0.701000  1.0  -0.2573
  F  F766  1  0.009000  0.263000  0.616000  1.0  -0.2621
  F  F767  1  0.275200  0.896200  0.092000  1.0  -0.2494
  F  F768  1  0.235200  0.902300  0.202000  1.0  -0.2604
  F  F769  1  0.233900  0.943300  0.092000  1.0  -0.2726
  F  F770  1  0.226400  0.895200  0.459400  1.0  -0.2652
  F  F771  1  0.277800  0.922600  0.429300  1.0  -0.2693
  F  F772  1  0.252000  0.888000  0.335300  1.0  -0.2528
  F  F773  1  0.530100  0.065900  0.430800  1.0  -0.0483
  F  F774  1  0.281100  0.999500  0.456800  1.0  -0.3132
  F  F775  1  0.332500  0.032300  0.429100  1.0  -0.2165
  F  F776  1  0.278200  0.050200  0.372400  1.0  -0.268
  F  F777  1  0.205400  0.054700  0.158000  1.0  -0.2367
  F  F778  1  0.261100  0.048100  0.201000  1.0  -0.2553
  F  F779  1  0.237000  0.009000  0.116000  1.0  -0.263
  F  F780  1  0.224800  0.603800  0.092000  1.0  -0.2472
  F  F781  1  0.264800  0.597700  0.202000  1.0  -0.27
  F  F782  1  0.266100  0.556700  0.092000  1.0  -0.2822
  F  F783  1  0.273600  0.604800  0.459400  1.0  -0.2623
  F  F784  1  0.222200  0.577400  0.429300  1.0  -0.2694
  F  F785  1  0.248000  0.612000  0.335300  1.0  -0.2552
  F  F786  1  0.969900  0.434100  0.430800  1.0  -0.0481
  F  F787  1  0.218900  0.500500  0.456800  1.0  -0.3122
  F  F788  1  0.167500  0.467700  0.429100  1.0  -0.2126
  F  F789  1  0.221800  0.449800  0.372400  1.0  -0.2672
  F  F790  1  0.294600  0.445300  0.158000  1.0  -0.2429
  F  F791  1  0.238900  0.451900  0.201000  1.0  -0.2583
  F  F792  1  0.263000  0.491000  0.116000  1.0  -0.2614
