# generated using pymatgen
data_Zr3H16C36(OF2)12
_symmetry_space_group_name_H-M   'P 1'
_cell_length_a   34.91950000
_cell_length_b   34.91950000
_cell_length_c   12.05920000
_cell_angle_alpha   90.00000000
_cell_angle_beta   90.00000000
_cell_angle_gamma   90.00000000
_symmetry_Int_Tables_number   1
_chemical_formula_structural   Zr3H16C36(OF2)12
_chemical_formula_sum   'Zr24 H128 C288 O96 F192'
_cell_volume   14704.64455463
_cell_formula_units_Z   8
loop_
 _symmetry_equiv_pos_site_id
 _symmetry_equiv_pos_as_xyz
  1  'x, y, z'
loop_
 _atom_site_type_symbol
 _atom_site_label
 _atom_site_symmetry_multiplicity
 _atom_site_fract_x
 _atom_site_fract_y
 _atom_site_fract_z
 _atom_site_occupancy
 _atom_site_charge
  Zr  Zr1  1  0.049730  0.549730  0.500000  1.0  2.1963
  Zr  Zr2  1  0.450270  0.950270  0.500000  1.0  2.1962
  Zr  Zr3  1  0.950270  0.049730  0.000000  1.0  2.1958
  Zr  Zr4  1  0.549730  0.450270  0.000000  1.0  2.1968
  Zr  Zr5  1  0.950270  0.450270  0.500000  1.0  2.1975
  Zr  Zr6  1  0.549730  0.049730  0.500000  1.0  2.1976
  Zr  Zr7  1  0.049730  0.950270  0.000000  1.0  2.198
  Zr  Zr8  1  0.450270  0.549730  0.000000  1.0  2.1972
  Zr  Zr9  1  0.045100  0.454900  0.404980  1.0  2.136
  Zr  Zr10  1  0.023150  0.476850  0.684170  1.0  2.1362
  Zr  Zr11  1  0.454900  0.045100  0.404980  1.0  2.1401
  Zr  Zr12  1  0.476850  0.023150  0.684170  1.0  2.1365
  Zr  Zr13  1  0.045100  0.045100  0.904980  1.0  2.137
  Zr  Zr14  1  0.023150  0.023150  0.184170  1.0  2.1372
  Zr  Zr15  1  0.454900  0.454900  0.904980  1.0  2.1396
  Zr  Zr16  1  0.476850  0.476850  0.184170  1.0  2.1357
  Zr  Zr17  1  0.954900  0.954900  0.095020  1.0  2.1395
  Zr  Zr18  1  0.976850  0.976850  0.815830  1.0  2.1363
  Zr  Zr19  1  0.545100  0.545100  0.095020  1.0  2.138
  Zr  Zr20  1  0.523150  0.523150  0.815830  1.0  2.1365
  Zr  Zr21  1  0.954900  0.545100  0.595020  1.0  2.1408
  Zr  Zr22  1  0.976850  0.523150  0.315830  1.0  2.1367
  Zr  Zr23  1  0.545100  0.954900  0.595020  1.0  2.1357
  Zr  Zr24  1  0.523150  0.976850  0.315830  1.0  2.1361
  H  H25  1  0.129200  0.500700  0.896900  1.0  0.1967
  H  H26  1  0.223600  0.553400  0.676500  1.0  0.4063
  H  H27  1  0.159800  0.557200  0.624300  1.0  0.1966
  H  H28  1  0.332300  0.566700  0.918200  1.0  0.1865
  H  H29  1  0.328600  0.458300  0.817500  1.0  0.2118
  H  H30  1  0.262200  0.464800  0.783000  1.0  0.3052
  H  H31  1  0.193500  0.495200  0.952600  1.0  0.3498
  H  H32  1  0.267000  0.574600  0.897000  1.0  0.2465
  H  H33  1  0.370800  0.999300  0.896900  1.0  0.1965
  H  H34  1  0.276400  0.946600  0.676500  1.0  0.403
  H  H35  1  0.340200  0.942800  0.624300  1.0  0.1966
  H  H36  1  0.167700  0.933300  0.918200  1.0  0.1856
  H  H37  1  0.171400  0.041700  0.817500  1.0  0.2112
  H  H38  1  0.237800  0.035200  0.783000  1.0  0.3047
  H  H39  1  0.306500  0.004800  0.952600  1.0  0.3472
  H  H40  1  0.233000  0.925400  0.897000  1.0  0.2459
  H  H41  1  0.999300  0.129200  0.396900  1.0  0.1966
  H  H42  1  0.946600  0.223600  0.176500  1.0  0.4052
  H  H43  1  0.942800  0.159800  0.124300  1.0  0.1967
  H  H44  1  0.933300  0.332300  0.418200  1.0  0.1858
  H  H45  1  0.041700  0.328600  0.317500  1.0  0.2113
  H  H46  1  0.035200  0.262200  0.283000  1.0  0.3051
  H  H47  1  0.004800  0.193500  0.452600  1.0  0.3489
  H  H48  1  0.925400  0.267000  0.397000  1.0  0.246
  H  H49  1  0.500700  0.370800  0.396900  1.0  0.1967
  H  H50  1  0.553400  0.276400  0.176500  1.0  0.407
  H  H51  1  0.557200  0.340200  0.124300  1.0  0.1959
  H  H52  1  0.566700  0.167700  0.418200  1.0  0.1864
  H  H53  1  0.458300  0.171400  0.317500  1.0  0.2106
  H  H54  1  0.464800  0.237800  0.283000  1.0  0.3078
  H  H55  1  0.495200  0.306500  0.452600  1.0  0.3453
  H  H56  1  0.574600  0.233000  0.397000  1.0  0.2455
  H  H57  1  0.870800  0.000700  0.603100  1.0  0.1969
  H  H58  1  0.776400  0.053400  0.823500  1.0  0.4031
  H  H59  1  0.840200  0.057200  0.875700  1.0  0.1956
  H  H60  1  0.667700  0.066700  0.581800  1.0  0.186
  H  H61  1  0.671400  0.958300  0.682500  1.0  0.2107
  H  H62  1  0.737800  0.964800  0.717000  1.0  0.3027
  H  H63  1  0.806500  0.995200  0.547400  1.0  0.3469
  H  H64  1  0.733000  0.074600  0.603000  1.0  0.2459
  H  H65  1  0.629200  0.499300  0.603100  1.0  0.1971
  H  H66  1  0.723600  0.446600  0.823500  1.0  0.4022
  H  H67  1  0.659800  0.442800  0.875700  1.0  0.1966
  H  H68  1  0.832300  0.433300  0.581800  1.0  0.1861
  H  H69  1  0.828600  0.541700  0.682500  1.0  0.2108
  H  H70  1  0.762200  0.535200  0.717000  1.0  0.3079
  H  H71  1  0.693500  0.504800  0.547400  1.0  0.3478
  H  H72  1  0.767000  0.425400  0.603000  1.0  0.2454
  H  H73  1  0.000700  0.629200  0.103100  1.0  0.1968
  H  H74  1  0.053400  0.723600  0.323500  1.0  0.4036
  H  H75  1  0.057200  0.659800  0.375700  1.0  0.1952
  H  H76  1  0.066700  0.832300  0.081800  1.0  0.1868
  H  H77  1  0.958300  0.828600  0.182500  1.0  0.2112
  H  H78  1  0.964800  0.762200  0.217000  1.0  0.3066
  H  H79  1  0.995200  0.693500  0.047400  1.0  0.3484
  H  H80  1  0.074600  0.767000  0.103000  1.0  0.2451
  H  H81  1  0.499300  0.870800  0.103100  1.0  0.1973
  H  H82  1  0.446600  0.776400  0.323500  1.0  0.4041
  H  H83  1  0.442800  0.840200  0.375700  1.0  0.1955
  H  H84  1  0.433300  0.667700  0.081800  1.0  0.1852
  H  H85  1  0.541700  0.671400  0.182500  1.0  0.2112
  H  H86  1  0.535200  0.737800  0.217000  1.0  0.306
  H  H87  1  0.504800  0.806500  0.047400  1.0  0.345
  H  H88  1  0.425400  0.733000  0.103000  1.0  0.2469
  H  H89  1  0.870800  0.499300  0.103100  1.0  0.197
  H  H90  1  0.776400  0.446600  0.323500  1.0  0.4019
  H  H91  1  0.840200  0.442800  0.375700  1.0  0.1958
  H  H92  1  0.667700  0.433300  0.081800  1.0  0.1855
  H  H93  1  0.671400  0.541700  0.182500  1.0  0.2116
  H  H94  1  0.737800  0.535200  0.217000  1.0  0.3053
  H  H95  1  0.806500  0.504800  0.047400  1.0  0.3472
  H  H96  1  0.733000  0.425400  0.103000  1.0  0.245
  H  H97  1  0.629200  0.000700  0.103100  1.0  0.1971
  H  H98  1  0.723600  0.053400  0.323500  1.0  0.4038
  H  H99  1  0.659800  0.057200  0.375700  1.0  0.1956
  H  H100  1  0.832300  0.066700  0.081800  1.0  0.1862
  H  H101  1  0.828600  0.958300  0.182500  1.0  0.2117
  H  H102  1  0.762200  0.964800  0.217000  1.0  0.305
  H  H103  1  0.693500  0.995200  0.047400  1.0  0.3473
  H  H104  1  0.767000  0.074600  0.103000  1.0  0.2467
  H  H105  1  0.000700  0.870800  0.603100  1.0  0.1975
  H  H106  1  0.053400  0.776400  0.823500  1.0  0.4052
  H  H107  1  0.057200  0.840200  0.875700  1.0  0.1949
  H  H108  1  0.066700  0.667700  0.581800  1.0  0.1866
  H  H109  1  0.958300  0.671400  0.682500  1.0  0.2107
  H  H110  1  0.964800  0.737800  0.717000  1.0  0.308
  H  H111  1  0.995200  0.806500  0.547400  1.0  0.3452
  H  H112  1  0.074600  0.733000  0.603000  1.0  0.2458
  H  H113  1  0.499300  0.629200  0.603100  1.0  0.1974
  H  H114  1  0.446600  0.723600  0.823500  1.0  0.4036
  H  H115  1  0.442800  0.659800  0.875700  1.0  0.1961
  H  H116  1  0.433300  0.832300  0.581800  1.0  0.1855
  H  H117  1  0.541700  0.828600  0.682500  1.0  0.2112
  H  H118  1  0.535200  0.762200  0.717000  1.0  0.305
  H  H119  1  0.504800  0.693500  0.547400  1.0  0.347
  H  H120  1  0.425400  0.767000  0.603000  1.0  0.246
  H  H121  1  0.129200  0.999300  0.396900  1.0  0.1965
  H  H122  1  0.223600  0.946600  0.176500  1.0  0.4036
  H  H123  1  0.159800  0.942800  0.124300  1.0  0.1972
  H  H124  1  0.332300  0.933300  0.418200  1.0  0.186
  H  H125  1  0.328600  0.041700  0.317500  1.0  0.2105
  H  H126  1  0.262200  0.035200  0.283000  1.0  0.3076
  H  H127  1  0.193500  0.004800  0.452600  1.0  0.3492
  H  H128  1  0.267000  0.925400  0.397000  1.0  0.2456
  H  H129  1  0.370800  0.500700  0.396900  1.0  0.1964
  H  H130  1  0.276400  0.553400  0.176500  1.0  0.4051
  H  H131  1  0.340200  0.557200  0.124300  1.0  0.1965
  H  H132  1  0.167700  0.566700  0.418200  1.0  0.1864
  H  H133  1  0.171400  0.458300  0.317500  1.0  0.2105
  H  H134  1  0.237800  0.464800  0.283000  1.0  0.3032
  H  H135  1  0.306500  0.495200  0.452600  1.0  0.3478
  H  H136  1  0.233000  0.574600  0.397000  1.0  0.2461
  H  H137  1  0.999300  0.370800  0.896900  1.0  0.1966
  H  H138  1  0.946600  0.276400  0.676500  1.0  0.4049
  H  H139  1  0.942800  0.340200  0.624300  1.0  0.1965
  H  H140  1  0.933300  0.167700  0.918200  1.0  0.1853
  H  H141  1  0.041700  0.171400  0.817500  1.0  0.2112
  H  H142  1  0.035200  0.237800  0.783000  1.0  0.3055
  H  H143  1  0.004800  0.306500  0.952600  1.0  0.3451
  H  H144  1  0.925400  0.233000  0.897000  1.0  0.246
  H  H145  1  0.500700  0.129200  0.896900  1.0  0.1961
  H  H146  1  0.553400  0.223600  0.676500  1.0  0.4058
  H  H147  1  0.557200  0.159800  0.624300  1.0  0.1959
  H  H148  1  0.566700  0.332300  0.918200  1.0  0.1869
  H  H149  1  0.458300  0.328600  0.817500  1.0  0.2113
  H  H150  1  0.464800  0.262200  0.783000  1.0  0.3072
  H  H151  1  0.495200  0.193500  0.952600  1.0  0.3501
  H  H152  1  0.574600  0.267000  0.897000  1.0  0.2452
  C  C153  1  0.097800  0.531600  0.716100  1.0  0.8312
  C  C154  1  0.138800  0.530000  0.756300  1.0  -0.0296
  C  C155  1  0.148800  0.511500  0.852000  1.0  0.0057
  C  C156  1  0.187000  0.508000  0.885700  1.0  -0.0307
  C  C157  1  0.215000  0.523700  0.818700  1.0  0.098
  C  C158  1  0.204400  0.542300  0.722300  1.0  -0.0309
  C  C159  1  0.166500  0.544800  0.691800  1.0  -0.0066
  C  C160  1  0.196300  0.487500  0.985300  1.0  0.085
  C  C161  1  0.256700  0.520200  0.840500  1.0  0.1224
  C  C162  1  0.278600  0.550800  0.879500  1.0  0.0181
  C  C163  1  0.317700  0.545600  0.892100  1.0  -0.0042
  C  C164  1  0.336700  0.513000  0.870400  1.0  -0.0324
  C  C165  1  0.316100  0.481900  0.831800  1.0  -0.1178
  C  C166  1  0.276100  0.485700  0.813600  1.0  -0.0028
  C  C167  1  0.261600  0.587100  0.908900  1.0  0.061
  C  C168  1  0.378000  0.509800  0.889000  1.0  0.7794
  C  C169  1  0.254400  0.451100  0.794000  1.0  0.0535
  C  C170  1  0.234500  0.554000  0.644000  1.0  0.0937
  C  C171  1  0.402200  0.968400  0.716100  1.0  0.8302
  C  C172  1  0.361200  0.970000  0.756300  1.0  -0.0271
  C  C173  1  0.351200  0.988500  0.852000  1.0  0.0036
  C  C174  1  0.313000  0.992000  0.885700  1.0  -0.0299
  C  C175  1  0.285000  0.976300  0.818700  1.0  0.0979
  C  C176  1  0.295600  0.957700  0.722300  1.0  -0.0272
  C  C177  1  0.333500  0.955200  0.691800  1.0  -0.0077
  C  C178  1  0.303700  0.012500  0.985300  1.0  0.0817
  C  C179  1  0.243300  0.979800  0.840500  1.0  0.1241
  C  C180  1  0.221400  0.949200  0.879500  1.0  0.0159
  C  C181  1  0.182300  0.954400  0.892100  1.0  -0.0076
  C  C182  1  0.163300  0.987000  0.870400  1.0  -0.0339
  C  C183  1  0.183900  0.018100  0.831800  1.0  -0.1197
  C  C184  1  0.223900  0.014300  0.813600  1.0  -0.0053
  C  C185  1  0.238400  0.912900  0.908900  1.0  0.0622
  C  C186  1  0.122000  0.990200  0.889000  1.0  0.7794
  C  C187  1  0.245600  0.048900  0.794000  1.0  0.0508
  C  C188  1  0.265500  0.946000  0.644000  1.0  0.0964
  C  C189  1  0.968400  0.097800  0.216100  1.0  0.8304
  C  C190  1  0.970000  0.138800  0.256300  1.0  -0.0275
  C  C191  1  0.988500  0.148800  0.352000  1.0  -0.0039
  C  C192  1  0.992000  0.187000  0.385700  1.0  -0.0289
  C  C193  1  0.976300  0.215000  0.318700  1.0  0.1012
  C  C194  1  0.957700  0.204400  0.222300  1.0  -0.03
  C  C195  1  0.955200  0.166500  0.191800  1.0  -0.0077
  C  C196  1  0.012500  0.196300  0.485300  1.0  0.0848
  C  C197  1  0.979800  0.256700  0.340500  1.0  0.1247
  C  C198  1  0.949200  0.278600  0.379500  1.0  0.0214
  C  C199  1  0.954400  0.317700  0.392100  1.0  -0.0063
  C  C200  1  0.987000  0.336700  0.370400  1.0  -0.03
  C  C201  1  0.018100  0.316100  0.331800  1.0  -0.1178
  C  C202  1  0.014300  0.276100  0.313600  1.0  0.0039
  C  C203  1  0.912900  0.261600  0.408900  1.0  0.058
  C  C204  1  0.990200  0.378000  0.389000  1.0  0.7791
  C  C205  1  0.048900  0.254400  0.294000  1.0  0.0485
  C  C206  1  0.946000  0.234500  0.144000  1.0  0.0972
  C  C207  1  0.531600  0.402200  0.216100  1.0  0.8301
  C  C208  1  0.530000  0.361200  0.256300  1.0  -0.0283
  C  C209  1  0.511500  0.351200  0.352000  1.0  0.0028
  C  C210  1  0.508000  0.313000  0.385700  1.0  -0.0311
  C  C211  1  0.523700  0.285000  0.318700  1.0  0.1001
  C  C212  1  0.542300  0.295600  0.222300  1.0  -0.0344
  C  C213  1  0.544800  0.333500  0.191800  1.0  -0.0084
  C  C214  1  0.487500  0.303700  0.485300  1.0  0.0849
  C  C215  1  0.520200  0.243300  0.340500  1.0  0.1245
  C  C216  1  0.550800  0.221400  0.379500  1.0  0.0189
  C  C217  1  0.545600  0.182300  0.392100  1.0  -0.01
  C  C218  1  0.513000  0.163300  0.370400  1.0  -0.0312
  C  C219  1  0.481900  0.183900  0.331800  1.0  -0.1213
  C  C220  1  0.485700  0.223900  0.313600  1.0  -0.0019
  C  C221  1  0.587100  0.238400  0.408900  1.0  0.0562
  C  C222  1  0.509800  0.122000  0.389000  1.0  0.7796
  C  C223  1  0.451100  0.245600  0.294000  1.0  0.048
  C  C224  1  0.554000  0.265500  0.144000  1.0  0.0945
  C  C225  1  0.902200  0.031600  0.783900  1.0  0.8301
  C  C226  1  0.861200  0.030000  0.743700  1.0  -0.0272
  C  C227  1  0.851200  0.011500  0.648000  1.0  0.0036
  C  C228  1  0.813000  0.008000  0.614300  1.0  -0.0297
  C  C229  1  0.785000  0.023700  0.681300  1.0  0.0988
  C  C230  1  0.795600  0.042300  0.777700  1.0  -0.0257
  C  C231  1  0.833500  0.044800  0.808200  1.0  -0.0073
  C  C232  1  0.803700  0.987500  0.514700  1.0  0.0877
  C  C233  1  0.743300  0.020200  0.659500  1.0  0.1239
  C  C234  1  0.721400  0.050800  0.620500  1.0  0.0169
  C  C235  1  0.682300  0.045600  0.607900  1.0  -0.006
  C  C236  1  0.663300  0.013000  0.629600  1.0  -0.0345
  C  C237  1  0.683900  0.981900  0.668200  1.0  -0.1199
  C  C238  1  0.723900  0.985700  0.686400  1.0  -0.0047
  C  C239  1  0.738400  0.087100  0.591100  1.0  0.0609
  C  C240  1  0.622000  0.009800  0.611000  1.0  0.7781
  C  C241  1  0.745600  0.951100  0.706000  1.0  0.0513
  C  C242  1  0.765500  0.054000  0.856000  1.0  0.0944
  C  C243  1  0.597800  0.468400  0.783900  1.0  0.8319
  C  C244  1  0.638800  0.470000  0.743700  1.0  -0.03
  C  C245  1  0.648800  0.488500  0.648000  1.0  0.0057
  C  C246  1  0.687000  0.492000  0.614300  1.0  -0.0361
  C  C247  1  0.715000  0.476300  0.681300  1.0  0.0979
  C  C248  1  0.704400  0.457700  0.777700  1.0  -0.0292
  C  C249  1  0.666500  0.455200  0.808200  1.0  -0.006
  C  C250  1  0.696300  0.512500  0.514700  1.0  0.087
  C  C251  1  0.756700  0.479800  0.659500  1.0  0.1229
  C  C252  1  0.778600  0.449200  0.620500  1.0  0.0181
  C  C253  1  0.817700  0.454400  0.607900  1.0  -0.0046
  C  C254  1  0.836700  0.487000  0.629600  1.0  -0.0338
  C  C255  1  0.816100  0.518100  0.668200  1.0  -0.1215
  C  C256  1  0.776100  0.514300  0.686400  1.0  -0.0035
  C  C257  1  0.761600  0.412900  0.591100  1.0  0.0637
  C  C258  1  0.878000  0.490200  0.611000  1.0  0.7784
  C  C259  1  0.754400  0.548900  0.706000  1.0  0.0517
  C  C260  1  0.734500  0.446000  0.856000  1.0  0.0927
  C  C261  1  0.031600  0.597800  0.283900  1.0  0.8301
  C  C262  1  0.030000  0.638800  0.243700  1.0  -0.0286
  C  C263  1  0.011500  0.648800  0.148000  1.0  -0.0015
  C  C264  1  0.008000  0.687000  0.114300  1.0  -0.0328
  C  C265  1  0.023700  0.715000  0.181300  1.0  0.102
  C  C266  1  0.042300  0.704400  0.277700  1.0  -0.0302
  C  C267  1  0.044800  0.666500  0.308200  1.0  -0.0102
  C  C268  1  0.987500  0.696300  0.014700  1.0  0.0892
  C  C269  1  0.020200  0.756700  0.159500  1.0  0.1243
  C  C270  1  0.050800  0.778600  0.120500  1.0  0.0203
  C  C271  1  0.045600  0.817700  0.107900  1.0  -0.0064
  C  C272  1  0.013000  0.836700  0.129600  1.0  -0.0309
  C  C273  1  0.981900  0.816100  0.168200  1.0  -0.1216
  C  C274  1  0.985700  0.776100  0.186400  1.0  -0.0018
  C  C275  1  0.087100  0.761600  0.091100  1.0  0.0577
  C  C276  1  0.009800  0.878000  0.111000  1.0  0.7783
  C  C277  1  0.951100  0.754400  0.206000  1.0  0.047
  C  C278  1  0.054000  0.734500  0.356000  1.0  0.0945
  C  C279  1  0.468400  0.902200  0.283900  1.0  0.8302
  C  C280  1  0.470000  0.861200  0.243700  1.0  -0.0294
  C  C281  1  0.488500  0.851200  0.148000  1.0  0.0013
  C  C282  1  0.492000  0.813000  0.114300  1.0  -0.0322
  C  C283  1  0.476300  0.785000  0.181300  1.0  0.1001
  C  C284  1  0.457700  0.795600  0.277700  1.0  -0.0338
  C  C285  1  0.455200  0.833500  0.308200  1.0  -0.0065
  C  C286  1  0.512500  0.803700  0.014700  1.0  0.0856
  C  C287  1  0.479800  0.743300  0.159500  1.0  0.1249
  C  C288  1  0.449200  0.721400  0.120500  1.0  0.0205
  C  C289  1  0.454400  0.682300  0.107900  1.0  -0.009
  C  C290  1  0.487000  0.663300  0.129600  1.0  -0.0307
  C  C291  1  0.518100  0.683900  0.168200  1.0  -0.118
  C  C292  1  0.514300  0.723900  0.186400  1.0  0.0024
  C  C293  1  0.412900  0.738400  0.091100  1.0  0.0574
  C  C294  1  0.490200  0.622000  0.111000  1.0  0.7791
  C  C295  1  0.548900  0.745600  0.206000  1.0  0.0488
  C  C296  1  0.446000  0.765500  0.356000  1.0  0.0967
  C  C297  1  0.902200  0.468400  0.283900  1.0  0.8299
  C  C298  1  0.861200  0.470000  0.243700  1.0  -0.0268
  C  C299  1  0.851200  0.488500  0.148000  1.0  0.0028
  C  C300  1  0.813000  0.492000  0.114300  1.0  -0.0305
  C  C301  1  0.785000  0.476300  0.181300  1.0  0.0984
  C  C302  1  0.795600  0.457700  0.277700  1.0  -0.0261
  C  C303  1  0.833500  0.455200  0.308200  1.0  -0.0077
  C  C304  1  0.803700  0.512500  0.014700  1.0  0.0848
  C  C305  1  0.743300  0.479800  0.159500  1.0  0.124
  C  C306  1  0.721400  0.449200  0.120500  1.0  0.0164
  C  C307  1  0.682300  0.454400  0.107900  1.0  -0.0077
  C  C308  1  0.663300  0.487000  0.129600  1.0  -0.0345
  C  C309  1  0.683900  0.518100  0.168200  1.0  -0.1211
  C  C310  1  0.723900  0.514300  0.186400  1.0  -0.006
  C  C311  1  0.738400  0.412900  0.091100  1.0  0.0627
  C  C312  1  0.622000  0.490200  0.111000  1.0  0.778
  C  C313  1  0.745600  0.548900  0.206000  1.0  0.0508
  C  C314  1  0.765500  0.446000  0.356000  1.0  0.0974
  C  C315  1  0.597800  0.031600  0.283900  1.0  0.8322
  C  C316  1  0.638800  0.030000  0.243700  1.0  -0.03
  C  C317  1  0.648800  0.011500  0.148000  1.0  0.0062
  C  C318  1  0.687000  0.008000  0.114300  1.0  -0.0347
  C  C319  1  0.715000  0.023700  0.181300  1.0  0.0982
  C  C320  1  0.704400  0.042300  0.277700  1.0  -0.0284
  C  C321  1  0.666500  0.044800  0.308200  1.0  -0.006
  C  C322  1  0.696300  0.987500  0.014700  1.0  0.0895
  C  C323  1  0.756700  0.020200  0.159500  1.0  0.1227
  C  C324  1  0.778600  0.050800  0.120500  1.0  0.0178
  C  C325  1  0.817700  0.045600  0.107900  1.0  -0.0035
  C  C326  1  0.836700  0.013000  0.129600  1.0  -0.0335
  C  C327  1  0.816100  0.981900  0.168200  1.0  -0.1183
  C  C328  1  0.776100  0.985700  0.186400  1.0  -0.0025
  C  C329  1  0.761600  0.087100  0.091100  1.0  0.0613
  C  C330  1  0.878000  0.009800  0.111000  1.0  0.7787
  C  C331  1  0.754400  0.951100  0.206000  1.0  0.0531
  C  C332  1  0.734500  0.054000  0.356000  1.0  0.0938
  C  C333  1  0.031600  0.902200  0.783900  1.0  0.8305
  C  C334  1  0.030000  0.861200  0.743700  1.0  -0.0289
  C  C335  1  0.011500  0.851200  0.648000  1.0  0.0029
  C  C336  1  0.008000  0.813000  0.614300  1.0  -0.0339
  C  C337  1  0.023700  0.785000  0.681300  1.0  0.1003
  C  C338  1  0.042300  0.795600  0.777700  1.0  -0.0336
  C  C339  1  0.044800  0.833500  0.808200  1.0  -0.0091
  C  C340  1  0.987500  0.803700  0.514700  1.0  0.0878
  C  C341  1  0.020200  0.743300  0.659500  1.0  0.1245
  C  C342  1  0.050800  0.721400  0.620500  1.0  0.0181
  C  C343  1  0.045600  0.682300  0.607900  1.0  -0.009
  C  C344  1  0.013000  0.663300  0.629600  1.0  -0.0312
  C  C345  1  0.981900  0.683900  0.668200  1.0  -0.1213
  C  C346  1  0.985700  0.723900  0.686400  1.0  -0.0019
  C  C347  1  0.087100  0.738400  0.591100  1.0  0.0562
  C  C348  1  0.009800  0.622000  0.611000  1.0  0.7789
  C  C349  1  0.951100  0.745600  0.706000  1.0  0.0485
  C  C350  1  0.054000  0.765500  0.856000  1.0  0.0965
  C  C351  1  0.468400  0.597800  0.783900  1.0  0.8297
  C  C352  1  0.470000  0.638800  0.743700  1.0  -0.0288
  C  C353  1  0.488500  0.648800  0.648000  1.0  -0.0034
  C  C354  1  0.492000  0.687000  0.614300  1.0  -0.0315
  C  C355  1  0.476300  0.715000  0.681300  1.0  0.1016
  C  C356  1  0.457700  0.704400  0.777700  1.0  -0.0303
  C  C357  1  0.455200  0.666500  0.808200  1.0  -0.0072
  C  C358  1  0.512500  0.696300  0.514700  1.0  0.0879
  C  C359  1  0.479800  0.756700  0.659500  1.0  0.1247
  C  C360  1  0.449200  0.778600  0.620500  1.0  0.0214
  C  C361  1  0.454400  0.817700  0.607900  1.0  -0.0055
  C  C362  1  0.487000  0.836700  0.629600  1.0  -0.0304
  C  C363  1  0.518100  0.816100  0.668200  1.0  -0.1187
  C  C364  1  0.514300  0.776100  0.686400  1.0  0.004
  C  C365  1  0.412900  0.761600  0.591100  1.0  0.0582
  C  C366  1  0.490200  0.878000  0.611000  1.0  0.7775
  C  C367  1  0.548900  0.754400  0.706000  1.0  0.0475
  C  C368  1  0.446000  0.734500  0.856000  1.0  0.097
  C  C369  1  0.097800  0.968400  0.216100  1.0  0.8312
  C  C370  1  0.138800  0.970000  0.256300  1.0  -0.0294
  C  C371  1  0.148800  0.988500  0.352000  1.0  0.0053
  C  C372  1  0.187000  0.992000  0.385700  1.0  -0.0314
  C  C373  1  0.215000  0.976300  0.318700  1.0  0.0977
  C  C374  1  0.204400  0.957700  0.222300  1.0  -0.0315
  C  C375  1  0.166500  0.955200  0.191800  1.0  -0.0067
  C  C376  1  0.196300  0.012500  0.485300  1.0  0.0798
  C  C377  1  0.256700  0.979800  0.340500  1.0  0.1227
  C  C378  1  0.278600  0.949200  0.379500  1.0  0.0183
  C  C379  1  0.317700  0.954400  0.392100  1.0  -0.0054
  C  C380  1  0.336700  0.987000  0.370400  1.0  -0.033
  C  C381  1  0.316100  0.018100  0.331800  1.0  -0.1207
  C  C382  1  0.276100  0.014300  0.313600  1.0  -0.0027
  C  C383  1  0.261600  0.912900  0.408900  1.0  0.0635
  C  C384  1  0.378000  0.990200  0.389000  1.0  0.7794
  C  C385  1  0.254400  0.048900  0.294000  1.0  0.0518
  C  C386  1  0.234500  0.946000  0.144000  1.0  0.0957
  C  C387  1  0.402200  0.531600  0.216100  1.0  0.8304
  C  C388  1  0.361200  0.530000  0.256300  1.0  -0.0274
  C  C389  1  0.351200  0.511500  0.352000  1.0  0.0041
  C  C390  1  0.313000  0.508000  0.385700  1.0  -0.0295
  C  C391  1  0.285000  0.523700  0.318700  1.0  0.0983
  C  C392  1  0.295600  0.542300  0.222300  1.0  -0.0267
  C  C393  1  0.333500  0.544800  0.191800  1.0  -0.007
  C  C394  1  0.303700  0.487500  0.485300  1.0  0.0849
  C  C395  1  0.243300  0.520200  0.340500  1.0  0.1239
  C  C396  1  0.221400  0.550800  0.379500  1.0  0.0166
  C  C397  1  0.182300  0.545600  0.392100  1.0  -0.0058
  C  C398  1  0.163300  0.513000  0.370400  1.0  -0.0341
  C  C399  1  0.183900  0.481900  0.331800  1.0  -0.1192
  C  C400  1  0.223900  0.485700  0.313600  1.0  -0.0053
  C  C401  1  0.238400  0.587100  0.408900  1.0  0.061
  C  C402  1  0.122000  0.509800  0.389000  1.0  0.7793
  C  C403  1  0.245600  0.451100  0.294000  1.0  0.0518
  C  C404  1  0.265500  0.554000  0.144000  1.0  0.0973
  C  C405  1  0.968400  0.402200  0.716100  1.0  0.8299
  C  C406  1  0.970000  0.361200  0.756300  1.0  -0.0283
  C  C407  1  0.988500  0.351200  0.852000  1.0  0.0018
  C  C408  1  0.992000  0.313000  0.885700  1.0  -0.028
  C  C409  1  0.976300  0.285000  0.818700  1.0  0.0998
  C  C410  1  0.957700  0.295600  0.722300  1.0  -0.0339
  C  C411  1  0.955200  0.333500  0.691800  1.0  -0.0062
  C  C412  1  0.012500  0.303700  0.985300  1.0  0.0835
  C  C413  1  0.979800  0.243300  0.840500  1.0  0.1248
  C  C414  1  0.949200  0.221400  0.879500  1.0  0.0198
  C  C415  1  0.954400  0.182300  0.892100  1.0  -0.0099
  C  C416  1  0.987000  0.163300  0.870400  1.0  -0.0301
  C  C417  1  0.018100  0.183900  0.831800  1.0  -0.1178
  C  C418  1  0.014300  0.223900  0.813600  1.0  0.0022
  C  C419  1  0.912900  0.238400  0.908900  1.0  0.0574
  C  C420  1  0.990200  0.122000  0.889000  1.0  0.7795
  C  C421  1  0.048900  0.245600  0.794000  1.0  0.0497
  C  C422  1  0.946000  0.265500  0.644000  1.0  0.0985
  C  C423  1  0.531600  0.097800  0.716100  1.0  0.8308
  C  C424  1  0.530000  0.138800  0.756300  1.0  -0.0274
  C  C425  1  0.511500  0.148800  0.852000  1.0  -0.0025
  C  C426  1  0.508000  0.187000  0.885700  1.0  -0.0314
  C  C427  1  0.523700  0.215000  0.818700  1.0  0.1017
  C  C428  1  0.542300  0.204400  0.722300  1.0  -0.0315
  C  C429  1  0.544800  0.166500  0.691800  1.0  -0.0102
  C  C430  1  0.487500  0.196300  0.985300  1.0  0.0852
  C  C431  1  0.520200  0.256700  0.840500  1.0  0.1243
  C  C432  1  0.550800  0.278600  0.879500  1.0  0.0207
  C  C433  1  0.545600  0.317700  0.892100  1.0  -0.0073
  C  C434  1  0.513000  0.336700  0.870400  1.0  -0.0308
  C  C435  1  0.481900  0.316100  0.831800  1.0  -0.1205
  C  C436  1  0.485700  0.276100  0.813600  1.0  -0.0018
  C  C437  1  0.587100  0.261600  0.908900  1.0  0.0586
  C  C438  1  0.509800  0.378000  0.889000  1.0  0.78
  C  C439  1  0.451100  0.254400  0.794000  1.0  0.0469
  C  C440  1  0.554000  0.234500  0.644000  1.0  0.0975
  O  O441  1  0.090560  0.553770  0.638700  1.0  -0.5225
  O  O442  1  0.074220  0.507200  0.760500  1.0  -0.5786
  O  O443  1  0.394380  0.539760  0.927600  1.0  -0.5254
  O  O444  1  0.394710  0.478500  0.869600  1.0  -0.5878
  O  O445  1  0.989530  0.558500  0.456200  1.0  -1.0109
  O  O446  1  0.034630  0.513490  0.359000  1.0  -1.0155
  O  O447  1  0.409440  0.946230  0.638700  1.0  -0.5227
  O  O448  1  0.425780  0.992800  0.760500  1.0  -0.5766
  O  O449  1  0.105620  0.960240  0.927600  1.0  -0.5252
  O  O450  1  0.105290  0.021500  0.869600  1.0  -0.5859
  O  O451  1  0.510470  0.941500  0.456200  1.0  -1.0095
  O  O452  1  0.465370  0.986510  0.359000  1.0  -1.0148
  O  O453  1  0.946230  0.090560  0.138700  1.0  -0.5227
  O  O454  1  0.992800  0.074220  0.260500  1.0  -0.5771
  O  O455  1  0.960240  0.394380  0.427600  1.0  -0.5237
  O  O456  1  0.021500  0.394710  0.369600  1.0  -0.5923
  O  O457  1  0.941500  0.989530  0.956200  1.0  -1.0092
  O  O458  1  0.986510  0.034630  0.859000  1.0  -1.0155
  O  O459  1  0.553770  0.409440  0.138700  1.0  -0.5238
  O  O460  1  0.507200  0.425780  0.260500  1.0  -0.5788
  O  O461  1  0.539760  0.105620  0.427600  1.0  -0.5242
  O  O462  1  0.478500  0.105290  0.369600  1.0  -0.5928
  O  O463  1  0.558500  0.510470  0.956200  1.0  -1.0091
  O  O464  1  0.513490  0.465370  0.859000  1.0  -1.0148
  O  O465  1  0.909440  0.053770  0.861300  1.0  -0.5232
  O  O466  1  0.925780  0.007200  0.739500  1.0  -0.5781
  O  O467  1  0.605620  0.039760  0.572400  1.0  -0.5261
  O  O468  1  0.605290  0.978500  0.630400  1.0  -0.5866
  O  O469  1  0.010470  0.058500  0.043800  1.0  -1.0083
  O  O470  1  0.965370  0.013490  0.141000  1.0  -1.0148
  O  O471  1  0.590560  0.446230  0.861300  1.0  -0.5229
  O  O472  1  0.574220  0.492800  0.739500  1.0  -0.5825
  O  O473  1  0.894380  0.460240  0.572400  1.0  -0.5254
  O  O474  1  0.894710  0.521500  0.630400  1.0  -0.5858
  O  O475  1  0.489530  0.441500  0.043800  1.0  -1.0111
  O  O476  1  0.534630  0.486510  0.141000  1.0  -1.0136
  O  O477  1  0.053770  0.590560  0.361300  1.0  -0.5232
  O  O478  1  0.007200  0.574220  0.239500  1.0  -0.5805
  O  O479  1  0.039760  0.894380  0.072400  1.0  -0.5246
  O  O480  1  0.978500  0.894710  0.130400  1.0  -0.5922
  O  O481  1  0.058500  0.489530  0.543800  1.0  -1.0096
  O  O482  1  0.013490  0.534630  0.641000  1.0  -1.0148
  O  O483  1  0.446230  0.909440  0.361300  1.0  -0.5236
  O  O484  1  0.492800  0.925780  0.239500  1.0  -0.5813
  O  O485  1  0.460240  0.605620  0.072400  1.0  -0.5237
  O  O486  1  0.521500  0.605290  0.130400  1.0  -0.5933
  O  O487  1  0.441500  0.010470  0.543800  1.0  -1.0078
  O  O488  1  0.486510  0.965370  0.641000  1.0  -1.0142
  O  O489  1  0.909440  0.446230  0.361300  1.0  -0.5229
  O  O490  1  0.925780  0.492800  0.239500  1.0  -0.5793
  O  O491  1  0.605620  0.460240  0.072400  1.0  -0.5254
  O  O492  1  0.605290  0.521500  0.130400  1.0  -0.586
  O  O493  1  0.010470  0.441500  0.543800  1.0  -1.0095
  O  O494  1  0.965370  0.486510  0.641000  1.0  -1.0142
  O  O495  1  0.590560  0.053770  0.361300  1.0  -0.5233
  O  O496  1  0.574220  0.007200  0.239500  1.0  -0.5795
  O  O497  1  0.894380  0.039760  0.072400  1.0  -0.526
  O  O498  1  0.894710  0.978500  0.130400  1.0  -0.588
  O  O499  1  0.489530  0.058500  0.543800  1.0  -1.0101
  O  O500  1  0.534630  0.013490  0.641000  1.0  -1.0141
  O  O501  1  0.053770  0.909440  0.861300  1.0  -0.5239
  O  O502  1  0.007200  0.925780  0.739500  1.0  -0.5821
  O  O503  1  0.039760  0.605620  0.572400  1.0  -0.5247
  O  O504  1  0.978500  0.605290  0.630400  1.0  -0.5931
  O  O505  1  0.058500  0.010470  0.043800  1.0  -1.0083
  O  O506  1  0.013490  0.965370  0.141000  1.0  -1.0152
  O  O507  1  0.446230  0.590560  0.861300  1.0  -0.5232
  O  O508  1  0.492800  0.574220  0.739500  1.0  -0.5772
  O  O509  1  0.460240  0.894380  0.572400  1.0  -0.5239
  O  O510  1  0.521500  0.894710  0.630400  1.0  -0.5938
  O  O511  1  0.441500  0.489530  0.043800  1.0  -1.0093
  O  O512  1  0.486510  0.534630  0.141000  1.0  -1.0137
  O  O513  1  0.090560  0.946230  0.138700  1.0  -0.5228
  O  O514  1  0.074220  0.992800  0.260500  1.0  -0.5794
  O  O515  1  0.394380  0.960240  0.427600  1.0  -0.5252
  O  O516  1  0.394710  0.021500  0.369600  1.0  -0.5878
  O  O517  1  0.989530  0.941500  0.956200  1.0  -1.0112
  O  O518  1  0.034630  0.986510  0.859000  1.0  -1.0161
  O  O519  1  0.409440  0.553770  0.138700  1.0  -0.5225
  O  O520  1  0.425780  0.507200  0.260500  1.0  -0.578
  O  O521  1  0.105620  0.539760  0.427600  1.0  -0.5256
  O  O522  1  0.105290  0.478500  0.369600  1.0  -0.5888
  O  O523  1  0.510470  0.558500  0.956200  1.0  -1.0091
  O  O524  1  0.465370  0.513490  0.859000  1.0  -1.0144
  O  O525  1  0.946230  0.409440  0.638700  1.0  -0.5229
  O  O526  1  0.992800  0.425780  0.760500  1.0  -0.5783
  O  O527  1  0.960240  0.105620  0.927600  1.0  -0.5236
  O  O528  1  0.021500  0.105290  0.869600  1.0  -0.5946
  O  O529  1  0.941500  0.510470  0.456200  1.0  -1.0086
  O  O530  1  0.986510  0.465370  0.359000  1.0  -1.0151
  O  O531  1  0.553770  0.090560  0.638700  1.0  -0.5236
  O  O532  1  0.507200  0.074220  0.760500  1.0  -0.5794
  O  O533  1  0.539760  0.394380  0.927600  1.0  -0.524
  O  O534  1  0.478500  0.394710  0.869600  1.0  -0.594
  O  O535  1  0.558500  0.989530  0.456200  1.0  -1.0095
  O  O536  1  0.513490  0.034630  0.359000  1.0  -1.0149
  F  F537  1  0.167000  0.480300  0.053400  1.0  -0.2406
  F  F538  1  0.210400  0.451800  0.963800  1.0  -0.2383
  F  F539  1  0.223400  0.502700  0.047700  1.0  -0.2572
  F  F540  1  0.228570  0.586700  0.966700  1.0  -0.2663
  F  F541  1  0.252000  0.609700  0.821500  1.0  -0.2762
  F  F542  1  0.283900  0.611200  0.969400  1.0  -0.2731
  F  F543  1  0.228900  0.440800  0.874000  1.0  -0.3001
  F  F544  1  0.275500  0.418400  0.783000  1.0  -0.22
  F  F545  1  0.232600  0.449900  0.701000  1.0  -0.2769
  F  F546  1  0.264000  0.530000  0.643000  1.0  -0.2676
  F  F547  1  0.249000  0.588000  0.665000  1.0  -0.2542
  F  F548  1  0.223000  0.555000  0.539000  1.0  -0.1128
  F  F549  1  0.333000  0.019700  0.053400  1.0  -0.2503
  F  F550  1  0.289600  0.048200  0.963800  1.0  -0.2395
  F  F551  1  0.276600  0.997300  0.047700  1.0  -0.258
  F  F552  1  0.271430  0.913300  0.966700  1.0  -0.2639
  F  F553  1  0.248000  0.890300  0.821500  1.0  -0.2773
  F  F554  1  0.216100  0.888800  0.969400  1.0  -0.2738
  F  F555  1  0.271100  0.059200  0.874000  1.0  -0.2991
  F  F556  1  0.224500  0.081600  0.783000  1.0  -0.2158
  F  F557  1  0.267400  0.050100  0.701000  1.0  -0.285
  F  F558  1  0.236000  0.970000  0.643000  1.0  -0.259
  F  F559  1  0.251000  0.912000  0.665000  1.0  -0.2519
  F  F560  1  0.277000  0.945000  0.539000  1.0  -0.1127
  F  F561  1  0.019700  0.167000  0.553400  1.0  -0.2485
  F  F562  1  0.048200  0.210400  0.463800  1.0  -0.238
  F  F563  1  0.997300  0.223400  0.547700  1.0  -0.2584
  F  F564  1  0.913300  0.228570  0.466700  1.0  -0.274
  F  F565  1  0.890300  0.252000  0.321500  1.0  -0.264
  F  F566  1  0.888800  0.283900  0.469400  1.0  -0.2655
  F  F567  1  0.059200  0.228900  0.374000  1.0  -0.2935
  F  F568  1  0.081600  0.275500  0.283000  1.0  -0.2118
  F  F569  1  0.050100  0.232600  0.201000  1.0  -0.286
  F  F570  1  0.970000  0.264000  0.143000  1.0  -0.27
  F  F571  1  0.912000  0.249000  0.165000  1.0  -0.246
  F  F572  1  0.945000  0.223000  0.039000  1.0  -0.1086
  F  F573  1  0.480300  0.333000  0.553400  1.0  -0.2479
  F  F574  1  0.451800  0.289600  0.463800  1.0  -0.2321
  F  F575  1  0.502700  0.276600  0.547700  1.0  -0.2577
  F  F576  1  0.586700  0.271430  0.466700  1.0  -0.2764
  F  F577  1  0.609700  0.248000  0.321500  1.0  -0.2737
  F  F578  1  0.611200  0.216100  0.469400  1.0  -0.2652
  F  F579  1  0.440800  0.271100  0.374000  1.0  -0.2892
  F  F580  1  0.418400  0.224500  0.283000  1.0  -0.2145
  F  F581  1  0.449900  0.267400  0.201000  1.0  -0.2773
  F  F582  1  0.530000  0.236000  0.143000  1.0  -0.2675
  F  F583  1  0.588000  0.251000  0.165000  1.0  -0.2492
  F  F584  1  0.555000  0.277000  0.039000  1.0  -0.109
  F  F585  1  0.833000  0.980300  0.446600  1.0  -0.2476
  F  F586  1  0.789600  0.951800  0.536200  1.0  -0.2345
  F  F587  1  0.776600  0.002700  0.452300  1.0  -0.2591
  F  F588  1  0.771430  0.086700  0.533300  1.0  -0.2642
  F  F589  1  0.748000  0.109700  0.678500  1.0  -0.2752
  F  F590  1  0.716100  0.111200  0.530600  1.0  -0.2748
  F  F591  1  0.771100  0.940800  0.626000  1.0  -0.2995
  F  F592  1  0.724500  0.918400  0.717000  1.0  -0.2176
  F  F593  1  0.767400  0.949900  0.799000  1.0  -0.2853
  F  F594  1  0.736000  0.030000  0.857000  1.0  -0.2587
  F  F595  1  0.751000  0.088000  0.835000  1.0  -0.254
  F  F596  1  0.777000  0.055000  0.961000  1.0  -0.1142
  F  F597  1  0.667000  0.519700  0.446600  1.0  -0.2408
  F  F598  1  0.710400  0.548200  0.536200  1.0  -0.2423
  F  F599  1  0.723400  0.497300  0.452300  1.0  -0.2582
  F  F600  1  0.728570  0.413300  0.533300  1.0  -0.2676
  F  F601  1  0.752000  0.390300  0.678500  1.0  -0.2774
  F  F602  1  0.783900  0.388800  0.530600  1.0  -0.2743
  F  F603  1  0.728900  0.559200  0.626000  1.0  -0.2999
  F  F604  1  0.775500  0.581600  0.717000  1.0  -0.218
  F  F605  1  0.732600  0.550100  0.799000  1.0  -0.2761
  F  F606  1  0.764000  0.470000  0.857000  1.0  -0.2677
  F  F607  1  0.749000  0.412000  0.835000  1.0  -0.2529
  F  F608  1  0.723000  0.445000  0.961000  1.0  -0.1146
  F  F609  1  0.980300  0.667000  0.946600  1.0  -0.2462
  F  F610  1  0.951800  0.710400  0.036200  1.0  -0.2305
  F  F611  1  0.002700  0.723400  0.952300  1.0  -0.2595
  F  F612  1  0.086700  0.728570  0.033300  1.0  -0.2797
  F  F613  1  0.109700  0.752000  0.178500  1.0  -0.2739
  F  F614  1  0.111200  0.783900  0.030600  1.0  -0.2673
  F  F615  1  0.940800  0.728900  0.126000  1.0  -0.2887
  F  F616  1  0.918400  0.775500  0.217000  1.0  -0.2145
  F  F617  1  0.949900  0.732600  0.299000  1.0  -0.2768
  F  F618  1  0.030000  0.764000  0.357000  1.0  -0.2681
  F  F619  1  0.088000  0.749000  0.335000  1.0  -0.249
  F  F620  1  0.055000  0.723000  0.461000  1.0  -0.1107
  F  F621  1  0.519700  0.833000  0.946600  1.0  -0.2487
  F  F622  1  0.548200  0.789600  0.036200  1.0  -0.2414
  F  F623  1  0.497300  0.776600  0.952300  1.0  -0.2584
  F  F624  1  0.413300  0.771430  0.033300  1.0  -0.2706
  F  F625  1  0.390300  0.748000  0.178500  1.0  -0.2615
  F  F626  1  0.388800  0.716100  0.030600  1.0  -0.2656
  F  F627  1  0.559200  0.771100  0.126000  1.0  -0.2948
  F  F628  1  0.581600  0.724500  0.217000  1.0  -0.2112
  F  F629  1  0.550100  0.767400  0.299000  1.0  -0.2839
  F  F630  1  0.470000  0.736000  0.357000  1.0  -0.2683
  F  F631  1  0.412000  0.751000  0.335000  1.0  -0.2463
  F  F632  1  0.445000  0.777000  0.461000  1.0  -0.1102
  F  F633  1  0.833000  0.519700  0.946600  1.0  -0.2493
  F  F634  1  0.789600  0.548200  0.036200  1.0  -0.2401
  F  F635  1  0.776600  0.497300  0.952300  1.0  -0.2592
  F  F636  1  0.771430  0.413300  0.033300  1.0  -0.2649
  F  F637  1  0.748000  0.390300  0.178500  1.0  -0.2771
  F  F638  1  0.716100  0.388800  0.030600  1.0  -0.2752
  F  F639  1  0.771100  0.559200  0.126000  1.0  -0.2999
  F  F640  1  0.724500  0.581600  0.217000  1.0  -0.2158
  F  F641  1  0.767400  0.550100  0.299000  1.0  -0.2849
  F  F642  1  0.736000  0.470000  0.357000  1.0  -0.2589
  F  F643  1  0.751000  0.412000  0.335000  1.0  -0.2517
  F  F644  1  0.777000  0.445000  0.461000  1.0  -0.1143
  F  F645  1  0.667000  0.980300  0.946600  1.0  -0.2403
  F  F646  1  0.710400  0.951800  0.036200  1.0  -0.2377
  F  F647  1  0.723400  0.002700  0.952300  1.0  -0.2591
  F  F648  1  0.728570  0.086700  0.033300  1.0  -0.2659
  F  F649  1  0.752000  0.109700  0.178500  1.0  -0.2751
  F  F650  1  0.783900  0.111200  0.030600  1.0  -0.2756
  F  F651  1  0.728900  0.940800  0.126000  1.0  -0.2994
  F  F652  1  0.775500  0.918400  0.217000  1.0  -0.2199
  F  F653  1  0.732600  0.949900  0.299000  1.0  -0.2782
  F  F654  1  0.764000  0.030000  0.357000  1.0  -0.2674
  F  F655  1  0.749000  0.088000  0.335000  1.0  -0.2549
  F  F656  1  0.723000  0.055000  0.461000  1.0  -0.1147
  F  F657  1  0.980300  0.833000  0.446600  1.0  -0.2466
  F  F658  1  0.951800  0.789600  0.536200  1.0  -0.2312
  F  F659  1  0.002700  0.776600  0.452300  1.0  -0.2599
  F  F660  1  0.086700  0.771430  0.533300  1.0  -0.2765
  F  F661  1  0.109700  0.748000  0.678500  1.0  -0.2734
  F  F662  1  0.111200  0.716100  0.530600  1.0  -0.2668
  F  F663  1  0.940800  0.771100  0.626000  1.0  -0.2899
  F  F664  1  0.918400  0.724500  0.717000  1.0  -0.2146
  F  F665  1  0.949900  0.767400  0.799000  1.0  -0.2781
  F  F666  1  0.030000  0.736000  0.857000  1.0  -0.2672
  F  F667  1  0.088000  0.751000  0.835000  1.0  -0.2491
  F  F668  1  0.055000  0.777000  0.961000  1.0  -0.1107
  F  F669  1  0.519700  0.667000  0.446600  1.0  -0.2496
  F  F670  1  0.548200  0.710400  0.536200  1.0  -0.2393
  F  F671  1  0.497300  0.723400  0.452300  1.0  -0.2602
  F  F672  1  0.413300  0.728570  0.533300  1.0  -0.2751
  F  F673  1  0.390300  0.752000  0.678500  1.0  -0.2619
  F  F674  1  0.388800  0.783900  0.530600  1.0  -0.2673
  F  F675  1  0.559200  0.728900  0.626000  1.0  -0.294
  F  F676  1  0.581600  0.775500  0.717000  1.0  -0.2116
  F  F677  1  0.550100  0.732600  0.799000  1.0  -0.2865
  F  F678  1  0.470000  0.764000  0.857000  1.0  -0.2699
  F  F679  1  0.412000  0.749000  0.835000  1.0  -0.2465
  F  F680  1  0.445000  0.723000  0.961000  1.0  -0.1102
  F  F681  1  0.167000  0.019700  0.553400  1.0  -0.2406
  F  F682  1  0.210400  0.048200  0.463800  1.0  -0.2424
  F  F683  1  0.223400  0.997300  0.547700  1.0  -0.2581
  F  F684  1  0.228570  0.913300  0.466700  1.0  -0.2673
  F  F685  1  0.252000  0.890300  0.321500  1.0  -0.2775
  F  F686  1  0.283900  0.888800  0.469400  1.0  -0.2731
  F  F687  1  0.228900  0.059200  0.374000  1.0  -0.2989
  F  F688  1  0.275500  0.081600  0.283000  1.0  -0.2182
  F  F689  1  0.232600  0.050100  0.201000  1.0  -0.2748
  F  F690  1  0.264000  0.970000  0.143000  1.0  -0.2678
  F  F691  1  0.249000  0.912000  0.165000  1.0  -0.2528
  F  F692  1  0.223000  0.945000  0.039000  1.0  -0.1125
  F  F693  1  0.333000  0.480300  0.553400  1.0  -0.2496
  F  F694  1  0.289600  0.451800  0.463800  1.0  -0.2349
  F  F695  1  0.276600  0.502700  0.547700  1.0  -0.2598
  F  F696  1  0.271430  0.586700  0.466700  1.0  -0.2638
  F  F697  1  0.248000  0.609700  0.321500  1.0  -0.2766
  F  F698  1  0.216100  0.611200  0.469400  1.0  -0.2724
  F  F699  1  0.271100  0.440800  0.374000  1.0  -0.2999
  F  F700  1  0.224500  0.418400  0.283000  1.0  -0.2178
  F  F701  1  0.267400  0.449900  0.201000  1.0  -0.285
  F  F702  1  0.236000  0.530000  0.143000  1.0  -0.2588
  F  F703  1  0.251000  0.588000  0.165000  1.0  -0.2539
  F  F704  1  0.277000  0.555000  0.039000  1.0  -0.113
  F  F705  1  0.019700  0.333000  0.053400  1.0  -0.2507
  F  F706  1  0.048200  0.289600  0.963800  1.0  -0.2407
  F  F707  1  0.997300  0.276600  0.047700  1.0  -0.2585
  F  F708  1  0.913300  0.271430  0.966700  1.0  -0.2713
  F  F709  1  0.890300  0.248000  0.821500  1.0  -0.2624
  F  F710  1  0.888800  0.216100  0.969400  1.0  -0.2637
  F  F711  1  0.059200  0.271100  0.874000  1.0  -0.294
  F  F712  1  0.081600  0.224500  0.783000  1.0  -0.2113
  F  F713  1  0.050100  0.267400  0.701000  1.0  -0.284
  F  F714  1  0.970000  0.236000  0.643000  1.0  -0.2686
  F  F715  1  0.912000  0.251000  0.665000  1.0  -0.2463
  F  F716  1  0.945000  0.277000  0.539000  1.0  -0.1083
  F  F717  1  0.480300  0.167000  0.053400  1.0  -0.2454
  F  F718  1  0.451800  0.210400  0.963800  1.0  -0.2305
  F  F719  1  0.502700  0.223400  0.047700  1.0  -0.2598
  F  F720  1  0.586700  0.228570  0.966700  1.0  -0.278
  F  F721  1  0.609700  0.252000  0.821500  1.0  -0.2746
  F  F722  1  0.611200  0.283900  0.969400  1.0  -0.2652
  F  F723  1  0.440800  0.228900  0.874000  1.0  -0.2884
  F  F724  1  0.418400  0.275500  0.783000  1.0  -0.2144
  F  F725  1  0.449900  0.232600  0.701000  1.0  -0.2769
  F  F726  1  0.530000  0.264000  0.643000  1.0  -0.2682
  F  F727  1  0.588000  0.249000  0.665000  1.0  -0.2484
  F  F728  1  0.555000  0.223000  0.539000  1.0  -0.1093
