# generated using pymatgen
data_Co5P2H80W24C96(N16O31)2
_symmetry_space_group_name_H-M   'P 1'
_cell_length_a   27.24900000
_cell_length_b   27.42000000
_cell_length_c   25.18900000
_cell_angle_alpha   90.00000000
_cell_angle_beta   90.00000000
_cell_angle_gamma   90.00000000
_symmetry_Int_Tables_number   1
_chemical_formula_structural   Co5P2H80W24C96(N16O31)2
_chemical_formula_sum   'Co20 P8 H320 W96 C384 N128 O248'
_cell_volume   18820.40417262
_cell_formula_units_Z   4
loop_
 _symmetry_equiv_pos_site_id
 _symmetry_equiv_pos_as_xyz
  1  'x, y, z'
loop_
 _atom_site_type_symbol
 _atom_site_label
 _atom_site_symmetry_multiplicity
 _atom_site_fract_x
 _atom_site_fract_y
 _atom_site_fract_z
 _atom_site_occupancy
 _atom_site_charge
  Co  Co1  1  0.901500  0.910620  0.470690  1.0  0.8637
  Co  Co2  1  0.251130  0.716210  0.257600  1.0  0.86
  Co  Co3  1  0.598500  0.589380  0.970690  1.0  0.8657
  Co  Co4  1  0.248870  0.783790  0.757600  1.0  0.8589
  Co  Co5  1  0.098500  0.910620  0.029310  1.0  0.8651
  Co  Co6  1  0.748870  0.716210  0.242400  1.0  0.8594
  Co  Co7  1  0.401500  0.589380  0.529310  1.0  0.8642
  Co  Co8  1  0.751130  0.783790  0.742400  1.0  0.8606
  Co  Co9  1  0.098500  0.089380  0.529310  1.0  0.8657
  Co  Co10  1  0.748870  0.283790  0.742400  1.0  0.8594
  Co  Co11  1  0.401500  0.410620  0.029310  1.0  0.864
  Co  Co12  1  0.751130  0.216210  0.242400  1.0  0.8605
  Co  Co13  1  0.901500  0.089380  0.970690  1.0  0.8641
  Co  Co14  1  0.251130  0.283790  0.757600  1.0  0.8602
  Co  Co15  1  0.598500  0.410620  0.470690  1.0  0.8652
  Co  Co16  1  0.248870  0.216210  0.257600  1.0  0.8588
  Co  Co17  1  0.500000  0.047200  0.750000  1.0  0.7648
  Co  Co18  1  0.000000  0.452800  0.250000  1.0  0.7576
  Co  Co19  1  0.500000  0.952800  0.250000  1.0  0.7576
  Co  Co20  1  0.000000  0.547200  0.750000  1.0  0.7648
  P  P21  1  0.144520  0.820890  0.494350  1.0  1.5349
  P  P22  1  0.355480  0.679110  0.994350  1.0  1.5354
  P  P23  1  0.855480  0.820890  0.005650  1.0  1.5351
  P  P24  1  0.644520  0.679110  0.505650  1.0  1.5351
  P  P25  1  0.855480  0.179110  0.505650  1.0  1.5352
  P  P26  1  0.644520  0.320890  0.005650  1.0  1.5348
  P  P27  1  0.144520  0.179110  0.994350  1.0  1.5353
  P  P28  1  0.355480  0.320890  0.494350  1.0  1.5352
  H  H29  1  0.580500  0.021600  0.656400  1.0  0.0588
  H  H30  1  0.620600  0.901100  0.724100  1.0  0.1073
  H  H31  1  0.555500  0.951400  0.780500  1.0  0.0952
  H  H32  1  0.191800  0.702300  0.150100  1.0  0.0804
  H  H33  1  0.099600  0.697700  0.140400  1.0  0.1168
  H  H34  1  0.056700  0.722600  0.309000  1.0  0.0878
  H  H35  1  0.023200  0.700700  0.163900  1.0  0.0907
  H  H36  1  0.278600  0.783100  0.157000  1.0  0.0846
  H  H37  1  0.640300  0.879900  0.633500  1.0  0.0874
  H  H38  1  0.701000  0.864200  0.568100  1.0  0.1105
  H  H39  1  0.273200  0.872100  0.147700  1.0  0.1143
  H  H40  1  0.715900  0.885300  0.455100  1.0  0.115
  H  H41  1  0.406800  0.774000  0.356600  1.0  0.1181
  H  H42  1  0.888000  0.155400  0.859300  1.0  0.0966
  H  H43  1  0.665400  0.022700  0.620200  1.0  0.1132
  H  H44  1  0.436400  0.731800  0.189200  1.0  0.1069
  H  H45  1  0.223100  0.945500  0.162100  1.0  0.1053
  H  H46  1  0.719100  0.007800  0.551600  1.0  0.096
  H  H47  1  0.926600  0.855700  0.663400  1.0  0.091
  H  H48  1  0.914000  0.830900  0.572300  1.0  0.0854
  H  H49  1  0.233800  0.988900  0.338800  1.0  0.0994
  H  H50  1  0.317400  0.770300  0.354500  1.0  0.0901
  H  H51  1  0.956700  0.068500  0.715600  1.0  0.0995
  H  H52  1  0.799500  0.872800  0.418400  1.0  0.0859
  H  H53  1  0.191400  0.063000  0.354900  1.0  0.1105
  H  H54  1  0.137100  0.707200  0.290300  1.0  0.0721
  H  H55  1  0.814500  0.954100  0.544000  1.0  0.083
  H  H56  1  0.481800  0.731200  0.338700  1.0  0.0864
  H  H57  1  0.257800  0.102600  0.222800  1.0  0.0825
  H  H58  1  0.216800  0.026400  0.188600  1.0  0.0972
  H  H59  1  0.887600  0.965200  0.801400  1.0  0.1093
  H  H60  1  0.240500  0.907200  0.314800  1.0  0.1019
  H  H61  1  0.924900  0.973400  0.573800  1.0  0.0739
  H  H62  1  0.902700  0.122800  0.769200  1.0  0.1168
  H  H63  1  0.217300  0.830700  0.285200  1.0  0.0859
  H  H64  1  0.363900  0.703600  0.228900  1.0  0.0782
  H  H65  1  0.204000  0.151500  0.356100  1.0  0.0926
  H  H66  1  0.962700  0.013700  0.644800  1.0  0.1015
  H  H67  1  0.914000  0.015900  0.873200  1.0  0.0921
  H  H68  1  0.894800  0.911600  0.730800  1.0  0.0848
  H  H69  1  0.919500  0.478400  0.156400  1.0  0.0585
  H  H70  1  0.879400  0.598900  0.224100  1.0  0.1072
  H  H71  1  0.944500  0.548600  0.280500  1.0  0.0958
  H  H72  1  0.308200  0.797700  0.650100  1.0  0.0811
  H  H73  1  0.400400  0.802300  0.640400  1.0  0.1173
  H  H74  1  0.443300  0.777400  0.809000  1.0  0.088
  H  H75  1  0.476800  0.799300  0.663900  1.0  0.0913
  H  H76  1  0.221400  0.716900  0.657000  1.0  0.0843
  H  H77  1  0.859700  0.620100  0.133500  1.0  0.0877
  H  H78  1  0.799000  0.635800  0.068100  1.0  0.1102
  H  H79  1  0.226800  0.627900  0.647700  1.0  0.1133
  H  H80  1  0.784100  0.614700  0.955100  1.0  0.1158
  H  H81  1  0.093200  0.726000  0.856600  1.0  0.1184
  H  H82  1  0.612000  0.344600  0.359300  1.0  0.0967
  H  H83  1  0.834600  0.477300  0.120200  1.0  0.1129
  H  H84  1  0.063600  0.768200  0.689200  1.0  0.1065
  H  H85  1  0.276900  0.554500  0.662100  1.0  0.1054
  H  H86  1  0.780900  0.492200  0.051600  1.0  0.0962
  H  H87  1  0.573400  0.644300  0.163400  1.0  0.0912
  H  H88  1  0.586000  0.669100  0.072300  1.0  0.0844
  H  H89  1  0.266200  0.511100  0.838800  1.0  0.0994
  H  H90  1  0.182600  0.729700  0.854500  1.0  0.0904
  H  H91  1  0.543300  0.431500  0.215600  1.0  0.0993
  H  H92  1  0.700500  0.627200  0.918400  1.0  0.086
  H  H93  1  0.308600  0.437000  0.854900  1.0  0.1107
  H  H94  1  0.362900  0.792800  0.790300  1.0  0.0714
  H  H95  1  0.685500  0.545900  0.044000  1.0  0.0831
  H  H96  1  0.018200  0.768800  0.838700  1.0  0.0872
  H  H97  1  0.242200  0.397400  0.722800  1.0  0.0825
  H  H98  1  0.283200  0.473600  0.688600  1.0  0.0965
  H  H99  1  0.612400  0.534800  0.301400  1.0  0.1091
  H  H100  1  0.259500  0.592800  0.814800  1.0  0.1017
  H  H101  1  0.575100  0.526600  0.073800  1.0  0.0743
  H  H102  1  0.597300  0.377200  0.269200  1.0  0.1165
  H  H103  1  0.282700  0.669300  0.785200  1.0  0.0861
  H  H104  1  0.136100  0.796400  0.728900  1.0  0.0787
  H  H105  1  0.296000  0.348500  0.856100  1.0  0.0925
  H  H106  1  0.537300  0.486300  0.144800  1.0  0.1016
  H  H107  1  0.586000  0.484100  0.373200  1.0  0.0917
  H  H108  1  0.605200  0.588400  0.230800  1.0  0.0847
  H  H109  1  0.419500  0.021600  0.843600  1.0  0.0578
  H  H110  1  0.379400  0.901100  0.775900  1.0  0.107
  H  H111  1  0.444500  0.951400  0.719500  1.0  0.0953
  H  H112  1  0.808200  0.702300  0.349900  1.0  0.0801
  H  H113  1  0.900400  0.697700  0.359600  1.0  0.118
  H  H114  1  0.943300  0.722600  0.191000  1.0  0.0869
  H  H115  1  0.976800  0.700700  0.336100  1.0  0.0911
  H  H116  1  0.721400  0.783100  0.343000  1.0  0.0859
  H  H117  1  0.359700  0.879900  0.866500  1.0  0.0882
  H  H118  1  0.299000  0.864200  0.931900  1.0  0.1103
  H  H119  1  0.726800  0.872100  0.352300  1.0  0.1136
  H  H120  1  0.284100  0.885300  0.044900  1.0  0.1157
  H  H121  1  0.593200  0.774000  0.143400  1.0  0.1181
  H  H122  1  0.112000  0.155400  0.640700  1.0  0.0965
  H  H123  1  0.334600  0.022700  0.879800  1.0  0.1136
  H  H124  1  0.563600  0.731800  0.310800  1.0  0.107
  H  H125  1  0.776900  0.945500  0.337900  1.0  0.105
  H  H126  1  0.280900  0.007800  0.948400  1.0  0.096
  H  H127  1  0.073400  0.855700  0.836600  1.0  0.0906
  H  H128  1  0.086000  0.830900  0.927700  1.0  0.0853
  H  H129  1  0.766200  0.988900  0.161200  1.0  0.0998
  H  H130  1  0.682600  0.770300  0.145500  1.0  0.0898
  H  H131  1  0.043300  0.068500  0.784400  1.0  0.0995
  H  H132  1  0.200500  0.872800  0.081600  1.0  0.0842
  H  H133  1  0.808600  0.063000  0.145100  1.0  0.1106
  H  H134  1  0.862900  0.707200  0.209700  1.0  0.0721
  H  H135  1  0.185500  0.954100  0.956000  1.0  0.0829
  H  H136  1  0.518200  0.731200  0.161300  1.0  0.0857
  H  H137  1  0.742200  0.102600  0.277200  1.0  0.0831
  H  H138  1  0.783200  0.026400  0.311400  1.0  0.0968
  H  H139  1  0.112400  0.965200  0.698600  1.0  0.1086
  H  H140  1  0.759500  0.907200  0.185200  1.0  0.1014
  H  H141  1  0.075100  0.973400  0.926200  1.0  0.0738
  H  H142  1  0.097300  0.122800  0.730800  1.0  0.1155
  H  H143  1  0.782700  0.830700  0.214800  1.0  0.0859
  H  H144  1  0.636100  0.703600  0.271100  1.0  0.0785
  H  H145  1  0.796000  0.151500  0.143900  1.0  0.0925
  H  H146  1  0.037300  0.013700  0.855200  1.0  0.1011
  H  H147  1  0.086000  0.015900  0.626800  1.0  0.0921
  H  H148  1  0.105200  0.911600  0.769200  1.0  0.0846
  H  H149  1  0.080500  0.478400  0.343600  1.0  0.0594
  H  H150  1  0.120600  0.598900  0.275900  1.0  0.1068
  H  H151  1  0.055500  0.548600  0.219500  1.0  0.0954
  H  H152  1  0.691800  0.797700  0.849900  1.0  0.0801
  H  H153  1  0.599600  0.802300  0.859600  1.0  0.1176
  H  H154  1  0.556700  0.777400  0.691000  1.0  0.0871
  H  H155  1  0.523200  0.799300  0.836100  1.0  0.0896
  H  H156  1  0.778600  0.716900  0.843000  1.0  0.0853
  H  H157  1  0.140300  0.620100  0.366500  1.0  0.0882
  H  H158  1  0.201000  0.635800  0.431900  1.0  0.1107
  H  H159  1  0.773200  0.627900  0.852300  1.0  0.1138
  H  H160  1  0.215900  0.614700  0.544900  1.0  0.1152
  H  H161  1  0.906800  0.726000  0.643400  1.0  0.1177
  H  H162  1  0.388000  0.344600  0.140700  1.0  0.0958
  H  H163  1  0.165400  0.477300  0.379800  1.0  0.1138
  H  H164  1  0.936400  0.768200  0.810800  1.0  0.1069
  H  H165  1  0.723100  0.554500  0.837900  1.0  0.1048
  H  H166  1  0.219100  0.492200  0.448400  1.0  0.096
  H  H167  1  0.426600  0.644300  0.336600  1.0  0.0906
  H  H168  1  0.414000  0.669100  0.427700  1.0  0.085
  H  H169  1  0.733800  0.511100  0.661200  1.0  0.0995
  H  H170  1  0.817400  0.729700  0.645500  1.0  0.0891
  H  H171  1  0.456700  0.431500  0.284400  1.0  0.0998
  H  H172  1  0.299500  0.627200  0.581600  1.0  0.0842
  H  H173  1  0.691400  0.437000  0.645100  1.0  0.1105
  H  H174  1  0.637100  0.792800  0.709700  1.0  0.072
  H  H175  1  0.314500  0.545900  0.456000  1.0  0.0824
  H  H176  1  0.981800  0.768800  0.661300  1.0  0.0864
  H  H177  1  0.757800  0.397400  0.777200  1.0  0.0826
  H  H178  1  0.716800  0.473600  0.811400  1.0  0.097
  H  H179  1  0.387600  0.534800  0.198600  1.0  0.1091
  H  H180  1  0.740500  0.592800  0.685200  1.0  0.1019
  H  H181  1  0.424900  0.526600  0.426200  1.0  0.075
  H  H182  1  0.402700  0.377200  0.230800  1.0  0.1158
  H  H183  1  0.717300  0.669300  0.714800  1.0  0.086
  H  H184  1  0.863900  0.796400  0.771100  1.0  0.0781
  H  H185  1  0.704000  0.348500  0.643900  1.0  0.0928
  H  H186  1  0.462700  0.486300  0.355200  1.0  0.1013
  H  H187  1  0.414000  0.484100  0.126800  1.0  0.092
  H  H188  1  0.394800  0.588400  0.269200  1.0  0.0849
  H  H189  1  0.419500  0.978400  0.343600  1.0  0.0585
  H  H190  1  0.379400  0.098900  0.275900  1.0  0.1069
  H  H191  1  0.444500  0.048600  0.219500  1.0  0.0956
  H  H192  1  0.808200  0.297700  0.849900  1.0  0.0803
  H  H193  1  0.900400  0.302300  0.859600  1.0  0.1178
  H  H194  1  0.943300  0.277400  0.691000  1.0  0.0868
  H  H195  1  0.976800  0.299300  0.836100  1.0  0.0905
  H  H196  1  0.721400  0.216900  0.843000  1.0  0.0854
  H  H197  1  0.359700  0.120100  0.366500  1.0  0.0881
  H  H198  1  0.299000  0.135800  0.431900  1.0  0.1101
  H  H199  1  0.726800  0.127900  0.852300  1.0  0.1139
  H  H200  1  0.284100  0.114700  0.544900  1.0  0.116
  H  H201  1  0.593200  0.226000  0.643400  1.0  0.1179
  H  H202  1  0.112000  0.844600  0.140700  1.0  0.097
  H  H203  1  0.334600  0.977300  0.379800  1.0  0.1135
  H  H204  1  0.563600  0.268200  0.810800  1.0  0.1074
  H  H205  1  0.776900  0.054500  0.837900  1.0  0.1051
  H  H206  1  0.280900  0.992200  0.448400  1.0  0.0967
  H  H207  1  0.073400  0.144300  0.336600  1.0  0.0909
  H  H208  1  0.086000  0.169100  0.427700  1.0  0.0845
  H  H209  1  0.766200  0.011100  0.661200  1.0  0.0998
  H  H210  1  0.682600  0.229700  0.645500  1.0  0.0897
  H  H211  1  0.043300  0.931500  0.284400  1.0  0.0991
  H  H212  1  0.200500  0.127200  0.581600  1.0  0.0858
  H  H213  1  0.808600  0.937000  0.645100  1.0  0.1105
  H  H214  1  0.862900  0.292800  0.709700  1.0  0.0721
  H  H215  1  0.185500  0.045900  0.456000  1.0  0.0827
  H  H216  1  0.518200  0.268800  0.661300  1.0  0.0863
  H  H217  1  0.742200  0.897400  0.777200  1.0  0.083
  H  H218  1  0.783200  0.973600  0.811400  1.0  0.0975
  H  H219  1  0.112400  0.034800  0.198600  1.0  0.1088
  H  H220  1  0.759500  0.092800  0.685200  1.0  0.1017
  H  H221  1  0.075100  0.026600  0.426200  1.0  0.0751
  H  H222  1  0.097300  0.877200  0.230800  1.0  0.1158
  H  H223  1  0.782700  0.169300  0.714800  1.0  0.0859
  H  H224  1  0.636100  0.296400  0.771100  1.0  0.0787
  H  H225  1  0.796000  0.848500  0.643900  1.0  0.0909
  H  H226  1  0.037300  0.986300  0.355200  1.0  0.1014
  H  H227  1  0.086000  0.984100  0.126800  1.0  0.092
  H  H228  1  0.105200  0.088400  0.269200  1.0  0.0849
  H  H229  1  0.080500  0.521600  0.843600  1.0  0.0588
  H  H230  1  0.120600  0.401100  0.775900  1.0  0.107
  H  H231  1  0.055500  0.451400  0.719500  1.0  0.0952
  H  H232  1  0.691800  0.202300  0.349900  1.0  0.08
  H  H233  1  0.599600  0.197700  0.359600  1.0  0.1177
  H  H234  1  0.556700  0.222600  0.191000  1.0  0.0871
  H  H235  1  0.523200  0.200700  0.336100  1.0  0.0902
  H  H236  1  0.778600  0.283100  0.343000  1.0  0.0858
  H  H237  1  0.140300  0.379900  0.866500  1.0  0.0877
  H  H238  1  0.201000  0.364200  0.931900  1.0  0.1107
  H  H239  1  0.773200  0.372100  0.352300  1.0  0.1136
  H  H240  1  0.215900  0.385300  0.044900  1.0  0.1149
  H  H241  1  0.906800  0.274000  0.143400  1.0  0.1177
  H  H242  1  0.388000  0.655400  0.640700  1.0  0.0969
  H  H243  1  0.165400  0.522700  0.879800  1.0  0.114
  H  H244  1  0.936400  0.231800  0.310800  1.0  0.1071
  H  H245  1  0.723100  0.445500  0.337900  1.0  0.1049
  H  H246  1  0.219100  0.507800  0.948400  1.0  0.0966
  H  H247  1  0.426600  0.355700  0.836600  1.0  0.0904
  H  H248  1  0.414000  0.330900  0.927700  1.0  0.0853
  H  H249  1  0.733800  0.488900  0.161200  1.0  0.0993
  H  H250  1  0.817400  0.270300  0.145500  1.0  0.0892
  H  H251  1  0.456700  0.568500  0.784400  1.0  0.0991
  H  H252  1  0.299500  0.372800  0.081600  1.0  0.0862
  H  H253  1  0.691400  0.563000  0.145100  1.0  0.1101
  H  H254  1  0.637100  0.207200  0.209700  1.0  0.0721
  H  H255  1  0.314500  0.454100  0.956000  1.0  0.0826
  H  H256  1  0.981800  0.231200  0.161300  1.0  0.0858
  H  H257  1  0.757800  0.602600  0.277200  1.0  0.0828
  H  H258  1  0.716800  0.526400  0.311400  1.0  0.0972
  H  H259  1  0.387600  0.465200  0.698600  1.0  0.1088
  H  H260  1  0.740500  0.407200  0.185200  1.0  0.1016
  H  H261  1  0.424900  0.473400  0.926200  1.0  0.0738
  H  H262  1  0.402700  0.622800  0.730800  1.0  0.1157
  H  H263  1  0.717300  0.330700  0.214800  1.0  0.0859
  H  H264  1  0.863900  0.203600  0.271100  1.0  0.0781
  H  H265  1  0.704000  0.651500  0.143900  1.0  0.091
  H  H266  1  0.462700  0.513700  0.855200  1.0  0.1011
  H  H267  1  0.414000  0.515900  0.626800  1.0  0.092
  H  H268  1  0.394800  0.411600  0.769200  1.0  0.0847
  H  H269  1  0.580500  0.978400  0.156400  1.0  0.0589
  H  H270  1  0.620600  0.098900  0.224100  1.0  0.1072
  H  H271  1  0.555500  0.048600  0.280500  1.0  0.0955
  H  H272  1  0.191800  0.297700  0.650100  1.0  0.0806
  H  H273  1  0.099600  0.302300  0.640400  1.0  0.1173
  H  H274  1  0.056700  0.277400  0.809000  1.0  0.0882
  H  H275  1  0.023200  0.299300  0.663900  1.0  0.0905
  H  H276  1  0.278600  0.216900  0.657000  1.0  0.0842
  H  H277  1  0.640300  0.120100  0.133500  1.0  0.0879
  H  H278  1  0.701000  0.135800  0.068100  1.0  0.1107
  H  H279  1  0.273200  0.127900  0.647700  1.0  0.114
  H  H280  1  0.715900  0.114700  0.955100  1.0  0.1151
  H  H281  1  0.406800  0.226000  0.856600  1.0  0.1184
  H  H282  1  0.888000  0.844600  0.359300  1.0  0.0973
  H  H283  1  0.665400  0.977300  0.120200  1.0  0.1132
  H  H284  1  0.436400  0.268200  0.689200  1.0  0.1065
  H  H285  1  0.223100  0.054500  0.662100  1.0  0.1053
  H  H286  1  0.719100  0.992200  0.051600  1.0  0.0963
  H  H287  1  0.926600  0.144300  0.163400  1.0  0.0908
  H  H288  1  0.914000  0.169100  0.072300  1.0  0.0849
  H  H289  1  0.233800  0.011100  0.838800  1.0  0.099
  H  H290  1  0.317400  0.229700  0.854500  1.0  0.0902
  H  H291  1  0.956700  0.931500  0.215600  1.0  0.0999
  H  H292  1  0.799500  0.127200  0.918400  1.0  0.086
  H  H293  1  0.191400  0.937000  0.854900  1.0  0.1101
  H  H294  1  0.137100  0.292800  0.790300  1.0  0.072
  H  H295  1  0.814500  0.045900  0.044000  1.0  0.0831
  H  H296  1  0.481800  0.268800  0.838700  1.0  0.0872
  H  H297  1  0.257800  0.897400  0.722800  1.0  0.0826
  H  H298  1  0.216800  0.973600  0.688600  1.0  0.0975
  H  H299  1  0.887600  0.034800  0.301400  1.0  0.1094
  H  H300  1  0.240500  0.092800  0.814800  1.0  0.1018
  H  H301  1  0.924900  0.026600  0.073800  1.0  0.0747
  H  H302  1  0.902700  0.877200  0.269200  1.0  0.1167
  H  H303  1  0.217300  0.169300  0.785200  1.0  0.086
  H  H304  1  0.363900  0.296400  0.728900  1.0  0.078
  H  H305  1  0.204000  0.848500  0.856100  1.0  0.0911
  H  H306  1  0.962700  0.986300  0.144800  1.0  0.1015
  H  H307  1  0.914000  0.984100  0.373200  1.0  0.0917
  H  H308  1  0.894800  0.088400  0.230800  1.0  0.0846
  H  H309  1  0.919500  0.521600  0.656400  1.0  0.0585
  H  H310  1  0.879400  0.401100  0.724100  1.0  0.1073
  H  H311  1  0.944500  0.451400  0.780500  1.0  0.0953
  H  H312  1  0.308200  0.202300  0.150100  1.0  0.0808
  H  H313  1  0.400400  0.197700  0.140400  1.0  0.1171
  H  H314  1  0.443300  0.222600  0.309000  1.0  0.0877
  H  H315  1  0.476800  0.200700  0.163900  1.0  0.0915
  H  H316  1  0.221400  0.283100  0.157000  1.0  0.0846
  H  H317  1  0.859700  0.379900  0.633500  1.0  0.0876
  H  H318  1  0.799000  0.364200  0.568100  1.0  0.1104
  H  H319  1  0.226800  0.372100  0.147700  1.0  0.1137
  H  H320  1  0.784100  0.385300  0.455100  1.0  0.1156
  H  H321  1  0.093200  0.274000  0.356600  1.0  0.1182
  H  H322  1  0.612000  0.655400  0.859300  1.0  0.098
  H  H323  1  0.834600  0.522700  0.620200  1.0  0.1129
  H  H324  1  0.063600  0.231800  0.189200  1.0  0.1063
  H  H325  1  0.276900  0.445500  0.162100  1.0  0.1052
  H  H326  1  0.780900  0.507800  0.551600  1.0  0.0969
  H  H327  1  0.573400  0.355700  0.663400  1.0  0.0915
  H  H328  1  0.586000  0.330900  0.572300  1.0  0.0853
  H  H329  1  0.266200  0.488900  0.338800  1.0  0.0996
  H  H330  1  0.182600  0.270300  0.354500  1.0  0.0904
  H  H331  1  0.543300  0.568500  0.715600  1.0  0.0999
  H  H332  1  0.700500  0.372800  0.418400  1.0  0.0858
  H  H333  1  0.308600  0.563000  0.354900  1.0  0.1108
  H  H334  1  0.362900  0.207200  0.290300  1.0  0.0715
  H  H335  1  0.685500  0.454100  0.544000  1.0  0.083
  H  H336  1  0.018200  0.231200  0.338700  1.0  0.0864
  H  H337  1  0.242200  0.602600  0.222800  1.0  0.0824
  H  H338  1  0.283200  0.526400  0.188600  1.0  0.0972
  H  H339  1  0.612400  0.465200  0.801400  1.0  0.1091
  H  H340  1  0.259500  0.407200  0.314800  1.0  0.1019
  H  H341  1  0.575100  0.473400  0.573800  1.0  0.0736
  H  H342  1  0.597300  0.622800  0.769200  1.0  0.1165
  H  H343  1  0.282700  0.330700  0.285200  1.0  0.086
  H  H344  1  0.136100  0.203600  0.228900  1.0  0.0786
  H  H345  1  0.296000  0.651500  0.356100  1.0  0.0906
  H  H346  1  0.537300  0.513700  0.644800  1.0  0.1015
  H  H347  1  0.586000  0.515900  0.873200  1.0  0.0923
  H  H348  1  0.605200  0.411600  0.730800  1.0  0.0848
  W  W349  1  0.191580  0.819960  0.623290  1.0  1.8277
  W  W350  1  0.036850  0.886590  0.465670  1.0  2.4409
  W  W351  1  0.207420  0.762210  0.391500  1.0  1.9528
  W  W352  1  0.146020  0.930210  0.419370  1.0  1.2674
  W  W353  1  0.256120  0.755900  0.514860  1.0  1.2579
  W  W354  1  0.089190  0.715180  0.439690  1.0  1.2735
  W  W355  1  0.137560  0.709270  0.563670  1.0  1.3287
  W  W356  1  0.032340  0.772420  0.542650  1.0  1.2879
  W  W357  1  0.260240  0.863090  0.446610  1.0  1.3018
  W  W358  1  0.086140  0.882820  0.601680  1.0  1.2315
  W  W359  1  0.196330  0.926450  0.555830  1.0  1.295
  W  W360  1  0.094400  0.829860  0.363780  1.0  1.2263
  W  W361  1  0.308420  0.680040  0.123290  1.0  1.8287
  W  W362  1  0.463150  0.613410  0.965670  1.0  2.4399
  W  W363  1  0.292580  0.737790  0.891500  1.0  1.9546
  W  W364  1  0.353980  0.569790  0.919370  1.0  1.2689
  W  W365  1  0.243880  0.744100  0.014860  1.0  1.2582
  W  W366  1  0.410810  0.784820  0.939690  1.0  1.2775
  W  W367  1  0.362440  0.790730  0.063670  1.0  1.3284
  W  W368  1  0.467660  0.727580  0.042650  1.0  1.2872
  W  W369  1  0.239760  0.636910  0.946610  1.0  1.3
  W  W370  1  0.413860  0.617180  0.101680  1.0  1.2323
  W  W371  1  0.303670  0.573550  0.055830  1.0  1.2923
  W  W372  1  0.405600  0.670140  0.863780  1.0  1.2247
  W  W373  1  0.808420  0.819960  0.876710  1.0  1.8266
  W  W374  1  0.963150  0.886590  0.034330  1.0  2.4398
  W  W375  1  0.792580  0.762210  0.108500  1.0  1.9564
  W  W376  1  0.853980  0.930210  0.080630  1.0  1.2688
  W  W377  1  0.743880  0.755900  0.985140  1.0  1.257
  W  W378  1  0.910810  0.715180  0.060310  1.0  1.2728
  W  W379  1  0.862440  0.709270  0.936330  1.0  1.3276
  W  W380  1  0.967660  0.772420  0.957350  1.0  1.2869
  W  W381  1  0.739760  0.863090  0.053390  1.0  1.3012
  W  W382  1  0.913860  0.882820  0.898320  1.0  1.2306
  W  W383  1  0.803670  0.926450  0.944170  1.0  1.2957
  W  W384  1  0.905600  0.829860  0.136220  1.0  1.2226
  W  W385  1  0.691580  0.680040  0.376710  1.0  1.8258
  W  W386  1  0.536850  0.613410  0.534330  1.0  2.4403
  W  W387  1  0.707420  0.737790  0.608500  1.0  1.9559
  W  W388  1  0.646020  0.569790  0.580630  1.0  1.2675
  W  W389  1  0.756120  0.744100  0.485140  1.0  1.2588
  W  W390  1  0.589190  0.784820  0.560310  1.0  1.2762
  W  W391  1  0.637560  0.790730  0.436330  1.0  1.3307
  W  W392  1  0.532340  0.727580  0.457350  1.0  1.2867
  W  W393  1  0.760240  0.636910  0.553390  1.0  1.3005
  W  W394  1  0.586140  0.617180  0.398320  1.0  1.2293
  W  W395  1  0.696330  0.573550  0.444170  1.0  1.2942
  W  W396  1  0.594400  0.670140  0.636220  1.0  1.2234
  W  W397  1  0.808420  0.180040  0.376710  1.0  1.827
  W  W398  1  0.963150  0.113410  0.534330  1.0  2.4397
  W  W399  1  0.792580  0.237790  0.608500  1.0  1.9569
  W  W400  1  0.853980  0.069790  0.580630  1.0  1.2689
  W  W401  1  0.743880  0.244100  0.485140  1.0  1.2576
  W  W402  1  0.910810  0.284820  0.560310  1.0  1.2759
  W  W403  1  0.862440  0.290730  0.436330  1.0  1.3307
  W  W404  1  0.967660  0.227580  0.457350  1.0  1.2872
  W  W405  1  0.739760  0.136910  0.553390  1.0  1.3
  W  W406  1  0.913860  0.117180  0.398320  1.0  1.2294
  W  W407  1  0.803670  0.073550  0.444170  1.0  1.2932
  W  W408  1  0.905600  0.170140  0.636220  1.0  1.2229
  W  W409  1  0.691580  0.319960  0.876710  1.0  1.8258
  W  W410  1  0.536850  0.386590  0.034330  1.0  2.4407
  W  W411  1  0.707420  0.262210  0.108500  1.0  1.955
  W  W412  1  0.646020  0.430210  0.080630  1.0  1.2673
  W  W413  1  0.756120  0.255900  0.985140  1.0  1.2578
  W  W414  1  0.589190  0.215180  0.060310  1.0  1.2737
  W  W415  1  0.637560  0.209270  0.936330  1.0  1.3284
  W  W416  1  0.532340  0.272420  0.957350  1.0  1.2884
  W  W417  1  0.760240  0.363090  0.053390  1.0  1.3022
  W  W418  1  0.586140  0.382820  0.898320  1.0  1.2301
  W  W419  1  0.696330  0.426450  0.944170  1.0  1.2966
  W  W420  1  0.594400  0.329860  0.136220  1.0  1.2234
  W  W421  1  0.191580  0.180040  0.123290  1.0  1.8276
  W  W422  1  0.036850  0.113410  0.965670  1.0  2.4405
  W  W423  1  0.207420  0.237790  0.891500  1.0  1.9536
  W  W424  1  0.146020  0.069790  0.919370  1.0  1.2675
  W  W425  1  0.256120  0.244100  0.014860  1.0  1.2589
  W  W426  1  0.089190  0.284820  0.939690  1.0  1.2773
  W  W427  1  0.137560  0.290730  0.063670  1.0  1.3284
  W  W428  1  0.032340  0.227580  0.042650  1.0  1.2865
  W  W429  1  0.260240  0.136910  0.946610  1.0  1.301
  W  W430  1  0.086140  0.117180  0.101680  1.0  1.2318
  W  W431  1  0.196330  0.073550  0.055830  1.0  1.2931
  W  W432  1  0.094400  0.170140  0.863780  1.0  1.2265
  W  W433  1  0.308420  0.319960  0.623290  1.0  1.8284
  W  W434  1  0.463150  0.386590  0.465670  1.0  2.4399
  W  W435  1  0.292580  0.262210  0.391500  1.0  1.9542
  W  W436  1  0.353980  0.430210  0.419370  1.0  1.2688
  W  W437  1  0.243880  0.255900  0.514860  1.0  1.2576
  W  W438  1  0.410810  0.215180  0.439690  1.0  1.273
  W  W439  1  0.362440  0.209270  0.563670  1.0  1.3279
  W  W440  1  0.467660  0.272420  0.542650  1.0  1.2863
  W  W441  1  0.239760  0.363090  0.446610  1.0  1.3009
  W  W442  1  0.413860  0.382820  0.601680  1.0  1.2327
  W  W443  1  0.303670  0.426450  0.555830  1.0  1.2948
  W  W444  1  0.405600  0.329860  0.363780  1.0  1.2244
  C  C445  1  0.580500  0.996300  0.680900  1.0  0.1668
  C  C446  1  0.606000  0.931000  0.716000  1.0  0.0047
  C  C447  1  0.566400  0.959200  0.747000  1.0  -0.0116
  C  C448  1  0.169300  0.701700  0.177900  1.0  0.0019
  C  C449  1  0.117400  0.699200  0.171900  1.0  -0.1051
  C  C450  1  0.034000  0.710500  0.284700  1.0  -0.156
  C  C451  1  0.014900  0.703200  0.199600  1.0  -0.1844
  C  C452  1  0.264800  0.804000  0.181900  1.0  0.0259
  C  C453  1  0.647100  0.951500  0.631900  1.0  0.1265
  C  C454  1  0.657000  0.905600  0.617500  1.0  -0.1128
  C  C455  1  0.692900  0.895900  0.577500  1.0  -0.1841
  C  C456  1  0.262300  0.853200  0.176000  1.0  -0.1422
  C  C457  1  0.745200  0.897000  0.469000  1.0  -0.1023
  C  C458  1  0.387600  0.759700  0.330300  1.0  -0.1785
  C  C459  1  0.895700  0.123300  0.850900  1.0  -0.0401
  C  C460  1  0.671400  0.991000  0.608800  1.0  -0.1638
  C  C461  1  0.461900  0.732200  0.213700  1.0  -0.1501
  C  C462  1  0.226100  0.954000  0.197700  1.0  -0.149
  C  C463  1  0.704000  0.981900  0.568900  1.0  -0.1609
  C  C464  1  0.924600  0.876600  0.634400  1.0  -0.0712
  C  C465  1  0.917600  0.862800  0.584200  1.0  -0.0367
  C  C466  1  0.233000  0.979900  0.303200  1.0  -0.1735
  C  C467  1  0.338100  0.757300  0.328800  1.0  0.015
  C  C468  1  0.943400  0.037400  0.718500  1.0  -0.1881
  C  C469  1  0.791800  0.891000  0.448400  1.0  0.0116
  C  C470  1  0.206400  0.081600  0.328600  1.0  -0.1725
  C  C471  1  0.920000  0.023400  0.764300  1.0  0.138
  C  C472  1  0.452600  0.733100  0.266600  1.0  0.1713
  C  C473  1  0.139000  0.703800  0.253600  1.0  0.1701
  C  C474  1  0.800100  0.935100  0.517700  1.0  0.1904
  C  C475  1  0.489200  0.732100  0.302700  1.0  -0.1992
  C  C476  1  0.243100  0.104000  0.256100  1.0  0.1683
  C  C477  1  0.222800  0.002200  0.213600  1.0  -0.1763
  C  C478  1  0.902100  0.975200  0.769900  1.0  -0.1774
  C  C479  1  0.236500  0.931000  0.288900  1.0  -0.1179
  C  C480  1  0.928500  0.958300  0.680800  1.0  0.13
  C  C481  1  0.923400  0.941000  0.584500  1.0  0.1516
  C  C482  1  0.903400  0.105200  0.800700  1.0  -0.1288
  C  C483  1  0.231300  0.829300  0.251500  1.0  0.1574
  C  C484  1  0.228300  0.014100  0.264900  1.0  0.1886
  C  C485  1  0.362900  0.721200  0.260400  1.0  0.1292
  C  C486  1  0.234100  0.918100  0.236700  1.0  0.1072
  C  C487  1  0.048000  0.700200  0.235700  1.0  0.2706
  C  C488  1  0.213500  0.130500  0.329000  1.0  0.0285
  C  C489  1  0.947300  0.004300  0.676100  1.0  -0.1591
  C  C490  1  0.909900  0.046900  0.858900  1.0  0.1272
  C  C491  1  0.714700  0.934800  0.553900  1.0  0.165
  C  C492  1  0.906500  0.943300  0.727700  1.0  -0.1195
  C  C493  1  0.919500  0.503700  0.180900  1.0  0.1675
  C  C494  1  0.894000  0.569000  0.216000  1.0  0.0037
  C  C495  1  0.933600  0.540800  0.247000  1.0  -0.0107
  C  C496  1  0.330700  0.798300  0.677900  1.0  0.0008
  C  C497  1  0.382600  0.800800  0.671900  1.0  -0.1034
  C  C498  1  0.466000  0.789500  0.784700  1.0  -0.1547
  C  C499  1  0.485100  0.796800  0.699600  1.0  -0.1848
  C  C500  1  0.235200  0.696000  0.681900  1.0  0.0262
  C  C501  1  0.852900  0.548500  0.131900  1.0  0.1287
  C  C502  1  0.843000  0.594400  0.117500  1.0  -0.1131
  C  C503  1  0.807100  0.604100  0.077500  1.0  -0.1857
  C  C504  1  0.237700  0.646800  0.676000  1.0  -0.1436
  C  C505  1  0.754800  0.603000  0.969000  1.0  -0.1023
  C  C506  1  0.112400  0.740300  0.830300  1.0  -0.1788
  C  C507  1  0.604300  0.376700  0.350900  1.0  -0.04
  C  C508  1  0.828600  0.509000  0.108800  1.0  -0.163
  C  C509  1  0.038100  0.767800  0.713700  1.0  -0.1501
  C  C510  1  0.273900  0.546000  0.697700  1.0  -0.1489
  C  C511  1  0.796000  0.518100  0.068900  1.0  -0.1627
  C  C512  1  0.575400  0.623400  0.134400  1.0  -0.0723
  C  C513  1  0.582400  0.637200  0.084200  1.0  -0.0364
  C  C514  1  0.267000  0.520100  0.803200  1.0  -0.1739
  C  C515  1  0.161900  0.742700  0.828800  1.0  0.0146
  C  C516  1  0.556600  0.462600  0.218500  1.0  -0.1914
  C  C517  1  0.708200  0.609000  0.948400  1.0  0.0107
  C  C518  1  0.293600  0.418400  0.828600  1.0  -0.1715
  C  C519  1  0.580000  0.476600  0.264300  1.0  0.1377
  C  C520  1  0.047400  0.766900  0.766600  1.0  0.1719
  C  C521  1  0.361000  0.796200  0.753600  1.0  0.1702
  C  C522  1  0.699900  0.564900  0.017700  1.0  0.1909
  C  C523  1  0.010800  0.767900  0.802700  1.0  -0.1994
  C  C524  1  0.256900  0.396000  0.756100  1.0  0.1693
  C  C525  1  0.277200  0.497800  0.713600  1.0  -0.1745
  C  C526  1  0.597900  0.524800  0.269900  1.0  -0.1779
  C  C527  1  0.263500  0.569000  0.788900  1.0  -0.1173
  C  C528  1  0.571500  0.541700  0.180800  1.0  0.1304
  C  C529  1  0.576600  0.559000  0.084500  1.0  0.1517
  C  C530  1  0.596600  0.394800  0.300700  1.0  -0.1305
  C  C531  1  0.268700  0.670700  0.751500  1.0  0.1573
  C  C532  1  0.271700  0.485900  0.764900  1.0  0.1895
  C  C533  1  0.137100  0.778800  0.760400  1.0  0.1294
  C  C534  1  0.265900  0.581900  0.736700  1.0  0.1063
  C  C535  1  0.452000  0.799800  0.735700  1.0  0.2677
  C  C536  1  0.286500  0.369500  0.829000  1.0  0.0291
  C  C537  1  0.552700  0.495700  0.176100  1.0  -0.1587
  C  C538  1  0.590100  0.453100  0.358900  1.0  0.1261
  C  C539  1  0.785300  0.565200  0.053900  1.0  0.1656
  C  C540  1  0.593500  0.556700  0.227700  1.0  -0.1209
  C  C541  1  0.419500  0.996300  0.819100  1.0  0.1675
  C  C542  1  0.394000  0.931000  0.784000  1.0  0.0067
  C  C543  1  0.433600  0.959200  0.753000  1.0  -0.0109
  C  C544  1  0.830700  0.701700  0.322100  1.0  0.0014
  C  C545  1  0.882600  0.699200  0.328100  1.0  -0.1003
  C  C546  1  0.966000  0.710500  0.215300  1.0  -0.1568
  C  C547  1  0.985100  0.703200  0.300400  1.0  -0.1841
  C  C548  1  0.735200  0.804000  0.318100  1.0  0.026
  C  C549  1  0.352900  0.951500  0.868100  1.0  0.1276
  C  C550  1  0.343000  0.905600  0.882500  1.0  -0.1131
  C  C551  1  0.307100  0.895900  0.922500  1.0  -0.1845
  C  C552  1  0.737700  0.853200  0.324000  1.0  -0.1426
  C  C553  1  0.254800  0.897000  0.031000  1.0  -0.102
  C  C554  1  0.612400  0.759700  0.169700  1.0  -0.1793
  C  C555  1  0.104300  0.123300  0.649100  1.0  -0.0399
  C  C556  1  0.328600  0.991000  0.891200  1.0  -0.1634
  C  C557  1  0.538100  0.732200  0.286300  1.0  -0.1494
  C  C558  1  0.773900  0.954000  0.302300  1.0  -0.1506
  C  C559  1  0.296000  0.981900  0.931100  1.0  -0.1617
  C  C560  1  0.075400  0.876600  0.865600  1.0  -0.0717
  C  C561  1  0.082400  0.862800  0.915800  1.0  -0.0361
  C  C562  1  0.767000  0.979900  0.196800  1.0  -0.1747
  C  C563  1  0.661900  0.757300  0.171200  1.0  0.015
  C  C564  1  0.056600  0.037400  0.781500  1.0  -0.1894
  C  C565  1  0.208200  0.891000  0.051600  1.0  0.0112
  C  C566  1  0.793600  0.081600  0.171400  1.0  -0.1721
  C  C567  1  0.080000  0.023400  0.735700  1.0  0.1377
  C  C568  1  0.547400  0.733100  0.233400  1.0  0.1714
  C  C569  1  0.861000  0.703800  0.246400  1.0  0.1699
  C  C570  1  0.199900  0.935100  0.982300  1.0  0.1907
  C  C571  1  0.510800  0.732100  0.197300  1.0  -0.2019
  C  C572  1  0.756900  0.104000  0.243900  1.0  0.1691
  C  C573  1  0.777200  0.002200  0.286400  1.0  -0.1735
  C  C574  1  0.097900  0.975200  0.730100  1.0  -0.1772
  C  C575  1  0.763500  0.931000  0.211100  1.0  -0.117
  C  C576  1  0.071500  0.958300  0.819200  1.0  0.1307
  C  C577  1  0.076600  0.941000  0.915500  1.0  0.1516
  C  C578  1  0.096600  0.105200  0.699300  1.0  -0.128
  C  C579  1  0.768700  0.829300  0.248500  1.0  0.1573
  C  C580  1  0.771700  0.014100  0.235100  1.0  0.1897
  C  C581  1  0.637100  0.721200  0.239600  1.0  0.129
  C  C582  1  0.765900  0.918100  0.263300  1.0  0.1064
  C  C583  1  0.952000  0.700200  0.264300  1.0  0.2674
  C  C584  1  0.786500  0.130500  0.171000  1.0  0.0298
  C  C585  1  0.052700  0.004300  0.823900  1.0  -0.159
  C  C586  1  0.090100  0.046900  0.641100  1.0  0.1269
  C  C587  1  0.285300  0.934800  0.946100  1.0  0.1653
  C  C588  1  0.093500  0.943300  0.772300  1.0  -0.1196
  C  C589  1  0.080500  0.503700  0.319100  1.0  0.1666
  C  C590  1  0.106000  0.569000  0.284000  1.0  0.0039
  C  C591  1  0.066400  0.540800  0.253000  1.0  -0.0112
  C  C592  1  0.669300  0.798300  0.822100  1.0  0.0015
  C  C593  1  0.617400  0.800800  0.828100  1.0  -0.1037
  C  C594  1  0.534000  0.789500  0.715300  1.0  -0.1573
  C  C595  1  0.514900  0.796800  0.800400  1.0  -0.1839
  C  C596  1  0.764800  0.696000  0.818100  1.0  0.0264
  C  C597  1  0.147100  0.548500  0.368100  1.0  0.1272
  C  C598  1  0.157000  0.594400  0.382500  1.0  -0.1138
  C  C599  1  0.192900  0.604100  0.422500  1.0  -0.1843
  C  C600  1  0.762300  0.646800  0.824000  1.0  -0.1432
  C  C601  1  0.245200  0.603000  0.531000  1.0  -0.1021
  C  C602  1  0.887600  0.740300  0.669700  1.0  -0.1797
  C  C603  1  0.395700  0.376700  0.149100  1.0  -0.0412
  C  C604  1  0.171400  0.509000  0.391200  1.0  -0.1629
  C  C605  1  0.961900  0.767800  0.786300  1.0  -0.1482
  C  C606  1  0.726100  0.546000  0.802300  1.0  -0.1496
  C  C607  1  0.204000  0.518100  0.431100  1.0  -0.1623
  C  C608  1  0.424600  0.623400  0.365600  1.0  -0.0726
  C  C609  1  0.417600  0.637200  0.415800  1.0  -0.0361
  C  C610  1  0.733000  0.520100  0.696800  1.0  -0.1744
  C  C611  1  0.838100  0.742700  0.671200  1.0  0.0146
  C  C612  1  0.443400  0.462600  0.281500  1.0  -0.1893
  C  C613  1  0.291800  0.609000  0.551600  1.0  0.0123
  C  C614  1  0.706400  0.418400  0.671400  1.0  -0.1727
  C  C615  1  0.420000  0.476600  0.235700  1.0  0.1383
  C  C616  1  0.952600  0.766900  0.733400  1.0  0.1706
  C  C617  1  0.639000  0.796200  0.746400  1.0  0.1694
  C  C618  1  0.300100  0.564900  0.482300  1.0  0.1904
  C  C619  1  0.989200  0.767900  0.697300  1.0  -0.2
  C  C620  1  0.743100  0.396000  0.743900  1.0  0.1687
  C  C621  1  0.722800  0.497800  0.786400  1.0  -0.1757
  C  C622  1  0.402100  0.524800  0.230100  1.0  -0.1774
  C  C623  1  0.736500  0.569000  0.711100  1.0  -0.1168
  C  C624  1  0.428500  0.541700  0.319200  1.0  0.13
  C  C625  1  0.423400  0.559000  0.415500  1.0  0.1531
  C  C626  1  0.403400  0.394800  0.199300  1.0  -0.1287
  C  C627  1  0.731300  0.670700  0.748500  1.0  0.1575
  C  C628  1  0.728300  0.485900  0.735100  1.0  0.1894
  C  C629  1  0.862900  0.778800  0.739600  1.0  0.1296
  C  C630  1  0.734100  0.581900  0.763300  1.0  0.1071
  C  C631  1  0.548000  0.799800  0.764300  1.0  0.2699
  C  C632  1  0.713500  0.369500  0.671000  1.0  0.0293
  C  C633  1  0.447300  0.495700  0.323900  1.0  -0.1583
  C  C634  1  0.409900  0.453100  0.141100  1.0  0.1259
  C  C635  1  0.214700  0.565200  0.446100  1.0  0.1648
  C  C636  1  0.406500  0.556700  0.272300  1.0  -0.1194
  C  C637  1  0.419500  0.003700  0.319100  1.0  0.1671
  C  C638  1  0.394000  0.069000  0.284000  1.0  0.0049
  C  C639  1  0.433600  0.040800  0.253000  1.0  -0.0113
  C  C640  1  0.830700  0.298300  0.822100  1.0  0.0009
  C  C641  1  0.882600  0.300800  0.828100  1.0  -0.1008
  C  C642  1  0.966000  0.289500  0.715300  1.0  -0.1564
  C  C643  1  0.985100  0.296800  0.800400  1.0  -0.1849
  C  C644  1  0.735200  0.196000  0.818100  1.0  0.0264
  C  C645  1  0.352900  0.048500  0.368100  1.0  0.1282
  C  C646  1  0.343000  0.094400  0.382500  1.0  -0.1135
  C  C647  1  0.307100  0.104100  0.422500  1.0  -0.1854
  C  C648  1  0.737700  0.146800  0.824000  1.0  -0.1434
  C  C649  1  0.254800  0.103000  0.531000  1.0  -0.102
  C  C650  1  0.612400  0.240300  0.669700  1.0  -0.1789
  C  C651  1  0.104300  0.876700  0.149100  1.0  -0.0408
  C  C652  1  0.328600  0.009000  0.391200  1.0  -0.1634
  C  C653  1  0.538100  0.267800  0.786300  1.0  -0.1487
  C  C654  1  0.773900  0.046000  0.802300  1.0  -0.1496
  C  C655  1  0.296000  0.018100  0.431100  1.0  -0.1618
  C  C656  1  0.075400  0.123400  0.365600  1.0  -0.072
  C  C657  1  0.082400  0.137200  0.415800  1.0  -0.0365
  C  C658  1  0.767000  0.020100  0.696800  1.0  -0.1745
  C  C659  1  0.661900  0.242700  0.671200  1.0  0.0139
  C  C660  1  0.056600  0.962600  0.281500  1.0  -0.1906
  C  C661  1  0.208200  0.109000  0.551600  1.0  0.0109
  C  C662  1  0.793600  0.918400  0.671400  1.0  -0.1719
  C  C663  1  0.080000  0.976600  0.235700  1.0  0.1378
  C  C664  1  0.547400  0.266900  0.733400  1.0  0.1718
  C  C665  1  0.861000  0.296200  0.746400  1.0  0.1696
  C  C666  1  0.199900  0.064900  0.482300  1.0  0.1906
  C  C667  1  0.510800  0.267900  0.697300  1.0  -0.1988
  C  C668  1  0.756900  0.896000  0.743900  1.0  0.1693
  C  C669  1  0.777200  0.997800  0.786400  1.0  -0.174
  C  C670  1  0.097900  0.024800  0.230100  1.0  -0.1769
  C  C671  1  0.763500  0.069000  0.711100  1.0  -0.1165
  C  C672  1  0.071500  0.041700  0.319200  1.0  0.1308
  C  C673  1  0.076600  0.059000  0.415500  1.0  0.1523
  C  C674  1  0.096600  0.894800  0.199300  1.0  -0.1291
  C  C675  1  0.768700  0.170700  0.748500  1.0  0.1575
  C  C676  1  0.771700  0.985900  0.735100  1.0  0.1903
  C  C677  1  0.637100  0.278800  0.739600  1.0  0.1295
  C  C678  1  0.765900  0.081900  0.763300  1.0  0.1063
  C  C679  1  0.952000  0.299800  0.764300  1.0  0.2678
  C  C680  1  0.786500  0.869500  0.671000  1.0  0.0297
  C  C681  1  0.052700  0.995700  0.323900  1.0  -0.1589
  C  C682  1  0.090100  0.953100  0.141100  1.0  0.1266
  C  C683  1  0.285300  0.065200  0.446100  1.0  0.1654
  C  C684  1  0.093500  0.056700  0.272300  1.0  -0.1198
  C  C685  1  0.080500  0.496300  0.819100  1.0  0.1663
  C  C686  1  0.106000  0.431000  0.784000  1.0  0.006
  C  C687  1  0.066400  0.459200  0.753000  1.0  -0.0112
  C  C688  1  0.669300  0.201700  0.322100  1.0  0.0022
  C  C689  1  0.617400  0.199200  0.328100  1.0  -0.103
  C  C690  1  0.534000  0.210500  0.215300  1.0  -0.1577
  C  C691  1  0.514900  0.203200  0.300400  1.0  -0.1848
  C  C692  1  0.764800  0.304000  0.318100  1.0  0.0263
  C  C693  1  0.147100  0.451500  0.868100  1.0  0.1268
  C  C694  1  0.157000  0.405600  0.882500  1.0  -0.1126
  C  C695  1  0.192900  0.395900  0.922500  1.0  -0.1835
  C  C696  1  0.762300  0.353200  0.324000  1.0  -0.1423
  C  C697  1  0.245200  0.397000  0.031000  1.0  -0.1021
  C  C698  1  0.887600  0.259700  0.169700  1.0  -0.1795
  C  C699  1  0.395700  0.623300  0.649100  1.0  -0.0405
  C  C700  1  0.171400  0.491000  0.891200  1.0  -0.163
  C  C701  1  0.961900  0.232200  0.286300  1.0  -0.1499
  C  C702  1  0.726100  0.454000  0.302300  1.0  -0.1499
  C  C703  1  0.204000  0.481900  0.931100  1.0  -0.1622
  C  C704  1  0.424600  0.376600  0.865600  1.0  -0.0713
  C  C705  1  0.417600  0.362800  0.915800  1.0  -0.0362
  C  C706  1  0.733000  0.479900  0.196800  1.0  -0.1745
  C  C707  1  0.838100  0.257300  0.171200  1.0  0.0151
  C  C708  1  0.443400  0.537400  0.781500  1.0  -0.1877
  C  C709  1  0.291800  0.391000  0.051600  1.0  0.0126
  C  C710  1  0.706400  0.581600  0.171400  1.0  -0.1729
  C  C711  1  0.420000  0.523400  0.735700  1.0  0.1382
  C  C712  1  0.952600  0.233100  0.233400  1.0  0.1709
  C  C713  1  0.639000  0.203800  0.246400  1.0  0.1697
  C  C714  1  0.300100  0.435100  0.982300  1.0  0.1903
  C  C715  1  0.989200  0.232100  0.197300  1.0  -0.2005
  C  C716  1  0.743100  0.604000  0.243900  1.0  0.1689
  C  C717  1  0.722800  0.502200  0.286400  1.0  -0.1752
  C  C718  1  0.402100  0.475200  0.730100  1.0  -0.1776
  C  C719  1  0.736500  0.431000  0.211100  1.0  -0.117
  C  C720  1  0.428500  0.458300  0.819200  1.0  0.1304
  C  C721  1  0.423400  0.441000  0.915500  1.0  0.1524
  C  C722  1  0.403400  0.605200  0.699300  1.0  -0.1282
  C  C723  1  0.731300  0.329300  0.248500  1.0  0.1574
  C  C724  1  0.728300  0.514100  0.235100  1.0  0.1888
  C  C725  1  0.862900  0.221200  0.239600  1.0  0.1295
  C  C726  1  0.734100  0.418100  0.263300  1.0  0.1072
  C  C727  1  0.548000  0.200200  0.264300  1.0  0.2704
  C  C728  1  0.713500  0.630500  0.171000  1.0  0.0292
  C  C729  1  0.447300  0.504300  0.823900  1.0  -0.1587
  C  C730  1  0.409900  0.546900  0.641100  1.0  0.1266
  C  C731  1  0.214700  0.434800  0.946100  1.0  0.1645
  C  C732  1  0.406500  0.443300  0.772300  1.0  -0.1193
  C  C733  1  0.580500  0.003700  0.180900  1.0  0.1674
  C  C734  1  0.606000  0.069000  0.216000  1.0  0.0025
  C  C735  1  0.566400  0.040800  0.247000  1.0  -0.0116
  C  C736  1  0.169300  0.298300  0.677900  1.0  0.0017
  C  C737  1  0.117400  0.300800  0.671900  1.0  -0.1053
  C  C738  1  0.034000  0.289500  0.784700  1.0  -0.1553
  C  C739  1  0.014900  0.296800  0.699600  1.0  -0.1838
  C  C740  1  0.264800  0.196000  0.681900  1.0  0.0264
  C  C741  1  0.647100  0.048500  0.131900  1.0  0.1273
  C  C742  1  0.657000  0.094400  0.117500  1.0  -0.1141
  C  C743  1  0.692900  0.104100  0.077500  1.0  -0.1854
  C  C744  1  0.262300  0.146800  0.676000  1.0  -0.1429
  C  C745  1  0.745200  0.103000  0.969000  1.0  -0.1025
  C  C746  1  0.387600  0.240300  0.830300  1.0  -0.1788
  C  C747  1  0.895700  0.876700  0.350900  1.0  -0.0407
  C  C748  1  0.671400  0.009000  0.108800  1.0  -0.1636
  C  C749  1  0.461900  0.267800  0.713700  1.0  -0.1495
  C  C750  1  0.226100  0.046000  0.697700  1.0  -0.1488
  C  C751  1  0.704000  0.018100  0.068900  1.0  -0.1627
  C  C752  1  0.924600  0.123400  0.134400  1.0  -0.0727
  C  C753  1  0.917600  0.137200  0.084200  1.0  -0.0363
  C  C754  1  0.233000  0.020100  0.803200  1.0  -0.1733
  C  C755  1  0.338100  0.242700  0.828800  1.0  0.0151
  C  C756  1  0.943400  0.962600  0.218500  1.0  -0.19
  C  C757  1  0.791800  0.109000  0.948400  1.0  0.0118
  C  C758  1  0.206400  0.918400  0.828600  1.0  -0.1725
  C  C759  1  0.920000  0.976600  0.264300  1.0  0.1382
  C  C760  1  0.452600  0.266900  0.766600  1.0  0.1708
  C  C761  1  0.139000  0.296200  0.753600  1.0  0.17
  C  C762  1  0.800100  0.064900  0.017700  1.0  0.1908
  C  C763  1  0.489200  0.267900  0.802700  1.0  -0.2007
  C  C764  1  0.243100  0.896000  0.756100  1.0  0.1681
  C  C765  1  0.222800  0.997800  0.713600  1.0  -0.176
  C  C766  1  0.902100  0.024800  0.269900  1.0  -0.1777
  C  C767  1  0.236500  0.069000  0.788900  1.0  -0.1179
  C  C768  1  0.928500  0.041700  0.180800  1.0  0.1296
  C  C769  1  0.923400  0.059000  0.084500  1.0  0.1518
  C  C770  1  0.903400  0.894800  0.300700  1.0  -0.1304
  C  C771  1  0.231300  0.170700  0.751500  1.0  0.1573
  C  C772  1  0.228300  0.985900  0.764900  1.0  0.1892
  C  C773  1  0.362900  0.278800  0.760400  1.0  0.1295
  C  C774  1  0.234100  0.081900  0.736700  1.0  0.1071
  C  C775  1  0.048000  0.299800  0.735700  1.0  0.2704
  C  C776  1  0.213500  0.869500  0.829000  1.0  0.0285
  C  C777  1  0.947300  0.995700  0.176100  1.0  -0.1586
  C  C778  1  0.909900  0.953100  0.358900  1.0  0.1268
  C  C779  1  0.714700  0.065200  0.053900  1.0  0.1649
  C  C780  1  0.906500  0.056700  0.227700  1.0  -0.1204
  C  C781  1  0.919500  0.496300  0.680900  1.0  0.1676
  C  C782  1  0.894000  0.431000  0.716000  1.0  0.0057
  C  C783  1  0.933600  0.459200  0.747000  1.0  -0.0104
  C  C784  1  0.330700  0.201700  0.177900  1.0  0.0008
  C  C785  1  0.382600  0.199200  0.171900  1.0  -0.1032
  C  C786  1  0.466000  0.210500  0.284700  1.0  -0.1552
  C  C787  1  0.485100  0.203200  0.199600  1.0  -0.1836
  C  C788  1  0.235200  0.304000  0.181900  1.0  0.0257
  C  C789  1  0.852900  0.451500  0.631900  1.0  0.1279
  C  C790  1  0.843000  0.405600  0.617500  1.0  -0.1126
  C  C791  1  0.807100  0.395900  0.577500  1.0  -0.1844
  C  C792  1  0.237700  0.353200  0.176000  1.0  -0.1427
  C  C793  1  0.754800  0.397000  0.469000  1.0  -0.1022
  C  C794  1  0.112400  0.259700  0.330300  1.0  -0.1799
  C  C795  1  0.604300  0.623300  0.850900  1.0  -0.0393
  C  C796  1  0.828600  0.491000  0.608800  1.0  -0.1632
  C  C797  1  0.038100  0.232200  0.213700  1.0  -0.1501
  C  C798  1  0.273900  0.454000  0.197700  1.0  -0.1496
  C  C799  1  0.796000  0.481900  0.568900  1.0  -0.1612
  C  C800  1  0.575400  0.376600  0.634400  1.0  -0.0714
  C  C801  1  0.582400  0.362800  0.584200  1.0  -0.0363
  C  C802  1  0.267000  0.479900  0.303200  1.0  -0.1741
  C  C803  1  0.161900  0.257300  0.328800  1.0  0.0151
  C  C804  1  0.556600  0.537400  0.718500  1.0  -0.1898
  C  C805  1  0.708200  0.391000  0.448400  1.0  0.0105
  C  C806  1  0.293600  0.581600  0.328600  1.0  -0.1715
  C  C807  1  0.580000  0.523400  0.764300  1.0  0.1375
  C  C808  1  0.047400  0.233100  0.266600  1.0  0.1716
  C  C809  1  0.361000  0.203800  0.253600  1.0  0.1703
  C  C810  1  0.699900  0.435100  0.517700  1.0  0.1909
  C  C811  1  0.010800  0.232100  0.302700  1.0  -0.1999
  C  C812  1  0.256900  0.604000  0.256100  1.0  0.1693
  C  C813  1  0.277200  0.502200  0.213600  1.0  -0.1747
  C  C814  1  0.597900  0.475200  0.769900  1.0  -0.1772
  C  C815  1  0.263500  0.431000  0.288900  1.0  -0.1175
  C  C816  1  0.571500  0.458300  0.680800  1.0  0.1302
  C  C817  1  0.576600  0.441000  0.584500  1.0  0.1518
  C  C818  1  0.596600  0.605200  0.800700  1.0  -0.1283
  C  C819  1  0.268700  0.329300  0.251500  1.0  0.1573
  C  C820  1  0.271700  0.514100  0.264900  1.0  0.1891
  C  C821  1  0.137100  0.221200  0.260400  1.0  0.1288
  C  C822  1  0.265900  0.418100  0.236700  1.0  0.1063
  C  C823  1  0.452000  0.200200  0.235700  1.0  0.267
  C  C824  1  0.286500  0.630500  0.329000  1.0  0.0292
  C  C825  1  0.552700  0.504300  0.676100  1.0  -0.1588
  C  C826  1  0.590100  0.546900  0.858900  1.0  0.1266
  C  C827  1  0.785300  0.434800  0.553900  1.0  0.1657
  C  C828  1  0.593500  0.443300  0.727700  1.0  -0.1198
  N  N829  1  0.549900  0.996100  0.718400  1.0  -0.3473
  N  N830  1  0.751900  0.924500  0.515300  1.0  -0.0222
  N  N831  1  0.322800  0.733000  0.284600  1.0  -0.3835
  N  N832  1  0.612200  0.960900  0.676500  1.0  0.0695
  N  N833  1  0.403300  0.737500  0.286100  1.0  0.0328
  N  N834  1  0.912000  0.057200  0.806200  1.0  0.0495
  N  N835  1  0.824200  0.915400  0.478300  1.0  -0.3043
  N  N836  1  0.225700  0.064900  0.281900  1.0  0.028
  N  N837  1  0.244700  0.788900  0.228600  1.0  -0.3959
  N  N838  1  0.239800  0.868200  0.221700  1.0  0.0493
  N  N839  1  0.180300  0.702800  0.228000  1.0  -0.3313
  N  N840  1  0.928500  0.926100  0.636500  1.0  0.0132
  N  N841  1  0.099300  0.699500  0.222500  1.0  -0.0087
  N  N842  1  0.901500  0.085800  0.886900  1.0  -0.3445
  N  N843  1  0.237100  0.144300  0.282800  1.0  -0.3947
  N  N844  1  0.916400  0.905300  0.552200  1.0  -0.3468
  N  N845  1  0.950100  0.503900  0.218400  1.0  -0.3457
  N  N846  1  0.748100  0.575500  0.015300  1.0  -0.0209
  N  N847  1  0.177200  0.767000  0.784600  1.0  -0.3847
  N  N848  1  0.887800  0.539100  0.176500  1.0  0.0717
  N  N849  1  0.096700  0.762500  0.786100  1.0  0.0324
  N  N850  1  0.588000  0.442800  0.306200  1.0  0.0489
  N  N851  1  0.675800  0.584600  0.978300  1.0  -0.3024
  N  N852  1  0.274300  0.435100  0.781900  1.0  0.0279
  N  N853  1  0.255300  0.711100  0.728600  1.0  -0.3967
  N  N854  1  0.260200  0.631800  0.721700  1.0  0.049
  N  N855  1  0.319700  0.797200  0.728000  1.0  -0.3311
  N  N856  1  0.571500  0.573900  0.136500  1.0  0.0135
  N  N857  1  0.400700  0.800500  0.722500  1.0  -0.0082
  N  N858  1  0.598500  0.414200  0.386900  1.0  -0.345
  N  N859  1  0.262900  0.355700  0.782800  1.0  -0.395
  N  N860  1  0.583600  0.594700  0.052200  1.0  -0.346
  N  N861  1  0.450100  0.996100  0.781600  1.0  -0.3476
  N  N862  1  0.248100  0.924500  0.984700  1.0  -0.0228
  N  N863  1  0.677200  0.733000  0.215400  1.0  -0.3841
  N  N864  1  0.387800  0.960900  0.823500  1.0  0.0723
  N  N865  1  0.596700  0.737500  0.213900  1.0  0.0337
  N  N866  1  0.088000  0.057200  0.693800  1.0  0.0486
  N  N867  1  0.175800  0.915400  0.021700  1.0  -0.3029
  N  N868  1  0.774300  0.064900  0.218100  1.0  0.0274
  N  N869  1  0.755300  0.788900  0.271400  1.0  -0.3957
  N  N870  1  0.760200  0.868200  0.278300  1.0  0.0491
  N  N871  1  0.819700  0.702800  0.272000  1.0  -0.3315
  N  N872  1  0.071500  0.926100  0.863500  1.0  0.0135
  N  N873  1  0.900700  0.699500  0.277500  1.0  -0.0087
  N  N874  1  0.098500  0.085800  0.613100  1.0  -0.3429
  N  N875  1  0.762900  0.144300  0.217200  1.0  -0.395
  N  N876  1  0.083600  0.905300  0.947800  1.0  -0.3486
  N  N877  1  0.049900  0.503900  0.281600  1.0  -0.3484
  N  N878  1  0.251900  0.575500  0.484700  1.0  -0.0224
  N  N879  1  0.822800  0.767000  0.715400  1.0  -0.3833
  N  N880  1  0.112200  0.539100  0.323500  1.0  0.0698
  N  N881  1  0.903300  0.762500  0.713900  1.0  0.0328
  N  N882  1  0.412000  0.442800  0.193800  1.0  0.0483
  N  N883  1  0.324200  0.584600  0.521700  1.0  -0.3046
  N  N884  1  0.725700  0.435100  0.718100  1.0  0.028
  N  N885  1  0.744700  0.711100  0.771400  1.0  -0.3964
  N  N886  1  0.739800  0.631800  0.778300  1.0  0.0493
  N  N887  1  0.680300  0.797200  0.772000  1.0  -0.3319
  N  N888  1  0.428500  0.573900  0.363500  1.0  0.0139
  N  N889  1  0.599300  0.800500  0.777500  1.0  -0.0085
  N  N890  1  0.401500  0.414200  0.113100  1.0  -0.3431
  N  N891  1  0.737100  0.355700  0.717200  1.0  -0.3929
  N  N892  1  0.416400  0.594700  0.447800  1.0  -0.349
  N  N893  1  0.450100  0.003900  0.281600  1.0  -0.3457
  N  N894  1  0.248100  0.075500  0.484700  1.0  -0.0219
  N  N895  1  0.677200  0.267000  0.715400  1.0  -0.3845
  N  N896  1  0.387800  0.039100  0.323500  1.0  0.072
  N  N897  1  0.596700  0.262500  0.713900  1.0  0.0328
  N  N898  1  0.088000  0.942800  0.193800  1.0  0.0485
  N  N899  1  0.175800  0.084600  0.521700  1.0  -0.3032
  N  N900  1  0.774300  0.935100  0.718100  1.0  0.0278
  N  N901  1  0.755300  0.211100  0.771400  1.0  -0.3962
  N  N902  1  0.760200  0.131800  0.778300  1.0  0.0488
  N  N903  1  0.819700  0.297200  0.772000  1.0  -0.3314
  N  N904  1  0.071500  0.073900  0.363500  1.0  0.0136
  N  N905  1  0.900700  0.300500  0.777500  1.0  -0.0088
  N  N906  1  0.098500  0.914200  0.113100  1.0  -0.3434
  N  N907  1  0.762900  0.855700  0.717200  1.0  -0.394
  N  N908  1  0.083600  0.094700  0.447800  1.0  -0.3494
  N  N909  1  0.049900  0.496100  0.781600  1.0  -0.347
  N  N910  1  0.251900  0.424500  0.984700  1.0  -0.0228
  N  N911  1  0.822800  0.233000  0.215400  1.0  -0.3832
  N  N912  1  0.112200  0.460900  0.823500  1.0  0.0704
  N  N913  1  0.903300  0.237500  0.213900  1.0  0.0335
  N  N914  1  0.412000  0.557200  0.693800  1.0  0.0487
  N  N915  1  0.324200  0.415400  0.021700  1.0  -0.3045
  N  N916  1  0.725700  0.564900  0.218100  1.0  0.0278
  N  N917  1  0.744700  0.288900  0.271400  1.0  -0.396
  N  N918  1  0.739800  0.368200  0.278300  1.0  0.0492
  N  N919  1  0.680300  0.202800  0.272000  1.0  -0.3319
  N  N920  1  0.428500  0.426100  0.863500  1.0  0.0136
  N  N921  1  0.599300  0.199500  0.277500  1.0  -0.0083
  N  N922  1  0.401500  0.585800  0.613100  1.0  -0.3429
  N  N923  1  0.737100  0.644300  0.217200  1.0  -0.3939
  N  N924  1  0.416400  0.405300  0.947800  1.0  -0.3482
  N  N925  1  0.549900  0.003900  0.218400  1.0  -0.349
  N  N926  1  0.751900  0.075500  0.015300  1.0  -0.022
  N  N927  1  0.322800  0.267000  0.784600  1.0  -0.3834
  N  N928  1  0.612200  0.039100  0.176500  1.0  0.0694
  N  N929  1  0.403300  0.262500  0.786100  1.0  0.0324
  N  N930  1  0.912000  0.942800  0.306200  1.0  0.049
  N  N931  1  0.824200  0.084600  0.978300  1.0  -0.3045
  N  N932  1  0.225700  0.935100  0.781900  1.0  0.0282
  N  N933  1  0.244700  0.211100  0.728600  1.0  -0.3967
  N  N934  1  0.239800  0.131800  0.721700  1.0  0.0495
  N  N935  1  0.180300  0.297200  0.728000  1.0  -0.3313
  N  N936  1  0.928500  0.073900  0.136500  1.0  0.0135
  N  N937  1  0.099300  0.300500  0.722500  1.0  -0.0087
  N  N938  1  0.901500  0.914200  0.386900  1.0  -0.3442
  N  N939  1  0.237100  0.855700  0.782800  1.0  -0.3938
  N  N940  1  0.916400  0.094700  0.052200  1.0  -0.3465
  N  N941  1  0.950100  0.496100  0.718400  1.0  -0.3472
  N  N942  1  0.748100  0.424500  0.515300  1.0  -0.0216
  N  N943  1  0.177200  0.233000  0.284600  1.0  -0.3846
  N  N944  1  0.887800  0.460900  0.676500  1.0  0.0715
  N  N945  1  0.096700  0.237500  0.286100  1.0  0.0331
  N  N946  1  0.588000  0.557200  0.806200  1.0  0.0492
  N  N947  1  0.675800  0.415400  0.478300  1.0  -0.302
  N  N948  1  0.274300  0.564900  0.281900  1.0  0.0274
  N  N949  1  0.255300  0.288900  0.228600  1.0  -0.3957
  N  N950  1  0.260200  0.368200  0.221700  1.0  0.0492
  N  N951  1  0.319700  0.202800  0.228000  1.0  -0.3312
  N  N952  1  0.571500  0.426100  0.636500  1.0  0.0134
  N  N953  1  0.400700  0.199500  0.222500  1.0  -0.0083
  N  N954  1  0.598500  0.585800  0.886900  1.0  -0.3453
  N  N955  1  0.262900  0.644300  0.282800  1.0  -0.3955
  N  N956  1  0.583600  0.405300  0.552200  1.0  -0.3466
  O  O957  1  0.152700  0.848500  0.546500  1.0  -0.7674
  O  O958  1  0.980400  0.913900  0.464000  1.0  -0.7612
  O  O959  1  0.225900  0.732600  0.335300  1.0  -0.7496
  O  O960  1  0.194600  0.806500  0.470900  1.0  -0.7626
  O  O961  1  0.124200  0.893400  0.360800  1.0  -0.7232
  O  O962  1  0.156100  0.722600  0.415400  1.0  -0.7331
  O  O963  1  0.242400  0.896100  0.510400  1.0  -0.6527
  O  O964  1  0.059200  0.902000  0.535100  1.0  -0.6694
  O  O965  1  0.135400  0.932400  0.593900  1.0  -0.6542
  O  O966  1  0.117000  0.853700  0.454800  1.0  -0.7305
  O  O967  1  0.055800  0.821500  0.589200  1.0  -0.6751
  O  O968  1  0.069600  0.724500  0.579300  1.0  -0.6945
  O  O969  1  0.115100  0.680100  0.499700  1.0  -0.6883
  O  O970  1  0.252300  0.816500  0.390900  1.0  -0.6993
  O  O971  1  0.161700  0.943400  0.492900  1.0  -0.622
  O  O972  1  0.155800  0.761900  0.609500  1.0  -0.6934
  O  O973  1  0.238800  0.795100  0.574800  1.0  -0.6608
  O  O974  1  0.249900  0.733800  0.443500  1.0  -0.7062
  O  O975  1  0.021900  0.824400  0.492800  1.0  -0.7405
  O  O976  1  0.217200  0.883900  0.612400  1.0  -0.6916
  O  O977  1  0.038700  0.859600  0.395800  1.0  -0.6981
  O  O978  1  0.158700  0.803600  0.363600  1.0  -0.669
  O  O979  1  0.289500  0.812400  0.487000  1.0  -0.6645
  O  O980  1  0.201100  0.717200  0.533200  1.0  -0.6785
  O  O981  1  0.032700  0.729100  0.481500  1.0  -0.6735
  O  O982  1  0.077900  0.938100  0.439100  1.0  -0.6838
  O  O983  1  0.076400  0.770100  0.396900  1.0  -0.6734
  O  O984  1  0.114100  0.774900  0.505300  1.0  -0.7397
  O  O985  1  0.218900  0.806100  0.682300  1.0  -0.6276
  O  O986  1  0.132600  0.849700  0.647200  1.0  -0.7072
  O  O987  1  0.207600  0.899800  0.415800  1.0  -0.6918
  O  O988  1  0.347300  0.651500  0.046500  1.0  -0.7669
  O  O989  1  0.519600  0.586100  0.964000  1.0  -0.7606
  O  O990  1  0.274100  0.767400  0.835300  1.0  -0.7496
  O  O991  1  0.305400  0.693500  0.970900  1.0  -0.7625
  O  O992  1  0.375800  0.606600  0.860800  1.0  -0.7235
  O  O993  1  0.343900  0.777400  0.915400  1.0  -0.7337
  O  O994  1  0.257600  0.603900  0.010400  1.0  -0.6548
  O  O995  1  0.440800  0.598000  0.035100  1.0  -0.667
  O  O996  1  0.364600  0.567600  0.093900  1.0  -0.6565
  O  O997  1  0.383000  0.646300  0.954800  1.0  -0.7303
  O  O998  1  0.444200  0.678500  0.089200  1.0  -0.6742
  O  O999  1  0.430400  0.775500  0.079300  1.0  -0.6887
  O  O1000  1  0.384900  0.819900  0.999700  1.0  -0.687
  O  O1001  1  0.247700  0.683500  0.890900  1.0  -0.7004
  O  O1002  1  0.338300  0.556600  0.992900  1.0  -0.6234
  O  O1003  1  0.344200  0.738100  0.109500  1.0  -0.6932
  O  O1004  1  0.261200  0.704900  0.074800  1.0  -0.6625
  O  O1005  1  0.250100  0.766200  0.943500  1.0  -0.71
  O  O1006  1  0.478100  0.675600  0.992800  1.0  -0.7404
  O  O1007  1  0.282800  0.616100  0.112400  1.0  -0.6908
  O  O1008  1  0.461300  0.640400  0.895800  1.0  -0.6988
  O  O1009  1  0.341300  0.696400  0.863600  1.0  -0.6693
  O  O1010  1  0.210500  0.687600  0.987000  1.0  -0.6638
  O  O1011  1  0.298900  0.782800  0.033200  1.0  -0.6782
  O  O1012  1  0.467300  0.770900  0.981500  1.0  -0.6745
  O  O1013  1  0.422100  0.561900  0.939100  1.0  -0.6833
  O  O1014  1  0.423600  0.729900  0.896900  1.0  -0.6704
  O  O1015  1  0.385900  0.725100  0.005300  1.0  -0.7387
  O  O1016  1  0.281100  0.693900  0.182300  1.0  -0.6277
  O  O1017  1  0.367400  0.650300  0.147200  1.0  -0.7071
  O  O1018  1  0.292400  0.600200  0.915800  1.0  -0.692
  O  O1019  1  0.847300  0.848500  0.953500  1.0  -0.7658
  O  O1020  1  0.019600  0.913900  0.036000  1.0  -0.7609
  O  O1021  1  0.774100  0.732600  0.164700  1.0  -0.7503
  O  O1022  1  0.805400  0.806500  0.029100  1.0  -0.7632
  O  O1023  1  0.875800  0.893400  0.139200  1.0  -0.7247
  O  O1024  1  0.843900  0.722600  0.084600  1.0  -0.7333
  O  O1025  1  0.757600  0.896100  0.989600  1.0  -0.6541
  O  O1026  1  0.940800  0.902000  0.964900  1.0  -0.6689
  O  O1027  1  0.864600  0.932400  0.906100  1.0  -0.6544
  O  O1028  1  0.883000  0.853700  0.045200  1.0  -0.7302
  O  O1029  1  0.944200  0.821500  0.910800  1.0  -0.675
  O  O1030  1  0.930400  0.724500  0.920700  1.0  -0.689
  O  O1031  1  0.884900  0.680100  0.000300  1.0  -0.6889
  O  O1032  1  0.747700  0.816500  0.109100  1.0  -0.6988
  O  O1033  1  0.838300  0.943400  0.007100  1.0  -0.6232
  O  O1034  1  0.844200  0.761900  0.890500  1.0  -0.6927
  O  O1035  1  0.761200  0.795100  0.925200  1.0  -0.6621
  O  O1036  1  0.750100  0.733800  0.056500  1.0  -0.7088
  O  O1037  1  0.978100  0.824400  0.007200  1.0  -0.74
  O  O1038  1  0.782800  0.883900  0.887600  1.0  -0.6918
  O  O1039  1  0.961300  0.859600  0.104200  1.0  -0.6989
  O  O1040  1  0.841300  0.803600  0.136400  1.0  -0.6688
  O  O1041  1  0.710500  0.812400  0.013000  1.0  -0.6659
  O  O1042  1  0.798900  0.717200  0.966800  1.0  -0.679
  O  O1043  1  0.967300  0.729100  0.018500  1.0  -0.6746
  O  O1044  1  0.922100  0.938100  0.060900  1.0  -0.684
  O  O1045  1  0.923600  0.770100  0.103100  1.0  -0.67
  O  O1046  1  0.885900  0.774900  0.994700  1.0  -0.7392
  O  O1047  1  0.781100  0.806100  0.817700  1.0  -0.6274
  O  O1048  1  0.867400  0.849700  0.852800  1.0  -0.7083
  O  O1049  1  0.792400  0.899800  0.084200  1.0  -0.692
  O  O1050  1  0.652700  0.651500  0.453500  1.0  -0.767
  O  O1051  1  0.480400  0.586100  0.536000  1.0  -0.7611
  O  O1052  1  0.725900  0.767400  0.664700  1.0  -0.7504
  O  O1053  1  0.694600  0.693500  0.529100  1.0  -0.7631
  O  O1054  1  0.624200  0.606600  0.639200  1.0  -0.7244
  O  O1055  1  0.656100  0.777400  0.584600  1.0  -0.7334
  O  O1056  1  0.742400  0.603900  0.489600  1.0  -0.6534
  O  O1057  1  0.559200  0.598000  0.464900  1.0  -0.6687
  O  O1058  1  0.635400  0.567600  0.406100  1.0  -0.656
  O  O1059  1  0.617000  0.646300  0.545200  1.0  -0.73
  O  O1060  1  0.555800  0.678500  0.410800  1.0  -0.676
  O  O1061  1  0.569600  0.775500  0.420700  1.0  -0.6922
  O  O1062  1  0.615100  0.819900  0.500300  1.0  -0.686
  O  O1063  1  0.752300  0.683500  0.609100  1.0  -0.6986
  O  O1064  1  0.661700  0.556600  0.507100  1.0  -0.6224
  O  O1065  1  0.655800  0.738100  0.390500  1.0  -0.6934
  O  O1066  1  0.738800  0.704900  0.425200  1.0  -0.6605
  O  O1067  1  0.749900  0.766200  0.556500  1.0  -0.7076
  O  O1068  1  0.521900  0.675600  0.507200  1.0  -0.7402
  O  O1069  1  0.717200  0.616100  0.387600  1.0  -0.6903
  O  O1070  1  0.538700  0.640400  0.604200  1.0  -0.697
  O  O1071  1  0.658700  0.696400  0.636400  1.0  -0.6694
  O  O1072  1  0.789500  0.687600  0.513000  1.0  -0.6656
  O  O1073  1  0.701100  0.782800  0.466800  1.0  -0.6772
  O  O1074  1  0.532700  0.770900  0.518500  1.0  -0.6712
  O  O1075  1  0.577900  0.561900  0.560900  1.0  -0.6836
  O  O1076  1  0.576400  0.729900  0.603100  1.0  -0.6729
  O  O1077  1  0.614100  0.725100  0.494700  1.0  -0.7389
  O  O1078  1  0.718900  0.693900  0.317700  1.0  -0.6278
  O  O1079  1  0.632600  0.650300  0.352800  1.0  -0.7098
  O  O1080  1  0.707600  0.600200  0.584200  1.0  -0.6914
  O  O1081  1  0.847300  0.151500  0.453500  1.0  -0.7667
  O  O1082  1  0.019600  0.086100  0.536000  1.0  -0.7604
  O  O1083  1  0.774100  0.267400  0.664700  1.0  -0.7504
  O  O1084  1  0.805400  0.193500  0.529100  1.0  -0.763
  O  O1085  1  0.875800  0.106600  0.639200  1.0  -0.7248
  O  O1086  1  0.843900  0.277400  0.584600  1.0  -0.7337
  O  O1087  1  0.757600  0.103900  0.489600  1.0  -0.6541
  O  O1088  1  0.940800  0.098000  0.464900  1.0  -0.6673
  O  O1089  1  0.864600  0.067600  0.406100  1.0  -0.6562
  O  O1090  1  0.883000  0.146300  0.545200  1.0  -0.7301
  O  O1091  1  0.944200  0.178500  0.410800  1.0  -0.6748
  O  O1092  1  0.930400  0.275500  0.420700  1.0  -0.6897
  O  O1093  1  0.884900  0.319900  0.500300  1.0  -0.6869
  O  O1094  1  0.747700  0.183500  0.609100  1.0  -0.699
  O  O1095  1  0.838300  0.056600  0.507100  1.0  -0.6232
  O  O1096  1  0.844200  0.238100  0.390500  1.0  -0.6928
  O  O1097  1  0.761200  0.204900  0.425200  1.0  -0.6621
  O  O1098  1  0.750100  0.266200  0.556500  1.0  -0.7096
  O  O1099  1  0.978100  0.175600  0.507200  1.0  -0.7402
  O  O1100  1  0.782800  0.116100  0.387600  1.0  -0.6908
  O  O1101  1  0.961300  0.140400  0.604200  1.0  -0.6985
  O  O1102  1  0.841300  0.196400  0.636400  1.0  -0.6693
  O  O1103  1  0.710500  0.187600  0.513000  1.0  -0.6658
  O  O1104  1  0.798900  0.282800  0.466800  1.0  -0.678
  O  O1105  1  0.967300  0.270900  0.518500  1.0  -0.6742
  O  O1106  1  0.922100  0.061900  0.560900  1.0  -0.683
  O  O1107  1  0.923600  0.229900  0.603100  1.0  -0.6705
  O  O1108  1  0.885900  0.225100  0.494700  1.0  -0.7384
  O  O1109  1  0.781100  0.193900  0.317700  1.0  -0.6275
  O  O1110  1  0.867400  0.150300  0.352800  1.0  -0.7089
  O  O1111  1  0.792400  0.100200  0.584200  1.0  -0.692
  O  O1112  1  0.652700  0.348500  0.953500  1.0  -0.7662
  O  O1113  1  0.480400  0.413900  0.036000  1.0  -0.7609
  O  O1114  1  0.725900  0.232600  0.164700  1.0  -0.7504
  O  O1115  1  0.694600  0.306500  0.029100  1.0  -0.7631
  O  O1116  1  0.624200  0.393400  0.139200  1.0  -0.7241
  O  O1117  1  0.656100  0.222600  0.084600  1.0  -0.733
  O  O1118  1  0.742400  0.396100  0.989600  1.0  -0.6516
  O  O1119  1  0.559200  0.402000  0.964900  1.0  -0.6706
  O  O1120  1  0.635400  0.432400  0.906100  1.0  -0.6543
  O  O1121  1  0.617000  0.353700  0.045200  1.0  -0.7302
  O  O1122  1  0.555800  0.321500  0.910800  1.0  -0.6762
  O  O1123  1  0.569600  0.224500  0.920700  1.0  -0.6915
  O  O1124  1  0.615100  0.180100  0.000300  1.0  -0.688
  O  O1125  1  0.752300  0.316500  0.109100  1.0  -0.6981
  O  O1126  1  0.661700  0.443400  0.007100  1.0  -0.6221
  O  O1127  1  0.655800  0.261900  0.890500  1.0  -0.6932
  O  O1128  1  0.738800  0.295100  0.925200  1.0  -0.6605
  O  O1129  1  0.749900  0.233800  0.056500  1.0  -0.7059
  O  O1130  1  0.521900  0.324400  0.007200  1.0  -0.74
  O  O1131  1  0.717200  0.383900  0.887600  1.0  -0.6913
  O  O1132  1  0.538700  0.359600  0.104200  1.0  -0.6978
  O  O1133  1  0.658700  0.303600  0.136400  1.0  -0.6691
  O  O1134  1  0.789500  0.312400  0.013000  1.0  -0.6658
  O  O1135  1  0.701100  0.217200  0.966800  1.0  -0.6785
  O  O1136  1  0.532700  0.229100  0.018500  1.0  -0.6731
  O  O1137  1  0.577900  0.438100  0.060900  1.0  -0.6844
  O  O1138  1  0.576400  0.270100  0.103100  1.0  -0.6725
  O  O1139  1  0.614100  0.274900  0.994700  1.0  -0.7396
  O  O1140  1  0.718900  0.306100  0.817700  1.0  -0.6281
  O  O1141  1  0.632600  0.349700  0.852800  1.0  -0.7092
  O  O1142  1  0.707600  0.399800  0.084200  1.0  -0.6919
  O  O1143  1  0.152700  0.151500  0.046500  1.0  -0.7673
  O  O1144  1  0.980400  0.086100  0.964000  1.0  -0.7606
  O  O1145  1  0.225900  0.267400  0.835300  1.0  -0.7497
  O  O1146  1  0.194600  0.193500  0.970900  1.0  -0.7625
  O  O1147  1  0.124200  0.106600  0.860800  1.0  -0.7232
  O  O1148  1  0.156100  0.277400  0.915400  1.0  -0.7336
  O  O1149  1  0.242400  0.103900  0.010400  1.0  -0.6545
  O  O1150  1  0.059200  0.098000  0.035100  1.0  -0.668
  O  O1151  1  0.135400  0.067600  0.093900  1.0  -0.6563
  O  O1152  1  0.117000  0.146300  0.954800  1.0  -0.7307
  O  O1153  1  0.055800  0.178500  0.089200  1.0  -0.6749
  O  O1154  1  0.069600  0.275500  0.079300  1.0  -0.6908
  O  O1155  1  0.115100  0.319900  0.999700  1.0  -0.687
  O  O1156  1  0.252300  0.183500  0.890900  1.0  -0.6993
  O  O1157  1  0.161700  0.056600  0.992900  1.0  -0.6226
  O  O1158  1  0.155800  0.238100  0.109500  1.0  -0.6934
  O  O1159  1  0.238800  0.204900  0.074800  1.0  -0.6607
  O  O1160  1  0.249900  0.266200  0.943500  1.0  -0.7075
  O  O1161  1  0.021900  0.175600  0.992800  1.0  -0.7408
  O  O1162  1  0.217200  0.116100  0.112400  1.0  -0.6907
  O  O1163  1  0.038700  0.140400  0.895800  1.0  -0.6971
  O  O1164  1  0.158700  0.196400  0.863600  1.0  -0.6696
  O  O1165  1  0.289500  0.187600  0.987000  1.0  -0.6642
  O  O1166  1  0.201100  0.282800  0.033200  1.0  -0.6775
  O  O1167  1  0.032700  0.270900  0.981500  1.0  -0.6719
  O  O1168  1  0.077900  0.061900  0.939100  1.0  -0.6838
  O  O1169  1  0.076400  0.229900  0.896900  1.0  -0.6736
  O  O1170  1  0.114100  0.225100  0.005300  1.0  -0.7392
  O  O1171  1  0.218900  0.193900  0.182300  1.0  -0.6276
  O  O1172  1  0.132600  0.150300  0.147200  1.0  -0.7076
  O  O1173  1  0.207600  0.100200  0.915800  1.0  -0.6913
  O  O1174  1  0.347300  0.348500  0.546500  1.0  -0.7668
  O  O1175  1  0.519600  0.413900  0.464000  1.0  -0.7606
  O  O1176  1  0.274100  0.232600  0.335300  1.0  -0.7495
  O  O1177  1  0.305400  0.306500  0.470900  1.0  -0.7628
  O  O1178  1  0.375800  0.393400  0.360800  1.0  -0.7236
  O  O1179  1  0.343900  0.222600  0.415400  1.0  -0.7332
  O  O1180  1  0.257600  0.396100  0.510400  1.0  -0.6543
  O  O1181  1  0.440800  0.402000  0.535100  1.0  -0.6683
  O  O1182  1  0.364600  0.432400  0.593900  1.0  -0.6543
  O  O1183  1  0.383000  0.353700  0.454800  1.0  -0.7302
  O  O1184  1  0.444200  0.321500  0.589200  1.0  -0.6744
  O  O1185  1  0.430400  0.224500  0.579300  1.0  -0.6919
  O  O1186  1  0.384900  0.180100  0.499700  1.0  -0.6888
  O  O1187  1  0.247700  0.316500  0.390900  1.0  -0.7004
  O  O1188  1  0.338300  0.443400  0.492900  1.0  -0.6232
  O  O1189  1  0.344200  0.261900  0.609500  1.0  -0.6932
  O  O1190  1  0.261200  0.295100  0.574800  1.0  -0.6625
  O  O1191  1  0.250100  0.233800  0.443500  1.0  -0.7095
  O  O1192  1  0.478100  0.324400  0.492800  1.0  -0.7403
  O  O1193  1  0.282800  0.383900  0.612400  1.0  -0.692
  O  O1194  1  0.461300  0.359600  0.395800  1.0  -0.6996
  O  O1195  1  0.341300  0.303600  0.363600  1.0  -0.6687
  O  O1196  1  0.210500  0.312400  0.487000  1.0  -0.6644
  O  O1197  1  0.298900  0.217200  0.533200  1.0  -0.679
  O  O1198  1  0.467300  0.229100  0.481500  1.0  -0.6749
  O  O1199  1  0.422100  0.438100  0.439100  1.0  -0.6839
  O  O1200  1  0.423600  0.270100  0.396900  1.0  -0.6701
  O  O1201  1  0.385900  0.274900  0.505300  1.0  -0.7394
  O  O1202  1  0.281100  0.306100  0.682300  1.0  -0.6274
  O  O1203  1  0.367400  0.349700  0.647200  1.0  -0.7066
  O  O1204  1  0.292400  0.399800  0.415800  1.0  -0.6921
