# generated using pymatgen
data_Zn7H54C102N12O13
_symmetry_space_group_name_H-M   'P 1'
_cell_length_a   34.70500000
_cell_length_b   34.70500000
_cell_length_c   37.90230000
_cell_angle_alpha   90.00000000
_cell_angle_beta   90.00000000
_cell_angle_gamma   120.00000000
_symmetry_Int_Tables_number   1
_chemical_formula_structural   Zn7H54C102N12O13
_chemical_formula_sum   'Zn84 H648 C1224 N144 O156'
_cell_volume   39534.86807647
_cell_formula_units_Z   12
loop_
 _symmetry_equiv_pos_site_id
 _symmetry_equiv_pos_as_xyz
  1  'x, y, z'
loop_
 _atom_site_type_symbol
 _atom_site_label
 _atom_site_symmetry_multiplicity
 _atom_site_fract_x
 _atom_site_fract_y
 _atom_site_fract_z
 _atom_site_occupancy
 _atom_site_charge
  Zn  Zn1  1  0.271860  0.635580  0.528380  1.0  1.0501
  Zn  Zn2  1  0.938530  0.968910  0.861710  1.0  1.0502
  Zn  Zn3  1  0.605190  0.302250  0.195050  1.0  1.0501
  Zn  Zn4  1  0.364420  0.636280  0.528380  1.0  1.0501
  Zn  Zn5  1  0.031090  0.969610  0.861710  1.0  1.0501
  Zn  Zn6  1  0.697750  0.302950  0.195050  1.0  1.0501
  Zn  Zn7  1  0.363720  0.728140  0.528380  1.0  1.0503
  Zn  Zn8  1  0.030390  0.061470  0.861710  1.0  1.0504
  Zn  Zn9  1  0.697050  0.394810  0.195050  1.0  1.0503
  Zn  Zn10  1  0.635580  0.271860  0.971620  1.0  1.0502
  Zn  Zn11  1  0.302250  0.605190  0.304950  1.0  1.0502
  Zn  Zn12  1  0.968910  0.938530  0.638290  1.0  1.0502
  Zn  Zn13  1  0.636280  0.364420  0.971620  1.0  1.0513
  Zn  Zn14  1  0.302950  0.697750  0.304950  1.0  1.0513
  Zn  Zn15  1  0.969610  0.031090  0.638290  1.0  1.0513
  Zn  Zn16  1  0.728140  0.363720  0.971620  1.0  1.0506
  Zn  Zn17  1  0.394810  0.697050  0.304950  1.0  1.0506
  Zn  Zn18  1  0.061470  0.030390  0.638290  1.0  1.0506
  Zn  Zn19  1  0.728140  0.364420  0.471620  1.0  1.051
  Zn  Zn20  1  0.394810  0.697750  0.804950  1.0  1.051
  Zn  Zn21  1  0.061470  0.031090  0.138290  1.0  1.051
  Zn  Zn22  1  0.635580  0.363720  0.471620  1.0  1.0509
  Zn  Zn23  1  0.302250  0.697050  0.804950  1.0  1.0509
  Zn  Zn24  1  0.968910  0.030390  0.138290  1.0  1.0509
  Zn  Zn25  1  0.636280  0.271860  0.471620  1.0  1.0502
  Zn  Zn26  1  0.302950  0.605190  0.804950  1.0  1.0502
  Zn  Zn27  1  0.969610  0.938530  0.138290  1.0  1.0503
  Zn  Zn28  1  0.364420  0.728140  0.028380  1.0  1.0504
  Zn  Zn29  1  0.031090  0.061470  0.361710  1.0  1.0504
  Zn  Zn30  1  0.697750  0.394810  0.695050  1.0  1.0504
  Zn  Zn31  1  0.363720  0.635580  0.028380  1.0  1.0499
  Zn  Zn32  1  0.030390  0.968910  0.361710  1.0  1.0499
  Zn  Zn33  1  0.697050  0.302250  0.695050  1.0  1.05
  Zn  Zn34  1  0.271860  0.636280  0.028380  1.0  1.0503
  Zn  Zn35  1  0.938530  0.969610  0.361710  1.0  1.0503
  Zn  Zn36  1  0.605190  0.302950  0.695050  1.0  1.0503
  Zn  Zn37  1  0.333333  0.666667  0.594740  1.0  1.0787
  Zn  Zn38  1  0.000000  0.000000  0.928070  1.0  1.0787
  Zn  Zn39  1  0.666667  0.333333  0.261410  1.0  1.0787
  Zn  Zn40  1  0.666667  0.333333  0.905260  1.0  1.0782
  Zn  Zn41  1  0.333333  0.666667  0.238590  1.0  1.0782
  Zn  Zn42  1  0.000000  0.000000  0.571930  1.0  1.0782
  Zn  Zn43  1  0.666667  0.333333  0.405260  1.0  1.0782
  Zn  Zn44  1  0.333333  0.666667  0.738590  1.0  1.0782
  Zn  Zn45  1  0.000000  0.000000  0.071930  1.0  1.0782
  Zn  Zn46  1  0.333333  0.666667  0.094740  1.0  1.0787
  Zn  Zn47  1  0.000000  0.000000  0.428070  1.0  1.0787
  Zn  Zn48  1  0.666667  0.333333  0.761410  1.0  1.0787
  Zn  Zn49  1  0.166670  0.833330  0.333333  1.0  0.8247
  Zn  Zn50  1  0.166670  0.333333  0.333333  1.0  0.8246
  Zn  Zn51  1  0.666667  0.833330  0.333333  1.0  0.8239
  Zn  Zn52  1  0.833330  0.166670  0.166670  1.0  0.8247
  Zn  Zn53  1  0.500000  0.500000  0.500000  1.0  0.8253
  Zn  Zn54  1  0.333333  0.166670  0.166670  1.0  0.8238
  Zn  Zn55  1  0.000000  0.500000  0.500000  1.0  0.825
  Zn  Zn56  1  0.833330  0.666667  0.166670  1.0  0.824
  Zn  Zn57  1  0.500000  0.000000  0.500000  1.0  0.825
  Zn  Zn58  1  0.833330  0.166670  0.666667  1.0  0.8247
  Zn  Zn59  1  0.500000  0.500000  0.000000  1.0  0.8253
  Zn  Zn60  1  0.833330  0.666667  0.666667  1.0  0.8249
  Zn  Zn61  1  0.500000  0.000000  0.000000  1.0  0.825
  Zn  Zn62  1  0.333333  0.166670  0.666667  1.0  0.8239
  Zn  Zn63  1  0.000000  0.500000  0.000000  1.0  0.825
  Zn  Zn64  1  0.166670  0.833330  0.833330  1.0  0.8246
  Zn  Zn65  1  0.666667  0.833330  0.833330  1.0  0.824
  Zn  Zn66  1  0.166670  0.333333  0.833330  1.0  0.8238
  Zn  Zn67  1  0.000000  0.532670  0.750000  1.0  0.8709
  Zn  Zn68  1  0.666667  0.866000  0.083330  1.0  0.8711
  Zn  Zn69  1  0.333333  0.199340  0.416670  1.0  0.871
  Zn  Zn70  1  0.467330  0.467330  0.750000  1.0  0.8713
  Zn  Zn71  1  0.134000  0.800660  0.083330  1.0  0.8712
  Zn  Zn72  1  0.800660  0.134000  0.416670  1.0  0.8714
  Zn  Zn73  1  0.532670  0.000000  0.750000  1.0  0.8713
  Zn  Zn74  1  0.199340  0.333333  0.083330  1.0  0.8714
  Zn  Zn75  1  0.866000  0.666667  0.416670  1.0  0.8712
  Zn  Zn76  1  0.000000  0.467330  0.250000  1.0  0.8715
  Zn  Zn77  1  0.666667  0.800660  0.583330  1.0  0.8715
  Zn  Zn78  1  0.333333  0.134000  0.916670  1.0  0.8714
  Zn  Zn79  1  0.532670  0.532670  0.250000  1.0  0.8713
  Zn  Zn80  1  0.199340  0.866000  0.583330  1.0  0.8711
  Zn  Zn81  1  0.866000  0.199340  0.916670  1.0  0.8713
  Zn  Zn82  1  0.467330  0.000000  0.250000  1.0  0.8707
  Zn  Zn83  1  0.134000  0.333333  0.583330  1.0  0.871
  Zn  Zn84  1  0.800660  0.666667  0.916670  1.0  0.8708
  H  H85  1  0.318100  0.793900  0.460100  1.0  0.0915
  H  H86  1  0.203400  0.678000  0.461300  1.0  0.1216
  H  H87  1  0.153800  0.607600  0.588500  1.0  0.1043
  H  H88  1  0.235600  0.636100  0.668000  1.0  0.0785
  H  H89  1  0.285800  0.823500  0.422300  1.0  0.1149
  H  H90  1  0.174900  0.708600  0.424000  1.0  0.087
  H  H91  1  0.096000  0.582700  0.627200  1.0  0.0836
  H  H92  1  0.177600  0.617300  0.706200  1.0  0.1128
  H  H93  1  0.172400  0.786100  0.461200  1.0  0.1197
  H  H94  1  0.264500  0.766000  0.358700  1.0  0.1179
  H  H95  1  0.121700  0.671700  0.684700  1.0  0.1116
  H  H96  1  0.111800  0.509100  0.678700  1.0  0.088
  H  H97  1  0.120400  0.815800  0.462900  1.0  0.1227
  H  H98  1  0.276400  0.784700  0.296000  1.0  0.1077
  H  H99  1  0.070800  0.695300  0.705800  1.0  0.1057
  H  H100  1  0.066900  0.438800  0.707100  1.0  0.1167
  H  H101  1  0.089300  0.846700  0.415200  1.0  0.096
  H  H102  1  0.984770  0.127230  0.793430  1.0  0.0915
  H  H103  1  0.870070  0.011330  0.794630  1.0  0.1217
  H  H104  1  0.820470  0.940930  0.921830  1.0  0.1043
  H  H105  1  0.902270  0.969430  0.001330  1.0  0.0785
  H  H106  1  0.952470  0.156830  0.755630  1.0  0.1151
  H  H107  1  0.841570  0.041930  0.757330  1.0  0.0868
  H  H108  1  0.762670  0.916030  0.960530  1.0  0.0836
  H  H109  1  0.844270  0.950630  0.039530  1.0  0.1128
  H  H110  1  0.839070  0.119430  0.794530  1.0  0.1198
  H  H111  1  0.931170  0.099330  0.692030  1.0  0.1178
  H  H112  1  0.788370  0.005030  0.018030  1.0  0.1115
  H  H113  1  0.778470  0.842430  0.012030  1.0  0.0885
  H  H114  1  0.787070  0.149130  0.796230  1.0  0.1237
  H  H115  1  0.943070  0.118030  0.629330  1.0  0.1082
  H  H116  1  0.737470  0.028630  0.039130  1.0  0.1056
  H  H117  1  0.733570  0.772130  0.040430  1.0  0.1167
  H  H118  1  0.755970  0.180030  0.748530  1.0  0.096
  H  H119  1  0.651430  0.460570  0.126770  1.0  0.0915
  H  H120  1  0.536730  0.344670  0.127970  1.0  0.1217
  H  H121  1  0.487130  0.274270  0.255170  1.0  0.1043
  H  H122  1  0.568930  0.302770  0.334670  1.0  0.0785
  H  H123  1  0.619130  0.490170  0.088970  1.0  0.1149
  H  H124  1  0.508230  0.375270  0.090670  1.0  0.087
  H  H125  1  0.429330  0.249370  0.293870  1.0  0.0836
  H  H126  1  0.510930  0.283970  0.372870  1.0  0.1128
  H  H127  1  0.505730  0.452770  0.127870  1.0  0.1197
  H  H128  1  0.597830  0.432670  0.025370  1.0  0.1179
  H  H129  1  0.455030  0.338370  0.351370  1.0  0.1116
  H  H130  1  0.445130  0.175770  0.345370  1.0  0.088
  H  H131  1  0.453730  0.482470  0.129570  1.0  0.1228
  H  H132  1  0.609730  0.451370  0.962670  1.0  0.1077
  H  H133  1  0.404130  0.361970  0.372470  1.0  0.1056
  H  H134  1  0.400230  0.105470  0.373770  1.0  0.1168
  H  H135  1  0.422630  0.513370  0.081870  1.0  0.096
  H  H136  1  0.206100  0.524200  0.460100  1.0  0.0919
  H  H137  1  0.322000  0.525400  0.461300  1.0  0.1214
  H  H138  1  0.392400  0.546200  0.588500  1.0  0.104
  H  H139  1  0.363900  0.599500  0.668000  1.0  0.0784
  H  H140  1  0.176500  0.462300  0.422300  1.0  0.1162
  H  H141  1  0.291400  0.466300  0.424000  1.0  0.087
  H  H142  1  0.417300  0.513300  0.627200  1.0  0.0814
  H  H143  1  0.382700  0.560300  0.706200  1.0  0.1117
  H  H144  1  0.213900  0.386300  0.461200  1.0  0.1196
  H  H145  1  0.234000  0.498500  0.358700  1.0  0.1184
  H  H146  1  0.328300  0.450000  0.684700  1.0  0.1114
  H  H147  1  0.490900  0.602700  0.678700  1.0  0.0889
  H  H148  1  0.184200  0.304600  0.462900  1.0  0.1239
  H  H149  1  0.215300  0.491700  0.296000  1.0  0.1069
  H  H150  1  0.304700  0.375500  0.705800  1.0  0.1065
  H  H151  1  0.561200  0.628100  0.707100  1.0  0.1153
  H  H152  1  0.153300  0.242600  0.415200  1.0  0.0965
  H  H153  1  0.872770  0.857530  0.793430  1.0  0.0919
  H  H154  1  0.988670  0.858730  0.794630  1.0  0.1214
  H  H155  1  0.059070  0.879530  0.921830  1.0  0.1041
  H  H156  1  0.030570  0.932830  0.001330  1.0  0.0784
  H  H157  1  0.843170  0.795630  0.755630  1.0  0.1162
  H  H158  1  0.958070  0.799630  0.757330  1.0  0.0869
  H  H159  1  0.083970  0.846630  0.960530  1.0  0.0814
  H  H160  1  0.049370  0.893630  0.039530  1.0  0.1121
  H  H161  1  0.880570  0.719630  0.794530  1.0  0.1202
  H  H162  1  0.900670  0.831830  0.692030  1.0  0.1184
  H  H163  1  0.994970  0.783330  0.018030  1.0  0.1114
  H  H164  1  0.157570  0.936030  0.012030  1.0  0.0883
  H  H165  1  0.850870  0.637930  0.796230  1.0  0.1248
  H  H166  1  0.881970  0.825030  0.629330  1.0  0.107
  H  H167  1  0.971370  0.708830  0.039130  1.0  0.1066
  H  H168  1  0.227870  0.961430  0.040430  1.0  0.1153
  H  H169  1  0.819970  0.575930  0.748530  1.0  0.0965
  H  H170  1  0.539430  0.190870  0.126770  1.0  0.0919
  H  H171  1  0.655330  0.192070  0.127970  1.0  0.1214
  H  H172  1  0.725730  0.212870  0.255170  1.0  0.1041
  H  H173  1  0.697230  0.266170  0.334670  1.0  0.0784
  H  H174  1  0.509830  0.128970  0.088970  1.0  0.1162
  H  H175  1  0.624730  0.132970  0.090670  1.0  0.087
  H  H176  1  0.750630  0.179970  0.293870  1.0  0.0814
  H  H177  1  0.716030  0.226970  0.372870  1.0  0.1117
  H  H178  1  0.547230  0.052970  0.127870  1.0  0.1196
  H  H179  1  0.567330  0.165170  0.025370  1.0  0.1184
  H  H180  1  0.661630  0.116670  0.351370  1.0  0.1114
  H  H181  1  0.824230  0.269370  0.345370  1.0  0.0889
  H  H182  1  0.517530  0.971270  0.129570  1.0  0.1239
  H  H183  1  0.548630  0.158370  0.962670  1.0  0.1069
  H  H184  1  0.638030  0.042170  0.372470  1.0  0.1066
  H  H185  1  0.894530  0.294770  0.373770  1.0  0.1153
  H  H186  1  0.486630  0.909270  0.081870  1.0  0.0965
  H  H187  1  0.475800  0.681900  0.460100  1.0  0.0918
  H  H188  1  0.474600  0.796600  0.461300  1.0  0.1211
  H  H189  1  0.453800  0.846200  0.588500  1.0  0.1044
  H  H190  1  0.400500  0.764400  0.668000  1.0  0.0784
  H  H191  1  0.537700  0.714200  0.422300  1.0  0.1163
  H  H192  1  0.533700  0.825100  0.424000  1.0  0.086
  H  H193  1  0.486700  0.904000  0.627200  1.0  0.0819
  H  H194  1  0.439700  0.822400  0.706200  1.0  0.1119
  H  H195  1  0.613700  0.827600  0.461200  1.0  0.1203
  H  H196  1  0.501500  0.735500  0.358700  1.0  0.1174
  H  H197  1  0.550000  0.878300  0.684700  1.0  0.1112
  H  H198  1  0.397300  0.888200  0.678700  1.0  0.0884
  H  H199  1  0.695400  0.879600  0.462900  1.0  0.1235
  H  H200  1  0.508300  0.723600  0.296000  1.0  0.1074
  H  H201  1  0.624500  0.929200  0.705800  1.0  0.1057
  H  H202  1  0.371900  0.933100  0.707100  1.0  0.1173
  H  H203  1  0.757400  0.910700  0.415200  1.0  0.0957
  H  H204  1  0.142470  0.015230  0.793430  1.0  0.0918
  H  H205  1  0.141270  0.129930  0.794630  1.0  0.1211
  H  H206  1  0.120470  0.179530  0.921830  1.0  0.1044
  H  H207  1  0.067170  0.097730  0.001330  1.0  0.0782
  H  H208  1  0.204370  0.047530  0.755630  1.0  0.1163
  H  H209  1  0.200370  0.158430  0.757330  1.0  0.086
  H  H210  1  0.153370  0.237330  0.960530  1.0  0.0819
  H  H211  1  0.106370  0.155730  0.039530  1.0  0.1123
  H  H212  1  0.280370  0.160930  0.794530  1.0  0.1209
  H  H213  1  0.168170  0.068830  0.692030  1.0  0.1174
  H  H214  1  0.216670  0.211630  0.018030  1.0  0.1111
  H  H215  1  0.063970  0.221530  0.012030  1.0  0.0896
  H  H216  1  0.362070  0.212930  0.796230  1.0  0.1235
  H  H217  1  0.174970  0.056930  0.629330  1.0  0.108
  H  H218  1  0.291170  0.262530  0.039130  1.0  0.1056
  H  H219  1  0.038570  0.266430  0.040430  1.0  0.1173
  H  H220  1  0.424070  0.244030  0.748530  1.0  0.0957
  H  H221  1  0.809130  0.348570  0.126770  1.0  0.0918
  H  H222  1  0.807930  0.463270  0.127970  1.0  0.1211
  H  H223  1  0.787130  0.512870  0.255170  1.0  0.1044
  H  H224  1  0.733830  0.431070  0.334670  1.0  0.0784
  H  H225  1  0.871030  0.380870  0.088970  1.0  0.1163
  H  H226  1  0.867030  0.491770  0.090670  1.0  0.086
  H  H227  1  0.820030  0.570670  0.293870  1.0  0.082
  H  H228  1  0.773030  0.489070  0.372870  1.0  0.1119
  H  H229  1  0.947030  0.494270  0.127870  1.0  0.1203
  H  H230  1  0.834830  0.402170  0.025370  1.0  0.1174
  H  H231  1  0.883330  0.544970  0.351370  1.0  0.1112
  H  H232  1  0.730630  0.554870  0.345370  1.0  0.0884
  H  H233  1  0.028730  0.546270  0.129570  1.0  0.1235
  H  H234  1  0.841630  0.390270  0.962670  1.0  0.1075
  H  H235  1  0.957830  0.595870  0.372470  1.0  0.1058
  H  H236  1  0.705230  0.599770  0.373770  1.0  0.1174
  H  H237  1  0.090730  0.577370  0.081870  1.0  0.0958
  H  H238  1  0.793900  0.318100  0.039900  1.0  0.092
  H  H239  1  0.678000  0.203400  0.038700  1.0  0.1212
  H  H240  1  0.607600  0.153800  0.911500  1.0  0.1044
  H  H241  1  0.636100  0.235600  0.832000  1.0  0.0784
  H  H242  1  0.823500  0.285800  0.077700  1.0  0.1161
  H  H243  1  0.708600  0.174900  0.076000  1.0  0.0839
  H  H244  1  0.582700  0.096000  0.872800  1.0  0.082
  H  H245  1  0.617300  0.177600  0.793800  1.0  0.1121
  H  H246  1  0.786100  0.172400  0.038800  1.0  0.1197
  H  H247  1  0.766000  0.264500  0.141300  1.0  0.1177
  H  H248  1  0.671700  0.121700  0.815300  1.0  0.1106
  H  H249  1  0.509100  0.111800  0.821300  1.0  0.0884
  H  H250  1  0.815800  0.120400  0.037100  1.0  0.1235
  H  H251  1  0.784700  0.276400  0.204000  1.0  0.1077
  H  H252  1  0.695300  0.070800  0.794200  1.0  0.1056
  H  H253  1  0.438800  0.066900  0.792900  1.0  0.1183
  H  H254  1  0.846700  0.089300  0.084800  1.0  0.0965
  H  H255  1  0.460570  0.651430  0.373230  1.0  0.092
  H  H256  1  0.344670  0.536730  0.372030  1.0  0.1212
  H  H257  1  0.274270  0.487130  0.244830  1.0  0.1044
  H  H258  1  0.302770  0.568930  0.165330  1.0  0.0784
  H  H259  1  0.490170  0.619130  0.411030  1.0  0.1161
  H  H260  1  0.375270  0.508230  0.409330  1.0  0.0839
  H  H261  1  0.249370  0.429330  0.206130  1.0  0.0821
  H  H262  1  0.283970  0.510930  0.127130  1.0  0.1121
  H  H263  1  0.452770  0.505730  0.372130  1.0  0.1197
  H  H264  1  0.432670  0.597830  0.474630  1.0  0.1176
  H  H265  1  0.338370  0.455030  0.148630  1.0  0.1106
  H  H266  1  0.175770  0.445130  0.154630  1.0  0.0884
  H  H267  1  0.482470  0.453730  0.370430  1.0  0.1236
  H  H268  1  0.451370  0.609730  0.537330  1.0  0.1077
  H  H269  1  0.361970  0.404130  0.127530  1.0  0.1056
  H  H270  1  0.105470  0.400230  0.126230  1.0  0.1184
  H  H271  1  0.513370  0.422630  0.418130  1.0  0.0965
  H  H272  1  0.127230  0.984770  0.706570  1.0  0.092
  H  H273  1  0.011330  0.870070  0.705370  1.0  0.1212
  H  H274  1  0.940930  0.820470  0.578170  1.0  0.1044
  H  H275  1  0.969430  0.902270  0.498670  1.0  0.0784
  H  H276  1  0.156830  0.952470  0.744370  1.0  0.1161
  H  H277  1  0.041930  0.841570  0.742670  1.0  0.0837
  H  H278  1  0.916030  0.762670  0.539470  1.0  0.082
  H  H279  1  0.950630  0.844270  0.460470  1.0  0.1121
  H  H280  1  0.119430  0.839070  0.705470  1.0  0.1197
  H  H281  1  0.099330  0.931170  0.807970  1.0  0.1177
  H  H282  1  0.005030  0.788370  0.481970  1.0  0.1104
  H  H283  1  0.842430  0.778470  0.487970  1.0  0.0889
  H  H284  1  0.149130  0.787070  0.703770  1.0  0.1249
  H  H285  1  0.118030  0.943070  0.870670  1.0  0.1083
  H  H286  1  0.028630  0.737470  0.460870  1.0  0.1056
  H  H287  1  0.772130  0.733570  0.459570  1.0  0.1183
  H  H288  1  0.180030  0.755970  0.751470  1.0  0.0965
  H  H289  1  0.524200  0.206100  0.039900  1.0  0.0917
  H  H290  1  0.525400  0.322000  0.038700  1.0  0.1225
  H  H291  1  0.546200  0.392400  0.911500  1.0  0.1047
  H  H292  1  0.599500  0.363900  0.832000  1.0  0.0784
  H  H293  1  0.462300  0.176500  0.077700  1.0  0.1144
  H  H294  1  0.466300  0.291400  0.076000  1.0  0.0862
  H  H295  1  0.513300  0.417300  0.872800  1.0  0.0832
  H  H296  1  0.560300  0.382700  0.793800  1.0  0.113
  H  H297  1  0.386300  0.213900  0.038800  1.0  0.1194
  H  H298  1  0.498500  0.234000  0.141300  1.0  0.1178
  H  H299  1  0.450000  0.328300  0.815300  1.0  0.1111
  H  H300  1  0.602700  0.490900  0.821300  1.0  0.0879
  H  H301  1  0.304600  0.184200  0.037100  1.0  0.1221
  H  H302  1  0.491700  0.215300  0.204000  1.0  0.1071
  H  H303  1  0.375500  0.304700  0.794200  1.0  0.1049
  H  H304  1  0.628100  0.561200  0.792900  1.0  0.1168
  H  H305  1  0.242600  0.153300  0.084800  1.0  0.0973
  H  H306  1  0.190870  0.539430  0.373230  1.0  0.0917
  H  H307  1  0.192070  0.655330  0.372030  1.0  0.1225
  H  H308  1  0.212870  0.725730  0.244830  1.0  0.1047
  H  H309  1  0.266170  0.697230  0.165330  1.0  0.0784
  H  H310  1  0.128970  0.509830  0.411030  1.0  0.1143
  H  H311  1  0.132970  0.624730  0.409330  1.0  0.0862
  H  H312  1  0.179970  0.750630  0.206130  1.0  0.0833
  H  H313  1  0.226970  0.716030  0.127130  1.0  0.113
  H  H314  1  0.052970  0.547230  0.372130  1.0  0.1166
  H  H315  1  0.165170  0.567330  0.474630  1.0  0.1178
  H  H316  1  0.116670  0.661630  0.148630  1.0  0.1112
  H  H317  1  0.269370  0.824230  0.154630  1.0  0.0879
  H  H318  1  0.971270  0.517530  0.370430  1.0  0.1221
  H  H319  1  0.158370  0.548630  0.537330  1.0  0.1071
  H  H320  1  0.042170  0.638030  0.127530  1.0  0.105
  H  H321  1  0.294770  0.894530  0.126230  1.0  0.1168
  H  H322  1  0.909270  0.486630  0.418130  1.0  0.0973
  H  H323  1  0.857530  0.872770  0.706570  1.0  0.0917
  H  H324  1  0.858730  0.988670  0.705370  1.0  0.1225
  H  H325  1  0.879530  0.059070  0.578170  1.0  0.1047
  H  H326  1  0.932830  0.030570  0.498670  1.0  0.0784
  H  H327  1  0.795630  0.843170  0.744370  1.0  0.1143
  H  H328  1  0.799630  0.958070  0.742670  1.0  0.0861
  H  H329  1  0.846630  0.083970  0.539470  1.0  0.0832
  H  H330  1  0.893630  0.049370  0.460470  1.0  0.113
  H  H331  1  0.719630  0.880570  0.705470  1.0  0.12
  H  H332  1  0.831830  0.900670  0.807970  1.0  0.1178
  H  H333  1  0.783330  0.994970  0.481970  1.0  0.1112
  H  H334  1  0.936030  0.157570  0.487970  1.0  0.0875
  H  H335  1  0.637930  0.850870  0.703770  1.0  0.1236
  H  H336  1  0.825030  0.881970  0.870670  1.0  0.1073
  H  H337  1  0.708830  0.971370  0.460870  1.0  0.105
  H  H338  1  0.961430  0.227870  0.459570  1.0  0.1168
  H  H339  1  0.575930  0.819970  0.751470  1.0  0.0973
  H  H340  1  0.681900  0.475800  0.039900  1.0  0.0924
  H  H341  1  0.796600  0.474600  0.038700  1.0  0.1224
  H  H342  1  0.846200  0.453800  0.911500  1.0  0.1044
  H  H343  1  0.764400  0.400500  0.832000  1.0  0.0775
  H  H344  1  0.714200  0.537700  0.077700  1.0  0.1156
  H  H345  1  0.825100  0.533700  0.076000  1.0  0.0856
  H  H346  1  0.904000  0.486700  0.872800  1.0  0.0812
  H  H347  1  0.822400  0.439700  0.793800  1.0  0.1122
  H  H348  1  0.827600  0.613700  0.038800  1.0  0.1192
  H  H349  1  0.735500  0.501500  0.141300  1.0  0.118
  H  H350  1  0.878300  0.550000  0.815300  1.0  0.1113
  H  H351  1  0.888200  0.397300  0.821300  1.0  0.0874
  H  H352  1  0.879600  0.695400  0.037100  1.0  0.1232
  H  H353  1  0.723600  0.508300  0.204000  1.0  0.1066
  H  H354  1  0.929200  0.624500  0.794200  1.0  0.1069
  H  H355  1  0.933100  0.371900  0.792900  1.0  0.1156
  H  H356  1  0.910700  0.757400  0.084800  1.0  0.0972
  H  H357  1  0.348570  0.809130  0.373230  1.0  0.0924
  H  H358  1  0.463270  0.807930  0.372030  1.0  0.1224
  H  H359  1  0.512870  0.787130  0.244830  1.0  0.1043
  H  H360  1  0.431070  0.733830  0.165330  1.0  0.0775
  H  H361  1  0.380870  0.871030  0.411030  1.0  0.1156
  H  H362  1  0.491770  0.867030  0.409330  1.0  0.0856
  H  H363  1  0.570670  0.820030  0.206130  1.0  0.0813
  H  H364  1  0.489070  0.773030  0.127130  1.0  0.1122
  H  H365  1  0.494270  0.947030  0.372130  1.0  0.1192
  H  H366  1  0.402170  0.834830  0.474630  1.0  0.118
  H  H367  1  0.544970  0.883330  0.148630  1.0  0.1113
  H  H368  1  0.554870  0.730630  0.154630  1.0  0.0874
  H  H369  1  0.546270  0.028730  0.370430  1.0  0.1232
  H  H370  1  0.390270  0.841630  0.537330  1.0  0.1067
  H  H371  1  0.595870  0.957830  0.127530  1.0  0.1071
  H  H372  1  0.599770  0.705230  0.126230  1.0  0.1157
  H  H373  1  0.577370  0.090730  0.418130  1.0  0.0972
  H  H374  1  0.015230  0.142470  0.706570  1.0  0.0925
  H  H375  1  0.129930  0.141270  0.705370  1.0  0.1224
  H  H376  1  0.179530  0.120470  0.578170  1.0  0.1043
  H  H377  1  0.097730  0.067170  0.498670  1.0  0.0774
  H  H378  1  0.047530  0.204370  0.744370  1.0  0.1156
  H  H379  1  0.158430  0.200370  0.742670  1.0  0.0857
  H  H380  1  0.237330  0.153370  0.539470  1.0  0.0812
  H  H381  1  0.155730  0.106370  0.460470  1.0  0.1122
  H  H382  1  0.160930  0.280370  0.705470  1.0  0.1198
  H  H383  1  0.068830  0.168170  0.807970  1.0  0.118
  H  H384  1  0.211630  0.216670  0.481970  1.0  0.1112
  H  H385  1  0.221530  0.063970  0.487970  1.0  0.0886
  H  H386  1  0.212930  0.362070  0.703770  1.0  0.1232
  H  H387  1  0.056930  0.174970  0.870670  1.0  0.1072
  H  H388  1  0.262530  0.291170  0.460870  1.0  0.1069
  H  H389  1  0.266430  0.038570  0.459570  1.0  0.1156
  H  H390  1  0.244030  0.424070  0.751470  1.0  0.0972
  H  H391  1  0.681900  0.206100  0.539900  1.0  0.0918
  H  H392  1  0.796600  0.322000  0.538700  1.0  0.1232
  H  H393  1  0.846200  0.392400  0.411500  1.0  0.1046
  H  H394  1  0.764400  0.363900  0.332000  1.0  0.0776
  H  H395  1  0.714200  0.176500  0.577700  1.0  0.1139
  H  H396  1  0.825100  0.291400  0.576000  1.0  0.0849
  H  H397  1  0.904000  0.417300  0.372800  1.0  0.0819
  H  H398  1  0.822400  0.382700  0.293800  1.0  0.1123
  H  H399  1  0.827600  0.213900  0.538800  1.0  0.1197
  H  H400  1  0.735500  0.234000  0.641300  1.0  0.1163
  H  H401  1  0.878300  0.328300  0.315300  1.0  0.1109
  H  H402  1  0.888200  0.490900  0.321300  1.0  0.0876
  H  H403  1  0.879600  0.184200  0.537100  1.0  0.122
  H  H404  1  0.723600  0.215300  0.704000  1.0  0.1068
  H  H405  1  0.929200  0.304700  0.294200  1.0  0.1051
  H  H406  1  0.933100  0.561200  0.292900  1.0  0.1167
  H  H407  1  0.910700  0.153300  0.584800  1.0  0.0968
  H  H408  1  0.348570  0.539430  0.873230  1.0  0.0918
  H  H409  1  0.463270  0.655330  0.872030  1.0  0.1232
  H  H410  1  0.512870  0.725730  0.744830  1.0  0.1046
  H  H411  1  0.431070  0.697230  0.665330  1.0  0.0776
  H  H412  1  0.380870  0.509830  0.911030  1.0  0.1139
  H  H413  1  0.491770  0.624730  0.909330  1.0  0.0849
  H  H414  1  0.570670  0.750630  0.706130  1.0  0.082
  H  H415  1  0.489070  0.716030  0.627130  1.0  0.1123
  H  H416  1  0.494270  0.547230  0.872130  1.0  0.1197
  H  H417  1  0.402170  0.567330  0.974630  1.0  0.1162
  H  H418  1  0.544970  0.661630  0.648630  1.0  0.1109
  H  H419  1  0.554870  0.824230  0.654630  1.0  0.0876
  H  H420  1  0.546270  0.517530  0.870430  1.0  0.1221
  H  H421  1  0.390270  0.548630  0.037330  1.0  0.1068
  H  H422  1  0.595870  0.638030  0.627530  1.0  0.1051
  H  H423  1  0.599770  0.894530  0.626230  1.0  0.1168
  H  H424  1  0.577370  0.486630  0.918130  1.0  0.0968
  H  H425  1  0.015230  0.872770  0.206570  1.0  0.0918
  H  H426  1  0.129930  0.988670  0.205370  1.0  0.1232
  H  H427  1  0.179530  0.059070  0.078170  1.0  0.1046
  H  H428  1  0.097730  0.030570  0.998670  1.0  0.0776
  H  H429  1  0.047530  0.843170  0.244370  1.0  0.114
  H  H430  1  0.158430  0.958070  0.242670  1.0  0.0843
  H  H431  1  0.237330  0.083970  0.039470  1.0  0.0818
  H  H432  1  0.155730  0.049370  0.960470  1.0  0.1115
  H  H433  1  0.160930  0.880570  0.205470  1.0  0.1196
  H  H434  1  0.068830  0.900670  0.307970  1.0  0.1163
  H  H435  1  0.211630  0.994970  0.981970  1.0  0.1107
  H  H436  1  0.221530  0.157570  0.987970  1.0  0.088
  H  H437  1  0.212930  0.850870  0.203770  1.0  0.1236
  H  H438  1  0.056930  0.881970  0.370670  1.0  0.1072
  H  H439  1  0.262530  0.971370  0.960870  1.0  0.1051
  H  H440  1  0.266430  0.227870  0.959570  1.0  0.1167
  H  H441  1  0.244030  0.819970  0.251470  1.0  0.0968
  H  H442  1  0.793900  0.475800  0.539900  1.0  0.0921
  H  H443  1  0.678000  0.474600  0.538700  1.0  0.1224
  H  H444  1  0.607600  0.453800  0.411500  1.0  0.1043
  H  H445  1  0.636100  0.400500  0.332000  1.0  0.0786
  H  H446  1  0.823500  0.537700  0.577700  1.0  0.1166
  H  H447  1  0.708600  0.533700  0.576000  1.0  0.0847
  H  H448  1  0.582700  0.486700  0.372800  1.0  0.0817
  H  H449  1  0.617300  0.439700  0.293800  1.0  0.1127
  H  H450  1  0.786100  0.613700  0.538800  1.0  0.1193
  H  H451  1  0.766000  0.501500  0.641300  1.0  0.1181
  H  H452  1  0.671700  0.550000  0.315300  1.0  0.111
  H  H453  1  0.509100  0.397300  0.321300  1.0  0.0878
  H  H454  1  0.815800  0.695400  0.537100  1.0  0.1233
  H  H455  1  0.784700  0.508300  0.704000  1.0  0.1063
  H  H456  1  0.695300  0.624500  0.294200  1.0  0.1066
  H  H457  1  0.438800  0.371900  0.292900  1.0  0.1156
  H  H458  1  0.846700  0.757400  0.584800  1.0  0.0975
  H  H459  1  0.460570  0.809130  0.873230  1.0  0.0921
  H  H460  1  0.344670  0.807930  0.872030  1.0  0.1224
  H  H461  1  0.274270  0.787130  0.744830  1.0  0.1043
  H  H462  1  0.302770  0.733830  0.665330  1.0  0.0786
  H  H463  1  0.490170  0.871030  0.911030  1.0  0.1166
  H  H464  1  0.375270  0.867030  0.909330  1.0  0.0847
  H  H465  1  0.249370  0.820030  0.706130  1.0  0.0817
  H  H466  1  0.283970  0.773030  0.627130  1.0  0.1127
  H  H467  1  0.452770  0.947030  0.872130  1.0  0.1193
  H  H468  1  0.432670  0.834830  0.974630  1.0  0.1181
  H  H469  1  0.338370  0.883330  0.648630  1.0  0.111
  H  H470  1  0.175770  0.730630  0.654630  1.0  0.0878
  H  H471  1  0.482470  0.028730  0.870430  1.0  0.1232
  H  H472  1  0.451370  0.841630  0.037330  1.0  0.1062
  H  H473  1  0.361970  0.957830  0.627530  1.0  0.1066
  H  H474  1  0.105470  0.705230  0.626230  1.0  0.1156
  H  H475  1  0.513370  0.090730  0.918130  1.0  0.0975
  H  H476  1  0.127230  0.142470  0.206570  1.0  0.0921
  H  H477  1  0.011330  0.141270  0.205370  1.0  0.1224
  H  H478  1  0.940930  0.120470  0.078170  1.0  0.1043
  H  H479  1  0.969430  0.067170  0.998670  1.0  0.0786
  H  H480  1  0.156830  0.204370  0.244370  1.0  0.1165
  H  H481  1  0.041930  0.200370  0.242670  1.0  0.0847
  H  H482  1  0.916030  0.153370  0.039470  1.0  0.0817
  H  H483  1  0.950630  0.106370  0.960470  1.0  0.1126
  H  H484  1  0.119430  0.280370  0.205470  1.0  0.1199
  H  H485  1  0.099330  0.168170  0.307970  1.0  0.1181
  H  H486  1  0.005030  0.216670  0.981970  1.0  0.111
  H  H487  1  0.842430  0.063970  0.987970  1.0  0.0873
  H  H488  1  0.149130  0.362070  0.203770  1.0  0.1248
  H  H489  1  0.118030  0.174970  0.370670  1.0  0.1064
  H  H490  1  0.028630  0.291170  0.960870  1.0  0.1066
  H  H491  1  0.772130  0.038570  0.959570  1.0  0.1156
  H  H492  1  0.180030  0.424070  0.251470  1.0  0.0975
  H  H493  1  0.524200  0.318100  0.539900  1.0  0.0921
  H  H494  1  0.525400  0.203400  0.538700  1.0  0.1212
  H  H495  1  0.546200  0.153800  0.411500  1.0  0.1046
  H  H496  1  0.599500  0.235600  0.332000  1.0  0.079
  H  H497  1  0.462300  0.285800  0.577700  1.0  0.1158
  H  H498  1  0.466300  0.174900  0.576000  1.0  0.086
  H  H499  1  0.513300  0.096000  0.372800  1.0  0.0818
  H  H500  1  0.560300  0.177600  0.293800  1.0  0.113
  H  H501  1  0.386300  0.172400  0.538800  1.0  0.1193
  H  H502  1  0.498500  0.264500  0.641300  1.0  0.1177
  H  H503  1  0.450000  0.121700  0.315300  1.0  0.1106
  H  H504  1  0.602700  0.111800  0.321300  1.0  0.0882
  H  H505  1  0.304600  0.120400  0.537100  1.0  0.1237
  H  H506  1  0.491700  0.276400  0.704000  1.0  0.1077
  H  H507  1  0.375500  0.070800  0.294200  1.0  0.1077
  H  H508  1  0.628100  0.066900  0.292900  1.0  0.1167
  H  H509  1  0.242600  0.089300  0.584800  1.0  0.0965
  H  H510  1  0.190870  0.651430  0.873230  1.0  0.0921
  H  H511  1  0.192070  0.536730  0.872030  1.0  0.1212
  H  H512  1  0.212870  0.487130  0.744830  1.0  0.1046
  H  H513  1  0.266170  0.568930  0.665330  1.0  0.079
  H  H514  1  0.128970  0.619130  0.911030  1.0  0.1158
  H  H515  1  0.132970  0.508230  0.909330  1.0  0.086
  H  H516  1  0.179970  0.429330  0.706130  1.0  0.0819
  H  H517  1  0.226970  0.510930  0.627130  1.0  0.113
  H  H518  1  0.052970  0.505730  0.872130  1.0  0.1165
  H  H519  1  0.165170  0.597830  0.974630  1.0  0.1177
  H  H520  1  0.116670  0.455030  0.648630  1.0  0.1106
  H  H521  1  0.269370  0.445130  0.654630  1.0  0.0882
  H  H522  1  0.971270  0.453730  0.870430  1.0  0.1237
  H  H523  1  0.158370  0.609730  0.037330  1.0  0.1078
  H  H524  1  0.042170  0.404130  0.627530  1.0  0.1078
  H  H525  1  0.294770  0.400230  0.626230  1.0  0.1169
  H  H526  1  0.909270  0.422630  0.918130  1.0  0.0965
  H  H527  1  0.857530  0.984770  0.206570  1.0  0.0921
  H  H528  1  0.858730  0.870070  0.205370  1.0  0.1212
  H  H529  1  0.879530  0.820470  0.078170  1.0  0.1046
  H  H530  1  0.932830  0.902270  0.998670  1.0  0.0788
  H  H531  1  0.795630  0.952470  0.244370  1.0  0.1158
  H  H532  1  0.799630  0.841570  0.242670  1.0  0.0861
  H  H533  1  0.846630  0.762670  0.039470  1.0  0.0818
  H  H534  1  0.893630  0.844270  0.960470  1.0  0.113
  H  H535  1  0.719630  0.839070  0.205470  1.0  0.1199
  H  H536  1  0.831830  0.931170  0.307970  1.0  0.1177
  H  H537  1  0.783330  0.788370  0.981970  1.0  0.1105
  H  H538  1  0.936030  0.778470  0.987970  1.0  0.0892
  H  H539  1  0.637930  0.787070  0.203770  1.0  0.1237
  H  H540  1  0.825030  0.943070  0.370670  1.0  0.1083
  H  H541  1  0.708830  0.737470  0.960870  1.0  0.1076
  H  H542  1  0.961430  0.733570  0.959570  1.0  0.1167
  H  H543  1  0.575930  0.755970  0.251470  1.0  0.0965
  H  H544  1  0.206100  0.681900  0.960100  1.0  0.0923
  H  H545  1  0.322000  0.796600  0.961300  1.0  0.121
  H  H546  1  0.392400  0.846200  0.088500  1.0  0.1041
  H  H547  1  0.363900  0.764400  0.168000  1.0  0.0793
  H  H548  1  0.176500  0.714200  0.922300  1.0  0.1159
  H  H549  1  0.291400  0.825100  0.924000  1.0  0.0869
  H  H550  1  0.417300  0.904000  0.127200  1.0  0.0815
  H  H551  1  0.382700  0.822400  0.206200  1.0  0.1122
  H  H552  1  0.213900  0.827600  0.961200  1.0  0.1199
  H  H553  1  0.234000  0.735500  0.858700  1.0  0.1174
  H  H554  1  0.328300  0.878300  0.184700  1.0  0.1113
  H  H555  1  0.490900  0.888200  0.178700  1.0  0.0878
  H  H556  1  0.184200  0.879600  0.962900  1.0  0.1237
  H  H557  1  0.215300  0.723600  0.796000  1.0  0.1078
  H  H558  1  0.304700  0.929200  0.205800  1.0  0.1076
  H  H559  1  0.561200  0.933100  0.207100  1.0  0.116
  H  H560  1  0.153300  0.910700  0.915200  1.0  0.0955
  H  H561  1  0.872770  0.015230  0.293430  1.0  0.0923
  H  H562  1  0.988670  0.129930  0.294630  1.0  0.121
  H  H563  1  0.059070  0.179530  0.421830  1.0  0.1041
  H  H564  1  0.030570  0.097730  0.501330  1.0  0.0793
  H  H565  1  0.843170  0.047530  0.255630  1.0  0.116
  H  H566  1  0.958070  0.158430  0.257330  1.0  0.0866
  H  H567  1  0.083970  0.237330  0.460530  1.0  0.0815
  H  H568  1  0.049370  0.155730  0.539530  1.0  0.1121
  H  H569  1  0.880570  0.160930  0.294530  1.0  0.1199
  H  H570  1  0.900670  0.068830  0.192030  1.0  0.1175
  H  H571  1  0.994970  0.211630  0.518030  1.0  0.1111
  H  H572  1  0.157570  0.221530  0.512030  1.0  0.0882
  H  H573  1  0.850870  0.212930  0.296230  1.0  0.1248
  H  H574  1  0.881970  0.056930  0.129330  1.0  0.1083
  H  H575  1  0.971370  0.262530  0.539130  1.0  0.1075
  H  H576  1  0.227870  0.266430  0.540430  1.0  0.116
  H  H577  1  0.819970  0.244030  0.248530  1.0  0.0955
  H  H578  1  0.539430  0.348570  0.626770  1.0  0.0923
  H  H579  1  0.655330  0.463270  0.627970  1.0  0.121
  H  H580  1  0.725730  0.512870  0.755170  1.0  0.1041
  H  H581  1  0.697230  0.431070  0.834670  1.0  0.0793
  H  H582  1  0.509830  0.380870  0.588970  1.0  0.1159
  H  H583  1  0.624730  0.491770  0.590670  1.0  0.0869
  H  H584  1  0.750630  0.570670  0.793870  1.0  0.0815
  H  H585  1  0.716030  0.489070  0.872870  1.0  0.1122
  H  H586  1  0.547230  0.494270  0.627870  1.0  0.1199
  H  H587  1  0.567330  0.402170  0.525370  1.0  0.1174
  H  H588  1  0.661630  0.544970  0.851370  1.0  0.1113
  H  H589  1  0.824230  0.554870  0.845370  1.0  0.0878
  H  H590  1  0.517530  0.546270  0.629570  1.0  0.1238
  H  H591  1  0.548630  0.390270  0.462670  1.0  0.1078
  H  H592  1  0.638030  0.595870  0.872470  1.0  0.1075
  H  H593  1  0.894530  0.599770  0.873770  1.0  0.1161
  H  H594  1  0.486630  0.577370  0.581870  1.0  0.0955
  H  H595  1  0.475800  0.793900  0.960100  1.0  0.0917
  H  H596  1  0.474600  0.678000  0.961300  1.0  0.1222
  H  H597  1  0.453800  0.607600  0.088500  1.0  0.1041
  H  H598  1  0.400500  0.636100  0.168000  1.0  0.0774
  H  H599  1  0.537700  0.823500  0.922300  1.0  0.1148
  H  H600  1  0.533700  0.708600  0.924000  1.0  0.0854
  H  H601  1  0.486700  0.582700  0.127200  1.0  0.0831
  H  H602  1  0.439700  0.617300  0.206200  1.0  0.1119
  H  H603  1  0.613700  0.786100  0.961200  1.0  0.1203
  H  H604  1  0.501500  0.766000  0.858700  1.0  0.1181
  H  H605  1  0.550000  0.671700  0.184700  1.0  0.1114
  H  H606  1  0.397300  0.509100  0.178700  1.0  0.0888
  H  H607  1  0.695400  0.815800  0.962900  1.0  0.1228
  H  H608  1  0.508300  0.784700  0.796000  1.0  0.1069
  H  H609  1  0.624500  0.695300  0.205800  1.0  0.1057
  H  H610  1  0.371900  0.438800  0.207100  1.0  0.1167
  H  H611  1  0.757400  0.846700  0.915200  1.0  0.0964
  H  H612  1  0.142470  0.127230  0.293430  1.0  0.0917
  H  H613  1  0.141270  0.011330  0.294630  1.0  0.1222
  H  H614  1  0.120470  0.940930  0.421830  1.0  0.1041
  H  H615  1  0.067170  0.969430  0.501330  1.0  0.0776
  H  H616  1  0.204370  0.156830  0.255630  1.0  0.1146
  H  H617  1  0.200370  0.041930  0.257330  1.0  0.0862
  H  H618  1  0.153370  0.916030  0.460530  1.0  0.0831
  H  H619  1  0.106370  0.950630  0.539530  1.0  0.1119
  H  H620  1  0.280370  0.119430  0.294530  1.0  0.1209
  H  H621  1  0.168170  0.099330  0.192030  1.0  0.1181
  H  H622  1  0.216670  0.005030  0.518030  1.0  0.1115
  H  H623  1  0.063970  0.842430  0.512030  1.0  0.0883
  H  H624  1  0.362070  0.149130  0.296230  1.0  0.1244
  H  H625  1  0.174970  0.118030  0.129330  1.0  0.107
  H  H626  1  0.291170  0.028630  0.539130  1.0  0.1057
  H  H627  1  0.038570  0.772130  0.540430  1.0  0.1167
  H  H628  1  0.424070  0.180030  0.248530  1.0  0.0964
  H  H629  1  0.809130  0.460570  0.626770  1.0  0.0917
  H  H630  1  0.807930  0.344670  0.627970  1.0  0.1222
  H  H631  1  0.787130  0.274270  0.755170  1.0  0.1041
  H  H632  1  0.733830  0.302770  0.834670  1.0  0.0774
  H  H633  1  0.871030  0.490170  0.588970  1.0  0.1148
  H  H634  1  0.867030  0.375270  0.590670  1.0  0.0854
  H  H635  1  0.820030  0.249370  0.793870  1.0  0.0831
  H  H636  1  0.773030  0.283970  0.872870  1.0  0.1119
  H  H637  1  0.947030  0.452770  0.627870  1.0  0.1203
  H  H638  1  0.834830  0.432670  0.525370  1.0  0.1181
  H  H639  1  0.883330  0.338370  0.851370  1.0  0.1114
  H  H640  1  0.730630  0.175770  0.845370  1.0  0.0888
  H  H641  1  0.028730  0.482470  0.629570  1.0  0.1228
  H  H642  1  0.841630  0.451370  0.462670  1.0  0.1069
  H  H643  1  0.957830  0.361970  0.872470  1.0  0.1057
  H  H644  1  0.705230  0.105470  0.873770  1.0  0.1167
  H  H645  1  0.090730  0.513370  0.581870  1.0  0.0964
  H  H646  1  0.318100  0.524200  0.960100  1.0  0.0918
  H  H647  1  0.203400  0.525400  0.961300  1.0  0.1214
  H  H648  1  0.153800  0.546200  0.088500  1.0  0.1039
  H  H649  1  0.235600  0.599500  0.168000  1.0  0.0785
  H  H650  1  0.285800  0.462300  0.922300  1.0  0.1166
  H  H651  1  0.174900  0.466300  0.924000  1.0  0.0871
  H  H652  1  0.096000  0.513300  0.127200  1.0  0.0814
  H  H653  1  0.177600  0.560300  0.206200  1.0  0.1123
  H  H654  1  0.172400  0.386300  0.961200  1.0  0.1162
  H  H655  1  0.264500  0.498500  0.858700  1.0  0.1185
  H  H656  1  0.121700  0.450000  0.184700  1.0  0.1111
  H  H657  1  0.111800  0.602700  0.178700  1.0  0.0884
  H  H658  1  0.120400  0.304600  0.962900  1.0  0.1239
  H  H659  1  0.276400  0.491700  0.796000  1.0  0.1063
  H  H660  1  0.070800  0.375500  0.205800  1.0  0.1064
  H  H661  1  0.066900  0.628100  0.207100  1.0  0.1158
  H  H662  1  0.089300  0.242600  0.915200  1.0  0.0966
  H  H663  1  0.984770  0.857530  0.293430  1.0  0.0918
  H  H664  1  0.870070  0.858730  0.294630  1.0  0.1214
  H  H665  1  0.820470  0.879530  0.421830  1.0  0.1038
  H  H666  1  0.902270  0.932830  0.501330  1.0  0.0784
  H  H667  1  0.952470  0.795630  0.255630  1.0  0.1166
  H  H668  1  0.841570  0.799630  0.257330  1.0  0.0872
  H  H669  1  0.762670  0.846630  0.460530  1.0  0.0814
  H  H670  1  0.844270  0.893630  0.539530  1.0  0.1123
  H  H671  1  0.839070  0.719630  0.294530  1.0  0.1168
  H  H672  1  0.931170  0.831830  0.192030  1.0  0.1185
  H  H673  1  0.788370  0.783330  0.518030  1.0  0.111
  H  H674  1  0.778470  0.936030  0.512030  1.0  0.0896
  H  H675  1  0.787070  0.637930  0.296230  1.0  0.1239
  H  H676  1  0.943070  0.825030  0.129330  1.0  0.1069
  H  H677  1  0.737470  0.708830  0.539130  1.0  0.1064
  H  H678  1  0.733570  0.961430  0.540430  1.0  0.1158
  H  H679  1  0.755970  0.575930  0.248530  1.0  0.0966
  H  H680  1  0.651430  0.190870  0.626770  1.0  0.0918
  H  H681  1  0.536730  0.192070  0.627970  1.0  0.1214
  H  H682  1  0.487130  0.212870  0.755170  1.0  0.1038
  H  H683  1  0.568930  0.266170  0.834670  1.0  0.0785
  H  H684  1  0.619130  0.128970  0.588970  1.0  0.1166
  H  H685  1  0.508230  0.132970  0.590670  1.0  0.0871
  H  H686  1  0.429330  0.179970  0.793870  1.0  0.0815
  H  H687  1  0.510930  0.226970  0.872870  1.0  0.1123
  H  H688  1  0.505730  0.052970  0.627870  1.0  0.1162
  H  H689  1  0.597830  0.165170  0.525370  1.0  0.1185
  H  H690  1  0.455030  0.116670  0.851370  1.0  0.1111
  H  H691  1  0.445130  0.269370  0.845370  1.0  0.0884
  H  H692  1  0.453730  0.971270  0.629570  1.0  0.1239
  H  H693  1  0.609730  0.158370  0.462670  1.0  0.1064
  H  H694  1  0.404130  0.042170  0.872470  1.0  0.1065
  H  H695  1  0.400230  0.294770  0.873770  1.0  0.1159
  H  H696  1  0.422630  0.909270  0.581870  1.0  0.0966
  H  H697  1  0.000000  0.658200  0.750000  1.0  0.0718
  H  H698  1  0.000000  0.410400  0.750000  1.0  0.0993
  H  H699  1  0.666667  0.991530  0.083330  1.0  0.0719
  H  H700  1  0.666667  0.743730  0.083330  1.0  0.0993
  H  H701  1  0.333333  0.324870  0.416670  1.0  0.0689
  H  H702  1  0.333333  0.077070  0.416670  1.0  0.0993
  H  H703  1  0.341800  0.341800  0.750000  1.0  0.0715
  H  H704  1  0.589600  0.589600  0.750000  1.0  0.1002
  H  H705  1  0.008470  0.675130  0.083330  1.0  0.0716
  H  H706  1  0.256270  0.922930  0.083330  1.0  0.1002
  H  H707  1  0.675130  0.008470  0.416670  1.0  0.0716
  H  H708  1  0.922930  0.256270  0.416670  1.0  0.1002
  H  H709  1  0.658200  0.000000  0.750000  1.0  0.07
  H  H710  1  0.410400  0.000000  0.750000  1.0  0.0992
  H  H711  1  0.324870  0.333333  0.083330  1.0  0.067
  H  H712  1  0.077070  0.333333  0.083330  1.0  0.0991
  H  H713  1  0.991530  0.666667  0.416670  1.0  0.07
  H  H714  1  0.743730  0.666667  0.416670  1.0  0.0991
  H  H715  1  0.000000  0.341800  0.250000  1.0  0.0719
  H  H716  1  0.000000  0.589600  0.250000  1.0  0.1012
  H  H717  1  0.666667  0.675130  0.583330  1.0  0.0688
  H  H718  1  0.666667  0.922930  0.583330  1.0  0.1011
  H  H719  1  0.333333  0.008470  0.916670  1.0  0.0719
  H  H720  1  0.333333  0.256270  0.916670  1.0  0.1011
  H  H721  1  0.658200  0.658200  0.250000  1.0  0.072
  H  H722  1  0.410400  0.410400  0.250000  1.0  0.0999
  H  H723  1  0.324870  0.991530  0.583330  1.0  0.072
  H  H724  1  0.077070  0.743730  0.583330  1.0  0.0999
  H  H725  1  0.991530  0.324870  0.916670  1.0  0.072
  H  H726  1  0.743730  0.077070  0.916670  1.0  0.0998
  H  H727  1  0.341800  0.000000  0.250000  1.0  0.0708
  H  H728  1  0.589600  0.000000  0.250000  1.0  0.0982
  H  H729  1  0.008470  0.333333  0.583330  1.0  0.0708
  H  H730  1  0.256270  0.333333  0.583330  1.0  0.0982
  H  H731  1  0.675130  0.666667  0.916670  1.0  0.0678
  H  H732  1  0.922930  0.666667  0.916670  1.0  0.0982
  C  C733  1  0.286500  0.716000  0.490100  1.0  0.6909
  C  C734  1  0.238200  0.631600  0.600300  1.0  0.7052
  C  C735  1  0.263600  0.732600  0.465000  1.0  -0.1212
  C  C736  1  0.201800  0.621900  0.624400  1.0  -0.0404
  C  C737  1  0.288600  0.776400  0.453000  1.0  -0.0318
  C  C738  1  0.220800  0.707300  0.453900  1.0  -0.1348
  C  C739  1  0.159300  0.608000  0.612600  1.0  -0.1945
  C  C740  1  0.207200  0.625400  0.658800  1.0  -0.0777
  C  C741  1  0.269200  0.794100  0.429800  1.0  -0.1723
  C  C742  1  0.204200  0.726200  0.431400  1.0  -0.1629
  C  C743  1  0.124600  0.594500  0.636200  1.0  -0.1337
  C  C744  1  0.172000  0.613800  0.682100  1.0  -0.1842
  C  C745  1  0.227100  0.768800  0.418800  1.0  0.1013
  C  C746  1  0.129300  0.597200  0.670300  1.0  0.1794
  C  C747  1  0.209800  0.789000  0.392600  1.0  -0.1305
  C  C748  1  0.090800  0.579800  0.693200  1.0  -0.0274
  C  C749  1  0.180500  0.802000  0.405300  1.0  0.1259
  C  C750  1  0.223100  0.793200  0.358200  1.0  0.3147
  C  C751  1  0.074200  0.605600  0.705700  1.0  0.1617
  C  C752  1  0.074100  0.535900  0.704100  1.0  -0.0081
  C  C753  1  0.164200  0.797500  0.442300  1.0  -0.1587
  C  C754  1  0.251800  0.779500  0.345700  1.0  -0.1883
  C  C755  1  0.095200  0.654500  0.696800  1.0  -0.1498
  C  C756  1  0.088400  0.502700  0.694000  1.0  -0.1068
  C  C757  1  0.132200  0.824700  0.406500  1.0  0.1428
  C  C758  1  0.135100  0.813100  0.443300  1.0  -0.1647
  C  C759  1  0.231500  0.807800  0.301000  1.0  0.151
  C  C760  1  0.257800  0.789300  0.310900  1.0  -0.1564
  C  C761  1  0.068600  0.667800  0.709700  1.0  -0.1237
  C  C762  1  0.033900  0.630500  0.732100  1.0  0.1599
  C  C763  1  0.034000  0.469800  0.729600  1.0  0.2812
  C  C764  1  0.064300  0.464100  0.709300  1.0  -0.186
  C  C765  1  0.105900  0.844100  0.397100  1.0  -0.0707
  C  C766  1  0.953170  0.049330  0.823430  1.0  0.6979
  C  C767  1  0.904870  0.964930  0.933630  1.0  0.7053
  C  C768  1  0.930270  0.065930  0.798330  1.0  -0.1212
  C  C769  1  0.868470  0.955230  0.957730  1.0  -0.0393
  C  C770  1  0.955270  0.109730  0.786330  1.0  -0.0318
  C  C771  1  0.887470  0.040630  0.787230  1.0  -0.1347
  C  C772  1  0.825970  0.941330  0.945930  1.0  -0.1945
  C  C773  1  0.873870  0.958730  0.992130  1.0  -0.0778
  C  C774  1  0.935870  0.127430  0.763130  1.0  -0.1723
  C  C775  1  0.870870  0.059530  0.764730  1.0  -0.1631
  C  C776  1  0.791270  0.927830  0.969530  1.0  -0.1337
  C  C777  1  0.838670  0.947130  0.015430  1.0  -0.1835
  C  C778  1  0.893770  0.102130  0.752130  1.0  0.1013
  C  C779  1  0.795970  0.930530  0.003630  1.0  0.1793
  C  C780  1  0.876470  0.122330  0.725930  1.0  -0.1305
  C  C781  1  0.757470  0.913130  0.026530  1.0  -0.0274
  C  C782  1  0.847170  0.135330  0.738630  1.0  0.1261
  C  C783  1  0.889770  0.126530  0.691530  1.0  0.315
  C  C784  1  0.740870  0.938930  0.039030  1.0  0.1611
  C  C785  1  0.740770  0.869230  0.037430  1.0  -0.0081
  C  C786  1  0.830870  0.130830  0.775630  1.0  -0.1588
  C  C787  1  0.918470  0.112830  0.679030  1.0  -0.1882
  C  C788  1  0.761870  0.987830  0.030130  1.0  -0.1497
  C  C789  1  0.755070  0.836030  0.027330  1.0  -0.1069
  C  C790  1  0.798870  0.158030  0.739830  1.0  0.1427
  C  C791  1  0.801770  0.146430  0.776630  1.0  -0.1647
  C  C792  1  0.898170  0.141130  0.634330  1.0  0.1573
  C  C793  1  0.924470  0.122630  0.644230  1.0  -0.1565
  C  C794  1  0.735270  0.001130  0.043030  1.0  -0.1238
  C  C795  1  0.700570  0.963830  0.065430  1.0  0.1576
  C  C796  1  0.700670  0.803130  0.062930  1.0  0.2817
  C  C797  1  0.730970  0.797430  0.042630  1.0  -0.1859
  C  C798  1  0.772570  0.177430  0.730430  1.0  -0.0704
  C  C799  1  0.619830  0.382670  0.156770  1.0  0.6909
  C  C800  1  0.571530  0.298270  0.266970  1.0  0.7052
  C  C801  1  0.596930  0.399270  0.131670  1.0  -0.1212
  C  C802  1  0.535130  0.288570  0.291070  1.0  -0.0404
  C  C803  1  0.621930  0.443070  0.119670  1.0  -0.0318
  C  C804  1  0.554130  0.373970  0.120570  1.0  -0.1348
  C  C805  1  0.492630  0.274670  0.279270  1.0  -0.1945
  C  C806  1  0.540530  0.292070  0.325470  1.0  -0.0777
  C  C807  1  0.602530  0.460770  0.096470  1.0  -0.1723
  C  C808  1  0.537530  0.392870  0.098070  1.0  -0.1629
  C  C809  1  0.457930  0.261170  0.302870  1.0  -0.1334
  C  C810  1  0.505330  0.280470  0.348770  1.0  -0.1842
  C  C811  1  0.560430  0.435470  0.085470  1.0  0.1013
  C  C812  1  0.462630  0.263870  0.336970  1.0  0.1794
  C  C813  1  0.543130  0.455670  0.059270  1.0  -0.1305
  C  C814  1  0.424130  0.246470  0.359870  1.0  -0.0274
  C  C815  1  0.513830  0.468670  0.071970  1.0  0.1259
  C  C816  1  0.556430  0.459870  0.024870  1.0  0.3123
  C  C817  1  0.407530  0.272270  0.372370  1.0  0.1617
  C  C818  1  0.407430  0.202570  0.370770  1.0  -0.0081
  C  C819  1  0.497530  0.464170  0.108970  1.0  -0.1587
  C  C820  1  0.585130  0.446170  0.012370  1.0  -0.1883
  C  C821  1  0.428530  0.321170  0.363470  1.0  -0.1497
  C  C822  1  0.421730  0.169370  0.360670  1.0  -0.1069
  C  C823  1  0.465530  0.491370  0.073170  1.0  0.1428
  C  C824  1  0.468430  0.479770  0.109970  1.0  -0.1646
  C  C825  1  0.564830  0.474470  0.967670  1.0  0.163
  C  C826  1  0.591130  0.455970  0.977570  1.0  -0.1565
  C  C827  1  0.401930  0.334470  0.376370  1.0  -0.1237
  C  C828  1  0.367230  0.297170  0.398770  1.0  0.1601
  C  C829  1  0.367330  0.136470  0.396270  1.0  0.2813
  C  C830  1  0.397630  0.130770  0.375970  1.0  -0.1859
  C  C831  1  0.439230  0.510770  0.063770  1.0  -0.0702
  C  C832  1  0.284000  0.570500  0.490100  1.0  0.6982
  C  C833  1  0.368400  0.606600  0.600300  1.0  0.7046
  C  C834  1  0.267400  0.531000  0.465000  1.0  -0.1192
  C  C835  1  0.378100  0.579900  0.624400  1.0  -0.0395
  C  C836  1  0.223600  0.512200  0.453000  1.0  -0.0336
  C  C837  1  0.292700  0.513500  0.453900  1.0  -0.1343
  C  C838  1  0.392000  0.551300  0.612600  1.0  -0.1942
  C  C839  1  0.374600  0.581800  0.658800  1.0  -0.0797
  C  C840  1  0.205900  0.475100  0.429800  1.0  -0.1758
  C  C841  1  0.273800  0.478000  0.431400  1.0  -0.1591
  C  C842  1  0.405500  0.530100  0.636200  1.0  -0.1345
  C  C843  1  0.386200  0.558200  0.682100  1.0  -0.1851
  C  C844  1  0.231200  0.458300  0.418800  1.0  0.0997
  C  C845  1  0.402800  0.532100  0.670300  1.0  0.1809
  C  C846  1  0.211000  0.420800  0.392600  1.0  -0.1316
  C  C847  1  0.420200  0.511000  0.693200  1.0  -0.027
  C  C848  1  0.198000  0.378500  0.405300  1.0  0.1271
  C  C849  1  0.206800  0.429900  0.358200  1.0  0.3129
  C  C850  1  0.394400  0.468600  0.705700  1.0  0.1602
  C  C851  1  0.464100  0.538200  0.704100  1.0  -0.005
  C  C852  1  0.202500  0.366700  0.442300  1.0  -0.157
  C  C853  1  0.220500  0.472300  0.345700  1.0  -0.187
  C  C854  1  0.345500  0.440700  0.696800  1.0  -0.1497
  C  C855  1  0.497300  0.585700  0.694000  1.0  -0.1073
  C  C856  1  0.175300  0.307500  0.406500  1.0  0.1435
  C  C857  1  0.186900  0.322000  0.443300  1.0  -0.1645
  C  C858  1  0.192200  0.423700  0.301000  1.0  0.155
  C  C859  1  0.210700  0.468500  0.310900  1.0  -0.1582
  C  C860  1  0.332200  0.400800  0.709700  1.0  -0.1283
  C  C861  1  0.369500  0.403400  0.732100  1.0  0.1569
  C  C862  1  0.530200  0.564200  0.729600  1.0  0.277
  C  C863  1  0.535900  0.600200  0.709300  1.0  -0.1839
  C  C864  1  0.155900  0.261800  0.397100  1.0  -0.0689
  C  C865  1  0.950670  0.903830  0.823430  1.0  0.6891
  C  C866  1  0.035070  0.939930  0.933630  1.0  0.7048
  C  C867  1  0.934070  0.864330  0.798330  1.0  -0.1192
  C  C868  1  0.044770  0.913230  0.957730  1.0  -0.0404
  C  C869  1  0.890270  0.845530  0.786330  1.0  -0.0335
  C  C870  1  0.959370  0.846830  0.787230  1.0  -0.1343
  C  C871  1  0.058670  0.884630  0.945930  1.0  -0.1942
  C  C872  1  0.041270  0.915130  0.992130  1.0  -0.0796
  C  C873  1  0.872570  0.808430  0.763130  1.0  -0.1758
  C  C874  1  0.940470  0.811330  0.764730  1.0  -0.1592
  C  C875  1  0.072170  0.863430  0.969530  1.0  -0.1345
  C  C876  1  0.052870  0.891530  0.015430  1.0  -0.1843
  C  C877  1  0.897870  0.791630  0.752130  1.0  0.0997
  C  C878  1  0.069470  0.865430  0.003630  1.0  0.1808
  C  C879  1  0.877670  0.754130  0.725930  1.0  -0.1316
  C  C880  1  0.086870  0.844330  0.026530  1.0  -0.027
  C  C881  1  0.864670  0.711830  0.738630  1.0  0.1271
  C  C882  1  0.873470  0.763230  0.691530  1.0  0.3127
  C  C883  1  0.061070  0.801930  0.039030  1.0  0.1602
  C  C884  1  0.130770  0.871530  0.037430  1.0  -0.005
  C  C885  1  0.869170  0.700030  0.775630  1.0  -0.157
  C  C886  1  0.887170  0.805630  0.679030  1.0  -0.1869
  C  C887  1  0.012170  0.774030  0.030130  1.0  -0.1497
  C  C888  1  0.163970  0.919030  0.027330  1.0  -0.1074
  C  C889  1  0.841970  0.640830  0.739830  1.0  0.1435
  C  C890  1  0.853570  0.655330  0.776630  1.0  -0.1645
  C  C891  1  0.858870  0.757030  0.634330  1.0  0.1473
  C  C892  1  0.877370  0.801830  0.644230  1.0  -0.1582
  C  C893  1  0.998870  0.734130  0.043030  1.0  -0.1283
  C  C894  1  0.036170  0.736730  0.065430  1.0  0.1569
  C  C895  1  0.196870  0.897530  0.062930  1.0  0.2769
  C  C896  1  0.202570  0.933530  0.042630  1.0  -0.1839
  C  C897  1  0.822570  0.595130  0.730430  1.0  -0.069
  C  C898  1  0.617330  0.237170  0.156770  1.0  0.6982
  C  C899  1  0.701730  0.273270  0.266970  1.0  0.7046
  C  C900  1  0.600730  0.197670  0.131670  1.0  -0.1192
  C  C901  1  0.711430  0.246570  0.291070  1.0  -0.0394
  C  C902  1  0.556930  0.178870  0.119670  1.0  -0.0336
  C  C903  1  0.626030  0.180170  0.120570  1.0  -0.1343
  C  C904  1  0.725330  0.217970  0.279270  1.0  -0.1942
  C  C905  1  0.707930  0.248470  0.325470  1.0  -0.0797
  C  C906  1  0.539230  0.141770  0.096470  1.0  -0.1758
  C  C907  1  0.607130  0.144670  0.098070  1.0  -0.1591
  C  C908  1  0.738830  0.196770  0.302870  1.0  -0.1342
  C  C909  1  0.719530  0.224870  0.348770  1.0  -0.1851
  C  C910  1  0.564530  0.124970  0.085470  1.0  0.0997
  C  C911  1  0.736130  0.198770  0.336970  1.0  0.1809
  C  C912  1  0.544330  0.087470  0.059270  1.0  -0.1316
  C  C913  1  0.753530  0.177670  0.359870  1.0  -0.027
  C  C914  1  0.531330  0.045170  0.071970  1.0  0.1262
  C  C915  1  0.540130  0.096570  0.024870  1.0  0.311
  C  C916  1  0.727730  0.135270  0.372370  1.0  0.1602
  C  C917  1  0.797430  0.204870  0.370770  1.0  -0.005
  C  C918  1  0.535830  0.033370  0.108970  1.0  -0.1571
  C  C919  1  0.553830  0.138970  0.012370  1.0  -0.187
  C  C920  1  0.678830  0.107370  0.363470  1.0  -0.1497
  C  C921  1  0.830630  0.252370  0.360670  1.0  -0.1073
  C  C922  1  0.508630  0.974170  0.073170  1.0  0.1434
  C  C923  1  0.520230  0.988670  0.109970  1.0  -0.1645
  C  C924  1  0.525530  0.090370  0.967670  1.0  0.1476
  C  C925  1  0.544030  0.135170  0.977570  1.0  -0.1578
  C  C926  1  0.665530  0.067470  0.376370  1.0  -0.1283
  C  C927  1  0.702830  0.070070  0.398770  1.0  0.1569
  C  C928  1  0.863530  0.230870  0.396270  1.0  0.277
  C  C929  1  0.869230  0.266870  0.375970  1.0  -0.1839
  C  C930  1  0.489230  0.928470  0.063770  1.0  -0.069
  C  C931  1  0.429500  0.713500  0.490100  1.0  0.6975
  C  C932  1  0.393400  0.761800  0.600300  1.0  0.7039
  C  C933  1  0.469000  0.736400  0.465000  1.0  -0.1189
  C  C934  1  0.420100  0.798200  0.624400  1.0  -0.0385
  C  C935  1  0.487800  0.711400  0.453000  1.0  -0.0311
  C  C936  1  0.486500  0.779200  0.453900  1.0  -0.1333
  C  C937  1  0.448700  0.840700  0.612600  1.0  -0.1951
  C  C938  1  0.418200  0.792800  0.658800  1.0  -0.0771
  C  C939  1  0.524900  0.730800  0.429800  1.0  -0.1717
  C  C940  1  0.522000  0.795800  0.431400  1.0  -0.1645
  C  C941  1  0.469900  0.875400  0.636200  1.0  -0.1336
  C  C942  1  0.441800  0.828000  0.682100  1.0  -0.1835
  C  C943  1  0.541700  0.772900  0.418800  1.0  0.1006
  C  C944  1  0.467900  0.870700  0.670300  1.0  0.1798
  C  C945  1  0.579200  0.790200  0.392600  1.0  -0.1304
  C  C946  1  0.489000  0.909200  0.693200  1.0  -0.0262
  C  C947  1  0.621500  0.819500  0.405300  1.0  0.1246
  C  C948  1  0.570100  0.776900  0.358200  1.0  0.3108
  C  C949  1  0.531400  0.925800  0.705700  1.0  0.1624
  C  C950  1  0.461800  0.925900  0.704100  1.0  -0.005
  C  C951  1  0.633300  0.835800  0.442300  1.0  -0.1597
  C  C952  1  0.527700  0.748200  0.345700  1.0  -0.1878
  C  C953  1  0.559300  0.904800  0.696800  1.0  -0.1534
  C  C954  1  0.414300  0.911600  0.694000  1.0  -0.1085
  C  C955  1  0.692500  0.867800  0.406500  1.0  0.142
  C  C956  1  0.678000  0.864900  0.443300  1.0  -0.1649
  C  C957  1  0.576300  0.768500  0.301000  1.0  0.1506
  C  C958  1  0.531500  0.742200  0.310900  1.0  -0.1609
  C  C959  1  0.599200  0.931400  0.709700  1.0  -0.1274
  C  C960  1  0.596600  0.966100  0.732100  1.0  0.1596
  C  C961  1  0.435800  0.966000  0.729600  1.0  0.2784
  C  C962  1  0.399800  0.935700  0.709300  1.0  -0.1827
  C  C963  1  0.738200  0.894100  0.397100  1.0  -0.0706
  C  C964  1  0.096170  0.046830  0.823430  1.0  0.6919
  C  C965  1  0.060070  0.095130  0.933630  1.0  0.704
  C  C966  1  0.135670  0.069730  0.798330  1.0  -0.1189
  C  C967  1  0.086770  0.131530  0.957730  1.0  -0.0384
  C  C968  1  0.154470  0.044730  0.786330  1.0  -0.0311
  C  C969  1  0.153170  0.112530  0.787230  1.0  -0.1332
  C  C970  1  0.115370  0.174030  0.945930  1.0  -0.1951
  C  C971  1  0.084870  0.126130  0.992130  1.0  -0.0771
  C  C972  1  0.191570  0.064130  0.763130  1.0  -0.1717
  C  C973  1  0.188670  0.129130  0.764730  1.0  -0.1644
  C  C974  1  0.136570  0.208730  0.969530  1.0  -0.1338
  C  C975  1  0.108470  0.161330  0.015430  1.0  -0.1827
  C  C976  1  0.208370  0.106230  0.752130  1.0  0.1006
  C  C977  1  0.134570  0.204030  0.003630  1.0  0.1798
  C  C978  1  0.245870  0.123530  0.725930  1.0  -0.1304
  C  C979  1  0.155670  0.242530  0.026530  1.0  -0.0262
  C  C980  1  0.288170  0.152830  0.738630  1.0  0.1246
  C  C981  1  0.236770  0.110230  0.691530  1.0  0.3107
  C  C982  1  0.198070  0.259130  0.039030  1.0  0.1624
  C  C983  1  0.128470  0.259230  0.037430  1.0  -0.005
  C  C984  1  0.299970  0.169130  0.775630  1.0  -0.1597
  C  C985  1  0.194370  0.081530  0.679030  1.0  -0.1877
  C  C986  1  0.225970  0.238130  0.030130  1.0  -0.1533
  C  C987  1  0.080970  0.244930  0.027330  1.0  -0.1085
  C  C988  1  0.359170  0.201130  0.739830  1.0  0.142
  C  C989  1  0.344670  0.198230  0.776630  1.0  -0.1649
  C  C990  1  0.242970  0.101830  0.634330  1.0  0.1506
  C  C991  1  0.198170  0.075530  0.644230  1.0  -0.1608
  C  C992  1  0.265870  0.264730  0.043030  1.0  -0.1264
  C  C993  1  0.263270  0.299430  0.065430  1.0  0.1588
  C  C994  1  0.102470  0.299330  0.062930  1.0  0.2785
  C  C995  1  0.066470  0.269030  0.042630  1.0  -0.1827
  C  C996  1  0.404870  0.227430  0.730430  1.0  -0.0705
  C  C997  1  0.762830  0.380170  0.156770  1.0  0.6975
  C  C998  1  0.726730  0.428470  0.266970  1.0  0.7039
  C  C999  1  0.802330  0.403070  0.131670  1.0  -0.1189
  C  C1000  1  0.753430  0.464870  0.291070  1.0  -0.0385
  C  C1001  1  0.821130  0.378070  0.119670  1.0  -0.0311
  C  C1002  1  0.819830  0.445870  0.120570  1.0  -0.1333
  C  C1003  1  0.782030  0.507370  0.279270  1.0  -0.1951
  C  C1004  1  0.751530  0.459470  0.325470  1.0  -0.0771
  C  C1005  1  0.858230  0.397470  0.096470  1.0  -0.1717
  C  C1006  1  0.855330  0.462470  0.098070  1.0  -0.1645
  C  C1007  1  0.803230  0.542070  0.302870  1.0  -0.1338
  C  C1008  1  0.775130  0.494670  0.348770  1.0  -0.1834
  C  C1009  1  0.875030  0.439570  0.085470  1.0  0.1006
  C  C1010  1  0.801230  0.537370  0.336970  1.0  0.1798
  C  C1011  1  0.912530  0.456870  0.059270  1.0  -0.1304
  C  C1012  1  0.822330  0.575870  0.359870  1.0  -0.0262
  C  C1013  1  0.954830  0.486170  0.071970  1.0  0.1246
  C  C1014  1  0.903430  0.443570  0.024870  1.0  0.3096
  C  C1015  1  0.864730  0.592470  0.372370  1.0  0.1624
  C  C1016  1  0.795130  0.592570  0.370770  1.0  -0.005
  C  C1017  1  0.966630  0.502470  0.108970  1.0  -0.16
  C  C1018  1  0.861030  0.414870  0.012370  1.0  -0.1878
  C  C1019  1  0.892630  0.571470  0.363470  1.0  -0.1534
  C  C1020  1  0.747630  0.578270  0.360670  1.0  -0.1085
  C  C1021  1  0.025830  0.534470  0.073170  1.0  0.142
  C  C1022  1  0.011330  0.531570  0.109970  1.0  -0.1649
  C  C1023  1  0.909630  0.435170  0.967670  1.0  0.1473
  C  C1024  1  0.864830  0.408870  0.977570  1.0  -0.1608
  C  C1025  1  0.932530  0.598070  0.376370  1.0  -0.1264
  C  C1026  1  0.929930  0.632770  0.398770  1.0  0.1596
  C  C1027  1  0.769130  0.632670  0.396270  1.0  0.2787
  C  C1028  1  0.733130  0.602370  0.375970  1.0  -0.1827
  C  C1029  1  0.071530  0.560770  0.063770  1.0  -0.07
  C  C1030  1  0.716000  0.286500  0.009900  1.0  0.6922
  C  C1031  1  0.631600  0.238200  0.899700  1.0  0.7039
  C  C1032  1  0.732600  0.263600  0.035000  1.0  -0.1209
  C  C1033  1  0.621900  0.201800  0.875600  1.0  -0.0387
  C  C1034  1  0.776400  0.288600  0.047000  1.0  -0.0343
  C  C1035  1  0.707300  0.220800  0.046100  1.0  -0.133
  C  C1036  1  0.608000  0.159300  0.887400  1.0  -0.1948
  C  C1037  1  0.625400  0.207200  0.841200  1.0  -0.0767
  C  C1038  1  0.794100  0.269200  0.070200  1.0  -0.1739
  C  C1039  1  0.726200  0.204200  0.068600  1.0  -0.1632
  C  C1040  1  0.594500  0.124600  0.863800  1.0  -0.1272
  C  C1041  1  0.613800  0.172000  0.817900  1.0  -0.1829
  C  C1042  1  0.768800  0.227100  0.081200  1.0  0.1017
  C  C1043  1  0.597200  0.129300  0.829700  1.0  0.1803
  C  C1044  1  0.789000  0.209800  0.107400  1.0  -0.1296
  C  C1045  1  0.579800  0.090800  0.806800  1.0  -0.0264
  C  C1046  1  0.802000  0.180500  0.094700  1.0  0.1244
  C  C1047  1  0.793200  0.223100  0.141800  1.0  0.3084
  C  C1048  1  0.605600  0.074200  0.794300  1.0  0.1653
  C  C1049  1  0.535900  0.074100  0.795900  1.0  -0.0046
  C  C1050  1  0.797500  0.164200  0.057700  1.0  -0.1603
  C  C1051  1  0.779500  0.251800  0.154300  1.0  -0.1882
  C  C1052  1  0.654500  0.095200  0.803200  1.0  -0.1501
  C  C1053  1  0.502700  0.088400  0.806000  1.0  -0.1093
  C  C1054  1  0.824700  0.132200  0.093500  1.0  0.1421
  C  C1055  1  0.813100  0.135100  0.056700  1.0  -0.1648
  C  C1056  1  0.807800  0.231500  0.199000  1.0  0.1508
  C  C1057  1  0.789300  0.257800  0.189100  1.0  -0.1596
  C  C1058  1  0.667800  0.068600  0.790300  1.0  -0.1273
  C  C1059  1  0.630500  0.033900  0.767900  1.0  0.1615
  C  C1060  1  0.469800  0.034000  0.770400  1.0  0.2792
  C  C1061  1  0.464100  0.064300  0.790700  1.0  -0.1806
  C  C1062  1  0.844100  0.105900  0.102900  1.0  -0.0694
  C  C1063  1  0.382670  0.619830  0.343230  1.0  0.6922
  C  C1064  1  0.298270  0.571530  0.233030  1.0  0.7039
  C  C1065  1  0.399270  0.596930  0.368330  1.0  -0.1209
  C  C1066  1  0.288570  0.535130  0.208930  1.0  -0.0387
  C  C1067  1  0.443070  0.621930  0.380330  1.0  -0.0343
  C  C1068  1  0.373970  0.554130  0.379430  1.0  -0.133
  C  C1069  1  0.274670  0.492630  0.220730  1.0  -0.1948
  C  C1070  1  0.292070  0.540530  0.174530  1.0  -0.0767
  C  C1071  1  0.460770  0.602530  0.403530  1.0  -0.1739
  C  C1072  1  0.392870  0.537530  0.401930  1.0  -0.1632
  C  C1073  1  0.261170  0.457930  0.197130  1.0  -0.127
  C  C1074  1  0.280470  0.505330  0.151230  1.0  -0.1829
  C  C1075  1  0.435470  0.560430  0.414530  1.0  0.1017
  C  C1076  1  0.263870  0.462630  0.163030  1.0  0.1803
  C  C1077  1  0.455670  0.543130  0.440730  1.0  -0.1296
  C  C1078  1  0.246470  0.424130  0.140130  1.0  -0.0263
  C  C1079  1  0.468670  0.513830  0.428030  1.0  0.1244
  C  C1080  1  0.459870  0.556430  0.475130  1.0  0.3085
  C  C1081  1  0.272270  0.407530  0.127630  1.0  0.1653
  C  C1082  1  0.202570  0.407430  0.129230  1.0  -0.0046
  C  C1083  1  0.464170  0.497530  0.391030  1.0  -0.1603
  C  C1084  1  0.446170  0.585130  0.487630  1.0  -0.1882
  C  C1085  1  0.321170  0.428530  0.136530  1.0  -0.1501
  C  C1086  1  0.169370  0.421730  0.139330  1.0  -0.1093
  C  C1087  1  0.491370  0.465530  0.426830  1.0  0.1421
  C  C1088  1  0.479770  0.468430  0.390030  1.0  -0.1648
  C  C1089  1  0.474470  0.564830  0.532330  1.0  0.1505
  C  C1090  1  0.455970  0.591130  0.522430  1.0  -0.1596
  C  C1091  1  0.334470  0.401930  0.123630  1.0  -0.1273
  C  C1092  1  0.297170  0.367230  0.101230  1.0  0.1618
  C  C1093  1  0.136470  0.367330  0.103730  1.0  0.2793
  C  C1094  1  0.130770  0.397630  0.124030  1.0  -0.1806
  C  C1095  1  0.510770  0.439230  0.436230  1.0  -0.0689
  C  C1096  1  0.049330  0.953170  0.676570  1.0  0.6998
  C  C1097  1  0.964930  0.904870  0.566370  1.0  0.7039
  C  C1098  1  0.065930  0.930270  0.701670  1.0  -0.1209
  C  C1099  1  0.955230  0.868470  0.542270  1.0  -0.0377
  C  C1100  1  0.109730  0.955270  0.713670  1.0  -0.0344
  C  C1101  1  0.040630  0.887470  0.712770  1.0  -0.1328
  C  C1102  1  0.941330  0.825970  0.554070  1.0  -0.1948
  C  C1103  1  0.958730  0.873870  0.507870  1.0  -0.0767
  C  C1104  1  0.127430  0.935870  0.736870  1.0  -0.1739
  C  C1105  1  0.059530  0.870870  0.735270  1.0  -0.1633
  C  C1106  1  0.927830  0.791270  0.530470  1.0  -0.1273
  C  C1107  1  0.947130  0.838670  0.484570  1.0  -0.1829
  C  C1108  1  0.102130  0.893770  0.747870  1.0  0.1017
  C  C1109  1  0.930530  0.795970  0.496370  1.0  0.1802
  C  C1110  1  0.122330  0.876470  0.774070  1.0  -0.1296
  C  C1111  1  0.913130  0.757470  0.473470  1.0  -0.0264
  C  C1112  1  0.135330  0.847170  0.761370  1.0  0.1247
  C  C1113  1  0.126530  0.889770  0.808470  1.0  0.3087
  C  C1114  1  0.938930  0.740870  0.460970  1.0  0.1637
  C  C1115  1  0.869230  0.740770  0.462570  1.0  -0.0047
  C  C1116  1  0.130830  0.830870  0.724370  1.0  -0.1604
  C  C1117  1  0.112830  0.918470  0.820970  1.0  -0.1882
  C  C1118  1  0.987830  0.761870  0.469870  1.0  -0.1501
  C  C1119  1  0.836030  0.755070  0.472670  1.0  -0.1093
  C  C1120  1  0.158030  0.798870  0.760170  1.0  0.1421
  C  C1121  1  0.146430  0.801770  0.723370  1.0  -0.1648
  C  C1122  1  0.141130  0.898170  0.865670  1.0  0.1571
  C  C1123  1  0.122630  0.924470  0.855770  1.0  -0.1597
  C  C1124  1  0.001130  0.735270  0.456970  1.0  -0.1273
  C  C1125  1  0.963830  0.700570  0.434570  1.0  0.1613
  C  C1126  1  0.803130  0.700670  0.437070  1.0  0.2797
  C  C1127  1  0.797430  0.730970  0.457370  1.0  -0.1806
  C  C1128  1  0.177430  0.772570  0.769570  1.0  -0.0691
  C  C1129  1  0.570500  0.284000  0.009900  1.0  0.6975
  C  C1130  1  0.606600  0.368400  0.899700  1.0  0.7045
  C  C1131  1  0.531000  0.267400  0.035000  1.0  -0.1226
  C  C1132  1  0.579900  0.378100  0.875600  1.0  -0.0384
  C  C1133  1  0.512200  0.223600  0.047000  1.0  -0.0333
  C  C1134  1  0.513500  0.292700  0.046100  1.0  -0.1366
  C  C1135  1  0.551300  0.392000  0.887400  1.0  -0.1955
  C  C1136  1  0.581800  0.374600  0.841200  1.0  -0.0774
  C  C1137  1  0.475100  0.205900  0.070200  1.0  -0.1724
  C  C1138  1  0.478000  0.273800  0.068600  1.0  -0.1605
  C  C1139  1  0.530100  0.405500  0.863800  1.0  -0.1346
  C  C1140  1  0.558200  0.386200  0.817900  1.0  -0.1837
  C  C1141  1  0.458300  0.231200  0.081200  1.0  0.1023
  C  C1142  1  0.532100  0.402800  0.829700  1.0  0.1798
  C  C1143  1  0.420800  0.211000  0.107400  1.0  -0.1305
  C  C1144  1  0.511000  0.420200  0.806800  1.0  -0.0275
  C  C1145  1  0.378500  0.198000  0.094700  1.0  0.1246
  C  C1146  1  0.429900  0.206800  0.141800  1.0  0.311
  C  C1147  1  0.468600  0.394400  0.794300  1.0  0.1629
  C  C1148  1  0.538200  0.464100  0.795900  1.0  -0.0043
  C  C1149  1  0.366700  0.202500  0.057700  1.0  -0.1599
  C  C1150  1  0.472300  0.220500  0.154300  1.0  -0.1872
  C  C1151  1  0.440700  0.345500  0.803200  1.0  -0.1485
  C  C1152  1  0.585700  0.497300  0.806000  1.0  -0.1051
  C  C1153  1  0.307500  0.175300  0.093500  1.0  0.1429
  C  C1154  1  0.322000  0.186900  0.056700  1.0  -0.165
  C  C1155  1  0.423700  0.192200  0.199000  1.0  0.1602
  C  C1156  1  0.468500  0.210700  0.189100  1.0  -0.1575
  C  C1157  1  0.400800  0.332200  0.790300  1.0  -0.1252
  C  C1158  1  0.403400  0.369500  0.767900  1.0  0.1597
  C  C1159  1  0.564200  0.530200  0.770400  1.0  0.2795
  C  C1160  1  0.600200  0.535900  0.790700  1.0  -0.1834
  C  C1161  1  0.261800  0.155900  0.102900  1.0  -0.0695
  C  C1162  1  0.237170  0.617330  0.343230  1.0  0.6975
  C  C1163  1  0.273270  0.701730  0.233030  1.0  0.7045
  C  C1164  1  0.197670  0.600730  0.368330  1.0  -0.1226
  C  C1165  1  0.246570  0.711430  0.208930  1.0  -0.0383
  C  C1166  1  0.178870  0.556930  0.380330  1.0  -0.0333
  C  C1167  1  0.180170  0.626030  0.379430  1.0  -0.1366
  C  C1168  1  0.217970  0.725330  0.220730  1.0  -0.1955
  C  C1169  1  0.248470  0.707930  0.174530  1.0  -0.0774
  C  C1170  1  0.141770  0.539230  0.403530  1.0  -0.1724
  C  C1171  1  0.144670  0.607130  0.401930  1.0  -0.1605
  C  C1172  1  0.196770  0.738830  0.197130  1.0  -0.1344
  C  C1173  1  0.224870  0.719530  0.151230  1.0  -0.1837
  C  C1174  1  0.124970  0.564530  0.414530  1.0  0.1023
  C  C1175  1  0.198770  0.736130  0.163030  1.0  0.1799
  C  C1176  1  0.087470  0.544330  0.440730  1.0  -0.1305
  C  C1177  1  0.177670  0.753530  0.140130  1.0  -0.0275
  C  C1178  1  0.045170  0.531330  0.428030  1.0  0.1248
  C  C1179  1  0.096570  0.540130  0.475130  1.0  0.3108
  C  C1180  1  0.135270  0.727730  0.127630  1.0  0.1629
  C  C1181  1  0.204870  0.797430  0.129230  1.0  -0.0042
  C  C1182  1  0.033370  0.535830  0.391030  1.0  -0.16
  C  C1183  1  0.138970  0.553830  0.487630  1.0  -0.1872
  C  C1184  1  0.107370  0.678830  0.136530  1.0  -0.1485
  C  C1185  1  0.252370  0.830630  0.139330  1.0  -0.1051
  C  C1186  1  0.974170  0.508630  0.426830  1.0  0.1438
  C  C1187  1  0.988670  0.520230  0.390030  1.0  -0.165
  C  C1188  1  0.090370  0.525530  0.532330  1.0  0.1533
  C  C1189  1  0.135170  0.544030  0.522430  1.0  -0.1574
  C  C1190  1  0.067470  0.665530  0.123630  1.0  -0.1251
  C  C1191  1  0.070070  0.702830  0.101230  1.0  0.1597
  C  C1192  1  0.230870  0.863530  0.103730  1.0  0.2795
  C  C1193  1  0.266870  0.869230  0.124030  1.0  -0.1834
  C  C1194  1  0.928470  0.489230  0.436230  1.0  -0.0696
  C  C1195  1  0.903830  0.950670  0.676570  1.0  0.6883
  C  C1196  1  0.939930  0.035070  0.566370  1.0  0.7046
  C  C1197  1  0.864330  0.934070  0.701670  1.0  -0.1226
  C  C1198  1  0.913230  0.044770  0.542270  1.0  -0.0393
  C  C1199  1  0.845530  0.890270  0.713670  1.0  -0.0332
  C  C1200  1  0.846830  0.959370  0.712770  1.0  -0.1366
  C  C1201  1  0.884630  0.058670  0.554070  1.0  -0.1955
  C  C1202  1  0.915130  0.041270  0.507870  1.0  -0.0773
  C  C1203  1  0.808430  0.872570  0.736870  1.0  -0.1724
  C  C1204  1  0.811330  0.940470  0.735270  1.0  -0.1606
  C  C1205  1  0.863430  0.072170  0.530470  1.0  -0.1346
  C  C1206  1  0.891530  0.052870  0.484570  1.0  -0.1837
  C  C1207  1  0.791630  0.897870  0.747870  1.0  0.1023
  C  C1208  1  0.865430  0.069470  0.496370  1.0  0.1798
  C  C1209  1  0.754130  0.877670  0.774070  1.0  -0.1305
  C  C1210  1  0.844330  0.086870  0.473470  1.0  -0.0275
  C  C1211  1  0.711830  0.864670  0.761370  1.0  0.1246
  C  C1212  1  0.763230  0.873470  0.808470  1.0  0.3107
  C  C1213  1  0.801930  0.061070  0.460970  1.0  0.1629
  C  C1214  1  0.871530  0.130770  0.462570  1.0  -0.0043
  C  C1215  1  0.700030  0.869170  0.724370  1.0  -0.1599
  C  C1216  1  0.805630  0.887170  0.820970  1.0  -0.1872
  C  C1217  1  0.774030  0.012170  0.469870  1.0  -0.1485
  C  C1218  1  0.919030  0.163970  0.472670  1.0  -0.1052
  C  C1219  1  0.640830  0.841970  0.760170  1.0  0.1429
  C  C1220  1  0.655330  0.853570  0.723370  1.0  -0.165
  C  C1221  1  0.757030  0.858870  0.865670  1.0  0.1531
  C  C1222  1  0.801830  0.877370  0.855770  1.0  -0.1575
  C  C1223  1  0.734130  0.998870  0.456970  1.0  -0.1252
  C  C1224  1  0.736730  0.036170  0.434570  1.0  0.1612
  C  C1225  1  0.897530  0.196870  0.437070  1.0  0.2794
  C  C1226  1  0.933530  0.202570  0.457370  1.0  -0.1835
  C  C1227  1  0.595130  0.822570  0.769570  1.0  -0.0695
  C  C1228  1  0.713500  0.429500  0.009900  1.0  0.6981
  C  C1229  1  0.761800  0.393400  0.899700  1.0  0.7045
  C  C1230  1  0.736400  0.469000  0.035000  1.0  -0.1211
  C  C1231  1  0.798200  0.420100  0.875600  1.0  -0.0386
  C  C1232  1  0.711400  0.487800  0.047000  1.0  -0.0285
  C  C1233  1  0.779200  0.486500  0.046100  1.0  -0.1352
  C  C1234  1  0.840700  0.448700  0.887400  1.0  -0.1955
  C  C1235  1  0.792800  0.418200  0.841200  1.0  -0.0805
  C  C1236  1  0.730800  0.524900  0.070200  1.0  -0.1734
  C  C1237  1  0.795800  0.522000  0.068600  1.0  -0.1571
  C  C1238  1  0.875400  0.469900  0.863800  1.0  -0.1279
  C  C1239  1  0.828000  0.441800  0.817900  1.0  -0.1885
  C  C1240  1  0.772900  0.541700  0.081200  1.0  0.1011
  C  C1241  1  0.870700  0.467900  0.829700  1.0  0.1813
  C  C1242  1  0.790200  0.579200  0.107400  1.0  -0.132
  C  C1243  1  0.909200  0.489000  0.806800  1.0  -0.0271
  C  C1244  1  0.819500  0.621500  0.094700  1.0  0.1252
  C  C1245  1  0.776900  0.570100  0.141800  1.0  0.3118
  C  C1246  1  0.925800  0.531400  0.794300  1.0  0.1617
  C  C1247  1  0.925900  0.461800  0.795900  1.0  -0.004
  C  C1248  1  0.835800  0.633300  0.057700  1.0  -0.1578
  C  C1249  1  0.748200  0.527700  0.154300  1.0  -0.1869
  C  C1250  1  0.904800  0.559300  0.803200  1.0  -0.1491
  C  C1251  1  0.911600  0.414300  0.806000  1.0  -0.1065
  C  C1252  1  0.867800  0.692500  0.093500  1.0  0.1437
  C  C1253  1  0.864900  0.678000  0.056700  1.0  -0.1653
  C  C1254  1  0.768500  0.576300  0.199000  1.0  0.1547
  C  C1255  1  0.742200  0.531500  0.189100  1.0  -0.16
  C  C1256  1  0.931400  0.599200  0.790300  1.0  -0.1291
  C  C1257  1  0.966100  0.596600  0.767900  1.0  0.1595
  C  C1258  1  0.966000  0.435800  0.770400  1.0  0.2755
  C  C1259  1  0.935700  0.399800  0.790700  1.0  -0.1839
  C  C1260  1  0.894100  0.738200  0.102900  1.0  -0.0698
  C  C1261  1  0.380170  0.762830  0.343230  1.0  0.6981
  C  C1262  1  0.428470  0.726730  0.233030  1.0  0.7045
  C  C1263  1  0.403070  0.802330  0.368330  1.0  -0.1211
  C  C1264  1  0.464870  0.753430  0.208930  1.0  -0.0386
  C  C1265  1  0.378070  0.821130  0.380330  1.0  -0.0285
  C  C1266  1  0.445870  0.819830  0.379430  1.0  -0.1352
  C  C1267  1  0.507370  0.782030  0.220730  1.0  -0.1955
  C  C1268  1  0.459470  0.751530  0.174530  1.0  -0.0805
  C  C1269  1  0.397470  0.858230  0.403530  1.0  -0.1734
  C  C1270  1  0.462470  0.855330  0.401930  1.0  -0.1571
  C  C1271  1  0.542070  0.803230  0.197130  1.0  -0.1282
  C  C1272  1  0.494670  0.775130  0.151230  1.0  -0.1885
  C  C1273  1  0.439570  0.875030  0.414530  1.0  0.1011
  C  C1274  1  0.537370  0.801230  0.163030  1.0  0.1813
  C  C1275  1  0.456870  0.912530  0.440730  1.0  -0.132
  C  C1276  1  0.575870  0.822330  0.140130  1.0  -0.0271
  C  C1277  1  0.486170  0.954830  0.428030  1.0  0.1251
  C  C1278  1  0.443570  0.903430  0.475130  1.0  0.3116
  C  C1279  1  0.592470  0.864730  0.127630  1.0  0.1617
  C  C1280  1  0.592570  0.795130  0.129230  1.0  -0.004
  C  C1281  1  0.502470  0.966630  0.391030  1.0  -0.1578
  C  C1282  1  0.414870  0.861030  0.487630  1.0  -0.1869
  C  C1283  1  0.571470  0.892630  0.136530  1.0  -0.1491
  C  C1284  1  0.578270  0.747630  0.139330  1.0  -0.1065
  C  C1285  1  0.534470  0.025830  0.426830  1.0  0.1437
  C  C1286  1  0.531570  0.011330  0.390030  1.0  -0.1653
  C  C1287  1  0.435170  0.909630  0.532330  1.0  0.148
  C  C1288  1  0.408870  0.864830  0.522430  1.0  -0.1599
  C  C1289  1  0.598070  0.932530  0.123630  1.0  -0.1291
  C  C1290  1  0.632770  0.929930  0.101230  1.0  0.1595
  C  C1291  1  0.632670  0.769130  0.103730  1.0  0.2759
  C  C1292  1  0.602370  0.733130  0.124030  1.0  -0.1836
  C  C1293  1  0.560770  0.071530  0.436230  1.0  -0.0693
  C  C1294  1  0.046830  0.096170  0.676570  1.0  0.6925
  C  C1295  1  0.095130  0.060070  0.566370  1.0  0.7046
  C  C1296  1  0.069730  0.135670  0.701670  1.0  -0.1211
  C  C1297  1  0.131530  0.086770  0.542270  1.0  -0.0385
  C  C1298  1  0.044730  0.154470  0.713670  1.0  -0.0286
  C  C1299  1  0.112530  0.153170  0.712770  1.0  -0.1351
  C  C1300  1  0.174030  0.115370  0.554070  1.0  -0.1955
  C  C1301  1  0.126130  0.084870  0.507870  1.0  -0.0805
  C  C1302  1  0.064130  0.191570  0.736870  1.0  -0.1734
  C  C1303  1  0.129130  0.188670  0.735270  1.0  -0.1571
  C  C1304  1  0.208730  0.136570  0.530470  1.0  -0.1282
  C  C1305  1  0.161330  0.108470  0.484570  1.0  -0.1885
  C  C1306  1  0.106230  0.208370  0.747870  1.0  0.1011
  C  C1307  1  0.204030  0.134570  0.496370  1.0  0.1814
  C  C1308  1  0.123530  0.245870  0.774070  1.0  -0.132
  C  C1309  1  0.242530  0.155670  0.473470  1.0  -0.0271
  C  C1310  1  0.152830  0.288170  0.761370  1.0  0.1252
  C  C1311  1  0.110230  0.236770  0.808470  1.0  0.3117
  C  C1312  1  0.259130  0.198070  0.460970  1.0  0.1617
  C  C1313  1  0.259230  0.128470  0.462570  1.0  -0.004
  C  C1314  1  0.169130  0.299970  0.724370  1.0  -0.1578
  C  C1315  1  0.081530  0.194370  0.820970  1.0  -0.1869
  C  C1316  1  0.238130  0.225970  0.469870  1.0  -0.149
  C  C1317  1  0.244930  0.080970  0.472670  1.0  -0.1066
  C  C1318  1  0.201130  0.359170  0.760170  1.0  0.1437
  C  C1319  1  0.198230  0.344670  0.723370  1.0  -0.1653
  C  C1320  1  0.101830  0.242970  0.865670  1.0  0.1547
  C  C1321  1  0.075530  0.198170  0.855770  1.0  -0.1599
  C  C1322  1  0.264730  0.265870  0.456970  1.0  -0.129
  C  C1323  1  0.299430  0.263270  0.434570  1.0  0.1588
  C  C1324  1  0.299330  0.102470  0.437070  1.0  0.2756
  C  C1325  1  0.269030  0.066470  0.457370  1.0  -0.1836
  C  C1326  1  0.227430  0.404870  0.769570  1.0  -0.0697
  C  C1327  1  0.713500  0.284000  0.509900  1.0  0.6923
  C  C1328  1  0.761800  0.368400  0.399700  1.0  0.7055
  C  C1329  1  0.736400  0.267400  0.535000  1.0  -0.1219
  C  C1330  1  0.798200  0.378100  0.375600  1.0  -0.0395
  C  C1331  1  0.711400  0.223600  0.547000  1.0  -0.0331
  C  C1332  1  0.779200  0.292700  0.546100  1.0  -0.1376
  C  C1333  1  0.840700  0.392000  0.387400  1.0  -0.1951
  C  C1334  1  0.792800  0.374600  0.341200  1.0  -0.0787
  C  C1335  1  0.730800  0.205900  0.570200  1.0  -0.1723
  C  C1336  1  0.795800  0.273800  0.568600  1.0  -0.1585
  C  C1337  1  0.875400  0.405500  0.363800  1.0  -0.1263
  C  C1338  1  0.828000  0.386200  0.317900  1.0  -0.1886
  C  C1339  1  0.772900  0.231200  0.581200  1.0  0.1022
  C  C1340  1  0.870700  0.402800  0.329700  1.0  0.1814
  C  C1341  1  0.790200  0.211000  0.607400  1.0  -0.1297
  C  C1342  1  0.909200  0.420200  0.306800  1.0  -0.026
  C  C1343  1  0.819500  0.198000  0.594700  1.0  0.1266
  C  C1344  1  0.776900  0.206800  0.641800  1.0  0.3112
  C  C1345  1  0.925800  0.394400  0.294300  1.0  0.1622
  C  C1346  1  0.925900  0.464100  0.295900  1.0  -0.0046
  C  C1347  1  0.835800  0.202500  0.557700  1.0  -0.1609
  C  C1348  1  0.748200  0.220500  0.654300  1.0  -0.1872
  C  C1349  1  0.904800  0.345500  0.303200  1.0  -0.1502
  C  C1350  1  0.911600  0.497300  0.306000  1.0  -0.1052
  C  C1351  1  0.867800  0.175300  0.593500  1.0  0.1426
  C  C1352  1  0.864900  0.186900  0.556700  1.0  -0.1641
  C  C1353  1  0.768500  0.192200  0.699000  1.0  0.1449
  C  C1354  1  0.742200  0.210700  0.689100  1.0  -0.1575
  C  C1355  1  0.931400  0.332200  0.290300  1.0  -0.1231
  C  C1356  1  0.966100  0.369500  0.267900  1.0  0.1551
  C  C1357  1  0.966000  0.530200  0.270400  1.0  0.28
  C  C1358  1  0.935700  0.535900  0.290700  1.0  -0.1821
  C  C1359  1  0.894100  0.155900  0.602900  1.0  -0.0686
  C  C1360  1  0.380170  0.617330  0.843230  1.0  0.6923
  C  C1361  1  0.428470  0.701730  0.733030  1.0  0.7055
  C  C1362  1  0.403070  0.600730  0.868330  1.0  -0.1219
  C  C1363  1  0.464870  0.711430  0.708930  1.0  -0.0395
  C  C1364  1  0.378070  0.556930  0.880330  1.0  -0.0331
  C  C1365  1  0.445870  0.626030  0.879430  1.0  -0.1376
  C  C1366  1  0.507370  0.725330  0.720730  1.0  -0.1951
  C  C1367  1  0.459470  0.707930  0.674530  1.0  -0.0787
  C  C1368  1  0.397470  0.539230  0.903530  1.0  -0.1723
  C  C1369  1  0.462470  0.607130  0.901930  1.0  -0.1585
  C  C1370  1  0.542070  0.738830  0.697130  1.0  -0.126
  C  C1371  1  0.494670  0.719530  0.651230  1.0  -0.1886
  C  C1372  1  0.439570  0.564530  0.914530  1.0  0.1022
  C  C1373  1  0.537370  0.736130  0.663030  1.0  0.1814
  C  C1374  1  0.456870  0.544330  0.940730  1.0  -0.1297
  C  C1375  1  0.575870  0.753530  0.640130  1.0  -0.0259
  C  C1376  1  0.486170  0.531330  0.928030  1.0  0.1266
  C  C1377  1  0.443570  0.540130  0.975130  1.0  0.3113
  C  C1378  1  0.592470  0.727730  0.627630  1.0  0.1622
  C  C1379  1  0.592570  0.797430  0.629230  1.0  -0.0046
  C  C1380  1  0.502470  0.535830  0.891030  1.0  -0.1609
  C  C1381  1  0.414870  0.553830  0.987630  1.0  -0.1872
  C  C1382  1  0.571470  0.678830  0.636530  1.0  -0.1502
  C  C1383  1  0.578270  0.830630  0.639330  1.0  -0.1052
  C  C1384  1  0.534470  0.508630  0.926830  1.0  0.1426
  C  C1385  1  0.531570  0.520230  0.890030  1.0  -0.1641
  C  C1386  1  0.435170  0.525530  0.032330  1.0  0.145
  C  C1387  1  0.408870  0.544030  0.022430  1.0  -0.1575
  C  C1388  1  0.598070  0.665530  0.623630  1.0  -0.1231
  C  C1389  1  0.632770  0.702830  0.601230  1.0  0.1552
  C  C1390  1  0.632670  0.863530  0.603730  1.0  0.2801
  C  C1391  1  0.602370  0.869230  0.624030  1.0  -0.1821
  C  C1392  1  0.560770  0.489230  0.936230  1.0  -0.068
  C  C1393  1  0.046830  0.950670  0.176570  1.0  0.7
  C  C1394  1  0.095130  0.035070  0.066370  1.0  0.7055
  C  C1395  1  0.069730  0.934070  0.201670  1.0  -0.1219
  C  C1396  1  0.131530  0.044770  0.042270  1.0  -0.0385
  C  C1397  1  0.044730  0.890270  0.213670  1.0  -0.0331
  C  C1398  1  0.112530  0.959370  0.212770  1.0  -0.1375
  C  C1399  1  0.174030  0.058670  0.054070  1.0  -0.1955
  C  C1400  1  0.126130  0.041270  0.007870  1.0  -0.0787
  C  C1401  1  0.064130  0.872570  0.236870  1.0  -0.1723
  C  C1402  1  0.129130  0.940470  0.235270  1.0  -0.1586
  C  C1403  1  0.208730  0.072170  0.030470  1.0  -0.1278
  C  C1404  1  0.161330  0.052870  0.984570  1.0  -0.1886
  C  C1405  1  0.106230  0.897870  0.247870  1.0  0.1022
  C  C1406  1  0.204030  0.069470  0.996370  1.0  0.1813
  C  C1407  1  0.123530  0.877670  0.274070  1.0  -0.1297
  C  C1408  1  0.242530  0.086870  0.973470  1.0  -0.026
  C  C1409  1  0.152830  0.864670  0.261370  1.0  0.1268
  C  C1410  1  0.110230  0.873470  0.308470  1.0  0.3115
  C  C1411  1  0.259130  0.061070  0.960970  1.0  0.1622
  C  C1412  1  0.259230  0.130770  0.962570  1.0  -0.0046
  C  C1413  1  0.169130  0.869170  0.224370  1.0  -0.161
  C  C1414  1  0.081530  0.887170  0.320970  1.0  -0.1873
  C  C1415  1  0.238130  0.012170  0.969870  1.0  -0.1502
  C  C1416  1  0.244930  0.163970  0.972670  1.0  -0.1052
  C  C1417  1  0.201130  0.841970  0.260170  1.0  0.1425
  C  C1418  1  0.198230  0.853570  0.223370  1.0  -0.1641
  C  C1419  1  0.101830  0.858870  0.365670  1.0  0.1513
  C  C1420  1  0.075530  0.877370  0.355770  1.0  -0.1576
  C  C1421  1  0.264730  0.998870  0.956970  1.0  -0.1231
  C  C1422  1  0.299430  0.036170  0.934570  1.0  0.1567
  C  C1423  1  0.299330  0.196870  0.937070  1.0  0.2805
  C  C1424  1  0.269030  0.202570  0.957370  1.0  -0.182
  C  C1425  1  0.227430  0.822570  0.269570  1.0  -0.0682
  C  C1426  1  0.716000  0.429500  0.509900  1.0  0.6983
  C  C1427  1  0.631600  0.393400  0.399700  1.0  0.7041
  C  C1428  1  0.732600  0.469000  0.535000  1.0  -0.1211
  C  C1429  1  0.621900  0.420100  0.375600  1.0  -0.0389
  C  C1430  1  0.776400  0.487800  0.547000  1.0  -0.0302
  C  C1431  1  0.707300  0.486500  0.546100  1.0  -0.1329
  C  C1432  1  0.608000  0.448700  0.387400  1.0  -0.1945
  C  C1433  1  0.625400  0.418200  0.341200  1.0  -0.0795
  C  C1434  1  0.794100  0.524900  0.570200  1.0  -0.1735
  C  C1435  1  0.726200  0.522000  0.568600  1.0  -0.1597
  C  C1436  1  0.594500  0.469900  0.363800  1.0  -0.1358
  C  C1437  1  0.613800  0.441800  0.317900  1.0  -0.1837
  C  C1438  1  0.768800  0.541700  0.581200  1.0  0.1012
  C  C1439  1  0.597200  0.467900  0.329700  1.0  0.1815
  C  C1440  1  0.789000  0.579200  0.607400  1.0  -0.1322
  C  C1441  1  0.579800  0.489000  0.306800  1.0  -0.0279
  C  C1442  1  0.802000  0.621500  0.594700  1.0  0.1253
  C  C1443  1  0.793200  0.570100  0.641800  1.0  0.3125
  C  C1444  1  0.605600  0.531400  0.294300  1.0  0.1642
  C  C1445  1  0.535900  0.461800  0.295900  1.0  -0.0036
  C  C1446  1  0.797500  0.633300  0.557700  1.0  -0.1578
  C  C1447  1  0.779500  0.527700  0.654300  1.0  -0.1881
  C  C1448  1  0.654500  0.559300  0.303200  1.0  -0.1499
  C  C1449  1  0.502700  0.414300  0.306000  1.0  -0.1069
  C  C1450  1  0.824700  0.692500  0.593500  1.0  0.1428
  C  C1451  1  0.813100  0.678000  0.556700  1.0  -0.165
  C  C1452  1  0.807800  0.576300  0.699000  1.0  0.1597
  C  C1453  1  0.789300  0.531500  0.689100  1.0  -0.1588
  C  C1454  1  0.667800  0.599200  0.290300  1.0  -0.13
  C  C1455  1  0.630500  0.596600  0.267900  1.0  0.1592
  C  C1456  1  0.469800  0.435800  0.270400  1.0  0.283
  C  C1457  1  0.464100  0.399800  0.290700  1.0  -0.1846
  C  C1458  1  0.844100  0.738200  0.602900  1.0  -0.0708
  C  C1459  1  0.382670  0.762830  0.843230  1.0  0.6983
  C  C1460  1  0.298270  0.726730  0.733030  1.0  0.7041
  C  C1461  1  0.399270  0.802330  0.868330  1.0  -0.1211
  C  C1462  1  0.288570  0.753430  0.708930  1.0  -0.0389
  C  C1463  1  0.443070  0.821130  0.880330  1.0  -0.0302
  C  C1464  1  0.373970  0.819830  0.879430  1.0  -0.1329
  C  C1465  1  0.274670  0.782030  0.720730  1.0  -0.1945
  C  C1466  1  0.292070  0.751530  0.674530  1.0  -0.0795
  C  C1467  1  0.460770  0.858230  0.903530  1.0  -0.1735
  C  C1468  1  0.392870  0.855330  0.901930  1.0  -0.1597
  C  C1469  1  0.261170  0.803230  0.697130  1.0  -0.1355
  C  C1470  1  0.280470  0.775130  0.651230  1.0  -0.1837
  C  C1471  1  0.435470  0.875030  0.914530  1.0  0.1012
  C  C1472  1  0.263870  0.801230  0.663030  1.0  0.1815
  C  C1473  1  0.455670  0.912530  0.940730  1.0  -0.1322
  C  C1474  1  0.246470  0.822330  0.640130  1.0  -0.0279
  C  C1475  1  0.468670  0.954830  0.928030  1.0  0.1255
  C  C1476  1  0.459870  0.903430  0.975130  1.0  0.3124
  C  C1477  1  0.272270  0.864730  0.627630  1.0  0.1642
  C  C1478  1  0.202570  0.795130  0.629230  1.0  -0.0034
  C  C1479  1  0.464170  0.966630  0.891030  1.0  -0.1578
  C  C1480  1  0.446170  0.861030  0.987630  1.0  -0.1881
  C  C1481  1  0.321170  0.892630  0.636530  1.0  -0.1499
  C  C1482  1  0.169370  0.747630  0.639330  1.0  -0.1069
  C  C1483  1  0.491370  0.025830  0.926830  1.0  0.1427
  C  C1484  1  0.479770  0.011330  0.890030  1.0  -0.1649
  C  C1485  1  0.474470  0.909630  0.032330  1.0  0.1531
  C  C1486  1  0.455970  0.864830  0.022430  1.0  -0.1587
  C  C1487  1  0.334470  0.932530  0.623630  1.0  -0.1299
  C  C1488  1  0.297170  0.929930  0.601230  1.0  0.1592
  C  C1489  1  0.136470  0.769130  0.603730  1.0  0.283
  C  C1490  1  0.130770  0.733130  0.624030  1.0  -0.1846
  C  C1491  1  0.510770  0.071530  0.936230  1.0  -0.0711
  C  C1492  1  0.049330  0.096170  0.176570  1.0  0.689
  C  C1493  1  0.964930  0.060070  0.066370  1.0  0.7042
  C  C1494  1  0.065930  0.135670  0.201670  1.0  -0.1211
  C  C1495  1  0.955230  0.086770  0.042270  1.0  -0.0399
  C  C1496  1  0.109730  0.154470  0.213670  1.0  -0.03
  C  C1497  1  0.040630  0.153170  0.212770  1.0  -0.1329
  C  C1498  1  0.941330  0.115370  0.054070  1.0  -0.1948
  C  C1499  1  0.958730  0.084870  0.007870  1.0  -0.0794
  C  C1500  1  0.127430  0.191570  0.236870  1.0  -0.1735
  C  C1501  1  0.059530  0.188670  0.235270  1.0  -0.1599
  C  C1502  1  0.927830  0.136570  0.030470  1.0  -0.1353
  C  C1503  1  0.947130  0.108470  0.984570  1.0  -0.1835
  C  C1504  1  0.102130  0.208370  0.247870  1.0  0.1012
  C  C1505  1  0.930530  0.134570  0.996370  1.0  0.1814
  C  C1506  1  0.122330  0.245870  0.274070  1.0  -0.1322
  C  C1507  1  0.913130  0.155670  0.973470  1.0  -0.0279
  C  C1508  1  0.135330  0.288170  0.261370  1.0  0.1253
  C  C1509  1  0.126530  0.236770  0.308470  1.0  0.3124
  C  C1510  1  0.938930  0.198070  0.960970  1.0  0.163
  C  C1511  1  0.869230  0.128470  0.962570  1.0  -0.0036
  C  C1512  1  0.130830  0.299970  0.224370  1.0  -0.1578
  C  C1513  1  0.112830  0.194370  0.320970  1.0  -0.1881
  C  C1514  1  0.987830  0.225970  0.969870  1.0  -0.1498
  C  C1515  1  0.836030  0.080970  0.972670  1.0  -0.107
  C  C1516  1  0.158030  0.359170  0.260170  1.0  0.1428
  C  C1517  1  0.146430  0.344670  0.223370  1.0  -0.165
  C  C1518  1  0.141130  0.242970  0.365670  1.0  0.1529
  C  C1519  1  0.122630  0.198170  0.355770  1.0  -0.1588
  C  C1520  1  0.001130  0.265870  0.956970  1.0  -0.13
  C  C1521  1  0.963830  0.263270  0.934570  1.0  0.1592
  C  C1522  1  0.803130  0.102470  0.937070  1.0  0.2829
  C  C1523  1  0.797430  0.066470  0.957370  1.0  -0.1847
  C  C1524  1  0.177430  0.404870  0.269570  1.0  -0.0708
  C  C1525  1  0.570500  0.286500  0.509900  1.0  0.6977
  C  C1526  1  0.606600  0.238200  0.399700  1.0  0.7044
  C  C1527  1  0.531000  0.263600  0.535000  1.0  -0.122
  C  C1528  1  0.579900  0.201800  0.375600  1.0  -0.0376
  C  C1529  1  0.512200  0.288600  0.547000  1.0  -0.0363
  C  C1530  1  0.513500  0.220800  0.546100  1.0  -0.1338
  C  C1531  1  0.551300  0.159300  0.387400  1.0  -0.1947
  C  C1532  1  0.581800  0.207200  0.341200  1.0  -0.076
  C  C1533  1  0.475100  0.269200  0.570200  1.0  -0.1752
  C  C1534  1  0.478000  0.204200  0.568600  1.0  -0.1603
  C  C1535  1  0.530100  0.124600  0.363800  1.0  -0.1336
  C  C1536  1  0.558200  0.172000  0.317900  1.0  -0.1826
  C  C1537  1  0.458300  0.227100  0.581200  1.0  0.1012
  C  C1538  1  0.532100  0.129300  0.329700  1.0  0.1798
  C  C1539  1  0.420800  0.209800  0.607400  1.0  -0.1299
  C  C1540  1  0.511000  0.090800  0.306800  1.0  -0.027
  C  C1541  1  0.378500  0.180500  0.594700  1.0  0.1247
  C  C1542  1  0.429900  0.223100  0.641800  1.0  0.3117
  C  C1543  1  0.468600  0.074200  0.294300  1.0  0.163
  C  C1544  1  0.538200  0.074100  0.295900  1.0  -0.0025
  C  C1545  1  0.366700  0.164200  0.557700  1.0  -0.1604
  C  C1546  1  0.472300  0.251800  0.654300  1.0  -0.1877
  C  C1547  1  0.440700  0.095200  0.303200  1.0  -0.1484
  C  C1548  1  0.585700  0.088400  0.306000  1.0  -0.1077
  C  C1549  1  0.307500  0.132200  0.593500  1.0  0.1417
  C  C1550  1  0.322000  0.135100  0.556700  1.0  -0.166
  C  C1551  1  0.423700  0.231500  0.699000  1.0  0.1583
  C  C1552  1  0.468500  0.257800  0.689100  1.0  -0.1606
  C  C1553  1  0.400800  0.068600  0.290300  1.0  -0.1268
  C  C1554  1  0.403400  0.033900  0.267900  1.0  0.1562
  C  C1555  1  0.564200  0.034000  0.270400  1.0  0.2793
  C  C1556  1  0.600200  0.064300  0.290700  1.0  -0.1812
  C  C1557  1  0.261800  0.105900  0.602900  1.0  -0.0713
  C  C1558  1  0.237170  0.619830  0.843230  1.0  0.6977
  C  C1559  1  0.273270  0.571530  0.733030  1.0  0.7044
  C  C1560  1  0.197670  0.596930  0.868330  1.0  -0.122
  C  C1561  1  0.246570  0.535130  0.708930  1.0  -0.0376
  C  C1562  1  0.178870  0.621930  0.880330  1.0  -0.0363
  C  C1563  1  0.180170  0.554130  0.879430  1.0  -0.1338
  C  C1564  1  0.217970  0.492630  0.720730  1.0  -0.1947
  C  C1565  1  0.248470  0.540530  0.674530  1.0  -0.076
  C  C1566  1  0.141770  0.602530  0.903530  1.0  -0.1752
  C  C1567  1  0.144670  0.537530  0.901930  1.0  -0.1603
  C  C1568  1  0.196770  0.457930  0.697130  1.0  -0.1339
  C  C1569  1  0.224870  0.505330  0.651230  1.0  -0.1826
  C  C1570  1  0.124970  0.560430  0.914530  1.0  0.1012
  C  C1571  1  0.198770  0.462630  0.663030  1.0  0.1798
  C  C1572  1  0.087470  0.543130  0.940730  1.0  -0.1299
  C  C1573  1  0.177670  0.424130  0.640130  1.0  -0.027
  C  C1574  1  0.045170  0.513830  0.928030  1.0  0.1248
  C  C1575  1  0.096570  0.556430  0.975130  1.0  0.3115
  C  C1576  1  0.135270  0.407530  0.627630  1.0  0.163
  C  C1577  1  0.204870  0.407430  0.629230  1.0  -0.0025
  C  C1578  1  0.033370  0.497530  0.891030  1.0  -0.1604
  C  C1579  1  0.138970  0.585130  0.987630  1.0  -0.1877
  C  C1580  1  0.107370  0.428530  0.636530  1.0  -0.1484
  C  C1581  1  0.252370  0.421730  0.639330  1.0  -0.1077
  C  C1582  1  0.974170  0.465530  0.926830  1.0  0.1428
  C  C1583  1  0.988670  0.468430  0.890030  1.0  -0.166
  C  C1584  1  0.090370  0.564830  0.032330  1.0  0.152
  C  C1585  1  0.135170  0.591130  0.022430  1.0  -0.1605
  C  C1586  1  0.067470  0.401930  0.623630  1.0  -0.1268
  C  C1587  1  0.070070  0.367230  0.601230  1.0  0.1563
  C  C1588  1  0.230870  0.367330  0.603730  1.0  0.2797
  C  C1589  1  0.266870  0.397630  0.624030  1.0  -0.1812
  C  C1590  1  0.928470  0.439230  0.936230  1.0  -0.0708
  C  C1591  1  0.903830  0.953170  0.176570  1.0  0.692
  C  C1592  1  0.939930  0.904870  0.066370  1.0  0.7045
  C  C1593  1  0.864330  0.930270  0.201670  1.0  -0.122
  C  C1594  1  0.913230  0.868470  0.042270  1.0  -0.0375
  C  C1595  1  0.845530  0.955270  0.213670  1.0  -0.0363
  C  C1596  1  0.846830  0.887470  0.212770  1.0  -0.1337
  C  C1597  1  0.884630  0.825970  0.054070  1.0  -0.1951
  C  C1598  1  0.915130  0.873870  0.007870  1.0  -0.076
  C  C1599  1  0.808430  0.935870  0.236870  1.0  -0.1752
  C  C1600  1  0.811330  0.870870  0.235270  1.0  -0.1603
  C  C1601  1  0.863430  0.791270  0.030470  1.0  -0.1339
  C  C1602  1  0.891530  0.838670  0.984570  1.0  -0.1824
  C  C1603  1  0.791630  0.893770  0.247870  1.0  0.1012
  C  C1604  1  0.865430  0.795970  0.996370  1.0  0.1799
  C  C1605  1  0.754130  0.876470  0.274070  1.0  -0.1299
  C  C1606  1  0.844330  0.757470  0.973470  1.0  -0.027
  C  C1607  1  0.711830  0.847170  0.261370  1.0  0.1247
  C  C1608  1  0.763230  0.889770  0.308470  1.0  0.3116
  C  C1609  1  0.801930  0.740870  0.960970  1.0  0.163
  C  C1610  1  0.871530  0.740770  0.962570  1.0  -0.0025
  C  C1611  1  0.700030  0.830870  0.224370  1.0  -0.1604
  C  C1612  1  0.805630  0.918470  0.320970  1.0  -0.1877
  C  C1613  1  0.774030  0.761870  0.969870  1.0  -0.1484
  C  C1614  1  0.919030  0.755070  0.972670  1.0  -0.1078
  C  C1615  1  0.640830  0.798870  0.260170  1.0  0.1417
  C  C1616  1  0.655330  0.801770  0.223370  1.0  -0.166
  C  C1617  1  0.757030  0.898170  0.365670  1.0  0.1583
  C  C1618  1  0.801830  0.924470  0.355770  1.0  -0.1605
  C  C1619  1  0.734130  0.735270  0.956970  1.0  -0.1267
  C  C1620  1  0.736730  0.700570  0.934570  1.0  0.1555
  C  C1621  1  0.897530  0.700670  0.937070  1.0  0.2794
  C  C1622  1  0.933530  0.730970  0.957370  1.0  -0.1812
  C  C1623  1  0.595130  0.772570  0.269570  1.0  -0.0712
  C  C1624  1  0.284000  0.713500  0.990100  1.0  0.6923
  C  C1625  1  0.368400  0.761800  0.100300  1.0  0.7048
  C  C1626  1  0.267400  0.736400  0.965000  1.0  -0.1211
  C  C1627  1  0.378100  0.798200  0.124400  1.0  -0.0393
  C  C1628  1  0.223600  0.711400  0.953000  1.0  -0.0353
  C  C1629  1  0.292700  0.779200  0.953900  1.0  -0.1331
  C  C1630  1  0.392000  0.840700  0.112600  1.0  -0.1942
  C  C1631  1  0.374600  0.792800  0.158800  1.0  -0.0768
  C  C1632  1  0.205900  0.730800  0.929800  1.0  -0.1757
  C  C1633  1  0.273800  0.795800  0.931400  1.0  -0.1616
  C  C1634  1  0.405500  0.875400  0.136200  1.0  -0.1327
  C  C1635  1  0.386200  0.828000  0.182100  1.0  -0.1825
  C  C1636  1  0.231200  0.772900  0.918800  1.0  0.1006
  C  C1637  1  0.402800  0.870700  0.170300  1.0  0.1798
  C  C1638  1  0.211000  0.790200  0.892600  1.0  -0.1306
  C  C1639  1  0.420200  0.909200  0.193200  1.0  -0.0271
  C  C1640  1  0.198000  0.819500  0.905300  1.0  0.1245
  C  C1641  1  0.206800  0.776900  0.858200  1.0  0.3144
  C  C1642  1  0.394400  0.925800  0.205700  1.0  0.1622
  C  C1643  1  0.464100  0.925900  0.204100  1.0  -0.0038
  C  C1644  1  0.202500  0.835800  0.942300  1.0  -0.1587
  C  C1645  1  0.220500  0.748200  0.845700  1.0  -0.1878
  C  C1646  1  0.345500  0.904800  0.196800  1.0  -0.1505
  C  C1647  1  0.497300  0.911600  0.194000  1.0  -0.1092
  C  C1648  1  0.175300  0.867800  0.906500  1.0  0.143
  C  C1649  1  0.186900  0.864900  0.943300  1.0  -0.1659
  C  C1650  1  0.192200  0.768500  0.801000  1.0  0.1434
  C  C1651  1  0.210700  0.742200  0.810900  1.0  -0.1596
  C  C1652  1  0.332200  0.931400  0.209700  1.0  -0.1275
  C  C1653  1  0.369500  0.966100  0.232100  1.0  0.1564
  C  C1654  1  0.530200  0.966000  0.229600  1.0  0.2795
  C  C1655  1  0.535900  0.935700  0.209300  1.0  -0.1837
  C  C1656  1  0.155900  0.894100  0.897100  1.0  -0.0725
  C  C1657  1  0.950670  0.046830  0.323430  1.0  0.6992
  C  C1658  1  0.035070  0.095130  0.433630  1.0  0.7049
  C  C1659  1  0.934070  0.069730  0.298330  1.0  -0.1211
  C  C1660  1  0.044770  0.131530  0.457730  1.0  -0.0382
  C  C1661  1  0.890270  0.044730  0.286330  1.0  -0.0353
  C  C1662  1  0.959370  0.112530  0.287230  1.0  -0.133
  C  C1663  1  0.058670  0.174030  0.445930  1.0  -0.1942
  C  C1664  1  0.041270  0.126130  0.492130  1.0  -0.0768
  C  C1665  1  0.872570  0.064130  0.263130  1.0  -0.1757
  C  C1666  1  0.940470  0.129130  0.264730  1.0  -0.1618
  C  C1667  1  0.072170  0.208730  0.469530  1.0  -0.1327
  C  C1668  1  0.052870  0.161330  0.515430  1.0  -0.1826
  C  C1669  1  0.897870  0.106230  0.252130  1.0  0.1006
  C  C1670  1  0.069470  0.204030  0.503630  1.0  0.1797
  C  C1671  1  0.877670  0.123530  0.225930  1.0  -0.1306
  C  C1672  1  0.086870  0.242530  0.526530  1.0  -0.0271
  C  C1673  1  0.864670  0.152830  0.238630  1.0  0.1247
  C  C1674  1  0.873470  0.110230  0.191530  1.0  0.3147
  C  C1675  1  0.061070  0.259130  0.539030  1.0  0.1622
  C  C1676  1  0.130770  0.259230  0.537430  1.0  -0.0038
  C  C1677  1  0.869170  0.169130  0.275630  1.0  -0.1588
  C  C1678  1  0.887170  0.081530  0.179030  1.0  -0.1877
  C  C1679  1  0.012170  0.238130  0.530130  1.0  -0.1505
  C  C1680  1  0.163970  0.244930  0.527330  1.0  -0.1093
  C  C1681  1  0.841970  0.201130  0.239830  1.0  0.1429
  C  C1682  1  0.853570  0.198230  0.276630  1.0  -0.1659
  C  C1683  1  0.858870  0.101830  0.134330  1.0  0.1499
  C  C1684  1  0.877370  0.075530  0.144230  1.0  -0.1597
  C  C1685  1  0.998870  0.264730  0.543030  1.0  -0.1272
  C  C1686  1  0.036170  0.299430  0.565430  1.0  0.1562
  C  C1687  1  0.196870  0.299330  0.562930  1.0  0.28
  C  C1688  1  0.202570  0.269030  0.542630  1.0  -0.1837
  C  C1689  1  0.822570  0.227430  0.230430  1.0  -0.0722
  C  C1690  1  0.617330  0.380170  0.656770  1.0  0.6923
  C  C1691  1  0.701730  0.428470  0.766970  1.0  0.7048
  C  C1692  1  0.600730  0.403070  0.631670  1.0  -0.1211
  C  C1693  1  0.711430  0.464870  0.791070  1.0  -0.0393
  C  C1694  1  0.556930  0.378070  0.619670  1.0  -0.0353
  C  C1695  1  0.626030  0.445870  0.620570  1.0  -0.1331
  C  C1696  1  0.725330  0.507370  0.779270  1.0  -0.1942
  C  C1697  1  0.707930  0.459470  0.825470  1.0  -0.0768
  C  C1698  1  0.539230  0.397470  0.596470  1.0  -0.1757
  C  C1699  1  0.607130  0.462470  0.598070  1.0  -0.1616
  C  C1700  1  0.738830  0.542070  0.802870  1.0  -0.1325
  C  C1701  1  0.719530  0.494670  0.848770  1.0  -0.1826
  C  C1702  1  0.564530  0.439570  0.585470  1.0  0.1006
  C  C1703  1  0.736130  0.537370  0.836970  1.0  0.1798
  C  C1704  1  0.544330  0.456870  0.559270  1.0  -0.1306
  C  C1705  1  0.753530  0.575870  0.859870  1.0  -0.0271
  C  C1706  1  0.531330  0.486170  0.571970  1.0  0.1245
  C  C1707  1  0.540130  0.443570  0.524870  1.0  0.3145
  C  C1708  1  0.727730  0.592470  0.872370  1.0  0.1622
  C  C1709  1  0.797430  0.592570  0.870770  1.0  -0.0039
  C  C1710  1  0.535830  0.502470  0.608970  1.0  -0.1587
  C  C1711  1  0.553830  0.414870  0.512370  1.0  -0.1878
  C  C1712  1  0.678830  0.571470  0.863470  1.0  -0.1505
  C  C1713  1  0.830630  0.578270  0.860670  1.0  -0.1093
  C  C1714  1  0.508630  0.534470  0.573170  1.0  0.143
  C  C1715  1  0.520230  0.531570  0.609970  1.0  -0.1659
  C  C1716  1  0.525530  0.435170  0.467670  1.0  0.1435
  C  C1717  1  0.544030  0.408870  0.477570  1.0  -0.1596
  C  C1718  1  0.665530  0.598070  0.876370  1.0  -0.1272
  C  C1719  1  0.702830  0.632770  0.898770  1.0  0.1565
  C  C1720  1  0.863530  0.632670  0.896270  1.0  0.2796
  C  C1721  1  0.869230  0.602370  0.875970  1.0  -0.1837
  C  C1722  1  0.489230  0.560770  0.563770  1.0  -0.072
  C  C1723  1  0.429500  0.716000  0.990100  1.0  0.698
  C  C1724  1  0.393400  0.631600  0.100300  1.0  0.7058
  C  C1725  1  0.469000  0.732600  0.965000  1.0  -0.12
  C  C1726  1  0.420100  0.621900  0.124400  1.0  -0.0388
  C  C1727  1  0.487800  0.776400  0.953000  1.0  -0.031
  C  C1728  1  0.486500  0.707300  0.953900  1.0  -0.1351
  C  C1729  1  0.448700  0.608000  0.112600  1.0  -0.1955
  C  C1730  1  0.418200  0.625400  0.158800  1.0  -0.0791
  C  C1731  1  0.524900  0.794100  0.929800  1.0  -0.1736
  C  C1732  1  0.522000  0.726200  0.931400  1.0  -0.1617
  C  C1733  1  0.469900  0.594500  0.136200  1.0  -0.134
  C  C1734  1  0.441800  0.613800  0.182100  1.0  -0.1851
  C  C1735  1  0.541700  0.768800  0.918800  1.0  0.101
  C  C1736  1  0.467900  0.597200  0.170300  1.0  0.1805
  C  C1737  1  0.579200  0.789000  0.892600  1.0  -0.1302
  C  C1738  1  0.489000  0.579800  0.193200  1.0  -0.0259
  C  C1739  1  0.621500  0.802000  0.905300  1.0  0.1258
  C  C1740  1  0.570100  0.793200  0.858200  1.0  0.3151
  C  C1741  1  0.531400  0.605600  0.205700  1.0  0.1623
  C  C1742  1  0.461800  0.535900  0.204100  1.0  -0.0078
  C  C1743  1  0.633300  0.797500  0.942300  1.0  -0.1602
  C  C1744  1  0.527700  0.779500  0.845700  1.0  -0.1868
  C  C1745  1  0.559300  0.654500  0.196800  1.0  -0.1505
  C  C1746  1  0.414300  0.502700  0.194000  1.0  -0.1067
  C  C1747  1  0.692500  0.824700  0.906500  1.0  0.143
  C  C1748  1  0.678000  0.813100  0.943300  1.0  -0.164
  C  C1749  1  0.576300  0.807800  0.801000  1.0  0.1523
  C  C1750  1  0.531500  0.789300  0.810900  1.0  -0.1582
  C  C1751  1  0.599200  0.667800  0.209700  1.0  -0.1253
  C  C1752  1  0.596600  0.630500  0.232100  1.0  0.1556
  C  C1753  1  0.435800  0.469800  0.229600  1.0  0.2808
  C  C1754  1  0.399800  0.464100  0.209300  1.0  -0.1865
  C  C1755  1  0.738200  0.844100  0.897100  1.0  -0.0679
  C  C1756  1  0.096170  0.049330  0.323430  1.0  0.6891
  C  C1757  1  0.060070  0.964930  0.433630  1.0  0.7059
  C  C1758  1  0.135670  0.065930  0.298330  1.0  -0.1199
  C  C1759  1  0.086770  0.955230  0.457730  1.0  -0.0397
  C  C1760  1  0.154470  0.109730  0.286330  1.0  -0.0309
  C  C1761  1  0.153170  0.040630  0.287230  1.0  -0.1351
  C  C1762  1  0.115370  0.941330  0.445930  1.0  -0.1955
  C  C1763  1  0.084870  0.958730  0.492130  1.0  -0.0791
  C  C1764  1  0.191570  0.127430  0.263130  1.0  -0.1736
  C  C1765  1  0.188670  0.059530  0.264730  1.0  -0.1618
  C  C1766  1  0.136570  0.927830  0.469530  1.0  -0.134
  C  C1767  1  0.108470  0.947130  0.515430  1.0  -0.185
  C  C1768  1  0.208370  0.102130  0.252130  1.0  0.101
  C  C1769  1  0.134570  0.930530  0.503630  1.0  0.1805
  C  C1770  1  0.245870  0.122330  0.225930  1.0  -0.1302
  C  C1771  1  0.155670  0.913130  0.526530  1.0  -0.0259
  C  C1772  1  0.288170  0.135330  0.238630  1.0  0.1258
  C  C1773  1  0.236770  0.126530  0.191530  1.0  0.3149
  C  C1774  1  0.198070  0.938930  0.539030  1.0  0.1623
  C  C1775  1  0.128470  0.869230  0.537430  1.0  -0.0078
  C  C1776  1  0.299970  0.130830  0.275630  1.0  -0.1602
  C  C1777  1  0.194370  0.112830  0.179030  1.0  -0.1868
  C  C1778  1  0.225970  0.987830  0.530130  1.0  -0.1505
  C  C1779  1  0.080970  0.836030  0.527330  1.0  -0.1068
  C  C1780  1  0.359170  0.158030  0.239830  1.0  0.143
  C  C1781  1  0.344670  0.146430  0.276630  1.0  -0.164
  C  C1782  1  0.242970  0.141130  0.134330  1.0  0.1449
  C  C1783  1  0.198170  0.122630  0.144230  1.0  -0.1583
  C  C1784  1  0.265870  0.001130  0.543030  1.0  -0.1253
  C  C1785  1  0.263270  0.963830  0.565430  1.0  0.1554
  C  C1786  1  0.102470  0.803130  0.562930  1.0  0.2807
  C  C1787  1  0.066470  0.797430  0.542630  1.0  -0.1867
  C  C1788  1  0.404870  0.177430  0.230430  1.0  -0.068
  C  C1789  1  0.762830  0.382670  0.656770  1.0  0.698
  C  C1790  1  0.726730  0.298270  0.766970  1.0  0.7058
  C  C1791  1  0.802330  0.399270  0.631670  1.0  -0.12
  C  C1792  1  0.753430  0.288570  0.791070  1.0  -0.0387
  C  C1793  1  0.821130  0.443070  0.619670  1.0  -0.031
  C  C1794  1  0.819830  0.373970  0.620570  1.0  -0.1351
  C  C1795  1  0.782030  0.274670  0.779270  1.0  -0.1955
  C  C1796  1  0.751530  0.292070  0.825470  1.0  -0.0791
  C  C1797  1  0.858230  0.460770  0.596470  1.0  -0.1736
  C  C1798  1  0.855330  0.392870  0.598070  1.0  -0.1617
  C  C1799  1  0.803230  0.261170  0.802870  1.0  -0.1338
  C  C1800  1  0.775130  0.280470  0.848770  1.0  -0.1851
  C  C1801  1  0.875030  0.435470  0.585470  1.0  0.101
  C  C1802  1  0.801230  0.263870  0.836970  1.0  0.1805
  C  C1803  1  0.912530  0.455670  0.559270  1.0  -0.1302
  C  C1804  1  0.822330  0.246470  0.859870  1.0  -0.0259
  C  C1805  1  0.954830  0.468670  0.571970  1.0  0.126
  C  C1806  1  0.903430  0.459870  0.524870  1.0  0.315
  C  C1807  1  0.864730  0.272270  0.872370  1.0  0.1623
  C  C1808  1  0.795130  0.202570  0.870770  1.0  -0.0078
  C  C1809  1  0.966630  0.464170  0.608970  1.0  -0.1604
  C  C1810  1  0.861030  0.446170  0.512370  1.0  -0.1868
  C  C1811  1  0.892630  0.321170  0.863470  1.0  -0.1505
  C  C1812  1  0.747630  0.169370  0.860670  1.0  -0.1067
  C  C1813  1  0.025830  0.491370  0.573170  1.0  0.1429
  C  C1814  1  0.011330  0.479770  0.609970  1.0  -0.164
  C  C1815  1  0.909630  0.474470  0.467670  1.0  0.1452
  C  C1816  1  0.864830  0.455970  0.477570  1.0  -0.1582
  C  C1817  1  0.932530  0.334470  0.876370  1.0  -0.1252
  C  C1818  1  0.929930  0.297170  0.898770  1.0  0.1556
  C  C1819  1  0.769130  0.136470  0.896270  1.0  0.2807
  C  C1820  1  0.733130  0.130770  0.875970  1.0  -0.1865
  C  C1821  1  0.071530  0.510770  0.563770  1.0  -0.068
  C  C1822  1  0.286500  0.570500  0.990100  1.0  0.6971
  C  C1823  1  0.238200  0.606600  0.100300  1.0  0.7045
  C  C1824  1  0.263600  0.531000  0.965000  1.0  -0.1195
  C  C1825  1  0.201800  0.579900  0.124400  1.0  -0.039
  C  C1826  1  0.288600  0.512200  0.953000  1.0  -0.0299
  C  C1827  1  0.220800  0.513500  0.953900  1.0  -0.1334
  C  C1828  1  0.159300  0.551300  0.112600  1.0  -0.1939
  C  C1829  1  0.207200  0.581800  0.158800  1.0  -0.0788
  C  C1830  1  0.269200  0.475100  0.929800  1.0  -0.1742
  C  C1831  1  0.204200  0.478000  0.931400  1.0  -0.1613
  C  C1832  1  0.124600  0.530100  0.136200  1.0  -0.132
  C  C1833  1  0.172000  0.558200  0.182100  1.0  -0.1844
  C  C1834  1  0.227100  0.458300  0.918800  1.0  0.0998
  C  C1835  1  0.129300  0.532100  0.170300  1.0  0.1808
  C  C1836  1  0.209800  0.420800  0.892600  1.0  -0.1318
  C  C1837  1  0.090800  0.511000  0.193200  1.0  -0.0282
  C  C1838  1  0.180500  0.378500  0.905300  1.0  0.1256
  C  C1839  1  0.223100  0.429900  0.858200  1.0  0.3163
  C  C1840  1  0.074200  0.468600  0.205700  1.0  0.1618
  C  C1841  1  0.074100  0.538200  0.204100  1.0  -0.0048
  C  C1842  1  0.164200  0.366700  0.942300  1.0  -0.1585
  C  C1843  1  0.251800  0.472300  0.845700  1.0  -0.1883
  C  C1844  1  0.095200  0.440700  0.196800  1.0  -0.1549
  C  C1845  1  0.088400  0.585700  0.194000  1.0  -0.107
  C  C1846  1  0.132200  0.307500  0.906500  1.0  0.1423
  C  C1847  1  0.135100  0.322000  0.943300  1.0  -0.1647
  C  C1848  1  0.231500  0.423700  0.801000  1.0  0.1599
  C  C1849  1  0.257800  0.468500  0.810900  1.0  -0.16
  C  C1850  1  0.068600  0.400800  0.209700  1.0  -0.1295
  C  C1851  1  0.033900  0.403400  0.232100  1.0  0.1566
  C  C1852  1  0.034000  0.564200  0.229600  1.0  0.2908
  C  C1853  1  0.064300  0.600200  0.209300  1.0  -0.1835
  C  C1854  1  0.105900  0.261800  0.897100  1.0  -0.071
  C  C1855  1  0.953170  0.903830  0.323430  1.0  0.6916
  C  C1856  1  0.904870  0.939930  0.433630  1.0  0.7047
  C  C1857  1  0.930270  0.864330  0.298330  1.0  -0.1195
  C  C1858  1  0.868470  0.913230  0.457730  1.0  -0.039
  C  C1859  1  0.955270  0.845530  0.286330  1.0  -0.03
  C  C1860  1  0.887470  0.846830  0.287230  1.0  -0.1333
  C  C1861  1  0.825970  0.884630  0.445930  1.0  -0.1939
  C  C1862  1  0.873870  0.915130  0.492130  1.0  -0.0788
  C  C1863  1  0.935870  0.808430  0.263130  1.0  -0.1742
  C  C1864  1  0.870870  0.811330  0.264730  1.0  -0.1612
  C  C1865  1  0.791270  0.863430  0.469530  1.0  -0.1322
  C  C1866  1  0.838670  0.891530  0.515430  1.0  -0.1843
  C  C1867  1  0.893770  0.791630  0.252130  1.0  0.0998
  C  C1868  1  0.795970  0.865430  0.503630  1.0  0.1809
  C  C1869  1  0.876470  0.754130  0.225930  1.0  -0.1318
  C  C1870  1  0.757470  0.844330  0.526530  1.0  -0.0282
  C  C1871  1  0.847170  0.711830  0.238630  1.0  0.1256
  C  C1872  1  0.889770  0.763230  0.191530  1.0  0.3162
  C  C1873  1  0.740870  0.801930  0.539030  1.0  0.1618
  C  C1874  1  0.740770  0.871530  0.537430  1.0  -0.0048
  C  C1875  1  0.830870  0.700030  0.275630  1.0  -0.1585
  C  C1876  1  0.918470  0.805630  0.179030  1.0  -0.1882
  C  C1877  1  0.761870  0.774030  0.530130  1.0  -0.1548
  C  C1878  1  0.755070  0.919030  0.527330  1.0  -0.1071
  C  C1879  1  0.798870  0.640830  0.239830  1.0  0.1423
  C  C1880  1  0.801770  0.655330  0.276630  1.0  -0.1647
  C  C1881  1  0.898170  0.757030  0.134330  1.0  0.1599
  C  C1882  1  0.924470  0.801830  0.144230  1.0  -0.1599
  C  C1883  1  0.735270  0.734130  0.543030  1.0  -0.1294
  C  C1884  1  0.700570  0.736730  0.565430  1.0  0.1557
  C  C1885  1  0.700670  0.897530  0.562930  1.0  0.2909
  C  C1886  1  0.730970  0.933530  0.542630  1.0  -0.1835
  C  C1887  1  0.772570  0.595130  0.230430  1.0  -0.0709
  C  C1888  1  0.619830  0.237170  0.656770  1.0  0.6971
  C  C1889  1  0.571530  0.273270  0.766970  1.0  0.7045
  C  C1890  1  0.596930  0.197670  0.631670  1.0  -0.1195
  C  C1891  1  0.535130  0.246570  0.791070  1.0  -0.039
  C  C1892  1  0.621930  0.178870  0.619670  1.0  -0.0299
  C  C1893  1  0.554130  0.180170  0.620570  1.0  -0.1334
  C  C1894  1  0.492630  0.217970  0.779270  1.0  -0.1939
  C  C1895  1  0.540530  0.248470  0.825470  1.0  -0.0788
  C  C1896  1  0.602530  0.141770  0.596470  1.0  -0.1742
  C  C1897  1  0.537530  0.144670  0.598070  1.0  -0.1613
  C  C1898  1  0.457930  0.196770  0.802870  1.0  -0.1322
  C  C1899  1  0.505330  0.224870  0.848770  1.0  -0.1843
  C  C1900  1  0.560430  0.124970  0.585470  1.0  0.0998
  C  C1901  1  0.462630  0.198770  0.836970  1.0  0.1808
  C  C1902  1  0.543130  0.087470  0.559270  1.0  -0.1318
  C  C1903  1  0.424130  0.177670  0.859870  1.0  -0.0282
  C  C1904  1  0.513830  0.045170  0.571970  1.0  0.1263
  C  C1905  1  0.556430  0.096570  0.524870  1.0  0.3161
  C  C1906  1  0.407530  0.135270  0.872370  1.0  0.1619
  C  C1907  1  0.407430  0.204870  0.870770  1.0  -0.0048
  C  C1908  1  0.497530  0.033370  0.608970  1.0  -0.1585
  C  C1909  1  0.585130  0.138970  0.512370  1.0  -0.1883
  C  C1910  1  0.428530  0.107370  0.863470  1.0  -0.1549
  C  C1911  1  0.421730  0.252370  0.860670  1.0  -0.107
  C  C1912  1  0.465530  0.974170  0.573170  1.0  0.1423
  C  C1913  1  0.468430  0.988670  0.609970  1.0  -0.1647
  C  C1914  1  0.564830  0.090370  0.467670  1.0  0.1537
  C  C1915  1  0.591130  0.135170  0.477570  1.0  -0.1599
  C  C1916  1  0.401930  0.067470  0.876370  1.0  -0.1295
  C  C1917  1  0.367230  0.070070  0.898770  1.0  0.1565
  C  C1918  1  0.367330  0.230870  0.896270  1.0  0.2911
  C  C1919  1  0.397630  0.266870  0.875970  1.0  -0.1835
  C  C1920  1  0.439230  0.928470  0.563770  1.0  -0.0706
  C  C1921  1  0.000000  0.631400  0.750000  1.0  -0.0549
  C  C1922  1  0.000000  0.437200  0.750000  1.0  -0.0849
  C  C1923  1  0.666667  0.964730  0.083330  1.0  -0.0549
  C  C1924  1  0.666667  0.770530  0.083330  1.0  -0.0846
  C  C1925  1  0.333333  0.298070  0.416670  1.0  -0.0549
  C  C1926  1  0.333333  0.103870  0.416670  1.0  -0.0848
  C  C1927  1  0.368600  0.368600  0.750000  1.0  -0.0551
  C  C1928  1  0.562800  0.562800  0.750000  1.0  -0.0869
  C  C1929  1  0.035270  0.701930  0.083330  1.0  -0.0551
  C  C1930  1  0.229470  0.896130  0.083330  1.0  -0.0867
  C  C1931  1  0.701930  0.035270  0.416670  1.0  -0.0551
  C  C1932  1  0.896130  0.229470  0.416670  1.0  -0.087
  C  C1933  1  0.631400  0.000000  0.750000  1.0  -0.0547
  C  C1934  1  0.437200  0.000000  0.750000  1.0  -0.0875
  C  C1935  1  0.298070  0.333333  0.083330  1.0  -0.0546
  C  C1936  1  0.103870  0.333333  0.083330  1.0  -0.0877
  C  C1937  1  0.964730  0.666667  0.416670  1.0  -0.0546
  C  C1938  1  0.770530  0.666667  0.416670  1.0  -0.0874
  C  C1939  1  0.000000  0.368600  0.250000  1.0  -0.0531
  C  C1940  1  0.000000  0.562800  0.250000  1.0  -0.0879
  C  C1941  1  0.666667  0.701930  0.583330  1.0  -0.0531
  C  C1942  1  0.666667  0.896130  0.583330  1.0  -0.0882
  C  C1943  1  0.333333  0.035270  0.916670  1.0  -0.0531
  C  C1944  1  0.333333  0.229470  0.916670  1.0  -0.0878
  C  C1945  1  0.631400  0.631400  0.250000  1.0  -0.0529
  C  C1946  1  0.437200  0.437200  0.250000  1.0  -0.0866
  C  C1947  1  0.298070  0.964730  0.583330  1.0  -0.0529
  C  C1948  1  0.103870  0.770530  0.583330  1.0  -0.0865
  C  C1949  1  0.964730  0.298070  0.916670  1.0  -0.0529
  C  C1950  1  0.770530  0.103870  0.916670  1.0  -0.0868
  C  C1951  1  0.368600  0.000000  0.250000  1.0  -0.0558
  C  C1952  1  0.562800  0.000000  0.250000  1.0  -0.0852
  C  C1953  1  0.035270  0.333333  0.583330  1.0  -0.0558
  C  C1954  1  0.229470  0.333333  0.583330  1.0  -0.085
  C  C1955  1  0.701930  0.666667  0.916670  1.0  -0.0558
  C  C1956  1  0.896130  0.666667  0.916670  1.0  -0.0852
  N  N1957  1  0.159500  0.819800  0.384800  1.0  -0.3797
  N  N1958  1  0.210500  0.810400  0.332200  1.0  -0.3611
  N  N1959  1  0.039600  0.594700  0.727900  1.0  -0.3612
  N  N1960  1  0.036500  0.510000  0.726500  1.0  -0.4307
  N  N1961  1  0.826170  0.153130  0.718130  1.0  -0.3797
  N  N1962  1  0.877170  0.143730  0.665530  1.0  -0.3611
  N  N1963  1  0.706270  0.928030  0.061230  1.0  -0.3612
  N  N1964  1  0.703170  0.843330  0.059830  1.0  -0.4304
  N  N1965  1  0.492830  0.486470  0.051470  1.0  -0.3797
  N  N1966  1  0.543830  0.477070  0.998870  1.0  -0.3611
  N  N1967  1  0.372930  0.261370  0.394570  1.0  -0.3614
  N  N1968  1  0.369830  0.176670  0.393170  1.0  -0.4307
  N  N1969  1  0.180200  0.339700  0.384800  1.0  -0.3794
  N  N1970  1  0.189600  0.400100  0.332200  1.0  -0.3611
  N  N1971  1  0.405300  0.444900  0.727900  1.0  -0.3638
  N  N1972  1  0.490000  0.526500  0.726500  1.0  -0.4266
  N  N1973  1  0.846870  0.673030  0.718130  1.0  -0.3794
  N  N1974  1  0.856270  0.733430  0.665530  1.0  -0.3611
  N  N1975  1  0.071970  0.778230  0.061230  1.0  -0.3638
  N  N1976  1  0.156670  0.859830  0.059830  1.0  -0.4267
  N  N1977  1  0.513530  0.006370  0.051470  1.0  -0.3794
  N  N1978  1  0.522930  0.066770  0.998870  1.0  -0.3611
  N  N1979  1  0.738630  0.111570  0.394570  1.0  -0.3642
  N  N1980  1  0.823330  0.193170  0.393170  1.0  -0.427
  N  N1981  1  0.660300  0.840500  0.384800  1.0  -0.3798
  N  N1982  1  0.599900  0.789500  0.332200  1.0  -0.3614
  N  N1983  1  0.555100  0.960400  0.727900  1.0  -0.3615
  N  N1984  1  0.473500  0.963500  0.726500  1.0  -0.4291
  N  N1985  1  0.326970  0.173830  0.718130  1.0  -0.3798
  N  N1986  1  0.266570  0.122830  0.665530  1.0  -0.3614
  N  N1987  1  0.221770  0.293730  0.061230  1.0  -0.3615
  N  N1988  1  0.140170  0.296830  0.059830  1.0  -0.4293
  N  N1989  1  0.993630  0.507170  0.051470  1.0  -0.3798
  N  N1990  1  0.933230  0.456170  0.998870  1.0  -0.363
  N  N1991  1  0.888430  0.627070  0.394570  1.0  -0.3615
  N  N1992  1  0.806830  0.630170  0.393170  1.0  -0.4295
  N  N1993  1  0.819800  0.159500  0.115200  1.0  -0.3829
  N  N1994  1  0.810400  0.210500  0.167800  1.0  -0.3636
  N  N1995  1  0.594700  0.039600  0.772100  1.0  -0.3608
  N  N1996  1  0.510000  0.036500  0.773500  1.0  -0.4306
  N  N1997  1  0.486470  0.492830  0.448530  1.0  -0.3829
  N  N1998  1  0.477070  0.543830  0.501130  1.0  -0.3636
  N  N1999  1  0.261370  0.372930  0.105430  1.0  -0.361
  N  N2000  1  0.176670  0.369830  0.106830  1.0  -0.4306
  N  N2001  1  0.153130  0.826170  0.781870  1.0  -0.3828
  N  N2002  1  0.143730  0.877170  0.834470  1.0  -0.3635
  N  N2003  1  0.928030  0.706270  0.438770  1.0  -0.3608
  N  N2004  1  0.843330  0.703170  0.440170  1.0  -0.4303
  N  N2005  1  0.339700  0.180200  0.115200  1.0  -0.3823
  N  N2006  1  0.400100  0.189600  0.167800  1.0  -0.3611
  N  N2007  1  0.444900  0.405300  0.772100  1.0  -0.3597
  N  N2008  1  0.526500  0.490000  0.773500  1.0  -0.4315
  N  N2009  1  0.006370  0.513530  0.448530  1.0  -0.3823
  N  N2010  1  0.066770  0.522930  0.501130  1.0  -0.3611
  N  N2011  1  0.111570  0.738630  0.105430  1.0  -0.3601
  N  N2012  1  0.193170  0.823330  0.106830  1.0  -0.4319
  N  N2013  1  0.673030  0.846870  0.781870  1.0  -0.3824
  N  N2014  1  0.733430  0.856270  0.834470  1.0  -0.3611
  N  N2015  1  0.778230  0.071970  0.438770  1.0  -0.3597
  N  N2016  1  0.859830  0.156670  0.440170  1.0  -0.4316
  N  N2017  1  0.840500  0.660300  0.115200  1.0  -0.3816
  N  N2018  1  0.789500  0.599900  0.167800  1.0  -0.3627
  N  N2019  1  0.960400  0.555100  0.772100  1.0  -0.3626
  N  N2020  1  0.963500  0.473500  0.773500  1.0  -0.4276
  N  N2021  1  0.507170  0.993630  0.448530  1.0  -0.3816
  N  N2022  1  0.456170  0.933230  0.501130  1.0  -0.3627
  N  N2023  1  0.627070  0.888430  0.105430  1.0  -0.3626
  N  N2024  1  0.630170  0.806830  0.106830  1.0  -0.428
  N  N2025  1  0.173830  0.326970  0.781870  1.0  -0.3816
  N  N2026  1  0.122830  0.266570  0.834470  1.0  -0.3627
  N  N2027  1  0.293730  0.221770  0.438770  1.0  -0.3626
  N  N2028  1  0.296830  0.140170  0.440170  1.0  -0.4278
  N  N2029  1  0.840500  0.180200  0.615200  1.0  -0.3823
  N  N2030  1  0.789500  0.189600  0.667800  1.0  -0.364
  N  N2031  1  0.960400  0.405300  0.272100  1.0  -0.3599
  N  N2032  1  0.963500  0.490000  0.273500  1.0  -0.4316
  N  N2033  1  0.507170  0.513530  0.948530  1.0  -0.3822
  N  N2034  1  0.456170  0.522930  0.001130  1.0  -0.364
  N  N2035  1  0.627070  0.738630  0.605430  1.0  -0.3601
  N  N2036  1  0.630170  0.823330  0.606830  1.0  -0.4316
  N  N2037  1  0.173830  0.846870  0.281870  1.0  -0.3821
  N  N2038  1  0.122830  0.856270  0.334470  1.0  -0.364
  N  N2039  1  0.293730  0.071970  0.938770  1.0  -0.3599
  N  N2040  1  0.296830  0.156670  0.940170  1.0  -0.4314
  N  N2041  1  0.819800  0.660300  0.615200  1.0  -0.3817
  N  N2042  1  0.810400  0.599900  0.667800  1.0  -0.3607
  N  N2043  1  0.594700  0.555100  0.272100  1.0  -0.3618
  N  N2044  1  0.510000  0.473500  0.273500  1.0  -0.4272
  N  N2045  1  0.486470  0.993630  0.948530  1.0  -0.3817
  N  N2046  1  0.477070  0.933230  0.001130  1.0  -0.3622
  N  N2047  1  0.261370  0.888430  0.605430  1.0  -0.3621
  N  N2048  1  0.176670  0.806830  0.606830  1.0  -0.4275
  N  N2049  1  0.153130  0.326970  0.281870  1.0  -0.3818
  N  N2050  1  0.143730  0.266570  0.334470  1.0  -0.3607
  N  N2051  1  0.928030  0.221770  0.938770  1.0  -0.3618
  N  N2052  1  0.843330  0.140170  0.940170  1.0  -0.4273
  N  N2053  1  0.339700  0.159500  0.615200  1.0  -0.3824
  N  N2054  1  0.400100  0.210500  0.667800  1.0  -0.3609
  N  N2055  1  0.444900  0.039600  0.272100  1.0  -0.3614
  N  N2056  1  0.526500  0.036500  0.273500  1.0  -0.4303
  N  N2057  1  0.006370  0.492830  0.948530  1.0  -0.3824
  N  N2058  1  0.066770  0.543830  0.001130  1.0  -0.3608
  N  N2059  1  0.111570  0.372930  0.605430  1.0  -0.3614
  N  N2060  1  0.193170  0.369830  0.606830  1.0  -0.4306
  N  N2061  1  0.673030  0.826170  0.281870  1.0  -0.3824
  N  N2062  1  0.733430  0.877170  0.334470  1.0  -0.3609
  N  N2063  1  0.778230  0.706270  0.938770  1.0  -0.3614
  N  N2064  1  0.859830  0.703170  0.940170  1.0  -0.4305
  N  N2065  1  0.180200  0.840500  0.884800  1.0  -0.3809
  N  N2066  1  0.189600  0.789500  0.832200  1.0  -0.3598
  N  N2067  1  0.405300  0.960400  0.227900  1.0  -0.3624
  N  N2068  1  0.490000  0.963500  0.226500  1.0  -0.4295
  N  N2069  1  0.846870  0.173830  0.218130  1.0  -0.3808
  N  N2070  1  0.856270  0.122830  0.165530  1.0  -0.3598
  N  N2071  1  0.071970  0.293730  0.561230  1.0  -0.3624
  N  N2072  1  0.156670  0.296830  0.559830  1.0  -0.4292
  N  N2073  1  0.513530  0.507170  0.551470  1.0  -0.3809
  N  N2074  1  0.522930  0.456170  0.498870  1.0  -0.3598
  N  N2075  1  0.738630  0.627070  0.894570  1.0  -0.3626
  N  N2076  1  0.823330  0.630170  0.893170  1.0  -0.4295
  N  N2077  1  0.660300  0.819800  0.884800  1.0  -0.3792
  N  N2078  1  0.599900  0.810400  0.832200  1.0  -0.3629
  N  N2079  1  0.555100  0.594700  0.227900  1.0  -0.3611
  N  N2080  1  0.473500  0.510000  0.226500  1.0  -0.4301
  N  N2081  1  0.326970  0.153130  0.218130  1.0  -0.3792
  N  N2082  1  0.266570  0.143730  0.165530  1.0  -0.3629
  N  N2083  1  0.221770  0.928030  0.561230  1.0  -0.3611
  N  N2084  1  0.140170  0.843330  0.559830  1.0  -0.4302
  N  N2085  1  0.993630  0.486470  0.551470  1.0  -0.3792
  N  N2086  1  0.933230  0.477070  0.498870  1.0  -0.3645
  N  N2087  1  0.888430  0.261370  0.894570  1.0  -0.3616
  N  N2088  1  0.806830  0.176670  0.893170  1.0  -0.4305
  N  N2089  1  0.159500  0.339700  0.884800  1.0  -0.3792
  N  N2090  1  0.210500  0.400100  0.832200  1.0  -0.3609
  N  N2091  1  0.039600  0.444900  0.227900  1.0  -0.3628
  N  N2092  1  0.036500  0.526500  0.226500  1.0  -0.4267
  N  N2093  1  0.826170  0.673030  0.218130  1.0  -0.3792
  N  N2094  1  0.877170  0.733430  0.165530  1.0  -0.3609
  N  N2095  1  0.706270  0.778230  0.561230  1.0  -0.3628
  N  N2096  1  0.703170  0.859830  0.559830  1.0  -0.427
  N  N2097  1  0.492830  0.006370  0.551470  1.0  -0.3792
  N  N2098  1  0.543830  0.066770  0.498870  1.0  -0.3609
  N  N2099  1  0.372930  0.111570  0.894570  1.0  -0.3628
  N  N2100  1  0.369830  0.193170  0.893170  1.0  -0.4271
  O  O2101  1  0.261000  0.675300  0.497980  1.0  -0.6177
  O  O2102  1  0.324900  0.740400  0.499290  1.0  -0.5782
  O  O2103  1  0.229800  0.622500  0.567490  1.0  -0.5936
  O  O2104  1  0.276100  0.647700  0.614310  1.0  -0.5996
  O  O2105  1  0.927670  0.008630  0.831310  1.0  -0.6177
  O  O2106  1  0.991570  0.073730  0.832620  1.0  -0.5782
  O  O2107  1  0.896470  0.955830  0.900820  1.0  -0.5929
  O  O2108  1  0.942770  0.981030  0.947640  1.0  -0.6024
  O  O2109  1  0.594330  0.341970  0.164650  1.0  -0.6177
  O  O2110  1  0.658230  0.407070  0.165960  1.0  -0.5782
  O  O2111  1  0.563130  0.289170  0.234160  1.0  -0.5936
  O  O2112  1  0.609430  0.314370  0.280980  1.0  -0.5996
  O  O2113  1  0.324700  0.585700  0.497980  1.0  -0.6164
  O  O2114  1  0.259600  0.584500  0.499290  1.0  -0.5769
  O  O2115  1  0.377500  0.607300  0.567490  1.0  -0.5945
  O  O2116  1  0.352300  0.628400  0.614310  1.0  -0.6042
  O  O2117  1  0.991370  0.919030  0.831310  1.0  -0.6164
  O  O2118  1  0.926270  0.917830  0.832620  1.0  -0.5769
  O  O2119  1  0.044170  0.940630  0.900820  1.0  -0.5938
  O  O2120  1  0.018970  0.961730  0.947640  1.0  -0.6012
  O  O2121  1  0.658030  0.252370  0.164650  1.0  -0.6164
  O  O2122  1  0.592930  0.251170  0.165960  1.0  -0.5769
  O  O2123  1  0.710830  0.273970  0.234160  1.0  -0.5945
  O  O2124  1  0.685630  0.295070  0.280980  1.0  -0.6042
  O  O2125  1  0.414300  0.739000  0.497980  1.0  -0.6168
  O  O2126  1  0.415500  0.675100  0.499290  1.0  -0.5779
  O  O2127  1  0.392700  0.770200  0.567490  1.0  -0.5951
  O  O2128  1  0.371600  0.723900  0.614310  1.0  -0.5998
  O  O2129  1  0.080970  0.072330  0.831310  1.0  -0.6167
  O  O2130  1  0.082170  0.008430  0.832620  1.0  -0.5779
  O  O2131  1  0.059370  0.103530  0.900820  1.0  -0.5944
  O  O2132  1  0.038270  0.057230  0.947640  1.0  -0.5998
  O  O2133  1  0.747630  0.405670  0.164650  1.0  -0.6168
  O  O2134  1  0.748830  0.341770  0.165960  1.0  -0.5779
  O  O2135  1  0.726030  0.436870  0.234160  1.0  -0.5951
  O  O2136  1  0.704930  0.390570  0.280980  1.0  -0.5998
  O  O2137  1  0.675300  0.261000  0.002020  1.0  -0.6171
  O  O2138  1  0.740400  0.324900  0.000710  1.0  -0.5787
  O  O2139  1  0.622500  0.229800  0.932510  1.0  -0.5955
  O  O2140  1  0.647700  0.276100  0.885690  1.0  -0.5995
  O  O2141  1  0.341970  0.594330  0.335350  1.0  -0.6171
  O  O2142  1  0.407070  0.658230  0.334040  1.0  -0.5787
  O  O2143  1  0.289170  0.563130  0.265840  1.0  -0.5955
  O  O2144  1  0.314370  0.609430  0.219020  1.0  -0.5995
  O  O2145  1  0.008630  0.927670  0.668690  1.0  -0.6171
  O  O2146  1  0.073730  0.991570  0.667380  1.0  -0.5787
  O  O2147  1  0.955830  0.896470  0.599180  1.0  -0.5948
  O  O2148  1  0.981030  0.942770  0.552360  1.0  -0.6027
  O  O2149  1  0.585700  0.324700  0.002020  1.0  -0.6171
  O  O2150  1  0.584500  0.259600  0.000710  1.0  -0.5777
  O  O2151  1  0.607300  0.377500  0.932510  1.0  -0.5942
  O  O2152  1  0.628400  0.352300  0.885690  1.0  -0.6025
  O  O2153  1  0.252370  0.658030  0.335350  1.0  -0.6171
  O  O2154  1  0.251170  0.592930  0.334040  1.0  -0.5777
  O  O2155  1  0.273970  0.710830  0.265840  1.0  -0.5942
  O  O2156  1  0.295070  0.685630  0.219020  1.0  -0.6025
  O  O2157  1  0.919030  0.991370  0.668690  1.0  -0.6171
  O  O2158  1  0.917830  0.926270  0.667380  1.0  -0.5777
  O  O2159  1  0.940630  0.044170  0.599180  1.0  -0.5939
  O  O2160  1  0.961730  0.018970  0.552360  1.0  -0.5997
  O  O2161  1  0.739000  0.414300  0.002020  1.0  -0.6162
  O  O2162  1  0.675100  0.415500  0.000710  1.0  -0.5767
  O  O2163  1  0.770200  0.392700  0.932510  1.0  -0.5936
  O  O2164  1  0.723900  0.371600  0.885690  1.0  -0.601
  O  O2165  1  0.405670  0.747630  0.335350  1.0  -0.6162
  O  O2166  1  0.341770  0.748830  0.334040  1.0  -0.5767
  O  O2167  1  0.436870  0.726030  0.265840  1.0  -0.5936
  O  O2168  1  0.390570  0.704930  0.219020  1.0  -0.601
  O  O2169  1  0.072330  0.080970  0.668690  1.0  -0.6162
  O  O2170  1  0.008430  0.082170  0.667380  1.0  -0.5767
  O  O2171  1  0.103530  0.059370  0.599180  1.0  -0.5929
  O  O2172  1  0.057230  0.038270  0.552360  1.0  -0.601
  O  O2173  1  0.739000  0.324700  0.502020  1.0  -0.6174
  O  O2174  1  0.675100  0.259600  0.500710  1.0  -0.5778
  O  O2175  1  0.770200  0.377500  0.432510  1.0  -0.5952
  O  O2176  1  0.723900  0.352300  0.385690  1.0  -0.601
  O  O2177  1  0.405670  0.658030  0.835350  1.0  -0.6174
  O  O2178  1  0.341770  0.592930  0.834040  1.0  -0.5778
  O  O2179  1  0.436870  0.710830  0.765840  1.0  -0.5952
  O  O2180  1  0.390570  0.685630  0.719020  1.0  -0.601
  O  O2181  1  0.072330  0.991370  0.168690  1.0  -0.6174
  O  O2182  1  0.008430  0.926270  0.167380  1.0  -0.5778
  O  O2183  1  0.103530  0.044170  0.099180  1.0  -0.5936
  O  O2184  1  0.057230  0.018970  0.052360  1.0  -0.6042
  O  O2185  1  0.675300  0.414300  0.502020  1.0  -0.6164
  O  O2186  1  0.740400  0.415500  0.500710  1.0  -0.5781
  O  O2187  1  0.622500  0.392700  0.432510  1.0  -0.5932
  O  O2188  1  0.647700  0.371600  0.385690  1.0  -0.6031
  O  O2189  1  0.341970  0.747630  0.835350  1.0  -0.6164
  O  O2190  1  0.407070  0.748830  0.834040  1.0  -0.5781
  O  O2191  1  0.289170  0.726030  0.765840  1.0  -0.5932
  O  O2192  1  0.314370  0.704930  0.719020  1.0  -0.6031
  O  O2193  1  0.008630  0.080970  0.168690  1.0  -0.6164
  O  O2194  1  0.073730  0.082170  0.167380  1.0  -0.5781
  O  O2195  1  0.955830  0.059370  0.099180  1.0  -0.5925
  O  O2196  1  0.981030  0.038270  0.052360  1.0  -0.6002
  O  O2197  1  0.585700  0.261000  0.502020  1.0  -0.6166
  O  O2198  1  0.584500  0.324900  0.500710  1.0  -0.5793
  O  O2199  1  0.607300  0.229800  0.432510  1.0  -0.5941
  O  O2200  1  0.628400  0.276100  0.385690  1.0  -0.5993
  O  O2201  1  0.252370  0.594330  0.835350  1.0  -0.6166
  O  O2202  1  0.251170  0.658230  0.834040  1.0  -0.5793
  O  O2203  1  0.273970  0.563130  0.765840  1.0  -0.5941
  O  O2204  1  0.295070  0.609430  0.719020  1.0  -0.5993
  O  O2205  1  0.919030  0.927670  0.168690  1.0  -0.6165
  O  O2206  1  0.917830  0.991570  0.167380  1.0  -0.5793
  O  O2207  1  0.940630  0.896470  0.099180  1.0  -0.5934
  O  O2208  1  0.961730  0.942770  0.052360  1.0  -0.5993
  O  O2209  1  0.324700  0.739000  0.997980  1.0  -0.6164
  O  O2210  1  0.259600  0.675100  0.999290  1.0  -0.5786
  O  O2211  1  0.377500  0.770200  0.067490  1.0  -0.5944
  O  O2212  1  0.352300  0.723900  0.114310  1.0  -0.5999
  O  O2213  1  0.991370  0.072330  0.331310  1.0  -0.6164
  O  O2214  1  0.926270  0.008430  0.332620  1.0  -0.5786
  O  O2215  1  0.044170  0.103530  0.400820  1.0  -0.5936
  O  O2216  1  0.018970  0.057230  0.447640  1.0  -0.6036
  O  O2217  1  0.658030  0.405670  0.664650  1.0  -0.6164
  O  O2218  1  0.592930  0.341770  0.665960  1.0  -0.5786
  O  O2219  1  0.710830  0.436870  0.734160  1.0  -0.5944
  O  O2220  1  0.685630  0.390570  0.780980  1.0  -0.5999
  O  O2221  1  0.414300  0.675300  0.997980  1.0  -0.6177
  O  O2222  1  0.415500  0.740400  0.999290  1.0  -0.5781
  O  O2223  1  0.392700  0.622500  0.067490  1.0  -0.5948
  O  O2224  1  0.371600  0.647700  0.114310  1.0  -0.6038
  O  O2225  1  0.080970  0.008630  0.331310  1.0  -0.6177
  O  O2226  1  0.082170  0.073730  0.332620  1.0  -0.5781
  O  O2227  1  0.059370  0.955830  0.400820  1.0  -0.5945
  O  O2228  1  0.038270  0.981030  0.447640  1.0  -0.6007
  O  O2229  1  0.747630  0.341970  0.664650  1.0  -0.6177
  O  O2230  1  0.748830  0.407070  0.665960  1.0  -0.5781
  O  O2231  1  0.726030  0.289170  0.734160  1.0  -0.5953
  O  O2232  1  0.704930  0.314370  0.780980  1.0  -0.6038
  O  O2233  1  0.261000  0.585700  0.997980  1.0  -0.6163
  O  O2234  1  0.324900  0.584500  0.999290  1.0  -0.5784
  O  O2235  1  0.229800  0.607300  0.067490  1.0  -0.5923
  O  O2236  1  0.276100  0.628400  0.114310  1.0  -0.6002
  O  O2237  1  0.927670  0.919030  0.331310  1.0  -0.6163
  O  O2238  1  0.991570  0.917830  0.332620  1.0  -0.5784
  O  O2239  1  0.896470  0.940630  0.400820  1.0  -0.5916
  O  O2240  1  0.942770  0.961730  0.447640  1.0  -0.6003
  O  O2241  1  0.594330  0.252370  0.664650  1.0  -0.6163
  O  O2242  1  0.658230  0.251170  0.665960  1.0  -0.5784
  O  O2243  1  0.563130  0.273970  0.734160  1.0  -0.5923
  O  O2244  1  0.609430  0.295070  0.780980  1.0  -0.6002
  O  O2245  1  0.333333  0.666667  0.543900  1.0  -1.2621
  O  O2246  1  0.000000  0.000000  0.877230  1.0  -1.2623
  O  O2247  1  0.666667  0.333333  0.210570  1.0  -1.2592
  O  O2248  1  0.666667  0.333333  0.956100  1.0  -1.2622
  O  O2249  1  0.333333  0.666667  0.289430  1.0  -1.2591
  O  O2250  1  0.000000  0.000000  0.622770  1.0  -1.2626
  O  O2251  1  0.666667  0.333333  0.456100  1.0  -1.2622
  O  O2252  1  0.333333  0.666667  0.789430  1.0  -1.2591
  O  O2253  1  0.000000  0.000000  0.122770  1.0  -1.2626
  O  O2254  1  0.333333  0.666667  0.043900  1.0  -1.2621
  O  O2255  1  0.000000  0.000000  0.377230  1.0  -1.2623
  O  O2256  1  0.666667  0.333333  0.710570  1.0  -1.2592
