# generated using pymatgen
data_Zn2P2H42C34N2O9
_symmetry_space_group_name_H-M   'P 1'
_cell_length_a   27.58100000
_cell_length_b   27.58100000
_cell_length_c   43.46800000
_cell_angle_alpha   90.00000000
_cell_angle_beta   90.00000000
_cell_angle_gamma   90.00000000
_symmetry_Int_Tables_number   1
_chemical_formula_structural   Zn2P2H42C34N2O9
_chemical_formula_sum   'Zn32 P32 H672 C544 N32 O144'
_cell_volume   33066.61013355
_cell_formula_units_Z   16
loop_
 _symmetry_equiv_pos_site_id
 _symmetry_equiv_pos_as_xyz
  1  'x, y, z'
loop_
 _atom_site_type_symbol
 _atom_site_label
 _atom_site_symmetry_multiplicity
 _atom_site_fract_x
 _atom_site_fract_y
 _atom_site_fract_z
 _atom_site_occupancy
 _atom_site_charge
  Zn  Zn1  1  0.316480  0.308630  0.378070  1.0  1.0253
  Zn  Zn2  1  0.256240  0.405630  0.330490  1.0  0.9558
  Zn  Zn3  1  0.816480  0.808630  0.878070  1.0  1.0253
  Zn  Zn4  1  0.756240  0.905630  0.830490  1.0  0.9558
  Zn  Zn5  1  0.683520  0.691370  0.378070  1.0  1.0257
  Zn  Zn6  1  0.743760  0.594370  0.330490  1.0  0.954
  Zn  Zn7  1  0.183520  0.191370  0.878070  1.0  1.0257
  Zn  Zn8  1  0.243760  0.094370  0.830490  1.0  0.954
  Zn  Zn9  1  0.308630  0.683520  0.621930  1.0  1.0296
  Zn  Zn10  1  0.405630  0.743760  0.669510  1.0  0.9549
  Zn  Zn11  1  0.808630  0.183520  0.121930  1.0  1.0296
  Zn  Zn12  1  0.905630  0.243760  0.169510  1.0  0.9549
  Zn  Zn13  1  0.691370  0.316480  0.621930  1.0  1.0285
  Zn  Zn14  1  0.594370  0.256240  0.669510  1.0  0.9557
  Zn  Zn15  1  0.191370  0.816480  0.121930  1.0  1.0285
  Zn  Zn16  1  0.094370  0.756240  0.169510  1.0  0.9557
  Zn  Zn17  1  0.183520  0.308630  0.371930  1.0  1.0269
  Zn  Zn18  1  0.243760  0.405630  0.419510  1.0  0.955
  Zn  Zn19  1  0.683520  0.808630  0.871930  1.0  1.0269
  Zn  Zn20  1  0.743760  0.905630  0.919510  1.0  0.955
  Zn  Zn21  1  0.816480  0.691370  0.371930  1.0  1.0265
  Zn  Zn22  1  0.756240  0.594370  0.419510  1.0  0.9555
  Zn  Zn23  1  0.316480  0.191370  0.871930  1.0  1.0265
  Zn  Zn24  1  0.256240  0.094370  0.919510  1.0  0.9555
  Zn  Zn25  1  0.191370  0.683520  0.128070  1.0  1.0289
  Zn  Zn26  1  0.094370  0.743760  0.080490  1.0  0.9548
  Zn  Zn27  1  0.691370  0.183520  0.628070  1.0  1.0289
  Zn  Zn28  1  0.594370  0.243760  0.580490  1.0  0.9548
  Zn  Zn29  1  0.808630  0.316480  0.128070  1.0  1.028
  Zn  Zn30  1  0.905630  0.256240  0.080490  1.0  0.9549
  Zn  Zn31  1  0.308630  0.816480  0.628070  1.0  1.028
  Zn  Zn32  1  0.405630  0.756240  0.580490  1.0  0.9549
  P  P33  1  0.335920  0.417910  0.378710  1.0  1.6087
  P  P34  1  0.258890  0.296180  0.319240  1.0  1.6286
  P  P35  1  0.835920  0.917910  0.878710  1.0  1.6087
  P  P36  1  0.758890  0.796180  0.819240  1.0  1.6286
  P  P37  1  0.664080  0.582090  0.378710  1.0  1.6095
  P  P38  1  0.741110  0.703820  0.319240  1.0  1.622
  P  P39  1  0.164080  0.082090  0.878710  1.0  1.6095
  P  P40  1  0.241110  0.203820  0.819240  1.0  1.622
  P  P41  1  0.417910  0.664080  0.621290  1.0  1.6072
  P  P42  1  0.296180  0.741110  0.680760  1.0  1.6296
  P  P43  1  0.917910  0.164080  0.121290  1.0  1.6072
  P  P44  1  0.796180  0.241110  0.180760  1.0  1.6296
  P  P45  1  0.582090  0.335920  0.621290  1.0  1.6087
  P  P46  1  0.703820  0.258890  0.680760  1.0  1.63
  P  P47  1  0.082090  0.835920  0.121290  1.0  1.6087
  P  P48  1  0.203820  0.758890  0.180760  1.0  1.63
  P  P49  1  0.164080  0.417910  0.371290  1.0  1.6075
  P  P50  1  0.241110  0.296180  0.430760  1.0  1.6212
  P  P51  1  0.664080  0.917910  0.871290  1.0  1.6075
  P  P52  1  0.741110  0.796180  0.930760  1.0  1.6212
  P  P53  1  0.835920  0.582090  0.371290  1.0  1.6095
  P  P54  1  0.758890  0.703820  0.430760  1.0  1.6284
  P  P55  1  0.335920  0.082090  0.871290  1.0  1.6095
  P  P56  1  0.258890  0.203820  0.930760  1.0  1.6284
  P  P57  1  0.082090  0.664080  0.128710  1.0  1.6091
  P  P58  1  0.203820  0.741110  0.069240  1.0  1.629
  P  P59  1  0.582090  0.164080  0.628710  1.0  1.6091
  P  P60  1  0.703820  0.241110  0.569240  1.0  1.629
  P  P61  1  0.917910  0.335920  0.128710  1.0  1.6082
  P  P62  1  0.796180  0.258890  0.069240  1.0  1.6311
  P  P63  1  0.417910  0.835920  0.628710  1.0  1.6082
  P  P64  1  0.296180  0.758890  0.569240  1.0  1.6311
  H  H65  1  0.146900  0.248600  0.218800  1.0  0.1147
  H  H66  1  0.117500  0.176400  0.239700  1.0  0.1067
  H  H67  1  0.153300  0.144000  0.283700  1.0  0.1157
  H  H68  1  0.256200  0.188300  0.322900  1.0  0.0978
  H  H69  1  0.228800  0.140400  0.362200  1.0  0.1232
  H  H70  1  0.176600  0.135200  0.346400  1.0  0.1115
  H  H71  1  0.194200  0.186800  0.359000  1.0  0.1253
  H  H72  1  0.268200  0.104900  0.317300  1.0  0.1077
  H  H73  1  0.271800  0.134200  0.285500  1.0  0.1051
  H  H74  1  0.224200  0.103300  0.293300  1.0  0.0892
  H  H75  1  0.254300  0.313100  0.244300  1.0  0.0813
  H  H76  1  0.177800  0.346800  0.264400  1.0  0.1036
  H  H77  1  0.153800  0.335500  0.231700  1.0  0.1068
  H  H78  1  0.196200  0.374800  0.234400  1.0  0.1094
  H  H79  1  0.241200  0.275100  0.194700  1.0  0.0995
  H  H80  1  0.224200  0.330400  0.191800  1.0  0.1058
  H  H81  1  0.184800  0.288400  0.196200  1.0  0.1042
  H  H82  1  0.362700  0.607900  0.399000  1.0  0.1204
  H  H83  1  0.387400  0.602100  0.449600  1.0  0.1106
  H  H84  1  0.411000  0.528100  0.469400  1.0  0.1033
  H  H85  1  0.408300  0.415400  0.427400  1.0  0.0802
  H  H86  1  0.358900  0.428500  0.472600  1.0  0.1038
  H  H87  1  0.404500  0.453100  0.489200  1.0  0.0968
  H  H88  1  0.405900  0.396700  0.480500  1.0  0.0905
  H  H89  1  0.472300  0.403000  0.461200  1.0  0.1068
  H  H90  1  0.472300  0.458800  0.471300  1.0  0.0936
  H  H91  1  0.489700  0.443800  0.437500  1.0  0.1068
  H  H92  1  0.432400  0.196300  0.397300  1.0  0.11
  H  H93  1  0.483600  0.191000  0.439400  1.0  0.1223
  H  H94  1  0.421300  0.312200  0.473600  1.0  0.1119
  H  H95  1  0.375500  0.317700  0.428600  1.0  0.1057
  H  H96  1  0.497000  0.285500  0.559700  1.0  0.0883
  H  H97  1  0.444700  0.283300  0.518400  1.0  0.1121
  H  H98  1  0.541400  0.206400  0.470800  1.0  0.1279
  H  H99  1  0.592000  0.207600  0.514200  1.0  0.0982
  H  H100  1  0.359100  0.510700  0.345000  1.0  0.0861
  H  H101  1  0.291500  0.562800  0.334800  1.0  0.1103
  H  H102  1  0.300200  0.589700  0.366900  1.0  0.1032
  H  H103  1  0.283600  0.534100  0.366400  1.0  0.1113
  H  H104  1  0.426200  0.566800  0.343000  1.0  0.1188
  H  H105  1  0.390300  0.610800  0.350500  1.0  0.0888
  H  H106  1  0.385700  0.582400  0.318500  1.0  0.1112
  H  H107  1  0.646900  0.748600  0.718800  1.0  0.1147
  H  H108  1  0.617500  0.676400  0.739700  1.0  0.1067
  H  H109  1  0.653300  0.644000  0.783700  1.0  0.116
  H  H110  1  0.756200  0.688300  0.822900  1.0  0.0978
  H  H111  1  0.728800  0.640400  0.862200  1.0  0.1232
  H  H112  1  0.676600  0.635200  0.846400  1.0  0.1099
  H  H113  1  0.694200  0.686800  0.859000  1.0  0.1253
  H  H114  1  0.768200  0.604900  0.817300  1.0  0.109
  H  H115  1  0.771800  0.634200  0.785500  1.0  0.1026
  H  H116  1  0.724200  0.603300  0.793300  1.0  0.0903
  H  H117  1  0.754300  0.813100  0.744300  1.0  0.0813
  H  H118  1  0.677800  0.846800  0.764400  1.0  0.1036
  H  H119  1  0.653800  0.835500  0.731700  1.0  0.1068
  H  H120  1  0.696200  0.874800  0.734400  1.0  0.1094
  H  H121  1  0.741200  0.775100  0.694700  1.0  0.099
  H  H122  1  0.724200  0.830400  0.691800  1.0  0.1091
  H  H123  1  0.684800  0.788400  0.696200  1.0  0.1042
  H  H124  1  0.862700  0.107900  0.899000  1.0  0.1204
  H  H125  1  0.887400  0.102100  0.949600  1.0  0.1106
  H  H126  1  0.911000  0.028100  0.969400  1.0  0.1033
  H  H127  1  0.908300  0.915400  0.927400  1.0  0.0802
  H  H128  1  0.858900  0.928500  0.972600  1.0  0.1038
  H  H129  1  0.904500  0.953100  0.989200  1.0  0.0968
  H  H130  1  0.905900  0.896700  0.980500  1.0  0.0905
  H  H131  1  0.972300  0.903000  0.961200  1.0  0.1068
  H  H132  1  0.972300  0.958800  0.971300  1.0  0.0936
  H  H133  1  0.989700  0.943800  0.937500  1.0  0.1068
  H  H134  1  0.932400  0.696300  0.897300  1.0  0.1091
  H  H135  1  0.983600  0.691000  0.939400  1.0  0.1225
  H  H136  1  0.921300  0.812200  0.973600  1.0  0.1119
  H  H137  1  0.875500  0.817700  0.928600  1.0  0.1057
  H  H138  1  0.997000  0.785500  0.059700  1.0  0.0883
  H  H139  1  0.944700  0.783300  0.018400  1.0  0.1121
  H  H140  1  0.041400  0.706400  0.970800  1.0  0.127
  H  H141  1  0.092000  0.707600  0.014200  1.0  0.0985
  H  H142  1  0.859100  0.010700  0.845000  1.0  0.0861
  H  H143  1  0.791500  0.062800  0.834800  1.0  0.1103
  H  H144  1  0.800200  0.089700  0.866900  1.0  0.1032
  H  H145  1  0.783600  0.034100  0.866400  1.0  0.1113
  H  H146  1  0.926200  0.066800  0.843000  1.0  0.1188
  H  H147  1  0.890300  0.110800  0.850500  1.0  0.0888
  H  H148  1  0.885700  0.082400  0.818500  1.0  0.1113
  H  H149  1  0.853100  0.751400  0.218800  1.0  0.116
  H  H150  1  0.882500  0.823600  0.239700  1.0  0.1071
  H  H151  1  0.846700  0.856000  0.283700  1.0  0.1165
  H  H152  1  0.743800  0.811700  0.322900  1.0  0.0986
  H  H153  1  0.771200  0.859600  0.362200  1.0  0.1216
  H  H154  1  0.823400  0.864800  0.346400  1.0  0.1115
  H  H155  1  0.805800  0.813200  0.359000  1.0  0.1253
  H  H156  1  0.731800  0.895100  0.317300  1.0  0.1064
  H  H157  1  0.728200  0.865800  0.285500  1.0  0.1035
  H  H158  1  0.775800  0.896700  0.293300  1.0  0.0892
  H  H159  1  0.745700  0.686900  0.244300  1.0  0.083
  H  H160  1  0.822200  0.653200  0.264400  1.0  0.1033
  H  H161  1  0.846200  0.664500  0.231700  1.0  0.1056
  H  H162  1  0.803800  0.625200  0.234400  1.0  0.1065
  H  H163  1  0.758800  0.724900  0.194700  1.0  0.0979
  H  H164  1  0.775800  0.669600  0.191800  1.0  0.1061
  H  H165  1  0.815200  0.711600  0.196200  1.0  0.1038
  H  H166  1  0.637300  0.392100  0.399000  1.0  0.1198
  H  H167  1  0.612600  0.397900  0.449600  1.0  0.11
  H  H168  1  0.589000  0.471900  0.469400  1.0  0.1043
  H  H169  1  0.591700  0.584600  0.427400  1.0  0.0805
  H  H170  1  0.641100  0.571500  0.472600  1.0  0.1033
  H  H171  1  0.595500  0.546900  0.489200  1.0  0.0977
  H  H172  1  0.594100  0.603300  0.480500  1.0  0.0923
  H  H173  1  0.527700  0.597000  0.461200  1.0  0.1054
  H  H174  1  0.527700  0.541200  0.471300  1.0  0.0948
  H  H175  1  0.510300  0.556200  0.437500  1.0  0.1066
  H  H176  1  0.567600  0.803700  0.397300  1.0  0.1108
  H  H177  1  0.516400  0.809000  0.439400  1.0  0.1232
  H  H178  1  0.578700  0.687800  0.473600  1.0  0.1123
  H  H179  1  0.624500  0.682300  0.428600  1.0  0.1059
  H  H180  1  0.503000  0.714500  0.559700  1.0  0.0882
  H  H181  1  0.555300  0.716700  0.518400  1.0  0.1119
  H  H182  1  0.458600  0.793600  0.470800  1.0  0.128
  H  H183  1  0.408000  0.792400  0.514200  1.0  0.0999
  H  H184  1  0.640900  0.489300  0.345000  1.0  0.0863
  H  H185  1  0.708500  0.437200  0.334800  1.0  0.1106
  H  H186  1  0.699800  0.410300  0.366900  1.0  0.1052
  H  H187  1  0.716400  0.465900  0.366400  1.0  0.1104
  H  H188  1  0.573800  0.433200  0.343000  1.0  0.119
  H  H189  1  0.609700  0.389200  0.350500  1.0  0.087
  H  H190  1  0.614300  0.417600  0.318500  1.0  0.1094
  H  H191  1  0.353100  0.251400  0.718800  1.0  0.116
  H  H192  1  0.382500  0.323600  0.739700  1.0  0.1071
  H  H193  1  0.346700  0.356000  0.783700  1.0  0.1166
  H  H194  1  0.243800  0.311700  0.822900  1.0  0.0986
  H  H195  1  0.271200  0.359600  0.862200  1.0  0.1216
  H  H196  1  0.323400  0.364800  0.846400  1.0  0.1105
  H  H197  1  0.305800  0.313200  0.859000  1.0  0.1253
  H  H198  1  0.231800  0.395100  0.817300  1.0  0.1073
  H  H199  1  0.228200  0.365800  0.785500  1.0  0.1007
  H  H200  1  0.275800  0.396700  0.793300  1.0  0.0904
  H  H201  1  0.245700  0.186900  0.744300  1.0  0.083
  H  H202  1  0.322200  0.153200  0.764400  1.0  0.1033
  H  H203  1  0.346200  0.164500  0.731700  1.0  0.1056
  H  H204  1  0.303800  0.125200  0.734400  1.0  0.1065
  H  H205  1  0.258800  0.224900  0.694700  1.0  0.098
  H  H206  1  0.275800  0.169600  0.691800  1.0  0.1093
  H  H207  1  0.315200  0.211600  0.696200  1.0  0.1038
  H  H208  1  0.137300  0.892100  0.899000  1.0  0.1198
  H  H209  1  0.112600  0.897900  0.949600  1.0  0.11
  H  H210  1  0.089000  0.971900  0.969400  1.0  0.1043
  H  H211  1  0.091700  0.084600  0.927400  1.0  0.0805
  H  H212  1  0.141100  0.071500  0.972600  1.0  0.1033
  H  H213  1  0.095500  0.046900  0.989200  1.0  0.0977
  H  H214  1  0.094100  0.103300  0.980500  1.0  0.0923
  H  H215  1  0.027700  0.097000  0.961200  1.0  0.1054
  H  H216  1  0.027700  0.041200  0.971300  1.0  0.0948
  H  H217  1  0.010300  0.056200  0.937500  1.0  0.1066
  H  H218  1  0.067600  0.303700  0.897300  1.0  0.1101
  H  H219  1  0.016400  0.309000  0.939400  1.0  0.1232
  H  H220  1  0.078700  0.187800  0.973600  1.0  0.1123
  H  H221  1  0.124500  0.182300  0.928600  1.0  0.1059
  H  H222  1  0.003000  0.214500  0.059700  1.0  0.0882
  H  H223  1  0.055300  0.216700  0.018400  1.0  0.1119
  H  H224  1  0.958600  0.293600  0.970800  1.0  0.1274
  H  H225  1  0.908000  0.292400  0.014200  1.0  0.0986
  H  H226  1  0.140900  0.989300  0.845000  1.0  0.0863
  H  H227  1  0.208500  0.937200  0.834800  1.0  0.1106
  H  H228  1  0.199800  0.910300  0.866900  1.0  0.1052
  H  H229  1  0.216400  0.965900  0.866400  1.0  0.1104
  H  H230  1  0.073800  0.933200  0.843000  1.0  0.119
  H  H231  1  0.109700  0.889200  0.850500  1.0  0.087
  H  H232  1  0.114300  0.917600  0.818500  1.0  0.1096
  H  H233  1  0.248600  0.853100  0.781200  1.0  0.1161
  H  H234  1  0.176400  0.882500  0.760300  1.0  0.1044
  H  H235  1  0.144000  0.846700  0.716300  1.0  0.1164
  H  H236  1  0.188300  0.743800  0.677100  1.0  0.0924
  H  H237  1  0.140400  0.771200  0.637800  1.0  0.1228
  H  H238  1  0.135200  0.823400  0.653600  1.0  0.1126
  H  H239  1  0.186800  0.805800  0.641000  1.0  0.1245
  H  H240  1  0.104900  0.731800  0.682700  1.0  0.107
  H  H241  1  0.134200  0.728200  0.714500  1.0  0.1034
  H  H242  1  0.103300  0.775800  0.706700  1.0  0.0909
  H  H243  1  0.313100  0.745700  0.755700  1.0  0.081
  H  H244  1  0.346800  0.822200  0.735600  1.0  0.1035
  H  H245  1  0.335500  0.846200  0.768300  1.0  0.1098
  H  H246  1  0.374800  0.803800  0.765600  1.0  0.1081
  H  H247  1  0.275100  0.758800  0.805300  1.0  0.0999
  H  H248  1  0.330400  0.775800  0.808200  1.0  0.1013
  H  H249  1  0.288400  0.815200  0.803800  1.0  0.1077
  H  H250  1  0.607900  0.637300  0.601000  1.0  0.1221
  H  H251  1  0.602100  0.612600  0.550400  1.0  0.1087
  H  H252  1  0.528100  0.589000  0.530600  1.0  0.104
  H  H253  1  0.415400  0.591700  0.572600  1.0  0.0809
  H  H254  1  0.428500  0.641100  0.527400  1.0  0.1033
  H  H255  1  0.453100  0.595500  0.510800  1.0  0.0968
  H  H256  1  0.396700  0.594100  0.519500  1.0  0.0876
  H  H257  1  0.403000  0.527700  0.538800  1.0  0.1057
  H  H258  1  0.458800  0.527700  0.528700  1.0  0.0941
  H  H259  1  0.443800  0.510300  0.562500  1.0  0.1079
  H  H260  1  0.196300  0.567600  0.602700  1.0  0.1116
  H  H261  1  0.191000  0.516400  0.560600  1.0  0.1222
  H  H262  1  0.312200  0.578700  0.526400  1.0  0.1128
  H  H263  1  0.317700  0.624500  0.571400  1.0  0.1064
  H  H264  1  0.285500  0.503000  0.440300  1.0  0.0872
  H  H265  1  0.283300  0.555300  0.481600  1.0  0.1117
  H  H266  1  0.206400  0.458600  0.529200  1.0  0.1278
  H  H267  1  0.207600  0.408000  0.485800  1.0  0.0974
  H  H268  1  0.510700  0.640900  0.655000  1.0  0.0809
  H  H269  1  0.562800  0.708500  0.665200  1.0  0.1108
  H  H270  1  0.589700  0.699800  0.633100  1.0  0.1083
  H  H271  1  0.534100  0.716400  0.633600  1.0  0.1122
  H  H272  1  0.566800  0.573800  0.657000  1.0  0.1199
  H  H273  1  0.610800  0.609700  0.649500  1.0  0.0882
  H  H274  1  0.582400  0.614300  0.681500  1.0  0.1121
  H  H275  1  0.748600  0.353100  0.281200  1.0  0.1161
  H  H276  1  0.676400  0.382500  0.260300  1.0  0.1044
  H  H277  1  0.644000  0.346700  0.216300  1.0  0.1168
  H  H278  1  0.688300  0.243800  0.177100  1.0  0.0924
  H  H279  1  0.640400  0.271200  0.137800  1.0  0.1228
  H  H280  1  0.635200  0.323400  0.153600  1.0  0.1114
  H  H281  1  0.686800  0.305800  0.141000  1.0  0.1245
  H  H282  1  0.604900  0.231800  0.182700  1.0  0.109
  H  H283  1  0.634200  0.228200  0.214500  1.0  0.1011
  H  H284  1  0.603300  0.275800  0.206700  1.0  0.0924
  H  H285  1  0.813100  0.245700  0.255700  1.0  0.081
  H  H286  1  0.846800  0.322200  0.235600  1.0  0.1035
  H  H287  1  0.835500  0.346200  0.268300  1.0  0.1098
  H  H288  1  0.874800  0.303800  0.265600  1.0  0.1081
  H  H289  1  0.775100  0.258800  0.305300  1.0  0.0997
  H  H290  1  0.830400  0.275800  0.308200  1.0  0.1029
  H  H291  1  0.788400  0.315200  0.303800  1.0  0.1077
  H  H292  1  0.107900  0.137300  0.101000  1.0  0.1221
  H  H293  1  0.102100  0.112600  0.050400  1.0  0.1087
  H  H294  1  0.028100  0.089000  0.030600  1.0  0.104
  H  H295  1  0.915400  0.091700  0.072600  1.0  0.0809
  H  H296  1  0.928500  0.141100  0.027400  1.0  0.1033
  H  H297  1  0.953100  0.095500  0.010800  1.0  0.0968
  H  H298  1  0.896700  0.094100  0.019500  1.0  0.0876
  H  H299  1  0.903000  0.027700  0.038800  1.0  0.1057
  H  H300  1  0.958800  0.027700  0.028700  1.0  0.0941
  H  H301  1  0.943800  0.010300  0.062500  1.0  0.1079
  H  H302  1  0.696300  0.067600  0.102700  1.0  0.1105
  H  H303  1  0.691000  0.016400  0.060600  1.0  0.1221
  H  H304  1  0.812200  0.078700  0.026400  1.0  0.1128
  H  H305  1  0.817700  0.124500  0.071400  1.0  0.1064
  H  H306  1  0.785500  0.003000  0.940300  1.0  0.0872
  H  H307  1  0.783300  0.055300  0.981600  1.0  0.1117
  H  H308  1  0.706400  0.958600  0.029200  1.0  0.1268
  H  H309  1  0.707600  0.908000  0.985800  1.0  0.0977
  H  H310  1  0.010700  0.140900  0.155000  1.0  0.0809
  H  H311  1  0.062800  0.208500  0.165200  1.0  0.1108
  H  H312  1  0.089700  0.199800  0.133100  1.0  0.1083
  H  H313  1  0.034100  0.216400  0.133600  1.0  0.1122
  H  H314  1  0.066800  0.073800  0.157000  1.0  0.1199
  H  H315  1  0.110800  0.109700  0.149500  1.0  0.0882
  H  H316  1  0.082400  0.114300  0.181500  1.0  0.1108
  H  H317  1  0.751400  0.146900  0.781200  1.0  0.1159
  H  H318  1  0.823600  0.117500  0.760300  1.0  0.1037
  H  H319  1  0.856000  0.153300  0.716300  1.0  0.1164
  H  H320  1  0.811700  0.256200  0.677100  1.0  0.094
  H  H321  1  0.859600  0.228800  0.637800  1.0  0.1222
  H  H322  1  0.864800  0.176600  0.653600  1.0  0.1127
  H  H323  1  0.813200  0.194200  0.641000  1.0  0.1231
  H  H324  1  0.895100  0.268200  0.682700  1.0  0.1086
  H  H325  1  0.865800  0.271800  0.714500  1.0  0.1035
  H  H326  1  0.896700  0.224200  0.706700  1.0  0.0911
  H  H327  1  0.686900  0.254300  0.755700  1.0  0.0832
  H  H328  1  0.653200  0.177800  0.735600  1.0  0.1034
  H  H329  1  0.664500  0.153800  0.768300  1.0  0.1093
  H  H330  1  0.625200  0.196200  0.765600  1.0  0.1082
  H  H331  1  0.724900  0.241200  0.805300  1.0  0.0984
  H  H332  1  0.669600  0.224200  0.808200  1.0  0.1038
  H  H333  1  0.711600  0.184800  0.803800  1.0  0.1089
  H  H334  1  0.392100  0.362700  0.601000  1.0  0.1207
  H  H335  1  0.397900  0.387400  0.550400  1.0  0.1092
  H  H336  1  0.471900  0.411000  0.530600  1.0  0.1049
  H  H337  1  0.584600  0.408300  0.572600  1.0  0.0801
  H  H338  1  0.571500  0.358900  0.527400  1.0  0.1025
  H  H339  1  0.546900  0.404500  0.510800  1.0  0.0967
  H  H340  1  0.603300  0.405900  0.519500  1.0  0.0907
  H  H341  1  0.597000  0.472300  0.538800  1.0  0.1081
  H  H342  1  0.541200  0.472300  0.528700  1.0  0.0945
  H  H343  1  0.556200  0.489700  0.562500  1.0  0.106
  H  H344  1  0.803700  0.432400  0.602700  1.0  0.1109
  H  H345  1  0.809000  0.483600  0.560600  1.0  0.1221
  H  H346  1  0.687800  0.421300  0.526400  1.0  0.1126
  H  H347  1  0.682300  0.375500  0.571400  1.0  0.1069
  H  H348  1  0.714500  0.497000  0.440300  1.0  0.0868
  H  H349  1  0.716700  0.444700  0.481600  1.0  0.1114
  H  H350  1  0.793600  0.541400  0.529200  1.0  0.1272
  H  H351  1  0.792400  0.592000  0.485800  1.0  0.0974
  H  H352  1  0.489300  0.359100  0.655000  1.0  0.0824
  H  H353  1  0.437200  0.291500  0.665200  1.0  0.1102
  H  H354  1  0.410300  0.300200  0.633100  1.0  0.108
  H  H355  1  0.465900  0.283600  0.633600  1.0  0.109
  H  H356  1  0.433200  0.426200  0.657000  1.0  0.1213
  H  H357  1  0.389200  0.390300  0.649500  1.0  0.0877
  H  H358  1  0.417600  0.385700  0.681500  1.0  0.1127
  H  H359  1  0.251400  0.646900  0.281200  1.0  0.1159
  H  H360  1  0.323600  0.617500  0.260300  1.0  0.1037
  H  H361  1  0.356000  0.653300  0.216300  1.0  0.1166
  H  H362  1  0.311700  0.756200  0.177100  1.0  0.094
  H  H363  1  0.359600  0.728800  0.137800  1.0  0.1222
  H  H364  1  0.364800  0.676600  0.153600  1.0  0.1111
  H  H365  1  0.313200  0.694200  0.141000  1.0  0.1231
  H  H366  1  0.395100  0.768200  0.182700  1.0  0.1102
  H  H367  1  0.365800  0.771800  0.214500  1.0  0.1004
  H  H368  1  0.396700  0.724200  0.206700  1.0  0.092
  H  H369  1  0.186900  0.754300  0.255700  1.0  0.0832
  H  H370  1  0.153200  0.677800  0.235600  1.0  0.1034
  H  H371  1  0.164500  0.653800  0.268300  1.0  0.1093
  H  H372  1  0.125200  0.696200  0.265600  1.0  0.1082
  H  H373  1  0.224900  0.741200  0.305300  1.0  0.0974
  H  H374  1  0.169600  0.724200  0.308200  1.0  0.1061
  H  H375  1  0.211600  0.684800  0.303800  1.0  0.1089
  H  H376  1  0.892100  0.862700  0.101000  1.0  0.1207
  H  H377  1  0.897900  0.887400  0.050400  1.0  0.1092
  H  H378  1  0.971900  0.911000  0.030600  1.0  0.1049
  H  H379  1  0.084600  0.908300  0.072600  1.0  0.0801
  H  H380  1  0.071500  0.858900  0.027400  1.0  0.1025
  H  H381  1  0.046900  0.904500  0.010800  1.0  0.0967
  H  H382  1  0.103300  0.905900  0.019500  1.0  0.0907
  H  H383  1  0.097000  0.972300  0.038800  1.0  0.1081
  H  H384  1  0.041200  0.972300  0.028700  1.0  0.0945
  H  H385  1  0.056200  0.989700  0.062500  1.0  0.106
  H  H386  1  0.303700  0.932400  0.102700  1.0  0.1099
  H  H387  1  0.309000  0.983600  0.060600  1.0  0.1222
  H  H388  1  0.187800  0.921300  0.026400  1.0  0.1126
  H  H389  1  0.182300  0.875500  0.071400  1.0  0.1069
  H  H390  1  0.214500  0.997000  0.940300  1.0  0.0868
  H  H391  1  0.216700  0.944700  0.981600  1.0  0.1114
  H  H392  1  0.293600  0.041400  0.029200  1.0  0.1263
  H  H393  1  0.292400  0.092000  0.985800  1.0  0.0978
  H  H394  1  0.989300  0.859100  0.155000  1.0  0.0824
  H  H395  1  0.937200  0.791500  0.165200  1.0  0.1102
  H  H396  1  0.910300  0.800200  0.133100  1.0  0.108
  H  H397  1  0.965900  0.783600  0.133600  1.0  0.109
  H  H398  1  0.933200  0.926200  0.157000  1.0  0.1213
  H  H399  1  0.889200  0.890300  0.149500  1.0  0.0877
  H  H400  1  0.917600  0.885700  0.181500  1.0  0.1124
  H  H401  1  0.353100  0.248600  0.531200  1.0  0.115
  H  H402  1  0.382500  0.176400  0.510300  1.0  0.1072
  H  H403  1  0.346700  0.144000  0.466300  1.0  0.1166
  H  H404  1  0.243800  0.188300  0.427100  1.0  0.0987
  H  H405  1  0.271200  0.140400  0.387800  1.0  0.1223
  H  H406  1  0.323400  0.135200  0.403600  1.0  0.1103
  H  H407  1  0.305800  0.186800  0.391000  1.0  0.1264
  H  H408  1  0.231800  0.104900  0.432700  1.0  0.1084
  H  H409  1  0.228200  0.134200  0.464500  1.0  0.1012
  H  H410  1  0.275800  0.103300  0.456700  1.0  0.0901
  H  H411  1  0.245700  0.313100  0.505700  1.0  0.0827
  H  H412  1  0.322200  0.346800  0.485600  1.0  0.1038
  H  H413  1  0.346200  0.335500  0.518300  1.0  0.1052
  H  H414  1  0.303800  0.374800  0.515600  1.0  0.1078
  H  H415  1  0.258800  0.275100  0.555300  1.0  0.1
  H  H416  1  0.275800  0.330400  0.558200  1.0  0.1076
  H  H417  1  0.315200  0.288400  0.553800  1.0  0.1068
  H  H418  1  0.137300  0.607900  0.351000  1.0  0.1202
  H  H419  1  0.112600  0.602100  0.300400  1.0  0.1104
  H  H420  1  0.089000  0.528100  0.280600  1.0  0.1041
  H  H421  1  0.091700  0.415400  0.322600  1.0  0.0805
  H  H422  1  0.141100  0.428500  0.277400  1.0  0.1025
  H  H423  1  0.095500  0.453100  0.260800  1.0  0.0986
  H  H424  1  0.094100  0.396700  0.269500  1.0  0.0916
  H  H425  1  0.027700  0.403000  0.288800  1.0  0.1055
  H  H426  1  0.027700  0.458800  0.278700  1.0  0.0945
  H  H427  1  0.010300  0.443800  0.312500  1.0  0.1052
  H  H428  1  0.067600  0.196300  0.352700  1.0  0.111
  H  H429  1  0.016400  0.191000  0.310600  1.0  0.1242
  H  H430  1  0.078700  0.312200  0.276400  1.0  0.1125
  H  H431  1  0.124500  0.317700  0.321400  1.0  0.1059
  H  H432  1  0.003000  0.285500  0.190300  1.0  0.0872
  H  H433  1  0.055300  0.283300  0.231600  1.0  0.1119
  H  H434  1  0.958600  0.206400  0.279200  1.0  0.1281
  H  H435  1  0.908000  0.207600  0.235800  1.0  0.0988
  H  H436  1  0.140900  0.510700  0.405000  1.0  0.087
  H  H437  1  0.208500  0.562800  0.415200  1.0  0.1103
  H  H438  1  0.199800  0.589700  0.383100  1.0  0.1037
  H  H439  1  0.216400  0.534100  0.383600  1.0  0.1089
  H  H440  1  0.073800  0.566800  0.407000  1.0  0.1191
  H  H441  1  0.109700  0.610800  0.399500  1.0  0.0887
  H  H442  1  0.114300  0.582400  0.431500  1.0  0.1101
  H  H443  1  0.853100  0.748600  0.031200  1.0  0.115
  H  H444  1  0.882500  0.676400  0.010300  1.0  0.1072
  H  H445  1  0.846700  0.644000  0.966300  1.0  0.1169
  H  H446  1  0.743800  0.688300  0.927100  1.0  0.0987
  H  H447  1  0.771200  0.640400  0.887800  1.0  0.1223
  H  H448  1  0.823400  0.635200  0.903600  1.0  0.1114
  H  H449  1  0.805800  0.686800  0.891000  1.0  0.1264
  H  H450  1  0.731800  0.604900  0.932700  1.0  0.1073
  H  H451  1  0.728200  0.634200  0.964500  1.0  0.1033
  H  H452  1  0.775800  0.603300  0.956700  1.0  0.0914
  H  H453  1  0.745700  0.813100  0.005700  1.0  0.0827
  H  H454  1  0.822200  0.846800  0.985600  1.0  0.1038
  H  H455  1  0.846200  0.835500  0.018300  1.0  0.1052
  H  H456  1  0.803800  0.874800  0.015600  1.0  0.1078
  H  H457  1  0.758800  0.775100  0.055300  1.0  0.0993
  H  H458  1  0.775800  0.830400  0.058200  1.0  0.1049
  H  H459  1  0.815200  0.788400  0.053800  1.0  0.1068
  H  H460  1  0.637300  0.107900  0.851000  1.0  0.1202
  H  H461  1  0.612600  0.102100  0.800400  1.0  0.1104
  H  H462  1  0.589000  0.028100  0.780600  1.0  0.1041
  H  H463  1  0.591700  0.915400  0.822600  1.0  0.0805
  H  H464  1  0.641100  0.928500  0.777400  1.0  0.1025
  H  H465  1  0.595500  0.953100  0.760800  1.0  0.0986
  H  H466  1  0.594100  0.896700  0.769500  1.0  0.0916
  H  H467  1  0.527700  0.903000  0.788800  1.0  0.1055
  H  H468  1  0.527700  0.958800  0.778700  1.0  0.0945
  H  H469  1  0.510300  0.943800  0.812500  1.0  0.1052
  H  H470  1  0.567600  0.696300  0.852700  1.0  0.1107
  H  H471  1  0.516400  0.691000  0.810600  1.0  0.1247
  H  H472  1  0.578700  0.812200  0.776400  1.0  0.1125
  H  H473  1  0.624500  0.817700  0.821400  1.0  0.1059
  H  H474  1  0.503000  0.785500  0.690300  1.0  0.0872
  H  H475  1  0.555300  0.783300  0.731600  1.0  0.1119
  H  H476  1  0.458600  0.706400  0.779200  1.0  0.1271
  H  H477  1  0.408000  0.707600  0.735800  1.0  0.099
  H  H478  1  0.640900  0.010700  0.905000  1.0  0.087
  H  H479  1  0.708500  0.062800  0.915200  1.0  0.1103
  H  H480  1  0.699800  0.089700  0.883100  1.0  0.1037
  H  H481  1  0.716400  0.034100  0.883600  1.0  0.1089
  H  H482  1  0.573800  0.066800  0.907000  1.0  0.1191
  H  H483  1  0.609700  0.110800  0.899500  1.0  0.0887
  H  H484  1  0.614300  0.082400  0.931500  1.0  0.1107
  H  H485  1  0.646900  0.751400  0.531200  1.0  0.1159
  H  H486  1  0.617500  0.823600  0.510300  1.0  0.1068
  H  H487  1  0.653300  0.856000  0.466300  1.0  0.1175
  H  H488  1  0.756200  0.811700  0.427100  1.0  0.0976
  H  H489  1  0.728800  0.859600  0.387800  1.0  0.1231
  H  H490  1  0.676600  0.864800  0.403600  1.0  0.1106
  H  H491  1  0.694200  0.813200  0.391000  1.0  0.1248
  H  H492  1  0.768200  0.895100  0.432700  1.0  0.1098
  H  H493  1  0.771800  0.865800  0.464500  1.0  0.0997
  H  H494  1  0.724200  0.896700  0.456700  1.0  0.0892
  H  H495  1  0.754300  0.686900  0.505700  1.0  0.0806
  H  H496  1  0.677800  0.653200  0.485600  1.0  0.1042
  H  H497  1  0.653800  0.664500  0.518300  1.0  0.1052
  H  H498  1  0.696200  0.625200  0.515600  1.0  0.108
  H  H499  1  0.741200  0.724900  0.555300  1.0  0.099
  H  H500  1  0.724200  0.669600  0.558200  1.0  0.1081
  H  H501  1  0.684800  0.711600  0.553800  1.0  0.1063
  H  H502  1  0.862700  0.392100  0.351000  1.0  0.1203
  H  H503  1  0.887400  0.397900  0.300400  1.0  0.1093
  H  H504  1  0.911000  0.471900  0.280600  1.0  0.1041
  H  H505  1  0.908300  0.584600  0.322600  1.0  0.0803
  H  H506  1  0.858900  0.571500  0.277400  1.0  0.1024
  H  H507  1  0.904500  0.546900  0.260800  1.0  0.0977
  H  H508  1  0.905900  0.603300  0.269500  1.0  0.0921
  H  H509  1  0.972300  0.597000  0.288800  1.0  0.1047
  H  H510  1  0.972300  0.541200  0.278700  1.0  0.0951
  H  H511  1  0.989700  0.556200  0.312500  1.0  0.105
  H  H512  1  0.932400  0.803700  0.352700  1.0  0.1096
  H  H513  1  0.983600  0.809000  0.310600  1.0  0.1245
  H  H514  1  0.921300  0.687800  0.276400  1.0  0.1124
  H  H515  1  0.875500  0.682300  0.321400  1.0  0.1074
  H  H516  1  0.997000  0.714500  0.190300  1.0  0.0875
  H  H517  1  0.944700  0.716700  0.231600  1.0  0.1121
  H  H518  1  0.041400  0.793600  0.279200  1.0  0.128
  H  H519  1  0.092000  0.792400  0.235800  1.0  0.0993
  H  H520  1  0.859100  0.489300  0.405000  1.0  0.0832
  H  H521  1  0.791500  0.437200  0.415200  1.0  0.1098
  H  H522  1  0.800200  0.410300  0.383100  1.0  0.1055
  H  H523  1  0.783600  0.465900  0.383600  1.0  0.112
  H  H524  1  0.926200  0.433200  0.407000  1.0  0.117
  H  H525  1  0.890300  0.389200  0.399500  1.0  0.088
  H  H526  1  0.885700  0.417600  0.431500  1.0  0.1096
  H  H527  1  0.146900  0.251400  0.031200  1.0  0.1159
  H  H528  1  0.117500  0.323600  0.010300  1.0  0.1068
  H  H529  1  0.153300  0.356000  0.966300  1.0  0.1178
  H  H530  1  0.256200  0.311700  0.927100  1.0  0.0976
  H  H531  1  0.228800  0.359600  0.887800  1.0  0.1231
  H  H532  1  0.176600  0.364800  0.903600  1.0  0.1115
  H  H533  1  0.194200  0.313200  0.891000  1.0  0.1248
  H  H534  1  0.268200  0.395100  0.932700  1.0  0.1096
  H  H535  1  0.271800  0.365800  0.964500  1.0  0.1015
  H  H536  1  0.224200  0.396700  0.956700  1.0  0.0903
  H  H537  1  0.254300  0.186900  0.005700  1.0  0.0806
  H  H538  1  0.177800  0.153200  0.985600  1.0  0.1042
  H  H539  1  0.153800  0.164500  0.018300  1.0  0.1052
  H  H540  1  0.196200  0.125200  0.015600  1.0  0.108
  H  H541  1  0.241200  0.224900  0.055300  1.0  0.0998
  H  H542  1  0.224200  0.169600  0.058200  1.0  0.106
  H  H543  1  0.184800  0.211600  0.053800  1.0  0.1063
  H  H544  1  0.362700  0.892100  0.851000  1.0  0.1203
  H  H545  1  0.387400  0.897900  0.800400  1.0  0.1093
  H  H546  1  0.411000  0.971900  0.780600  1.0  0.1041
  H  H547  1  0.408300  0.084600  0.822600  1.0  0.0803
  H  H548  1  0.358900  0.071500  0.777400  1.0  0.1024
  H  H549  1  0.404500  0.046900  0.760800  1.0  0.0977
  H  H550  1  0.405900  0.103300  0.769500  1.0  0.0921
  H  H551  1  0.472300  0.097000  0.788800  1.0  0.1047
  H  H552  1  0.472300  0.041200  0.778700  1.0  0.0951
  H  H553  1  0.489700  0.056200  0.812500  1.0  0.105
  H  H554  1  0.432400  0.303700  0.852700  1.0  0.1101
  H  H555  1  0.483600  0.309000  0.810600  1.0  0.1251
  H  H556  1  0.421300  0.187800  0.776400  1.0  0.1124
  H  H557  1  0.375500  0.182300  0.821400  1.0  0.1074
  H  H558  1  0.497000  0.214500  0.690300  1.0  0.0875
  H  H559  1  0.444700  0.216700  0.731600  1.0  0.1121
  H  H560  1  0.541400  0.293600  0.779200  1.0  0.1272
  H  H561  1  0.592000  0.292400  0.735800  1.0  0.0984
  H  H562  1  0.359100  0.989300  0.905000  1.0  0.0832
  H  H563  1  0.291500  0.937200  0.915200  1.0  0.1098
  H  H564  1  0.300200  0.910300  0.883100  1.0  0.1055
  H  H565  1  0.283600  0.965900  0.883600  1.0  0.112
  H  H566  1  0.426200  0.933200  0.907000  1.0  0.117
  H  H567  1  0.390300  0.889200  0.899500  1.0  0.088
  H  H568  1  0.385700  0.917600  0.931500  1.0  0.1101
  H  H569  1  0.251400  0.853100  0.968800  1.0  0.1166
  H  H570  1  0.323600  0.882500  0.989700  1.0  0.104
  H  H571  1  0.356000  0.846700  0.033700  1.0  0.1169
  H  H572  1  0.311700  0.743800  0.072900  1.0  0.0928
  H  H573  1  0.359600  0.771200  0.112200  1.0  0.1211
  H  H574  1  0.364800  0.823400  0.096400  1.0  0.1115
  H  H575  1  0.313200  0.805800  0.109000  1.0  0.1232
  H  H576  1  0.395100  0.731800  0.067300  1.0  0.1086
  H  H577  1  0.365800  0.728200  0.035500  1.0  0.1003
  H  H578  1  0.396700  0.775800  0.043300  1.0  0.0915
  H  H579  1  0.186900  0.745700  0.994300  1.0  0.0815
  H  H580  1  0.153200  0.822200  0.014400  1.0  0.1035
  H  H581  1  0.164500  0.846200  0.981700  1.0  0.1091
  H  H582  1  0.125200  0.803800  0.984400  1.0  0.1067
  H  H583  1  0.224900  0.758800  0.944700  1.0  0.0976
  H  H584  1  0.169600  0.775800  0.941800  1.0  0.1029
  H  H585  1  0.211600  0.815200  0.946200  1.0  0.1049
  H  H586  1  0.892100  0.637300  0.149000  1.0  0.1209
  H  H587  1  0.897900  0.612600  0.199600  1.0  0.1085
  H  H588  1  0.971900  0.589000  0.219400  1.0  0.1038
  H  H589  1  0.084600  0.591700  0.177400  1.0  0.0808
  H  H590  1  0.071500  0.641100  0.222600  1.0  0.1011
  H  H591  1  0.046900  0.595500  0.239200  1.0  0.0963
  H  H592  1  0.103300  0.594100  0.230500  1.0  0.0906
  H  H593  1  0.097000  0.527700  0.211200  1.0  0.1086
  H  H594  1  0.041200  0.527700  0.221300  1.0  0.0942
  H  H595  1  0.056200  0.510300  0.187500  1.0  0.1083
  H  H596  1  0.303700  0.567600  0.147300  1.0  0.1102
  H  H597  1  0.309000  0.516400  0.189400  1.0  0.1235
  H  H598  1  0.187800  0.578700  0.223600  1.0  0.1126
  H  H599  1  0.182300  0.624500  0.178600  1.0  0.106
  H  H600  1  0.214500  0.503000  0.309700  1.0  0.0877
  H  H601  1  0.216700  0.555300  0.268400  1.0  0.1117
  H  H602  1  0.293600  0.458600  0.220800  1.0  0.1265
  H  H603  1  0.292400  0.408000  0.264200  1.0  0.0977
  H  H604  1  0.989300  0.640900  0.095000  1.0  0.0836
  H  H605  1  0.937200  0.708500  0.084800  1.0  0.1104
  H  H606  1  0.910300  0.699800  0.116900  1.0  0.1077
  H  H607  1  0.965900  0.716400  0.116400  1.0  0.1098
  H  H608  1  0.933200  0.573800  0.093000  1.0  0.1197
  H  H609  1  0.889200  0.609700  0.100500  1.0  0.0875
  H  H610  1  0.917600  0.614300  0.068500  1.0  0.1108
  H  H611  1  0.751400  0.353100  0.468800  1.0  0.1166
  H  H612  1  0.823600  0.382500  0.489700  1.0  0.104
  H  H613  1  0.856000  0.346700  0.533700  1.0  0.1166
  H  H614  1  0.811700  0.243800  0.572900  1.0  0.0928
  H  H615  1  0.859600  0.271200  0.612200  1.0  0.1211
  H  H616  1  0.864800  0.323400  0.596400  1.0  0.1111
  H  H617  1  0.813200  0.305800  0.609000  1.0  0.1232
  H  H618  1  0.895100  0.231800  0.567300  1.0  0.1099
  H  H619  1  0.865800  0.228200  0.535500  1.0  0.0986
  H  H620  1  0.896700  0.275800  0.543300  1.0  0.0906
  H  H621  1  0.686900  0.245700  0.494300  1.0  0.0815
  H  H622  1  0.653200  0.322200  0.514400  1.0  0.1035
  H  H623  1  0.664500  0.346200  0.481700  1.0  0.1091
  H  H624  1  0.625200  0.303800  0.484400  1.0  0.1067
  H  H625  1  0.724900  0.258800  0.444700  1.0  0.0978
  H  H626  1  0.669600  0.275800  0.441800  1.0  0.1059
  H  H627  1  0.711600  0.315200  0.446200  1.0  0.1049
  H  H628  1  0.392100  0.137300  0.649000  1.0  0.1209
  H  H629  1  0.397900  0.112600  0.699600  1.0  0.1085
  H  H630  1  0.471900  0.089000  0.719400  1.0  0.1038
  H  H631  1  0.584600  0.091700  0.677400  1.0  0.0808
  H  H632  1  0.571500  0.141100  0.722600  1.0  0.1011
  H  H633  1  0.546900  0.095500  0.739200  1.0  0.0963
  H  H634  1  0.603300  0.094100  0.730500  1.0  0.0906
  H  H635  1  0.597000  0.027700  0.711200  1.0  0.1086
  H  H636  1  0.541200  0.027700  0.721300  1.0  0.0942
  H  H637  1  0.556200  0.010300  0.687500  1.0  0.1083
  H  H638  1  0.803700  0.067600  0.647300  1.0  0.1101
  H  H639  1  0.809000  0.016400  0.689400  1.0  0.1234
  H  H640  1  0.687800  0.078700  0.723600  1.0  0.1126
  H  H641  1  0.682300  0.124500  0.678600  1.0  0.106
  H  H642  1  0.714500  0.003000  0.809700  1.0  0.0877
  H  H643  1  0.716700  0.055300  0.768400  1.0  0.1117
  H  H644  1  0.793600  0.958600  0.720800  1.0  0.1275
  H  H645  1  0.792400  0.908000  0.764200  1.0  0.0975
  H  H646  1  0.489300  0.140900  0.595000  1.0  0.0836
  H  H647  1  0.437200  0.208500  0.584800  1.0  0.1104
  H  H648  1  0.410300  0.199800  0.616900  1.0  0.1077
  H  H649  1  0.465900  0.216400  0.616400  1.0  0.1098
  H  H650  1  0.433200  0.073800  0.593000  1.0  0.1197
  H  H651  1  0.389200  0.109700  0.600500  1.0  0.0875
  H  H652  1  0.417600  0.114300  0.568500  1.0  0.1108
  H  H653  1  0.748600  0.146900  0.968800  1.0  0.1161
  H  H654  1  0.676400  0.117500  0.989700  1.0  0.1037
  H  H655  1  0.644000  0.153300  0.033700  1.0  0.1155
  H  H656  1  0.688300  0.256200  0.072900  1.0  0.0947
  H  H657  1  0.640400  0.228800  0.112200  1.0  0.1224
  H  H658  1  0.635200  0.176600  0.096400  1.0  0.1101
  H  H659  1  0.686800  0.194200  0.109000  1.0  0.1245
  H  H660  1  0.604900  0.268200  0.067300  1.0  0.108
  H  H661  1  0.634200  0.271800  0.035500  1.0  0.0998
  H  H662  1  0.603300  0.224200  0.043300  1.0  0.0921
  H  H663  1  0.813100  0.254300  0.994300  1.0  0.0833
  H  H664  1  0.846800  0.177800  0.014400  1.0  0.1037
  H  H665  1  0.835500  0.153800  0.981700  1.0  0.1095
  H  H666  1  0.874800  0.196200  0.984400  1.0  0.1091
  H  H667  1  0.775100  0.241200  0.944700  1.0  0.0993
  H  H668  1  0.830400  0.224200  0.941800  1.0  0.1022
  H  H669  1  0.788400  0.184800  0.946200  1.0  0.1075
  H  H670  1  0.107900  0.362700  0.149000  1.0  0.1221
  H  H671  1  0.102100  0.387400  0.199600  1.0  0.1081
  H  H672  1  0.028100  0.411000  0.219400  1.0  0.1041
  H  H673  1  0.915400  0.408300  0.177400  1.0  0.081
  H  H674  1  0.928500  0.358900  0.222600  1.0  0.1011
  H  H675  1  0.953100  0.404500  0.239200  1.0  0.0968
  H  H676  1  0.896700  0.405900  0.230500  1.0  0.0869
  H  H677  1  0.903000  0.472300  0.211200  1.0  0.1037
  H  H678  1  0.958800  0.472300  0.221300  1.0  0.0932
  H  H679  1  0.943800  0.489700  0.187500  1.0  0.1076
  H  H680  1  0.696300  0.432400  0.147300  1.0  0.1089
  H  H681  1  0.691000  0.483600  0.189400  1.0  0.1244
  H  H682  1  0.812200  0.421300  0.223600  1.0  0.1126
  H  H683  1  0.817700  0.375500  0.178600  1.0  0.1065
  H  H684  1  0.785500  0.497000  0.309700  1.0  0.0885
  H  H685  1  0.783300  0.444700  0.268400  1.0  0.1115
  H  H686  1  0.706400  0.541400  0.220800  1.0  0.1262
  H  H687  1  0.707600  0.592000  0.264200  1.0  0.098
  H  H688  1  0.010700  0.359100  0.095000  1.0  0.0825
  H  H689  1  0.062800  0.291500  0.084800  1.0  0.1113
  H  H690  1  0.089700  0.300200  0.116900  1.0  0.1093
  H  H691  1  0.034100  0.283600  0.116400  1.0  0.1102
  H  H692  1  0.066800  0.426200  0.093000  1.0  0.1226
  H  H693  1  0.110800  0.390300  0.100500  1.0  0.0881
  H  H694  1  0.082400  0.385700  0.068500  1.0  0.1116
  H  H695  1  0.248600  0.646900  0.468800  1.0  0.1161
  H  H696  1  0.176400  0.617500  0.489700  1.0  0.1037
  H  H697  1  0.144000  0.653300  0.533700  1.0  0.1153
  H  H698  1  0.188300  0.756200  0.572900  1.0  0.0947
  H  H699  1  0.140400  0.728800  0.612200  1.0  0.1224
  H  H700  1  0.135200  0.676600  0.596400  1.0  0.1104
  H  H701  1  0.186800  0.694200  0.609000  1.0  0.1245
  H  H702  1  0.104900  0.768200  0.567300  1.0  0.1083
  H  H703  1  0.134200  0.771800  0.535500  1.0  0.0985
  H  H704  1  0.103300  0.724200  0.543300  1.0  0.0908
  H  H705  1  0.313100  0.754300  0.494300  1.0  0.0833
  H  H706  1  0.346800  0.677800  0.514400  1.0  0.1037
  H  H707  1  0.335500  0.653800  0.481700  1.0  0.1095
  H  H708  1  0.374800  0.696200  0.484400  1.0  0.1091
  H  H709  1  0.275100  0.741200  0.444700  1.0  0.0983
  H  H710  1  0.330400  0.724200  0.441800  1.0  0.1049
  H  H711  1  0.288400  0.684800  0.446200  1.0  0.1075
  H  H712  1  0.607900  0.862700  0.649000  1.0  0.1221
  H  H713  1  0.602100  0.887400  0.699600  1.0  0.1081
  H  H714  1  0.528100  0.911000  0.719400  1.0  0.1041
  H  H715  1  0.415400  0.908300  0.677400  1.0  0.081
  H  H716  1  0.428500  0.858900  0.722600  1.0  0.1011
  H  H717  1  0.453100  0.904500  0.739200  1.0  0.0968
  H  H718  1  0.396700  0.905900  0.730500  1.0  0.0869
  H  H719  1  0.403000  0.972300  0.711200  1.0  0.1037
  H  H720  1  0.458800  0.972300  0.721300  1.0  0.0932
  H  H721  1  0.443800  0.989700  0.687500  1.0  0.1076
  H  H722  1  0.196300  0.932400  0.647300  1.0  0.1087
  H  H723  1  0.191000  0.983600  0.689400  1.0  0.1243
  H  H724  1  0.312200  0.921300  0.723600  1.0  0.1126
  H  H725  1  0.317700  0.875500  0.678600  1.0  0.1065
  H  H726  1  0.285500  0.997000  0.809700  1.0  0.0885
  H  H727  1  0.283300  0.944700  0.768400  1.0  0.1115
  H  H728  1  0.206400  0.041400  0.720800  1.0  0.1272
  H  H729  1  0.207600  0.092000  0.764200  1.0  0.0979
  H  H730  1  0.510700  0.859100  0.595000  1.0  0.0825
  H  H731  1  0.562800  0.791500  0.584800  1.0  0.1113
  H  H732  1  0.589700  0.800200  0.616900  1.0  0.1093
  H  H733  1  0.534100  0.783600  0.616400  1.0  0.1102
  H  H734  1  0.566800  0.926200  0.593000  1.0  0.1226
  H  H735  1  0.610800  0.890300  0.600500  1.0  0.0881
  H  H736  1  0.582400  0.885700  0.568500  1.0  0.1119
  C  C737  1  0.221400  0.239700  0.276540  1.0  0.2112
  C  C738  1  0.200200  0.258900  0.250410  1.0  -0.0055
  C  C739  1  0.161500  0.235400  0.236700  1.0  -0.1759
  C  C740  1  0.144000  0.192600  0.249100  1.0  -0.09
  C  C741  1  0.165300  0.173300  0.275200  1.0  -0.1624
  C  C742  1  0.204000  0.196900  0.289000  1.0  0.0108
  C  C743  1  0.227300  0.168100  0.317500  1.0  -0.0299
  C  C744  1  0.204600  0.156600  0.349200  1.0  -0.3591
  C  C745  1  0.249900  0.123600  0.302000  1.0  -0.3052
  C  C746  1  0.221000  0.304900  0.236800  1.0  0.0302
  C  C747  1  0.184000  0.343900  0.242300  1.0  -0.3624
  C  C748  1  0.217500  0.299200  0.201700  1.0  -0.3587
  C  C749  1  0.385700  0.493770  0.400650  1.0  0.1888
  C  C750  1  0.371800  0.537400  0.388980  1.0  0.0348
  C  C751  1  0.372400  0.577500  0.407120  1.0  -0.1628
  C  C752  1  0.386900  0.574100  0.436940  1.0  -0.0808
  C  C753  1  0.400900  0.530500  0.448620  1.0  -0.1613
  C  C754  1  0.400300  0.490350  0.430470  1.0  0.0093
  C  C755  1  0.415800  0.441400  0.442700  1.0  0.0109
  C  C756  1  0.394300  0.428800  0.474100  1.0  -0.392
  C  C757  1  0.467000  0.436300  0.454200  1.0  -0.3671
  C  C758  1  0.431600  0.220900  0.412500  1.0  0.0132
  C  C759  1  0.461000  0.216900  0.437700  1.0  -0.1825
  C  C760  1  0.457100  0.252400  0.461390  1.0  0.0445
  C  C761  1  0.489000  0.247700  0.489630  1.0  0.0418
  C  C762  1  0.425100  0.288700  0.457820  1.0  -0.1418
  C  C763  1  0.397700  0.291600  0.431200  1.0  -0.0215
  C  C764  1  0.506400  0.268600  0.541570  1.0  0.163
  C  C765  1  0.475700  0.268500  0.516700  1.0  -0.1738
  C  C766  1  0.531700  0.223400  0.488800  1.0  -0.1698
  C  C767  1  0.561600  0.223700  0.515060  1.0  0.1432
  C  C768  1  0.356500  0.542800  0.355500  1.0  0.0786
  C  C769  1  0.303100  0.558800  0.356000  1.0  -0.3277
  C  C770  1  0.393100  0.579100  0.340400  1.0  -0.3082
  C  C771  1  0.721400  0.739700  0.776540  1.0  0.2112
  C  C772  1  0.700200  0.758900  0.750410  1.0  -0.0055
  C  C773  1  0.661500  0.735400  0.736700  1.0  -0.1759
  C  C774  1  0.644000  0.692600  0.749100  1.0  -0.09
  C  C775  1  0.665300  0.673300  0.775200  1.0  -0.1624
  C  C776  1  0.704000  0.696900  0.789000  1.0  0.0108
  C  C777  1  0.727300  0.668100  0.817500  1.0  -0.0299
  C  C778  1  0.704600  0.656600  0.849200  1.0  -0.3591
  C  C779  1  0.749900  0.623600  0.802000  1.0  -0.3052
  C  C780  1  0.721000  0.804900  0.736800  1.0  0.0302
  C  C781  1  0.684000  0.843900  0.742300  1.0  -0.3624
  C  C782  1  0.717500  0.799200  0.701700  1.0  -0.3587
  C  C783  1  0.885700  0.993770  0.900650  1.0  0.1888
  C  C784  1  0.871800  0.037400  0.888980  1.0  0.0348
  C  C785  1  0.872400  0.077500  0.907120  1.0  -0.1628
  C  C786  1  0.886900  0.074100  0.936940  1.0  -0.0808
  C  C787  1  0.900900  0.030500  0.948620  1.0  -0.1613
  C  C788  1  0.900300  0.990350  0.930470  1.0  0.0093
  C  C789  1  0.915800  0.941400  0.942700  1.0  0.0109
  C  C790  1  0.894300  0.928800  0.974100  1.0  -0.392
  C  C791  1  0.967000  0.936300  0.954200  1.0  -0.3671
  C  C792  1  0.931600  0.720900  0.912500  1.0  0.0132
  C  C793  1  0.961000  0.716900  0.937700  1.0  -0.1825
  C  C794  1  0.957100  0.752400  0.961390  1.0  0.0445
  C  C795  1  0.989000  0.747700  0.989630  1.0  0.0418
  C  C796  1  0.925100  0.788700  0.957820  1.0  -0.1418
  C  C797  1  0.897700  0.791600  0.931200  1.0  -0.0215
  C  C798  1  0.006400  0.768600  0.041570  1.0  0.163
  C  C799  1  0.975700  0.768500  0.016700  1.0  -0.1738
  C  C800  1  0.031700  0.723400  0.988800  1.0  -0.1698
  C  C801  1  0.061600  0.723700  0.015060  1.0  0.1432
  C  C802  1  0.856500  0.042800  0.855500  1.0  0.0786
  C  C803  1  0.803100  0.058800  0.856000  1.0  -0.3277
  C  C804  1  0.893100  0.079100  0.840400  1.0  -0.3082
  C  C805  1  0.778600  0.760300  0.276540  1.0  0.2143
  C  C806  1  0.799800  0.741100  0.250410  1.0  -0.0069
  C  C807  1  0.838500  0.764600  0.236700  1.0  -0.1771
  C  C808  1  0.856000  0.807400  0.249100  1.0  -0.0899
  C  C809  1  0.834700  0.826700  0.275200  1.0  -0.1646
  C  C810  1  0.796000  0.803100  0.289000  1.0  0.009
  C  C811  1  0.772700  0.831900  0.317500  1.0  -0.0319
  C  C812  1  0.795400  0.843400  0.349200  1.0  -0.3609
  C  C813  1  0.750100  0.876400  0.302000  1.0  -0.3047
  C  C814  1  0.779000  0.695100  0.236800  1.0  0.0314
  C  C815  1  0.816000  0.656100  0.242300  1.0  -0.3625
  C  C816  1  0.782500  0.700800  0.201700  1.0  -0.3613
  C  C817  1  0.614300  0.506230  0.400650  1.0  0.1907
  C  C818  1  0.628200  0.462600  0.388980  1.0  0.0357
  C  C819  1  0.627600  0.422500  0.407120  1.0  -0.1625
  C  C820  1  0.613100  0.425900  0.436940  1.0  -0.0833
  C  C821  1  0.599100  0.469500  0.448620  1.0  -0.1606
  C  C822  1  0.599700  0.509650  0.430470  1.0  0.0108
  C  C823  1  0.584200  0.558600  0.442700  1.0  0.0114
  C  C824  1  0.605700  0.571200  0.474100  1.0  -0.3907
  C  C825  1  0.533000  0.563700  0.454200  1.0  -0.3682
  C  C826  1  0.568400  0.779100  0.412500  1.0  0.0128
  C  C827  1  0.539000  0.783100  0.437700  1.0  -0.1809
  C  C828  1  0.542900  0.747600  0.461390  1.0  0.0439
  C  C829  1  0.511000  0.752300  0.489630  1.0  0.0423
  C  C830  1  0.574900  0.711300  0.457820  1.0  -0.1431
  C  C831  1  0.602300  0.708400  0.431200  1.0  -0.0258
  C  C832  1  0.493600  0.731400  0.541570  1.0  0.1641
  C  C833  1  0.524300  0.731500  0.516700  1.0  -0.1736
  C  C834  1  0.468300  0.776600  0.488800  1.0  -0.1703
  C  C835  1  0.438400  0.776300  0.515060  1.0  0.1454
  C  C836  1  0.643500  0.457200  0.355500  1.0  0.0776
  C  C837  1  0.696900  0.441200  0.356000  1.0  -0.3279
  C  C838  1  0.606900  0.420900  0.340400  1.0  -0.3091
  C  C839  1  0.278600  0.260300  0.776540  1.0  0.2143
  C  C840  1  0.299800  0.241100  0.750410  1.0  -0.0069
  C  C841  1  0.338500  0.264600  0.736700  1.0  -0.1771
  C  C842  1  0.356000  0.307400  0.749100  1.0  -0.0899
  C  C843  1  0.334700  0.326700  0.775200  1.0  -0.1646
  C  C844  1  0.296000  0.303100  0.789000  1.0  0.009
  C  C845  1  0.272700  0.331900  0.817500  1.0  -0.0319
  C  C846  1  0.295400  0.343400  0.849200  1.0  -0.3609
  C  C847  1  0.250100  0.376400  0.802000  1.0  -0.3047
  C  C848  1  0.279000  0.195100  0.736800  1.0  0.0314
  C  C849  1  0.316000  0.156100  0.742300  1.0  -0.3625
  C  C850  1  0.282500  0.200800  0.701700  1.0  -0.3613
  C  C851  1  0.114300  0.006230  0.900650  1.0  0.1907
  C  C852  1  0.128200  0.962600  0.888980  1.0  0.0357
  C  C853  1  0.127600  0.922500  0.907120  1.0  -0.1625
  C  C854  1  0.113100  0.925900  0.936940  1.0  -0.0833
  C  C855  1  0.099100  0.969500  0.948620  1.0  -0.1606
  C  C856  1  0.099700  0.009650  0.930470  1.0  0.0108
  C  C857  1  0.084200  0.058600  0.942700  1.0  0.0114
  C  C858  1  0.105700  0.071200  0.974100  1.0  -0.3907
  C  C859  1  0.033000  0.063700  0.954200  1.0  -0.3682
  C  C860  1  0.068400  0.279100  0.912500  1.0  0.0128
  C  C861  1  0.039000  0.283100  0.937700  1.0  -0.1809
  C  C862  1  0.042900  0.247600  0.961390  1.0  0.0439
  C  C863  1  0.011000  0.252300  0.989630  1.0  0.0423
  C  C864  1  0.074900  0.211300  0.957820  1.0  -0.1431
  C  C865  1  0.102300  0.208400  0.931200  1.0  -0.0258
  C  C866  1  0.993600  0.231400  0.041570  1.0  0.1641
  C  C867  1  0.024300  0.231500  0.016700  1.0  -0.1736
  C  C868  1  0.968300  0.276600  0.988800  1.0  -0.1703
  C  C869  1  0.938400  0.276300  0.015060  1.0  0.1454
  C  C870  1  0.143500  0.957200  0.855500  1.0  0.0776
  C  C871  1  0.196900  0.941200  0.856000  1.0  -0.3279
  C  C872  1  0.106900  0.920900  0.840400  1.0  -0.3091
  C  C873  1  0.239700  0.778600  0.723460  1.0  0.2154
  C  C874  1  0.258900  0.799800  0.749590  1.0  -0.006
  C  C875  1  0.235400  0.838500  0.763300  1.0  -0.1712
  C  C876  1  0.192600  0.856000  0.750900  1.0  -0.0948
  C  C877  1  0.173300  0.834700  0.724800  1.0  -0.1597
  C  C878  1  0.196900  0.796000  0.711000  1.0  0.0097
  C  C879  1  0.168100  0.772700  0.682500  1.0  -0.0314
  C  C880  1  0.156600  0.795400  0.650800  1.0  -0.3572
  C  C881  1  0.123600  0.750100  0.698000  1.0  -0.3053
  C  C882  1  0.304900  0.779000  0.763200  1.0  0.032
  C  C883  1  0.343900  0.816000  0.757700  1.0  -0.3655
  C  C884  1  0.299200  0.782500  0.798300  1.0  -0.3579
  C  C885  1  0.493770  0.614300  0.599350  1.0  0.1905
  C  C886  1  0.537400  0.628200  0.611020  1.0  0.0381
  C  C887  1  0.577500  0.627600  0.592880  1.0  -0.1584
  C  C888  1  0.574100  0.613100  0.563060  1.0  -0.0815
  C  C889  1  0.530500  0.599100  0.551380  1.0  -0.1567
  C  C890  1  0.490350  0.599700  0.569530  1.0  0.0081
  C  C891  1  0.441400  0.584200  0.557300  1.0  0.0115
  C  C892  1  0.428800  0.605700  0.525900  1.0  -0.3858
  C  C893  1  0.436300  0.533000  0.545800  1.0  -0.3624
  C  C894  1  0.220900  0.568400  0.587500  1.0  0.0114
  C  C895  1  0.216900  0.539000  0.562300  1.0  -0.1804
  C  C896  1  0.252400  0.542900  0.538610  1.0  0.0424
  C  C897  1  0.247700  0.511000  0.510370  1.0  0.0422
  C  C898  1  0.288700  0.574900  0.542180  1.0  -0.1422
  C  C899  1  0.291600  0.602300  0.568800  1.0  -0.0217
  C  C900  1  0.268600  0.493600  0.458430  1.0  0.162
  C  C901  1  0.268500  0.524300  0.483300  1.0  -0.1728
  C  C902  1  0.223400  0.468300  0.511200  1.0  -0.1675
  C  C903  1  0.223700  0.438400  0.484940  1.0  0.1435
  C  C904  1  0.542800  0.643500  0.644500  1.0  0.0785
  C  C905  1  0.558800  0.696900  0.644000  1.0  -0.3299
  C  C906  1  0.579100  0.606900  0.659600  1.0  -0.3062
  C  C907  1  0.739700  0.278600  0.223460  1.0  0.2154
  C  C908  1  0.758900  0.299800  0.249590  1.0  -0.006
  C  C909  1  0.735400  0.338500  0.263300  1.0  -0.1712
  C  C910  1  0.692600  0.356000  0.250900  1.0  -0.0948
  C  C911  1  0.673300  0.334700  0.224800  1.0  -0.1597
  C  C912  1  0.696900  0.296000  0.211000  1.0  0.0097
  C  C913  1  0.668100  0.272700  0.182500  1.0  -0.0314
  C  C914  1  0.656600  0.295400  0.150800  1.0  -0.3572
  C  C915  1  0.623600  0.250100  0.198000  1.0  -0.3053
  C  C916  1  0.804900  0.279000  0.263200  1.0  0.032
  C  C917  1  0.843900  0.316000  0.257700  1.0  -0.3655
  C  C918  1  0.799200  0.282500  0.298300  1.0  -0.3579
  C  C919  1  0.993770  0.114300  0.099350  1.0  0.1905
  C  C920  1  0.037400  0.128200  0.111020  1.0  0.0381
  C  C921  1  0.077500  0.127600  0.092880  1.0  -0.1584
  C  C922  1  0.074100  0.113100  0.063060  1.0  -0.0815
  C  C923  1  0.030500  0.099100  0.051380  1.0  -0.1567
  C  C924  1  0.990350  0.099700  0.069530  1.0  0.0081
  C  C925  1  0.941400  0.084200  0.057300  1.0  0.0115
  C  C926  1  0.928800  0.105700  0.025900  1.0  -0.3858
  C  C927  1  0.936300  0.033000  0.045800  1.0  -0.3624
  C  C928  1  0.720900  0.068400  0.087500  1.0  0.0114
  C  C929  1  0.716900  0.039000  0.062300  1.0  -0.1804
  C  C930  1  0.752400  0.042900  0.038610  1.0  0.0424
  C  C931  1  0.747700  0.011000  0.010370  1.0  0.0422
  C  C932  1  0.788700  0.074900  0.042180  1.0  -0.1422
  C  C933  1  0.791600  0.102300  0.068800  1.0  -0.0217
  C  C934  1  0.768600  0.993600  0.958430  1.0  0.162
  C  C935  1  0.768500  0.024300  0.983300  1.0  -0.1728
  C  C936  1  0.723400  0.968300  0.011200  1.0  -0.1675
  C  C937  1  0.723700  0.938400  0.984940  1.0  0.1435
  C  C938  1  0.042800  0.143500  0.144500  1.0  0.0785
  C  C939  1  0.058800  0.196900  0.144000  1.0  -0.3299
  C  C940  1  0.079100  0.106900  0.159600  1.0  -0.3062
  C  C941  1  0.760300  0.221400  0.723460  1.0  0.2151
  C  C942  1  0.741100  0.200200  0.749590  1.0  -0.0063
  C  C943  1  0.764600  0.161500  0.763300  1.0  -0.1719
  C  C944  1  0.807400  0.144000  0.750900  1.0  -0.0938
  C  C945  1  0.826700  0.165300  0.724800  1.0  -0.16
  C  C946  1  0.803100  0.204000  0.711000  1.0  0.0108
  C  C947  1  0.831900  0.227300  0.682500  1.0  -0.028
  C  C948  1  0.843400  0.204600  0.650800  1.0  -0.3581
  C  C949  1  0.876400  0.249900  0.698000  1.0  -0.3072
  C  C950  1  0.695100  0.221000  0.763200  1.0  0.0309
  C  C951  1  0.656100  0.184000  0.757700  1.0  -0.3645
  C  C952  1  0.700800  0.217500  0.798300  1.0  -0.3604
  C  C953  1  0.506230  0.385700  0.599350  1.0  0.1882
  C  C954  1  0.462600  0.371800  0.611020  1.0  0.0379
  C  C955  1  0.422500  0.372400  0.592880  1.0  -0.1583
  C  C956  1  0.425900  0.386900  0.563060  1.0  -0.0832
  C  C957  1  0.469500  0.400900  0.551380  1.0  -0.1563
  C  C958  1  0.509650  0.400300  0.569530  1.0  0.0077
  C  C959  1  0.558600  0.415800  0.557300  1.0  0.0112
  C  C960  1  0.571200  0.394300  0.525900  1.0  -0.3873
  C  C961  1  0.563700  0.467000  0.545800  1.0  -0.361
  C  C962  1  0.779100  0.431600  0.587500  1.0  0.0124
  C  C963  1  0.783100  0.461000  0.562300  1.0  -0.1786
  C  C964  1  0.747600  0.457100  0.538610  1.0  0.043
  C  C965  1  0.752300  0.489000  0.510370  1.0  0.0426
  C  C966  1  0.711300  0.425100  0.542180  1.0  -0.143
  C  C967  1  0.708400  0.397700  0.568800  1.0  -0.0233
  C  C968  1  0.731400  0.506400  0.458430  1.0  0.1621
  C  C969  1  0.731500  0.475700  0.483300  1.0  -0.1721
  C  C970  1  0.776600  0.531700  0.511200  1.0  -0.1664
  C  C971  1  0.776300  0.561600  0.484940  1.0  0.144
  C  C972  1  0.457200  0.356500  0.644500  1.0  0.0768
  C  C973  1  0.441200  0.303100  0.644000  1.0  -0.33
  C  C974  1  0.420900  0.393100  0.659600  1.0  -0.3085
  C  C975  1  0.260300  0.721400  0.223460  1.0  0.2151
  C  C976  1  0.241100  0.700200  0.249590  1.0  -0.0063
  C  C977  1  0.264600  0.661500  0.263300  1.0  -0.1719
  C  C978  1  0.307400  0.644000  0.250900  1.0  -0.0938
  C  C979  1  0.326700  0.665300  0.224800  1.0  -0.16
  C  C980  1  0.303100  0.704000  0.211000  1.0  0.0108
  C  C981  1  0.331900  0.727300  0.182500  1.0  -0.028
  C  C982  1  0.343400  0.704600  0.150800  1.0  -0.3581
  C  C983  1  0.376400  0.749900  0.198000  1.0  -0.3072
  C  C984  1  0.195100  0.721000  0.263200  1.0  0.0309
  C  C985  1  0.156100  0.684000  0.257700  1.0  -0.3645
  C  C986  1  0.200800  0.717500  0.298300  1.0  -0.3604
  C  C987  1  0.006230  0.885700  0.099350  1.0  0.1882
  C  C988  1  0.962600  0.871800  0.111020  1.0  0.0379
  C  C989  1  0.922500  0.872400  0.092880  1.0  -0.1583
  C  C990  1  0.925900  0.886900  0.063060  1.0  -0.0832
  C  C991  1  0.969500  0.900900  0.051380  1.0  -0.1563
  C  C992  1  0.009650  0.900300  0.069530  1.0  0.0077
  C  C993  1  0.058600  0.915800  0.057300  1.0  0.0112
  C  C994  1  0.071200  0.894300  0.025900  1.0  -0.3873
  C  C995  1  0.063700  0.967000  0.045800  1.0  -0.361
  C  C996  1  0.279100  0.931600  0.087500  1.0  0.0124
  C  C997  1  0.283100  0.961000  0.062300  1.0  -0.1786
  C  C998  1  0.247600  0.957100  0.038610  1.0  0.043
  C  C999  1  0.252300  0.989000  0.010370  1.0  0.0426
  C  C1000  1  0.211300  0.925100  0.042180  1.0  -0.143
  C  C1001  1  0.208400  0.897700  0.068800  1.0  -0.0233
  C  C1002  1  0.231400  0.006400  0.958430  1.0  0.1621
  C  C1003  1  0.231500  0.975700  0.983300  1.0  -0.1721
  C  C1004  1  0.276600  0.031700  0.011200  1.0  -0.1664
  C  C1005  1  0.276300  0.061600  0.984940  1.0  0.144
  C  C1006  1  0.957200  0.856500  0.144500  1.0  0.0768
  C  C1007  1  0.941200  0.803100  0.144000  1.0  -0.33
  C  C1008  1  0.920900  0.893100  0.159600  1.0  -0.3085
  C  C1009  1  0.278600  0.239700  0.473460  1.0  0.2147
  C  C1010  1  0.299800  0.258900  0.499590  1.0  -0.0058
  C  C1011  1  0.338500  0.235400  0.513300  1.0  -0.1748
  C  C1012  1  0.356000  0.192600  0.500900  1.0  -0.0922
  C  C1013  1  0.334700  0.173300  0.474800  1.0  -0.1642
  C  C1014  1  0.296000  0.196900  0.461000  1.0  0.0106
  C  C1015  1  0.272700  0.168100  0.432500  1.0  -0.0313
  C  C1016  1  0.295400  0.156600  0.400800  1.0  -0.3584
  C  C1017  1  0.250100  0.123600  0.448000  1.0  -0.3042
  C  C1018  1  0.279000  0.304900  0.513200  1.0  0.0312
  C  C1019  1  0.316000  0.343900  0.507700  1.0  -0.3617
  C  C1020  1  0.282500  0.299200  0.548300  1.0  -0.3628
  C  C1021  1  0.114300  0.493770  0.349350  1.0  0.1902
  C  C1022  1  0.128200  0.537400  0.361020  1.0  0.0368
  C  C1023  1  0.127600  0.577500  0.342880  1.0  -0.1635
  C  C1024  1  0.113100  0.574100  0.313060  1.0  -0.0811
  C  C1025  1  0.099100  0.530500  0.301380  1.0  -0.1605
  C  C1026  1  0.099700  0.490350  0.319530  1.0  0.0073
  C  C1027  1  0.084200  0.441400  0.307300  1.0  0.0109
  C  C1028  1  0.105700  0.428800  0.275900  1.0  -0.3909
  C  C1029  1  0.033000  0.436300  0.295800  1.0  -0.3686
  C  C1030  1  0.068400  0.220900  0.337500  1.0  0.0148
  C  C1031  1  0.039000  0.216900  0.312300  1.0  -0.1815
  C  C1032  1  0.042900  0.252400  0.288610  1.0  0.0427
  C  C1033  1  0.011000  0.247700  0.260370  1.0  0.0421
  C  C1034  1  0.074900  0.288700  0.292180  1.0  -0.1419
  C  C1035  1  0.102300  0.291600  0.318800  1.0  -0.0239
  C  C1036  1  0.993600  0.268600  0.208430  1.0  0.163
  C  C1037  1  0.024300  0.268500  0.233300  1.0  -0.1739
  C  C1038  1  0.968300  0.223400  0.261200  1.0  -0.1698
  C  C1039  1  0.938400  0.223700  0.234940  1.0  0.146
  C  C1040  1  0.143500  0.542800  0.394500  1.0  0.0782
  C  C1041  1  0.196900  0.558800  0.394000  1.0  -0.3273
  C  C1042  1  0.106900  0.579100  0.409600  1.0  -0.3107
  C  C1043  1  0.778600  0.739700  0.973460  1.0  0.2147
  C  C1044  1  0.799800  0.758900  0.999590  1.0  -0.0058
  C  C1045  1  0.838500  0.735400  0.013300  1.0  -0.1748
  C  C1046  1  0.856000  0.692600  0.000900  1.0  -0.0922
  C  C1047  1  0.834700  0.673300  0.974800  1.0  -0.1642
  C  C1048  1  0.796000  0.696900  0.961000  1.0  0.0106
  C  C1049  1  0.772700  0.668100  0.932500  1.0  -0.0313
  C  C1050  1  0.795400  0.656600  0.900800  1.0  -0.3584
  C  C1051  1  0.750100  0.623600  0.948000  1.0  -0.3042
  C  C1052  1  0.779000  0.804900  0.013200  1.0  0.0312
  C  C1053  1  0.816000  0.843900  0.007700  1.0  -0.3617
  C  C1054  1  0.782500  0.799200  0.048300  1.0  -0.3628
  C  C1055  1  0.614300  0.993770  0.849350  1.0  0.1902
  C  C1056  1  0.628200  0.037400  0.861020  1.0  0.0368
  C  C1057  1  0.627600  0.077500  0.842880  1.0  -0.1635
  C  C1058  1  0.613100  0.074100  0.813060  1.0  -0.0811
  C  C1059  1  0.599100  0.030500  0.801380  1.0  -0.1605
  C  C1060  1  0.599700  0.990350  0.819530  1.0  0.0073
  C  C1061  1  0.584200  0.941400  0.807300  1.0  0.0109
  C  C1062  1  0.605700  0.928800  0.775900  1.0  -0.3909
  C  C1063  1  0.533000  0.936300  0.795800  1.0  -0.3686
  C  C1064  1  0.568400  0.720900  0.837500  1.0  0.0148
  C  C1065  1  0.539000  0.716900  0.812300  1.0  -0.1815
  C  C1066  1  0.542900  0.752400  0.788610  1.0  0.0427
  C  C1067  1  0.511000  0.747700  0.760370  1.0  0.0421
  C  C1068  1  0.574900  0.788700  0.792180  1.0  -0.1419
  C  C1069  1  0.602300  0.791600  0.818800  1.0  -0.0239
  C  C1070  1  0.493600  0.768600  0.708430  1.0  0.163
  C  C1071  1  0.524300  0.768500  0.733300  1.0  -0.1739
  C  C1072  1  0.468300  0.723400  0.761200  1.0  -0.1698
  C  C1073  1  0.438400  0.723700  0.734940  1.0  0.146
  C  C1074  1  0.643500  0.042800  0.894500  1.0  0.0782
  C  C1075  1  0.696900  0.058800  0.894000  1.0  -0.3273
  C  C1076  1  0.606900  0.079100  0.909600  1.0  -0.3107
  C  C1077  1  0.721400  0.760300  0.473460  1.0  0.2107
  C  C1078  1  0.700200  0.741100  0.499590  1.0  -0.0062
  C  C1079  1  0.661500  0.764600  0.513300  1.0  -0.1761
  C  C1080  1  0.644000  0.807400  0.500900  1.0  -0.0924
  C  C1081  1  0.665300  0.826700  0.474800  1.0  -0.1638
  C  C1082  1  0.704000  0.803100  0.461000  1.0  0.0109
  C  C1083  1  0.727300  0.831900  0.432500  1.0  -0.0296
  C  C1084  1  0.704600  0.843400  0.400800  1.0  -0.3582
  C  C1085  1  0.749900  0.876400  0.448000  1.0  -0.3065
  C  C1086  1  0.721000  0.695100  0.513200  1.0  0.0321
  C  C1087  1  0.684000  0.656100  0.507700  1.0  -0.3613
  C  C1088  1  0.717500  0.700800  0.548300  1.0  -0.3599
  C  C1089  1  0.885700  0.506230  0.349350  1.0  0.187
  C  C1090  1  0.871800  0.462600  0.361020  1.0  0.0354
  C  C1091  1  0.872400  0.422500  0.342880  1.0  -0.163
  C  C1092  1  0.886900  0.425900  0.313060  1.0  -0.0801
  C  C1093  1  0.900900  0.469500  0.301380  1.0  -0.1588
  C  C1094  1  0.900300  0.509650  0.319530  1.0  0.0065
  C  C1095  1  0.915800  0.558600  0.307300  1.0  0.01
  C  C1096  1  0.894300  0.571200  0.275900  1.0  -0.3926
  C  C1097  1  0.967000  0.563700  0.295800  1.0  -0.3659
  C  C1098  1  0.931600  0.779100  0.337500  1.0  0.0124
  C  C1099  1  0.961000  0.783100  0.312300  1.0  -0.1801
  C  C1100  1  0.957100  0.747600  0.288610  1.0  0.0431
  C  C1101  1  0.989000  0.752300  0.260370  1.0  0.0418
  C  C1102  1  0.925100  0.711300  0.292180  1.0  -0.1414
  C  C1103  1  0.897700  0.708400  0.318800  1.0  -0.02
  C  C1104  1  0.006400  0.731400  0.208430  1.0  0.1622
  C  C1105  1  0.975700  0.731500  0.233300  1.0  -0.1743
  C  C1106  1  0.031700  0.776600  0.261200  1.0  -0.169
  C  C1107  1  0.061600  0.776300  0.234940  1.0  0.1452
  C  C1108  1  0.856500  0.457200  0.394500  1.0  0.0796
  C  C1109  1  0.803100  0.441200  0.394000  1.0  -0.3281
  C  C1110  1  0.893100  0.420900  0.409600  1.0  -0.3072
  C  C1111  1  0.221400  0.260300  0.973460  1.0  0.2107
  C  C1112  1  0.200200  0.241100  0.999590  1.0  -0.0062
  C  C1113  1  0.161500  0.264600  0.013300  1.0  -0.1761
  C  C1114  1  0.144000  0.307400  0.000900  1.0  -0.0924
  C  C1115  1  0.165300  0.326700  0.974800  1.0  -0.1638
  C  C1116  1  0.204000  0.303100  0.961000  1.0  0.0109
  C  C1117  1  0.227300  0.331900  0.932500  1.0  -0.0296
  C  C1118  1  0.204600  0.343400  0.900800  1.0  -0.3582
  C  C1119  1  0.249900  0.376400  0.948000  1.0  -0.3065
  C  C1120  1  0.221000  0.195100  0.013200  1.0  0.0321
  C  C1121  1  0.184000  0.156100  0.007700  1.0  -0.3613
  C  C1122  1  0.217500  0.200800  0.048300  1.0  -0.3599
  C  C1123  1  0.385700  0.006230  0.849350  1.0  0.187
  C  C1124  1  0.371800  0.962600  0.861020  1.0  0.0354
  C  C1125  1  0.372400  0.922500  0.842880  1.0  -0.163
  C  C1126  1  0.386900  0.925900  0.813060  1.0  -0.0801
  C  C1127  1  0.400900  0.969500  0.801380  1.0  -0.1588
  C  C1128  1  0.400300  0.009650  0.819530  1.0  0.0065
  C  C1129  1  0.415800  0.058600  0.807300  1.0  0.01
  C  C1130  1  0.394300  0.071200  0.775900  1.0  -0.3926
  C  C1131  1  0.467000  0.063700  0.795800  1.0  -0.3659
  C  C1132  1  0.431600  0.279100  0.837500  1.0  0.0124
  C  C1133  1  0.461000  0.283100  0.812300  1.0  -0.1801
  C  C1134  1  0.457100  0.247600  0.788610  1.0  0.0431
  C  C1135  1  0.489000  0.252300  0.760370  1.0  0.0418
  C  C1136  1  0.425100  0.211300  0.792180  1.0  -0.1414
  C  C1137  1  0.397700  0.208400  0.818800  1.0  -0.02
  C  C1138  1  0.506400  0.231400  0.708430  1.0  0.1622
  C  C1139  1  0.475700  0.231500  0.733300  1.0  -0.1743
  C  C1140  1  0.531700  0.276600  0.761200  1.0  -0.169
  C  C1141  1  0.561600  0.276300  0.734940  1.0  0.1452
  C  C1142  1  0.356500  0.957200  0.894500  1.0  0.0796
  C  C1143  1  0.303100  0.941200  0.894000  1.0  -0.3281
  C  C1144  1  0.393100  0.920900  0.909600  1.0  -0.3072
  C  C1145  1  0.260300  0.778600  0.026540  1.0  0.2145
  C  C1146  1  0.241100  0.799800  0.000410  1.0  -0.0061
  C  C1147  1  0.264600  0.838500  0.986700  1.0  -0.1731
  C  C1148  1  0.307400  0.856000  0.999100  1.0  -0.0939
  C  C1149  1  0.326700  0.834700  0.025200  1.0  -0.1601
  C  C1150  1  0.303100  0.796000  0.039000  1.0  0.0111
  C  C1151  1  0.331900  0.772700  0.067500  1.0  -0.029
  C  C1152  1  0.343400  0.795400  0.099200  1.0  -0.3583
  C  C1153  1  0.376400  0.750100  0.052000  1.0  -0.3061
  C  C1154  1  0.195100  0.779000  0.986800  1.0  0.0305
  C  C1155  1  0.156100  0.816000  0.992300  1.0  -0.3647
  C  C1156  1  0.200800  0.782500  0.951700  1.0  -0.3567
  C  C1157  1  0.006230  0.614300  0.150650  1.0  0.1889
  C  C1158  1  0.962600  0.628200  0.138980  1.0  0.037
  C  C1159  1  0.922500  0.627600  0.157120  1.0  -0.1557
  C  C1160  1  0.925900  0.613100  0.186940  1.0  -0.0837
  C  C1161  1  0.969500  0.599100  0.198620  1.0  -0.1574
  C  C1162  1  0.009650  0.599700  0.180470  1.0  0.0107
  C  C1163  1  0.058600  0.584200  0.192700  1.0  0.0113
  C  C1164  1  0.071200  0.605700  0.224100  1.0  -0.3859
  C  C1165  1  0.063700  0.533000  0.204200  1.0  -0.363
  C  C1166  1  0.279100  0.568400  0.162500  1.0  0.0124
  C  C1167  1  0.283100  0.539000  0.187700  1.0  -0.1795
  C  C1168  1  0.247600  0.542900  0.211390  1.0  0.0438
  C  C1169  1  0.252300  0.511000  0.239630  1.0  0.0425
  C  C1170  1  0.211300  0.574900  0.207820  1.0  -0.1425
  C  C1171  1  0.208400  0.602300  0.181200  1.0  -0.0228
  C  C1172  1  0.231400  0.493600  0.291570  1.0  0.1632
  C  C1173  1  0.231500  0.524300  0.266700  1.0  -0.1716
  C  C1174  1  0.276600  0.468300  0.238800  1.0  -0.1673
  C  C1175  1  0.276300  0.438400  0.265060  1.0  0.1433
  C  C1176  1  0.957200  0.643500  0.105500  1.0  0.0757
  C  C1177  1  0.941200  0.696900  0.106000  1.0  -0.3293
  C  C1178  1  0.920900  0.606900  0.090400  1.0  -0.3042
  C  C1179  1  0.760300  0.278600  0.526540  1.0  0.2145
  C  C1180  1  0.741100  0.299800  0.500410  1.0  -0.0061
  C  C1181  1  0.764600  0.338500  0.486700  1.0  -0.1731
  C  C1182  1  0.807400  0.356000  0.499100  1.0  -0.0939
  C  C1183  1  0.826700  0.334700  0.525200  1.0  -0.1601
  C  C1184  1  0.803100  0.296000  0.539000  1.0  0.0111
  C  C1185  1  0.831900  0.272700  0.567500  1.0  -0.029
  C  C1186  1  0.843400  0.295400  0.599200  1.0  -0.3583
  C  C1187  1  0.876400  0.250100  0.552000  1.0  -0.3061
  C  C1188  1  0.695100  0.279000  0.486800  1.0  0.0305
  C  C1189  1  0.656100  0.316000  0.492300  1.0  -0.3647
  C  C1190  1  0.700800  0.282500  0.451700  1.0  -0.3567
  C  C1191  1  0.506230  0.114300  0.650650  1.0  0.1889
  C  C1192  1  0.462600  0.128200  0.638980  1.0  0.037
  C  C1193  1  0.422500  0.127600  0.657120  1.0  -0.1557
  C  C1194  1  0.425900  0.113100  0.686940  1.0  -0.0837
  C  C1195  1  0.469500  0.099100  0.698620  1.0  -0.1574
  C  C1196  1  0.509650  0.099700  0.680470  1.0  0.0107
  C  C1197  1  0.558600  0.084200  0.692700  1.0  0.0113
  C  C1198  1  0.571200  0.105700  0.724100  1.0  -0.3859
  C  C1199  1  0.563700  0.033000  0.704200  1.0  -0.363
  C  C1200  1  0.779100  0.068400  0.662500  1.0  0.0124
  C  C1201  1  0.783100  0.039000  0.687700  1.0  -0.1795
  C  C1202  1  0.747600  0.042900  0.711390  1.0  0.0438
  C  C1203  1  0.752300  0.011000  0.739630  1.0  0.0425
  C  C1204  1  0.711300  0.074900  0.707820  1.0  -0.1425
  C  C1205  1  0.708400  0.102300  0.681200  1.0  -0.0228
  C  C1206  1  0.731400  0.993600  0.791570  1.0  0.1632
  C  C1207  1  0.731500  0.024300  0.766700  1.0  -0.1716
  C  C1208  1  0.776600  0.968300  0.738800  1.0  -0.1673
  C  C1209  1  0.776300  0.938400  0.765060  1.0  0.1433
  C  C1210  1  0.457200  0.143500  0.605500  1.0  0.0757
  C  C1211  1  0.441200  0.196900  0.606000  1.0  -0.3293
  C  C1212  1  0.420900  0.106900  0.590400  1.0  -0.3042
  C  C1213  1  0.739700  0.221400  0.026540  1.0  0.2159
  C  C1214  1  0.758900  0.200200  0.000410  1.0  -0.0075
  C  C1215  1  0.735400  0.161500  0.986700  1.0  -0.1738
  C  C1216  1  0.692600  0.144000  0.999100  1.0  -0.0946
  C  C1217  1  0.673300  0.165300  0.025200  1.0  -0.1601
  C  C1218  1  0.696900  0.204000  0.039000  1.0  0.0086
  C  C1219  1  0.668100  0.227300  0.067500  1.0  -0.0311
  C  C1220  1  0.656600  0.204600  0.099200  1.0  -0.3581
  C  C1221  1  0.623600  0.249900  0.052000  1.0  -0.3048
  C  C1222  1  0.804900  0.221000  0.986800  1.0  0.0313
  C  C1223  1  0.843900  0.184000  0.992300  1.0  -0.3675
  C  C1224  1  0.799200  0.217500  0.951700  1.0  -0.3581
  C  C1225  1  0.993770  0.385700  0.150650  1.0  0.1912
  C  C1226  1  0.037400  0.371800  0.138980  1.0  0.037
  C  C1227  1  0.077500  0.372400  0.157120  1.0  -0.158
  C  C1228  1  0.074100  0.386900  0.186940  1.0  -0.0841
  C  C1229  1  0.030500  0.400900  0.198620  1.0  -0.1594
  C  C1230  1  0.990350  0.400300  0.180470  1.0  0.0116
  C  C1231  1  0.941400  0.415800  0.192700  1.0  0.013
  C  C1232  1  0.928800  0.394300  0.224100  1.0  -0.3862
  C  C1233  1  0.936300  0.467000  0.204200  1.0  -0.3611
  C  C1234  1  0.720900  0.431600  0.162500  1.0  0.0125
  C  C1235  1  0.716900  0.461000  0.187700  1.0  -0.1804
  C  C1236  1  0.752400  0.457100  0.211390  1.0  0.0436
  C  C1237  1  0.747700  0.489000  0.239630  1.0  0.042
  C  C1238  1  0.788700  0.425100  0.207820  1.0  -0.1429
  C  C1239  1  0.791600  0.397700  0.181200  1.0  -0.0242
  C  C1240  1  0.768600  0.506400  0.291570  1.0  0.1629
  C  C1241  1  0.768500  0.475700  0.266700  1.0  -0.1722
  C  C1242  1  0.723400  0.531700  0.238800  1.0  -0.168
  C  C1243  1  0.723700  0.561600  0.265060  1.0  0.1437
  C  C1244  1  0.042800  0.356500  0.105500  1.0  0.0773
  C  C1245  1  0.058800  0.303100  0.106000  1.0  -0.3313
  C  C1246  1  0.079100  0.393100  0.090400  1.0  -0.3073
  C  C1247  1  0.239700  0.721400  0.526540  1.0  0.2159
  C  C1248  1  0.258900  0.700200  0.500410  1.0  -0.0075
  C  C1249  1  0.235400  0.661500  0.486700  1.0  -0.1738
  C  C1250  1  0.192600  0.644000  0.499100  1.0  -0.0946
  C  C1251  1  0.173300  0.665300  0.525200  1.0  -0.1601
  C  C1252  1  0.196900  0.704000  0.539000  1.0  0.0086
  C  C1253  1  0.168100  0.727300  0.567500  1.0  -0.0311
  C  C1254  1  0.156600  0.704600  0.599200  1.0  -0.3581
  C  C1255  1  0.123600  0.749900  0.552000  1.0  -0.3048
  C  C1256  1  0.304900  0.721000  0.486800  1.0  0.0313
  C  C1257  1  0.343900  0.684000  0.492300  1.0  -0.3675
  C  C1258  1  0.299200  0.717500  0.451700  1.0  -0.3581
  C  C1259  1  0.493770  0.885700  0.650650  1.0  0.1912
  C  C1260  1  0.537400  0.871800  0.638980  1.0  0.037
  C  C1261  1  0.577500  0.872400  0.657120  1.0  -0.158
  C  C1262  1  0.574100  0.886900  0.686940  1.0  -0.0841
  C  C1263  1  0.530500  0.900900  0.698620  1.0  -0.1594
  C  C1264  1  0.490350  0.900300  0.680470  1.0  0.0116
  C  C1265  1  0.441400  0.915800  0.692700  1.0  0.013
  C  C1266  1  0.428800  0.894300  0.724100  1.0  -0.3862
  C  C1267  1  0.436300  0.967000  0.704200  1.0  -0.3611
  C  C1268  1  0.220900  0.931600  0.662500  1.0  0.0125
  C  C1269  1  0.216900  0.961000  0.687700  1.0  -0.1804
  C  C1270  1  0.252400  0.957100  0.711390  1.0  0.0436
  C  C1271  1  0.247700  0.989000  0.739630  1.0  0.042
  C  C1272  1  0.288700  0.925100  0.707820  1.0  -0.1429
  C  C1273  1  0.291600  0.897700  0.681200  1.0  -0.0242
  C  C1274  1  0.268600  0.006400  0.791570  1.0  0.1629
  C  C1275  1  0.268500  0.975700  0.766700  1.0  -0.1722
  C  C1276  1  0.223400  0.031700  0.738800  1.0  -0.168
  C  C1277  1  0.223700  0.061600  0.765060  1.0  0.1437
  C  C1278  1  0.542800  0.856500  0.605500  1.0  0.0773
  C  C1279  1  0.558800  0.803100  0.606000  1.0  -0.3313
  C  C1280  1  0.579100  0.893100  0.590400  1.0  -0.3073
  N  N1281  1  0.402200  0.258400  0.409040  1.0  0.301
  N  N1282  1  0.548600  0.245900  0.541150  1.0  -0.3128
  N  N1283  1  0.902200  0.758400  0.909040  1.0  0.301
  N  N1284  1  0.048600  0.745900  0.041150  1.0  -0.3128
  N  N1285  1  0.597800  0.741600  0.409040  1.0  0.3018
  N  N1286  1  0.451400  0.754100  0.541150  1.0  -0.313
  N  N1287  1  0.097800  0.241600  0.909040  1.0  0.3018
  N  N1288  1  0.951400  0.254100  0.041150  1.0  -0.313
  N  N1289  1  0.258400  0.597800  0.590960  1.0  0.3004
  N  N1290  1  0.245900  0.451400  0.458850  1.0  -0.3139
  N  N1291  1  0.758400  0.097800  0.090960  1.0  0.3004
  N  N1292  1  0.745900  0.951400  0.958850  1.0  -0.3139
  N  N1293  1  0.741600  0.402200  0.590960  1.0  0.3001
  N  N1294  1  0.754100  0.548600  0.458850  1.0  -0.3121
  N  N1295  1  0.241600  0.902200  0.090960  1.0  0.3001
  N  N1296  1  0.254100  0.048600  0.958850  1.0  -0.3121
  N  N1297  1  0.097800  0.258400  0.340960  1.0  0.3015
  N  N1298  1  0.951400  0.245900  0.208850  1.0  -0.3143
  N  N1299  1  0.597800  0.758400  0.840960  1.0  0.3015
  N  N1300  1  0.451400  0.745900  0.708850  1.0  -0.3143
  N  N1301  1  0.902200  0.741600  0.340960  1.0  0.3005
  N  N1302  1  0.048600  0.754100  0.208850  1.0  -0.315
  N  N1303  1  0.402200  0.241600  0.840960  1.0  0.3005
  N  N1304  1  0.548600  0.254100  0.708850  1.0  -0.315
  N  N1305  1  0.241600  0.597800  0.159040  1.0  0.2991
  N  N1306  1  0.254100  0.451400  0.291150  1.0  -0.3115
  N  N1307  1  0.741600  0.097800  0.659040  1.0  0.2991
  N  N1308  1  0.754100  0.951400  0.791150  1.0  -0.3115
  N  N1309  1  0.758400  0.402200  0.159040  1.0  0.3018
  N  N1310  1  0.745900  0.548600  0.291150  1.0  -0.3124
  N  N1311  1  0.258400  0.902200  0.659040  1.0  0.3018
  N  N1312  1  0.245900  0.048600  0.791150  1.0  -0.3124
  O  O1313  1  0.385000  0.453300  0.382000  1.0  -0.5231
  O  O1314  1  0.355720  0.367030  0.380720  1.0  -0.8127
  O  O1315  1  0.316300  0.429300  0.347660  1.0  -0.7782
  O  O1316  1  0.304700  0.432700  0.404890  1.0  -0.7676
  O  O1317  1  0.262900  0.260100  0.288830  1.0  -0.4777
  O  O1318  1  0.301300  0.281130  0.338460  1.0  -0.7705
  O  O1319  1  0.263200  0.346260  0.306740  1.0  -0.773
  O  O1320  1  0.210500  0.285000  0.333120  1.0  -0.7968
  O  O1321  1  0.376400  0.263500  0.383160  1.0  -0.5771
  O  O1322  1  0.885000  0.953300  0.882000  1.0  -0.5231
  O  O1323  1  0.855720  0.867030  0.880720  1.0  -0.8127
  O  O1324  1  0.816300  0.929300  0.847660  1.0  -0.7782
  O  O1325  1  0.804700  0.932700  0.904890  1.0  -0.7676
  O  O1326  1  0.762900  0.760100  0.788830  1.0  -0.4777
  O  O1327  1  0.801300  0.781130  0.838460  1.0  -0.7705
  O  O1328  1  0.763200  0.846260  0.806740  1.0  -0.773
  O  O1329  1  0.710500  0.785000  0.833120  1.0  -0.7968
  O  O1330  1  0.876400  0.763500  0.883160  1.0  -0.5771
  O  O1331  1  0.615000  0.546700  0.382000  1.0  -0.5194
  O  O1332  1  0.644280  0.632970  0.380720  1.0  -0.8132
  O  O1333  1  0.683700  0.570700  0.347660  1.0  -0.7798
  O  O1334  1  0.695300  0.567300  0.404890  1.0  -0.7687
  O  O1335  1  0.737100  0.739900  0.288830  1.0  -0.4756
  O  O1336  1  0.698700  0.718870  0.338460  1.0  -0.7706
  O  O1337  1  0.736800  0.653740  0.306740  1.0  -0.7743
  O  O1338  1  0.789500  0.715000  0.333120  1.0  -0.7979
  O  O1339  1  0.623600  0.736500  0.383160  1.0  -0.5801
  O  O1340  1  0.115000  0.046700  0.882000  1.0  -0.5194
  O  O1341  1  0.144280  0.132970  0.880720  1.0  -0.8132
  O  O1342  1  0.183700  0.070700  0.847660  1.0  -0.7798
  O  O1343  1  0.195300  0.067300  0.904890  1.0  -0.7687
  O  O1344  1  0.237100  0.239900  0.788830  1.0  -0.4756
  O  O1345  1  0.198700  0.218870  0.838460  1.0  -0.7706
  O  O1346  1  0.236800  0.153740  0.806740  1.0  -0.7743
  O  O1347  1  0.289500  0.215000  0.833120  1.0  -0.7979
  O  O1348  1  0.123600  0.236500  0.883160  1.0  -0.5801
  O  O1349  1  0.453300  0.615000  0.618000  1.0  -0.5214
  O  O1350  1  0.367030  0.644280  0.619280  1.0  -0.8142
  O  O1351  1  0.429300  0.683700  0.652340  1.0  -0.7769
  O  O1352  1  0.432700  0.695300  0.595110  1.0  -0.77
  O  O1353  1  0.260100  0.737100  0.711170  1.0  -0.4783
  O  O1354  1  0.281130  0.698700  0.661540  1.0  -0.7775
  O  O1355  1  0.346260  0.736800  0.693260  1.0  -0.7749
  O  O1356  1  0.285000  0.789500  0.666880  1.0  -0.7966
  O  O1357  1  0.263500  0.623600  0.616840  1.0  -0.5781
  O  O1358  1  0.953300  0.115000  0.118000  1.0  -0.5214
  O  O1359  1  0.867030  0.144280  0.119280  1.0  -0.8142
  O  O1360  1  0.929300  0.183700  0.152340  1.0  -0.7769
  O  O1361  1  0.932700  0.195300  0.095110  1.0  -0.77
  O  O1362  1  0.760100  0.237100  0.211170  1.0  -0.4783
  O  O1363  1  0.781130  0.198700  0.161540  1.0  -0.7775
  O  O1364  1  0.846260  0.236800  0.193260  1.0  -0.7749
  O  O1365  1  0.785000  0.289500  0.166880  1.0  -0.7966
  O  O1366  1  0.763500  0.123600  0.116840  1.0  -0.5781
  O  O1367  1  0.546700  0.385000  0.618000  1.0  -0.5201
  O  O1368  1  0.632970  0.355720  0.619280  1.0  -0.8118
  O  O1369  1  0.570700  0.316300  0.652340  1.0  -0.7777
  O  O1370  1  0.567300  0.304700  0.595110  1.0  -0.77
  O  O1371  1  0.739900  0.262900  0.711170  1.0  -0.4816
  O  O1372  1  0.718870  0.301300  0.661540  1.0  -0.7766
  O  O1373  1  0.653740  0.263200  0.693260  1.0  -0.7747
  O  O1374  1  0.715000  0.210500  0.666880  1.0  -0.7965
  O  O1375  1  0.736500  0.376400  0.616840  1.0  -0.5773
  O  O1376  1  0.046700  0.885000  0.118000  1.0  -0.5201
  O  O1377  1  0.132970  0.855720  0.119280  1.0  -0.8118
  O  O1378  1  0.070700  0.816300  0.152340  1.0  -0.7777
  O  O1379  1  0.067300  0.804700  0.095110  1.0  -0.77
  O  O1380  1  0.239900  0.762900  0.211170  1.0  -0.4816
  O  O1381  1  0.218870  0.801300  0.161540  1.0  -0.7766
  O  O1382  1  0.153740  0.763200  0.193260  1.0  -0.7747
  O  O1383  1  0.215000  0.710500  0.166880  1.0  -0.7965
  O  O1384  1  0.236500  0.876400  0.116840  1.0  -0.5773
  O  O1385  1  0.115000  0.453300  0.368000  1.0  -0.5202
  O  O1386  1  0.144280  0.367030  0.369280  1.0  -0.8121
  O  O1387  1  0.183700  0.429300  0.402340  1.0  -0.7773
  O  O1388  1  0.195300  0.432700  0.345110  1.0  -0.7691
  O  O1389  1  0.237100  0.260100  0.461170  1.0  -0.4768
  O  O1390  1  0.198700  0.281130  0.411540  1.0  -0.7716
  O  O1391  1  0.236800  0.346260  0.443260  1.0  -0.7731
  O  O1392  1  0.289500  0.285000  0.416880  1.0  -0.7977
  O  O1393  1  0.123600  0.263500  0.366840  1.0  -0.5801
  O  O1394  1  0.615000  0.953300  0.868000  1.0  -0.5202
  O  O1395  1  0.644280  0.867030  0.869280  1.0  -0.8121
  O  O1396  1  0.683700  0.929300  0.902340  1.0  -0.7773
  O  O1397  1  0.695300  0.932700  0.845110  1.0  -0.7691
  O  O1398  1  0.737100  0.760100  0.961170  1.0  -0.4768
  O  O1399  1  0.698700  0.781130  0.911540  1.0  -0.7716
  O  O1400  1  0.736800  0.846260  0.943260  1.0  -0.7731
  O  O1401  1  0.789500  0.785000  0.916880  1.0  -0.7977
  O  O1402  1  0.623600  0.763500  0.866840  1.0  -0.5801
  O  O1403  1  0.885000  0.546700  0.368000  1.0  -0.5196
  O  O1404  1  0.855720  0.632970  0.369280  1.0  -0.812
  O  O1405  1  0.816300  0.570700  0.402340  1.0  -0.7792
  O  O1406  1  0.804700  0.567300  0.345110  1.0  -0.768
  O  O1407  1  0.762900  0.739900  0.461170  1.0  -0.4785
  O  O1408  1  0.801300  0.718870  0.411540  1.0  -0.7702
  O  O1409  1  0.763200  0.653740  0.443260  1.0  -0.774
  O  O1410  1  0.710500  0.715000  0.416880  1.0  -0.797
  O  O1411  1  0.876400  0.736500  0.366840  1.0  -0.5804
  O  O1412  1  0.385000  0.046700  0.868000  1.0  -0.5196
  O  O1413  1  0.355720  0.132970  0.869280  1.0  -0.812
  O  O1414  1  0.316300  0.070700  0.902340  1.0  -0.7792
  O  O1415  1  0.304700  0.067300  0.845110  1.0  -0.768
  O  O1416  1  0.262900  0.239900  0.961170  1.0  -0.4785
  O  O1417  1  0.301300  0.218870  0.911540  1.0  -0.7702
  O  O1418  1  0.263200  0.153740  0.943260  1.0  -0.774
  O  O1419  1  0.210500  0.215000  0.916880  1.0  -0.797
  O  O1420  1  0.376400  0.236500  0.866840  1.0  -0.5804
  O  O1421  1  0.046700  0.615000  0.132000  1.0  -0.5224
  O  O1422  1  0.132970  0.644280  0.130720  1.0  -0.813
  O  O1423  1  0.070700  0.683700  0.097660  1.0  -0.7778
  O  O1424  1  0.067300  0.695300  0.154890  1.0  -0.7685
  O  O1425  1  0.239900  0.737100  0.038830  1.0  -0.4787
  O  O1426  1  0.218870  0.698700  0.088460  1.0  -0.7762
  O  O1427  1  0.153740  0.736800  0.056740  1.0  -0.7738
  O  O1428  1  0.215000  0.789500  0.083120  1.0  -0.7974
  O  O1429  1  0.236500  0.623600  0.133160  1.0  -0.5756
  O  O1430  1  0.546700  0.115000  0.632000  1.0  -0.5224
  O  O1431  1  0.632970  0.144280  0.630720  1.0  -0.813
  O  O1432  1  0.570700  0.183700  0.597660  1.0  -0.7778
  O  O1433  1  0.567300  0.195300  0.654890  1.0  -0.7685
  O  O1434  1  0.739900  0.237100  0.538830  1.0  -0.4787
  O  O1435  1  0.718870  0.198700  0.588460  1.0  -0.7762
  O  O1436  1  0.653740  0.236800  0.556740  1.0  -0.7738
  O  O1437  1  0.715000  0.289500  0.583120  1.0  -0.7974
  O  O1438  1  0.736500  0.123600  0.633160  1.0  -0.5756
  O  O1439  1  0.953300  0.385000  0.132000  1.0  -0.5209
  O  O1440  1  0.867030  0.355720  0.130720  1.0  -0.8142
  O  O1441  1  0.929300  0.316300  0.097660  1.0  -0.7789
  O  O1442  1  0.932700  0.304700  0.154890  1.0  -0.7699
  O  O1443  1  0.760100  0.262900  0.038830  1.0  -0.4803
  O  O1444  1  0.781130  0.301300  0.088460  1.0  -0.7759
  O  O1445  1  0.846260  0.263200  0.056740  1.0  -0.7745
  O  O1446  1  0.785000  0.210500  0.083120  1.0  -0.7967
  O  O1447  1  0.763500  0.376400  0.133160  1.0  -0.5783
  O  O1448  1  0.453300  0.885000  0.632000  1.0  -0.5209
  O  O1449  1  0.367030  0.855720  0.630720  1.0  -0.8142
  O  O1450  1  0.429300  0.816300  0.597660  1.0  -0.7789
  O  O1451  1  0.432700  0.804700  0.654890  1.0  -0.7699
  O  O1452  1  0.260100  0.762900  0.538830  1.0  -0.4803
  O  O1453  1  0.281130  0.801300  0.588460  1.0  -0.7759
  O  O1454  1  0.346260  0.763200  0.556740  1.0  -0.7745
  O  O1455  1  0.285000  0.710500  0.583120  1.0  -0.7967
  O  O1456  1  0.263500  0.876400  0.633160  1.0  -0.5783
