# generated using pymatgen
data_Al2H20C29O9
_symmetry_space_group_name_H-M   'P 1'
_cell_length_a   18.91750000
_cell_length_b   18.91750000
_cell_length_c   71.90800000
_cell_angle_alpha   90.00000000
_cell_angle_beta   90.00000000
_cell_angle_gamma   90.00000000
_symmetry_Int_Tables_number   1
_chemical_formula_structural   Al2H20C29O9
_chemical_formula_sum   'Al32 H320 C464 O144'
_cell_volume   25733.84584383
_cell_formula_units_Z   16
loop_
 _symmetry_equiv_pos_site_id
 _symmetry_equiv_pos_as_xyz
  1  'x, y, z'
loop_
 _atom_site_type_symbol
 _atom_site_label
 _atom_site_symmetry_multiplicity
 _atom_site_fract_x
 _atom_site_fract_y
 _atom_site_fract_z
 _atom_site_occupancy
 _atom_site_charge
  Al  Al1  1  0.396830  0.647060  0.536900  1.0  1.6184
  Al  Al2  1  0.341680  0.671410  0.499450  1.0  1.6876
  Al  Al3  1  0.504320  0.529940  0.555660  1.0  1.7605
  Al  Al4  1  0.601920  0.397670  0.541310  1.0  1.5948
  Al  Al5  1  0.603170  0.352940  0.036900  1.0  1.6192
  Al  Al6  1  0.658320  0.328590  0.999450  1.0  1.6834
  Al  Al7  1  0.495680  0.470060  0.055660  1.0  1.7613
  Al  Al8  1  0.398080  0.602330  0.041310  1.0  1.5945
  Al  Al9  1  0.852940  0.896830  0.786900  1.0  1.6218
  Al  Al10  1  0.828590  0.841680  0.749450  1.0  1.6839
  Al  Al11  1  0.970060  0.004320  0.805660  1.0  1.758
  Al  Al12  1  0.102330  0.101920  0.791310  1.0  1.5939
  Al  Al13  1  0.147060  0.103170  0.286900  1.0  1.6208
  Al  Al14  1  0.171410  0.158320  0.249450  1.0  1.6799
  Al  Al15  1  0.029940  0.995680  0.305660  1.0  1.7596
  Al  Al16  1  0.897670  0.898080  0.291310  1.0  1.5991
  Al  Al17  1  0.103170  0.147060  0.713100  1.0  1.6179
  Al  Al18  1  0.158320  0.171410  0.750550  1.0  1.6803
  Al  Al19  1  0.995680  0.029940  0.694340  1.0  1.7604
  Al  Al20  1  0.898080  0.897670  0.708690  1.0  1.596
  Al  Al21  1  0.896830  0.852940  0.213100  1.0  1.618
  Al  Al22  1  0.841680  0.828590  0.250550  1.0  1.687
  Al  Al23  1  0.004320  0.970060  0.194340  1.0  1.7603
  Al  Al24  1  0.101920  0.102330  0.208690  1.0  1.5965
  Al  Al25  1  0.647060  0.396830  0.463100  1.0  1.6197
  Al  Al26  1  0.671410  0.341680  0.500550  1.0  1.6785
  Al  Al27  1  0.529940  0.504320  0.444340  1.0  1.7592
  Al  Al28  1  0.397670  0.601920  0.458690  1.0  1.6011
  Al  Al29  1  0.352940  0.603170  0.963100  1.0  1.6222
  Al  Al30  1  0.328590  0.658320  0.000550  1.0  1.685
  Al  Al31  1  0.470060  0.495680  0.944340  1.0  1.7576
  Al  Al32  1  0.602330  0.398080  0.958690  1.0  1.5965
  H  H33  1  0.485500  0.567900  0.523800  1.0  0.2394
  H  H34  1  0.626600  0.304100  0.592400  1.0  0.1101
  H  H35  1  0.365300  0.874600  0.633500  1.0  0.1107
  H  H36  1  0.753800  0.864300  0.678900  1.0  0.1054
  H  H37  1  0.250700  0.249600  0.683300  1.0  0.1041
  H  H38  1  0.544900  0.195100  0.697900  1.0  0.1115
  H  H39  1  0.461400  0.326700  0.659100  1.0  0.1005
  H  H40  1  0.274900  0.082700  0.685900  1.0  0.0816
  H  H41  1  0.460100  0.262400  0.716700  1.0  0.1103
  H  H42  1  0.163000  0.914900  0.668700  1.0  0.0937
  H  H43  1  0.657800  0.244500  0.652000  1.0  0.1216
  H  H44  1  0.566300  0.815200  0.644700  1.0  0.1181
  H  H45  1  0.620300  0.852400  0.723200  1.0  0.1092
  H  H46  1  0.379600  0.031700  0.675500  1.0  0.1286
  H  H47  1  0.358700  0.263000  0.667400  1.0  0.1151
  H  H48  1  0.530100  0.719400  0.629000  1.0  0.1118
  H  H49  1  0.536600  0.650700  0.602000  1.0  0.1172
  H  H50  1  0.523600  0.862200  0.702700  1.0  0.1007
  H  H51  1  0.655700  0.878700  0.659100  1.0  0.1141
  H  H52  1  0.504800  0.415100  0.641600  1.0  0.1183
  H  H53  1  0.619400  0.250100  0.621900  1.0  0.1132
  H  H54  1  0.418800  0.800700  0.575200  1.0  0.1075
  H  H55  1  0.357200  0.253300  0.732100  1.0  0.1034
  H  H56  1  0.265200  0.860100  0.657700  1.0  0.125
  H  H57  1  0.414800  0.867300  0.602100  1.0  0.1161
  H  H58  1  0.453400  0.932500  0.682200  1.0  0.1043
  H  H59  1  0.606800  0.082800  0.691200  1.0  0.1242
  H  H60  1  0.747400  0.242900  0.678000  1.0  0.1318
  H  H61  1  0.487300  0.439700  0.532200  1.0  0.4026
  H  H62  1  0.707100  0.013200  0.700400  1.0  0.0822
  H  H63  1  0.841600  0.165500  0.685400  1.0  0.0981
  H  H64  1  0.507800  0.468400  0.610800  1.0  0.1111
  H  H65  1  0.514800  0.619400  0.483500  1.0  0.082
  H  H66  1  0.481000  0.578600  0.500900  1.0  0.0959
  H  H67  1  0.526600  0.676100  0.513800  1.0  0.0937
  H  H68  1  0.500900  0.725600  0.497000  1.0  0.1019
  H  H69  1  0.205100  0.538700  0.497500  1.0  0.1015
  H  H70  1  0.190500  0.608000  0.509800  1.0  0.1036
  H  H71  1  0.258500  0.550800  0.529900  1.0  0.0786
  H  H72  1  0.299200  0.508100  0.513900  1.0  0.1022
  H  H73  1  0.514500  0.432100  0.023800  1.0  0.2389
  H  H74  1  0.373400  0.695900  0.092400  1.0  0.1107
  H  H75  1  0.634700  0.125400  0.133500  1.0  0.1109
  H  H76  1  0.246200  0.135700  0.178900  1.0  0.1057
  H  H77  1  0.749300  0.750400  0.183300  1.0  0.1037
  H  H78  1  0.455100  0.804900  0.197900  1.0  0.1112
  H  H79  1  0.538600  0.673300  0.159100  1.0  0.1002
  H  H80  1  0.725100  0.917300  0.185900  1.0  0.0816
  H  H81  1  0.539900  0.737600  0.216700  1.0  0.1108
  H  H82  1  0.837000  0.085100  0.168700  1.0  0.0937
  H  H83  1  0.342200  0.755500  0.152000  1.0  0.1214
  H  H84  1  0.433700  0.184800  0.144700  1.0  0.1183
  H  H85  1  0.379700  0.147600  0.223200  1.0  0.1079
  H  H86  1  0.620400  0.968300  0.175500  1.0  0.1286
  H  H87  1  0.641300  0.737000  0.167400  1.0  0.1151
  H  H88  1  0.469900  0.280600  0.129000  1.0  0.1126
  H  H89  1  0.463400  0.349300  0.102000  1.0  0.1174
  H  H90  1  0.476400  0.137800  0.202700  1.0  0.0998
  H  H91  1  0.344300  0.121300  0.159100  1.0  0.1137
  H  H92  1  0.495200  0.584900  0.141600  1.0  0.1186
  H  H93  1  0.380600  0.749900  0.121900  1.0  0.1132
  H  H94  1  0.581200  0.199300  0.075200  1.0  0.1076
  H  H95  1  0.642800  0.746700  0.232100  1.0  0.1043
  H  H96  1  0.734800  0.139900  0.157700  1.0  0.1261
  H  H97  1  0.585200  0.132700  0.102100  1.0  0.1157
  H  H98  1  0.546600  0.067500  0.182200  1.0  0.1044
  H  H99  1  0.393200  0.917200  0.191200  1.0  0.1242
  H  H100  1  0.252600  0.757100  0.178000  1.0  0.1317
  H  H101  1  0.512700  0.560300  0.032200  1.0  0.4021
  H  H102  1  0.292900  0.986800  0.200400  1.0  0.0818
  H  H103  1  0.158400  0.834500  0.185400  1.0  0.0987
  H  H104  1  0.492200  0.531600  0.110800  1.0  0.1106
  H  H105  1  0.485200  0.380600  0.983500  1.0  0.0816
  H  H106  1  0.519000  0.421400  0.000900  1.0  0.0962
  H  H107  1  0.473400  0.323900  0.013800  1.0  0.0914
  H  H108  1  0.499100  0.274400  0.997000  1.0  0.1001
  H  H109  1  0.794900  0.461300  0.997500  1.0  0.0965
  H  H110  1  0.809500  0.392000  0.009800  1.0  0.1058
  H  H111  1  0.741500  0.449200  0.029900  1.0  0.0785
  H  H112  1  0.700800  0.491900  0.013900  1.0  0.1052
  H  H113  1  0.932100  0.985500  0.773800  1.0  0.2395
  H  H114  1  0.195900  0.126600  0.842400  1.0  0.1097
  H  H115  1  0.625400  0.865300  0.883500  1.0  0.1103
  H  H116  1  0.635700  0.253800  0.928900  1.0  0.106
  H  H117  1  0.250400  0.750700  0.933300  1.0  0.103
  H  H118  1  0.304900  0.044900  0.947900  1.0  0.1121
  H  H119  1  0.173300  0.961400  0.909100  1.0  0.0983
  H  H120  1  0.417300  0.774900  0.935900  1.0  0.0811
  H  H121  1  0.237600  0.960100  0.966700  1.0  0.1099
  H  H122  1  0.585100  0.663000  0.918700  1.0  0.0933
  H  H123  1  0.255500  0.157800  0.902000  1.0  0.1211
  H  H124  1  0.684800  0.066300  0.894700  1.0  0.1181
  H  H125  1  0.647600  0.120300  0.973200  1.0  0.1094
  H  H126  1  0.468300  0.879600  0.925500  1.0  0.1291
  H  H127  1  0.237000  0.858700  0.917400  1.0  0.1145
  H  H128  1  0.780600  0.030100  0.879000  1.0  0.1114
  H  H129  1  0.849300  0.036600  0.852000  1.0  0.1169
  H  H130  1  0.637800  0.023600  0.952700  1.0  0.1012
  H  H131  1  0.621300  0.155700  0.909100  1.0  0.1138
  H  H132  1  0.084900  0.004800  0.891600  1.0  0.1171
  H  H133  1  0.249900  0.119400  0.871900  1.0  0.1127
  H  H134  1  0.699300  0.918800  0.825200  1.0  0.1074
  H  H135  1  0.246700  0.857200  0.982100  1.0  0.1035
  H  H136  1  0.639900  0.765200  0.907700  1.0  0.1234
  H  H137  1  0.632700  0.914800  0.852100  1.0  0.1157
  H  H138  1  0.567500  0.953400  0.932200  1.0  0.1048
  H  H139  1  0.417200  0.106800  0.941200  1.0  0.1256
  H  H140  1  0.257100  0.247400  0.928000  1.0  0.1302
  H  H141  1  0.060300  0.987300  0.782200  1.0  0.4034
  H  H142  1  0.486800  0.207100  0.950400  1.0  0.0819
  H  H143  1  0.334500  0.341600  0.935400  1.0  0.0973
  H  H144  1  0.031600  0.007800  0.860800  1.0  0.1105
  H  H145  1  0.880600  0.014800  0.733500  1.0  0.0805
  H  H146  1  0.921400  0.981000  0.750900  1.0  0.0946
  H  H147  1  0.823900  0.026600  0.763800  1.0  0.0925
  H  H148  1  0.774400  0.000900  0.747000  1.0  0.0985
  H  H149  1  0.961300  0.705100  0.747500  1.0  0.1018
  H  H150  1  0.892000  0.690500  0.759800  1.0  0.1058
  H  H151  1  0.949200  0.758500  0.779900  1.0  0.0798
  H  H152  1  0.991900  0.799200  0.763900  1.0  0.0989
  H  H153  1  0.067900  0.014500  0.273800  1.0  0.2389
  H  H154  1  0.804100  0.873400  0.342400  1.0  0.1091
  H  H155  1  0.374600  0.134700  0.383500  1.0  0.11
  H  H156  1  0.364300  0.746200  0.428900  1.0  0.1045
  H  H157  1  0.749600  0.249300  0.433300  1.0  0.1031
  H  H158  1  0.695100  0.955100  0.447900  1.0  0.1121
  H  H159  1  0.826700  0.038600  0.409100  1.0  0.0979
  H  H160  1  0.582700  0.225100  0.435900  1.0  0.0813
  H  H161  1  0.762400  0.039900  0.466700  1.0  0.11
  H  H162  1  0.414900  0.337000  0.418700  1.0  0.0936
  H  H163  1  0.744500  0.842200  0.402000  1.0  0.1214
  H  H164  1  0.315200  0.933700  0.394700  1.0  0.1179
  H  H165  1  0.352400  0.879700  0.473200  1.0  0.1085
  H  H166  1  0.531700  0.120400  0.425500  1.0  0.1283
  H  H167  1  0.763000  0.141300  0.417400  1.0  0.1144
  H  H168  1  0.219400  0.969900  0.379000  1.0  0.1124
  H  H169  1  0.150700  0.963400  0.352000  1.0  0.1173
  H  H170  1  0.362200  0.976400  0.452700  1.0  0.1012
  H  H171  1  0.378700  0.844300  0.409100  1.0  0.1136
  H  H172  1  0.915100  0.995200  0.391600  1.0  0.1175
  H  H173  1  0.750100  0.880600  0.371900  1.0  0.1126
  H  H174  1  0.300700  0.081200  0.325200  1.0  0.1075
  H  H175  1  0.753300  0.142800  0.482100  1.0  0.1035
  H  H176  1  0.360100  0.234800  0.407700  1.0  0.1253
  H  H177  1  0.367300  0.085200  0.352100  1.0  0.1155
  H  H178  1  0.432500  0.046600  0.432200  1.0  0.1046
  H  H179  1  0.582800  0.893200  0.441200  1.0  0.1256
  H  H180  1  0.742900  0.752600  0.428000  1.0  0.1305
  H  H181  1  0.939700  0.012700  0.282200  1.0  0.4031
  H  H182  1  0.513200  0.792900  0.450400  1.0  0.0815
  H  H183  1  0.665500  0.658400  0.435400  1.0  0.0979
  H  H184  1  0.968400  0.992200  0.360800  1.0  0.1104
  H  H185  1  0.119400  0.985200  0.233500  1.0  0.0817
  H  H186  1  0.078600  0.019000  0.250900  1.0  0.0942
  H  H187  1  0.176100  0.973400  0.263800  1.0  0.0922
  H  H188  1  0.225600  0.999100  0.247000  1.0  0.0954
  H  H189  1  0.038700  0.294900  0.247500  1.0  0.1002
  H  H190  1  0.108000  0.309500  0.259800  1.0  0.106
  H  H191  1  0.050800  0.241500  0.279900  1.0  0.0788
  H  H192  1  0.008100  0.200800  0.263900  1.0  0.0984
  H  H193  1  0.014500  0.067900  0.726200  1.0  0.2393
  H  H194  1  0.873400  0.804100  0.657600  1.0  0.1097
  H  H195  1  0.134700  0.374600  0.616500  1.0  0.1108
  H  H196  1  0.746200  0.364300  0.571100  1.0  0.1056
  H  H197  1  0.249300  0.749600  0.566700  1.0  0.1044
  H  H198  1  0.955100  0.695100  0.552100  1.0  0.1115
  H  H199  1  0.038600  0.826700  0.590900  1.0  0.0984
  H  H200  1  0.225100  0.582700  0.564100  1.0  0.0817
  H  H201  1  0.039900  0.762400  0.533300  1.0  0.1091
  H  H202  1  0.337000  0.414900  0.581300  1.0  0.0935
  H  H203  1  0.842200  0.744500  0.598000  1.0  0.1218
  H  H204  1  0.933700  0.315200  0.605300  1.0  0.1183
  H  H205  1  0.879700  0.352400  0.526800  1.0  0.1076
  H  H206  1  0.120400  0.531700  0.574500  1.0  0.1288
  H  H207  1  0.141300  0.763000  0.582600  1.0  0.1148
  H  H208  1  0.969900  0.219400  0.621000  1.0  0.1118
  H  H209  1  0.963400  0.150700  0.648000  1.0  0.1167
  H  H210  1  0.976400  0.362200  0.547300  1.0  0.1009
  H  H211  1  0.844300  0.378700  0.590900  1.0  0.1148
  H  H212  1  0.995200  0.915100  0.608400  1.0  0.1182
  H  H213  1  0.880600  0.750100  0.628100  1.0  0.1127
  H  H214  1  0.081200  0.300700  0.674800  1.0  0.1079
  H  H215  1  0.142800  0.753300  0.517900  1.0  0.1038
  H  H216  1  0.234800  0.360100  0.592300  1.0  0.1246
  H  H217  1  0.085200  0.367300  0.647900  1.0  0.1151
  H  H218  1  0.046600  0.432500  0.567800  1.0  0.1042
  H  H219  1  0.893200  0.582800  0.558800  1.0  0.1234
  H  H220  1  0.752600  0.742900  0.572000  1.0  0.1338
  H  H221  1  0.012700  0.939700  0.717800  1.0  0.4003
  H  H222  1  0.792900  0.513200  0.549600  1.0  0.0827
  H  H223  1  0.658400  0.665500  0.564600  1.0  0.0985
  H  H224  1  0.992200  0.968400  0.639200  1.0  0.1107
  H  H225  1  0.985200  0.119400  0.766500  1.0  0.0823
  H  H226  1  0.019000  0.078600  0.749100  1.0  0.0961
  H  H227  1  0.973400  0.176100  0.736200  1.0  0.0918
  H  H228  1  0.999100  0.225600  0.753000  1.0  0.1016
  H  H229  1  0.294900  0.038700  0.752500  1.0  0.1012
  H  H230  1  0.309500  0.108000  0.740200  1.0  0.1057
  H  H231  1  0.241500  0.050800  0.720100  1.0  0.0788
  H  H232  1  0.200800  0.008100  0.736100  1.0  0.1025
  H  H233  1  0.985500  0.932100  0.226200  1.0  0.2396
  H  H234  1  0.126600  0.195900  0.157600  1.0  0.11
  H  H235  1  0.865300  0.625400  0.116500  1.0  0.1109
  H  H236  1  0.253800  0.635700  0.071100  1.0  0.1056
  H  H237  1  0.750700  0.250400  0.066700  1.0  0.1041
  H  H238  1  0.044900  0.304900  0.052100  1.0  0.1112
  H  H239  1  0.961400  0.173300  0.090900  1.0  0.0998
  H  H240  1  0.774900  0.417300  0.064100  1.0  0.0817
  H  H241  1  0.960100  0.237600  0.033300  1.0  0.1094
  H  H242  1  0.663000  0.585100  0.081300  1.0  0.0938
  H  H243  1  0.157800  0.255500  0.098000  1.0  0.1215
  H  H244  1  0.066300  0.684800  0.105300  1.0  0.1179
  H  H245  1  0.120300  0.647600  0.026800  1.0  0.108
  H  H246  1  0.879600  0.468300  0.074500  1.0  0.1287
  H  H247  1  0.858700  0.237000  0.082600  1.0  0.1149
  H  H248  1  0.030100  0.780600  0.121000  1.0  0.112
  H  H249  1  0.036600  0.849300  0.148000  1.0  0.1171
  H  H250  1  0.023600  0.637800  0.047300  1.0  0.1004
  H  H251  1  0.155700  0.621300  0.090900  1.0  0.1145
  H  H252  1  0.004800  0.084900  0.108400  1.0  0.1179
  H  H253  1  0.119400  0.249900  0.128100  1.0  0.1129
  H  H254  1  0.918800  0.699300  0.174800  1.0  0.1077
  H  H255  1  0.857200  0.246700  0.017900  1.0  0.103
  H  H256  1  0.765200  0.639900  0.092300  1.0  0.1249
  H  H257  1  0.914800  0.632700  0.147900  1.0  0.1146
  H  H258  1  0.953400  0.567500  0.067800  1.0  0.1045
  H  H259  1  0.106800  0.417200  0.058800  1.0  0.1241
  H  H260  1  0.247400  0.257100  0.072000  1.0  0.1313
  H  H261  1  0.987300  0.060300  0.217800  1.0  0.3995
  H  H262  1  0.207100  0.486800  0.049600  1.0  0.0823
  H  H263  1  0.341600  0.334500  0.064600  1.0  0.0983
  H  H264  1  0.007800  0.031600  0.139200  1.0  0.1101
  H  H265  1  0.014800  0.880600  0.266500  1.0  0.0823
  H  H266  1  0.981000  0.921400  0.249100  1.0  0.0961
  H  H267  1  0.026600  0.823900  0.236200  1.0  0.0907
  H  H268  1  0.000900  0.774400  0.253000  1.0  0.0997
  H  H269  1  0.705100  0.961300  0.252500  1.0  0.1002
  H  H270  1  0.690500  0.892000  0.240200  1.0  0.105
  H  H271  1  0.758500  0.949200  0.220100  1.0  0.0792
  H  H272  1  0.799200  0.991900  0.236100  1.0  0.1044
  H  H273  1  0.567900  0.485500  0.476200  1.0  0.2397
  H  H274  1  0.304100  0.626600  0.407600  1.0  0.1086
  H  H275  1  0.874600  0.365300  0.366500  1.0  0.1102
  H  H276  1  0.864300  0.753800  0.321100  1.0  0.1051
  H  H277  1  0.249600  0.250700  0.316700  1.0  0.1028
  H  H278  1  0.195100  0.544900  0.302100  1.0  0.1124
  H  H279  1  0.326700  0.461400  0.340900  1.0  0.0993
  H  H280  1  0.082700  0.274900  0.314100  1.0  0.0812
  H  H281  1  0.262400  0.460100  0.283300  1.0  0.1095
  H  H282  1  0.914900  0.163000  0.331300  1.0  0.0929
  H  H283  1  0.244500  0.657800  0.348000  1.0  0.1214
  H  H284  1  0.815200  0.566300  0.355300  1.0  0.1181
  H  H285  1  0.852400  0.620300  0.276800  1.0  0.1083
  H  H286  1  0.031700  0.379600  0.324500  1.0  0.1284
  H  H287  1  0.263000  0.358700  0.332600  1.0  0.1143
  H  H288  1  0.719400  0.530100  0.371000  1.0  0.1114
  H  H289  1  0.650700  0.536600  0.398000  1.0  0.1173
  H  H290  1  0.862200  0.523600  0.297300  1.0  0.0998
  H  H291  1  0.878700  0.655700  0.340900  1.0  0.1144
  H  H292  1  0.415100  0.504800  0.358400  1.0  0.1168
  H  H293  1  0.250100  0.619400  0.378100  1.0  0.1127
  H  H294  1  0.800700  0.418800  0.424800  1.0  0.1075
  H  H295  1  0.253300  0.357200  0.267900  1.0  0.1041
  H  H296  1  0.860100  0.265200  0.342300  1.0  0.1247
  H  H297  1  0.867300  0.414800  0.397900  1.0  0.115
  H  H298  1  0.932500  0.453400  0.317800  1.0  0.1046
  H  H299  1  0.082800  0.606800  0.308800  1.0  0.1248
  H  H300  1  0.242900  0.747400  0.322000  1.0  0.1289
  H  H301  1  0.439700  0.487300  0.467800  1.0  0.401
  H  H302  1  0.013200  0.707100  0.299600  1.0  0.082
  H  H303  1  0.165500  0.841600  0.314600  1.0  0.0973
  H  H304  1  0.468400  0.507800  0.389200  1.0  0.1102
  H  H305  1  0.619400  0.514800  0.516500  1.0  0.0812
  H  H306  1  0.578600  0.481000  0.499100  1.0  0.0945
  H  H307  1  0.676100  0.526600  0.486200  1.0  0.0914
  H  H308  1  0.725600  0.500900  0.503000  1.0  0.096
  H  H309  1  0.538700  0.205100  0.502500  1.0  0.1019
  H  H310  1  0.608000  0.190500  0.490200  1.0  0.1066
  H  H311  1  0.550800  0.258500  0.470100  1.0  0.081
  H  H312  1  0.508100  0.299200  0.486100  1.0  0.0992
  H  H313  1  0.432100  0.514500  0.976200  1.0  0.2394
  H  H314  1  0.695900  0.373400  0.907600  1.0  0.1092
  H  H315  1  0.125400  0.634700  0.866500  1.0  0.1102
  H  H316  1  0.135700  0.246200  0.821100  1.0  0.1056
  H  H317  1  0.750400  0.749300  0.816700  1.0  0.1037
  H  H318  1  0.804900  0.455100  0.802100  1.0  0.1124
  H  H319  1  0.673300  0.538600  0.840900  1.0  0.0995
  H  H320  1  0.917300  0.725100  0.814100  1.0  0.0812
  H  H321  1  0.737600  0.539900  0.783300  1.0  0.1095
  H  H322  1  0.085100  0.837000  0.831300  1.0  0.0931
  H  H323  1  0.755500  0.342200  0.848000  1.0  0.1214
  H  H324  1  0.184800  0.433700  0.855300  1.0  0.118
  H  H325  1  0.147600  0.379700  0.776800  1.0  0.1088
  H  H326  1  0.968300  0.620400  0.824500  1.0  0.1282
  H  H327  1  0.737000  0.641300  0.832600  1.0  0.1146
  H  H328  1  0.280600  0.469900  0.871000  1.0  0.1117
  H  H329  1  0.349300  0.463400  0.898000  1.0  0.1169
  H  H330  1  0.137800  0.476400  0.797300  1.0  0.1001
  H  H331  1  0.121300  0.344300  0.840900  1.0  0.1143
  H  H332  1  0.584900  0.495200  0.858400  1.0  0.1166
  H  H333  1  0.749900  0.380600  0.878100  1.0  0.1124
  H  H334  1  0.199300  0.581200  0.924800  1.0  0.1078
  H  H335  1  0.746700  0.642800  0.767900  1.0  0.1044
  H  H336  1  0.139900  0.734800  0.842300  1.0  0.1237
  H  H337  1  0.132700  0.585200  0.897900  1.0  0.1153
  H  H338  1  0.067500  0.546600  0.817800  1.0  0.1048
  H  H339  1  0.917200  0.393200  0.808800  1.0  0.1253
  H  H340  1  0.757100  0.252600  0.822000  1.0  0.13
  H  H341  1  0.560300  0.512700  0.967800  1.0  0.3996
  H  H342  1  0.986800  0.292900  0.799600  1.0  0.0818
  H  H343  1  0.834500  0.158400  0.814600  1.0  0.0972
  H  H344  1  0.531600  0.492200  0.889200  1.0  0.1102
  H  H345  1  0.380600  0.485200  0.016500  1.0  0.0826
  H  H346  1  0.421400  0.519000  0.999100  1.0  0.0946
  H  H347  1  0.323900  0.473400  0.986200  1.0  0.0912
  H  H348  1  0.274400  0.499100  0.003000  1.0  0.0977
  H  H349  1  0.461300  0.794900  0.002500  1.0  0.0956
  H  H350  1  0.392000  0.809500  0.990200  1.0  0.1068
  H  H351  1  0.449200  0.741500  0.970100  1.0  0.0804
  H  H352  1  0.491900  0.700800  0.986100  1.0  0.0976
  C  C353  1  0.695700  0.852900  0.703370  1.0  -0.1046
  C  C354  1  0.564400  0.389600  0.599150  1.0  -0.1002
  C  C355  1  0.420000  0.258500  0.690310  1.0  0.041
  C  C356  1  0.557700  0.291400  0.652450  1.0  0.0031
  C  C357  1  0.206200  0.003100  0.679130  1.0  -0.1166
  C  C358  1  0.473700  0.673900  0.569470  1.0  0.6528
  C  C359  1  0.332600  0.940400  0.664950  1.0  0.0258
  C  C360  1  0.466200  0.837500  0.637090  1.0  0.0005
  C  C361  1  0.600600  0.325800  0.602140  1.0  -0.0625
  C  C362  1  0.403600  0.873200  0.642070  1.0  -0.151
  C  C363  1  0.563300  0.420800  0.579540  1.0  0.7069
  C  C364  1  0.707200  0.863100  0.683810  1.0  -0.0537
  C  C365  1  0.293700  0.251800  0.690140  1.0  -0.0503
  C  C366  1  0.547800  0.219700  0.686430  1.0  -0.0838
  C  C367  1  0.498700  0.296800  0.663120  1.0  -0.1242
  C  C368  1  0.397100  0.905800  0.659060  1.0  0.0464
  C  C369  1  0.273000  0.037100  0.680350  1.0  -0.0403
  C  C370  1  0.520200  0.874000  0.665480  1.0  -0.0053
  C  C371  1  0.477100  0.718300  0.585950  1.0  -0.1002
  C  C372  1  0.417400  0.258600  0.709860  1.0  -0.1324
  C  C373  1  0.206800  0.938600  0.670230  1.0  -0.0388
  C  C374  1  0.292400  0.248600  0.709530  1.0  -0.1214
  C  C375  1  0.580000  0.868400  0.679540  1.0  0.057
  C  C376  1  0.615600  0.249400  0.659080  1.0  -0.1829
  C  C377  1  0.523900  0.838400  0.648350  1.0  -0.1925
  C  C378  1  0.628300  0.855300  0.710200  1.0  -0.0699
  C  C379  1  0.490600  0.258800  0.680310  1.0  0.0558
  C  C380  1  0.335800  0.007800  0.673960  1.0  -0.2164
  C  C381  1  0.358200  0.258500  0.680590  1.0  -0.1545
  C  C382  1  0.507100  0.735200  0.618010  1.0  -0.1393
  C  C383  1  0.511300  0.694100  0.602060  1.0  -0.1127
  C  C384  1  0.470200  0.798500  0.618430  1.0  0.0007
  C  C385  1  0.570400  0.862100  0.697830  1.0  -0.1342
  C  C386  1  0.649000  0.871300  0.672080  1.0  -0.1556
  C  C387  1  0.528700  0.392200  0.631660  1.0  -0.1151
  C  C388  1  0.562900  0.327700  0.634610  1.0  -0.0355
  C  C389  1  0.597500  0.294600  0.619890  1.0  -0.1386
  C  C390  1  0.441200  0.783800  0.586200  1.0  -0.0691
  C  C391  1  0.144800  0.033400  0.687290  1.0  0.6943
  C  C392  1  0.356900  0.253600  0.718930  1.0  -0.0978
  C  C393  1  0.267900  0.905400  0.663320  1.0  -0.2018
  C  C394  1  0.438500  0.823000  0.602110  1.0  -0.1005
  C  C395  1  0.456100  0.908000  0.670700  1.0  -0.114
  C  C396  1  0.653900  0.099900  0.690060  1.0  -0.1434
  C  C397  1  0.738500  0.195700  0.681820  1.0  -0.1413
  C  C398  1  0.670400  0.168800  0.682790  1.0  -0.0648
  C  C399  1  0.714700  0.059000  0.695410  1.0  -0.0568
  C  C400  1  0.794300  0.149400  0.686830  1.0  -0.0895
  C  C401  1  0.530200  0.424300  0.613050  1.0  -0.0445
  C  C402  1  0.607700  0.216100  0.676350  1.0  0.0182
  C  C403  1  0.783400  0.082600  0.693650  1.0  -0.0279
  C  C404  1  0.842000  0.037600  0.697960  1.0  0.644
  C  C405  1  0.225500  0.234900  0.718710  1.0  0.6794
  C  C406  1  0.758700  0.843200  0.714790  1.0  0.734
  C  C407  1  0.477300  0.621600  0.493120  1.0  0.0428
  C  C408  1  0.487900  0.684600  0.504800  1.0  0.0604
  C  C409  1  0.227700  0.580000  0.503540  1.0  -0.0672
  C  C410  1  0.281300  0.555200  0.517570  1.0  0.006
  C  C411  1  0.304300  0.147100  0.203370  1.0  -0.1035
  C  C412  1  0.435600  0.610400  0.099150  1.0  -0.1003
  C  C413  1  0.580000  0.741500  0.190310  1.0  0.0406
  C  C414  1  0.442300  0.708600  0.152450  1.0  0.0034
  C  C415  1  0.793800  0.996900  0.179130  1.0  -0.1168
  C  C416  1  0.526300  0.326100  0.069470  1.0  0.6524
  C  C417  1  0.667400  0.059600  0.164950  1.0  0.0265
  C  C418  1  0.533800  0.162500  0.137090  1.0  0.0005
  C  C419  1  0.399400  0.674200  0.102140  1.0  -0.0614
  C  C420  1  0.596400  0.126800  0.142070  1.0  -0.1502
  C  C421  1  0.436700  0.579200  0.079540  1.0  0.7068
  C  C422  1  0.292800  0.136900  0.183810  1.0  -0.0545
  C  C423  1  0.706300  0.748200  0.190140  1.0  -0.0505
  C  C424  1  0.452200  0.780300  0.186430  1.0  -0.0841
  C  C425  1  0.501300  0.703200  0.163120  1.0  -0.1227
  C  C426  1  0.602900  0.094200  0.159060  1.0  0.0468
  C  C427  1  0.727000  0.962900  0.180350  1.0  -0.039
  C  C428  1  0.479800  0.126000  0.165480  1.0  -0.0056
  C  C429  1  0.522900  0.281700  0.085950  1.0  -0.1009
  C  C430  1  0.582600  0.741400  0.209860  1.0  -0.1341
  C  C431  1  0.793200  0.061400  0.170230  1.0  -0.0399
  C  C432  1  0.707600  0.751400  0.209530  1.0  -0.1199
  C  C433  1  0.420000  0.131600  0.179540  1.0  0.0564
  C  C434  1  0.384400  0.750600  0.159080  1.0  -0.1838
  C  C435  1  0.476100  0.161600  0.148350  1.0  -0.1933
  C  C436  1  0.371700  0.144700  0.210200  1.0  -0.0697
  C  C437  1  0.509400  0.741200  0.180310  1.0  0.0558
  C  C438  1  0.664200  0.992200  0.173960  1.0  -0.217
  C  C439  1  0.641800  0.741500  0.180590  1.0  -0.1545
  C  C440  1  0.492900  0.264800  0.118010  1.0  -0.1401
  C  C441  1  0.488700  0.305900  0.102060  1.0  -0.1125
  C  C442  1  0.529800  0.201500  0.118430  1.0  0.0006
  C  C443  1  0.429600  0.137900  0.197830  1.0  -0.1325
  C  C444  1  0.351000  0.128700  0.172080  1.0  -0.155
  C  C445  1  0.471300  0.607800  0.131660  1.0  -0.1152
  C  C446  1  0.437100  0.672300  0.134610  1.0  -0.0356
  C  C447  1  0.402500  0.705400  0.119890  1.0  -0.1401
  C  C448  1  0.558800  0.216200  0.086200  1.0  -0.07
  C  C449  1  0.855200  0.966600  0.187290  1.0  0.695
  C  C450  1  0.643100  0.746400  0.218930  1.0  -0.0982
  C  C451  1  0.732100  0.094600  0.163320  1.0  -0.202
  C  C452  1  0.561500  0.177000  0.102110  1.0  -0.0988
  C  C453  1  0.543900  0.092000  0.170700  1.0  -0.1155
  C  C454  1  0.346100  0.900100  0.190060  1.0  -0.1422
  C  C455  1  0.261500  0.804300  0.181820  1.0  -0.1401
  C  C456  1  0.329600  0.831200  0.182790  1.0  -0.0647
  C  C457  1  0.285300  0.941000  0.195410  1.0  -0.0568
  C  C458  1  0.205700  0.850600  0.186830  1.0  -0.0929
  C  C459  1  0.469800  0.575700  0.113050  1.0  -0.0452
  C  C460  1  0.392300  0.783900  0.176350  1.0  0.0168
  C  C461  1  0.216600  0.917400  0.193650  1.0  -0.0283
  C  C462  1  0.158000  0.962400  0.197960  1.0  0.6437
  C  C463  1  0.774500  0.765100  0.218710  1.0  0.6796
  C  C464  1  0.241300  0.156800  0.214790  1.0  0.7325
  C  C465  1  0.522700  0.378400  0.993120  1.0  0.0424
  C  C466  1  0.512100  0.315400  0.004800  1.0  0.0656
  C  C467  1  0.772300  0.420000  0.003540  1.0  -0.0678
  C  C468  1  0.718700  0.444800  0.017570  1.0  0.0039
  C  C469  1  0.647100  0.195700  0.953370  1.0  -0.1007
  C  C470  1  0.110400  0.064400  0.849150  1.0  -0.1007
  C  C471  1  0.241500  0.920000  0.940310  1.0  0.0397
  C  C472  1  0.208600  0.057700  0.902450  1.0  0.002
  C  C473  1  0.496900  0.706200  0.929130  1.0  -0.1174
  C  C474  1  0.826100  0.973700  0.819470  1.0  0.6526
  C  C475  1  0.559600  0.832600  0.914950  1.0  0.0278
  C  C476  1  0.662500  0.966200  0.887090  1.0  0.0004
  C  C477  1  0.174200  0.100600  0.852140  1.0  -0.0594
  C  C478  1  0.626800  0.903600  0.892070  1.0  -0.1484
  C  C479  1  0.079200  0.063300  0.829540  1.0  0.7082
  C  C480  1  0.636900  0.207200  0.933810  1.0  -0.0551
  C  C481  1  0.248200  0.793700  0.940140  1.0  -0.0473
  C  C482  1  0.280300  0.047800  0.936430  1.0  -0.0838
  C  C483  1  0.203200  0.998700  0.913120  1.0  -0.1246
  C  C484  1  0.594200  0.897100  0.909060  1.0  0.047
  C  C485  1  0.462900  0.773000  0.930350  1.0  -0.0365
  C  C486  1  0.626000  0.020200  0.915480  1.0  -0.0051
  C  C487  1  0.781700  0.977100  0.835950  1.0  -0.1
  C  C488  1  0.241400  0.917400  0.959860  1.0  -0.1373
  C  C489  1  0.561400  0.706800  0.920230  1.0  -0.0372
  C  C490  1  0.251400  0.792400  0.959530  1.0  -0.1171
  C  C491  1  0.631600  0.080000  0.929540  1.0  0.0566
  C  C492  1  0.250600  0.115600  0.909080  1.0  -0.1797
  C  C493  1  0.661600  0.023900  0.898350  1.0  -0.1926
  C  C494  1  0.644700  0.128300  0.960200  1.0  -0.0717
  C  C495  1  0.241200  0.990600  0.930310  1.0  0.0546
  C  C496  1  0.492200  0.835800  0.923960  1.0  -0.2174
  C  C497  1  0.241500  0.858200  0.930590  1.0  -0.153
  C  C498  1  0.764800  0.007100  0.868010  1.0  -0.139
  C  C499  1  0.805900  0.011300  0.852060  1.0  -0.111
  C  C500  1  0.701500  0.970200  0.868430  1.0  0.0004
  C  C501  1  0.637900  0.070400  0.947830  1.0  -0.1374
  C  C502  1  0.628700  0.149000  0.922080  1.0  -0.1554
  C  C503  1  0.107800  0.028700  0.881660  1.0  -0.1122
  C  C504  1  0.172300  0.062900  0.884610  1.0  -0.0357
  C  C505  1  0.205400  0.097500  0.869890  1.0  -0.1373
  C  C506  1  0.716200  0.941200  0.836200  1.0  -0.0662
  C  C507  1  0.466600  0.644800  0.937290  1.0  0.6959
  C  C508  1  0.246400  0.856900  0.968930  1.0  -0.0958
  C  C509  1  0.594600  0.767900  0.913320  1.0  -0.1994
  C  C510  1  0.677000  0.938500  0.852110  1.0  -0.0989
  C  C511  1  0.592000  0.956100  0.920700  1.0  -0.1154
  C  C512  1  0.400100  0.153900  0.940060  1.0  -0.1378
  C  C513  1  0.304300  0.238500  0.931820  1.0  -0.1413
  C  C514  1  0.331200  0.170400  0.932790  1.0  -0.0647
  C  C515  1  0.441000  0.214700  0.945410  1.0  -0.0542
  C  C516  1  0.350600  0.294300  0.936830  1.0  -0.094
  C  C517  1  0.075700  0.030200  0.863050  1.0  -0.0455
  C  C518  1  0.283900  0.107700  0.926350  1.0  0.0192
  C  C519  1  0.417400  0.283400  0.943650  1.0  -0.0269
  C  C520  1  0.462400  0.342000  0.947960  1.0  0.6339
  C  C521  1  0.265100  0.725500  0.968710  1.0  0.6777
  C  C522  1  0.656800  0.258700  0.964790  1.0  0.7306
  C  C523  1  0.878400  0.977300  0.743120  1.0  0.0415
  C  C524  1  0.815400  0.987900  0.754800  1.0  0.0631
  C  C525  1  0.920000  0.727700  0.753540  1.0  -0.0655
  C  C526  1  0.944800  0.781300  0.767570  1.0  0.0076
  C  C527  1  0.352900  0.804300  0.453370  1.0  -0.1036
  C  C528  1  0.889600  0.935600  0.349150  1.0  -0.1009
  C  C529  1  0.758500  0.080000  0.440310  1.0  0.04
  C  C530  1  0.791400  0.942300  0.402450  1.0  0.0021
  C  C531  1  0.503100  0.293800  0.429130  1.0  -0.1167
  C  C532  1  0.173900  0.026300  0.319470  1.0  0.6535
  C  C533  1  0.440400  0.167400  0.414950  1.0  0.0275
  C  C534  1  0.337500  0.033800  0.387090  1.0  0.0004
  C  C535  1  0.825800  0.899400  0.352140  1.0  -0.0597
  C  C536  1  0.373200  0.096400  0.392070  1.0  -0.1479
  C  C537  1  0.920800  0.936700  0.329540  1.0  0.7081
  C  C538  1  0.363100  0.792800  0.433810  1.0  -0.0537
  C  C539  1  0.751800  0.206300  0.440140  1.0  -0.0487
  C  C540  1  0.719700  0.952200  0.436430  1.0  -0.0848
  C  C541  1  0.796800  0.001300  0.413120  1.0  -0.1231
  C  C542  1  0.405800  0.102900  0.409060  1.0  0.0474
  C  C543  1  0.537100  0.227000  0.430350  1.0  -0.0371
  C  C544  1  0.374000  0.979800  0.415480  1.0  -0.0053
  C  C545  1  0.218300  0.022900  0.335950  1.0  -0.0992
  C  C546  1  0.758600  0.082600  0.459860  1.0  -0.1362
  C  C547  1  0.438600  0.293200  0.420230  1.0  -0.0369
  C  C548  1  0.748600  0.207600  0.459530  1.0  -0.1178
  C  C549  1  0.368400  0.920000  0.429540  1.0  0.0557
  C  C550  1  0.749400  0.884400  0.409080  1.0  -0.1798
  C  C551  1  0.338400  0.976100  0.398350  1.0  -0.1922
  C  C552  1  0.355300  0.871700  0.460200  1.0  -0.0707
  C  C553  1  0.758800  0.009400  0.430310  1.0  0.0538
  C  C554  1  0.507800  0.164200  0.423960  1.0  -0.2148
  C  C555  1  0.758500  0.141800  0.430590  1.0  -0.155
  C  C556  1  0.235200  0.992900  0.368010  1.0  -0.1399
  C  C557  1  0.194100  0.988700  0.352060  1.0  -0.112
  C  C558  1  0.298500  0.029800  0.368430  1.0  0.0007
  C  C559  1  0.362100  0.929600  0.447830  1.0  -0.1384
  C  C560  1  0.371300  0.851000  0.422080  1.0  -0.1548
  C  C561  1  0.892200  0.971300  0.381660  1.0  -0.1119
  C  C562  1  0.827700  0.937100  0.384610  1.0  -0.0353
  C  C563  1  0.794600  0.902500  0.369890  1.0  -0.1368
  C  C564  1  0.283800  0.058800  0.336200  1.0  -0.0677
  C  C565  1  0.533400  0.355200  0.437290  1.0  0.6965
  C  C566  1  0.753600  0.143100  0.468930  1.0  -0.0955
  C  C567  1  0.405400  0.232100  0.413320  1.0  -0.2008
  C  C568  1  0.323000  0.061500  0.352110  1.0  -0.0968
  C  C569  1  0.408000  0.043900  0.420700  1.0  -0.1158
  C  C570  1  0.599900  0.846100  0.440060  1.0  -0.1413
  C  C571  1  0.695700  0.761500  0.431820  1.0  -0.1382
  C  C572  1  0.668800  0.829600  0.432790  1.0  -0.0653
  C  C573  1  0.559000  0.785300  0.445410  1.0  -0.054
  C  C574  1  0.649400  0.705700  0.436830  1.0  -0.091
  C  C575  1  0.924300  0.969800  0.363050  1.0  -0.0459
  C  C576  1  0.716100  0.892300  0.426350  1.0  0.019
  C  C577  1  0.582600  0.716600  0.443650  1.0  -0.0277
  C  C578  1  0.537600  0.658000  0.447960  1.0  0.6345
  C  C579  1  0.734900  0.274500  0.468710  1.0  0.6786
  C  C580  1  0.343200  0.741300  0.464790  1.0  0.73
  C  C581  1  0.121600  0.022700  0.243120  1.0  0.0421
  C  C582  1  0.184600  0.012100  0.254800  1.0  0.0606
  C  C583  1  0.080000  0.272300  0.253540  1.0  -0.0636
  C  C584  1  0.055200  0.218700  0.267570  1.0  0.0085
  C  C585  1  0.804300  0.352900  0.546630  1.0  -0.1045
  C  C586  1  0.935600  0.889600  0.650850  1.0  -0.0993
  C  C587  1  0.080000  0.758500  0.559690  1.0  0.041
  C  C588  1  0.942300  0.791400  0.597550  1.0  0.0028
  C  C589  1  0.293800  0.503100  0.570870  1.0  -0.1174
  C  C590  1  0.026300  0.173900  0.680530  1.0  0.6523
  C  C591  1  0.167400  0.440400  0.585050  1.0  0.026
  C  C592  1  0.033800  0.337500  0.612910  1.0  0.0007
  C  C593  1  0.899400  0.825800  0.647860  1.0  -0.0604
  C  C594  1  0.096400  0.373200  0.607930  1.0  -0.1483
  C  C595  1  0.936700  0.920800  0.670460  1.0  0.7073
  C  C596  1  0.792800  0.363100  0.566190  1.0  -0.0546
  C  C597  1  0.206300  0.751800  0.559860  1.0  -0.0483
  C  C598  1  0.952200  0.719700  0.563570  1.0  -0.0827
  C  C599  1  0.001300  0.796800  0.586880  1.0  -0.1229
  C  C600  1  0.102900  0.405800  0.590940  1.0  0.0462
  C  C601  1  0.227000  0.537100  0.569650  1.0  -0.0399
  C  C602  1  0.979800  0.374000  0.584520  1.0  -0.0058
  C  C603  1  0.022900  0.218300  0.664050  1.0  -0.1006
  C  C604  1  0.082600  0.758600  0.540140  1.0  -0.1359
  C  C605  1  0.293200  0.438600  0.579770  1.0  -0.0394
  C  C606  1  0.207600  0.748600  0.540470  1.0  -0.1195
  C  C607  1  0.920000  0.368400  0.570460  1.0  0.0562
  C  C608  1  0.884400  0.749400  0.590920  1.0  -0.1837
  C  C609  1  0.976100  0.338400  0.601650  1.0  -0.1931
  C  C610  1  0.871700  0.355300  0.539800  1.0  -0.0693
  C  C611  1  0.009400  0.758800  0.569690  1.0  0.0554
  C  C612  1  0.164200  0.507800  0.576040  1.0  -0.2179
  C  C613  1  0.141800  0.758500  0.569410  1.0  -0.1557
  C  C614  1  0.992900  0.235200  0.631990  1.0  -0.1406
  C  C615  1  0.988700  0.194100  0.647940  1.0  -0.1115
  C  C616  1  0.029800  0.298500  0.631570  1.0  0.0007
  C  C617  1  0.929600  0.362100  0.552170  1.0  -0.1331
  C  C618  1  0.851000  0.371300  0.577920  1.0  -0.1601
  C  C619  1  0.971300  0.892200  0.618340  1.0  -0.1152
  C  C620  1  0.937100  0.827700  0.615390  1.0  -0.0357
  C  C621  1  0.902500  0.794600  0.630110  1.0  -0.1387
  C  C622  1  0.058800  0.283800  0.663800  1.0  -0.0686
  C  C623  1  0.355200  0.533400  0.562710  1.0  0.6944
  C  C624  1  0.143100  0.753600  0.531070  1.0  -0.0973
  C  C625  1  0.232100  0.405400  0.586680  1.0  -0.2022
  C  C626  1  0.061500  0.323000  0.647890  1.0  -0.0989
  C  C627  1  0.043900  0.408000  0.579300  1.0  -0.1144
  C  C628  1  0.846100  0.599900  0.559940  1.0  -0.1421
  C  C629  1  0.761500  0.695700  0.568180  1.0  -0.1419
  C  C630  1  0.829600  0.668800  0.567210  1.0  -0.0648
  C  C631  1  0.785300  0.559000  0.554590  1.0  -0.0564
  C  C632  1  0.705700  0.649400  0.563170  1.0  -0.092
  C  C633  1  0.969800  0.924300  0.636950  1.0  -0.0467
  C  C634  1  0.892300  0.716100  0.573650  1.0  0.0165
  C  C635  1  0.716600  0.582600  0.556350  1.0  -0.0282
  C  C636  1  0.658000  0.537600  0.552040  1.0  0.6439
  C  C637  1  0.274500  0.734900  0.531290  1.0  0.6786
  C  C638  1  0.741300  0.343200  0.535210  1.0  0.7342
  C  C639  1  0.022700  0.121600  0.756880  1.0  0.0428
  C  C640  1  0.012100  0.184600  0.745200  1.0  0.0622
  C  C641  1  0.272300  0.080000  0.746460  1.0  -0.0682
  C  C642  1  0.218700  0.055200  0.732430  1.0  0.0054
  C  C643  1  0.195700  0.647100  0.046630  1.0  -0.1008
  C  C644  1  0.064400  0.110400  0.150850  1.0  -0.0998
  C  C645  1  0.920000  0.241500  0.059690  1.0  0.0414
  C  C646  1  0.057700  0.208600  0.097550  1.0  0.003
  C  C647  1  0.706200  0.496900  0.070870  1.0  -0.1169
  C  C648  1  0.973700  0.826100  0.180530  1.0  0.6518
  C  C649  1  0.832600  0.559600  0.085050  1.0  0.0257
  C  C650  1  0.966200  0.662500  0.112910  1.0  0.0011
  C  C651  1  0.100600  0.174200  0.147860  1.0  -0.0616
  C  C652  1  0.903600  0.626800  0.107930  1.0  -0.1497
  C  C653  1  0.063300  0.079200  0.170460  1.0  0.7073
  C  C654  1  0.207200  0.636900  0.066190  1.0  -0.0535
  C  C655  1  0.793700  0.248200  0.059860  1.0  -0.0493
  C  C656  1  0.047800  0.280300  0.063570  1.0  -0.0831
  C  C657  1  0.998700  0.203200  0.086880  1.0  -0.1253
  C  C658  1  0.897100  0.594200  0.090940  1.0  0.0457
  C  C659  1  0.773000  0.462900  0.069650  1.0  -0.0387
  C  C660  1  0.020200  0.626000  0.084520  1.0  -0.0056
  C  C661  1  0.977100  0.781700  0.164050  1.0  -0.1005
  C  C662  1  0.917400  0.241400  0.040140  1.0  -0.1353
  C  C663  1  0.706800  0.561400  0.079770  1.0  -0.0395
  C  C664  1  0.792400  0.251400  0.040470  1.0  -0.1218
  C  C665  1  0.080000  0.631600  0.070460  1.0  0.057
  C  C666  1  0.115600  0.250600  0.090920  1.0  -0.183
  C  C667  1  0.023900  0.661600  0.101650  1.0  -0.1929
  C  C668  1  0.128300  0.644700  0.039800  1.0  -0.0684
  C  C669  1  0.990600  0.241200  0.069690  1.0  0.0556
  C  C670  1  0.835800  0.492200  0.076040  1.0  -0.2153
  C  C671  1  0.858200  0.241500  0.069410  1.0  -0.1565
  C  C672  1  0.007100  0.764800  0.131990  1.0  -0.1402
  C  C673  1  0.011300  0.805900  0.147940  1.0  -0.1114
  C  C674  1  0.970200  0.701500  0.131570  1.0  0.0006
  C  C675  1  0.070400  0.637900  0.052170  1.0  -0.1336
  C  C676  1  0.149000  0.628700  0.077920  1.0  -0.1589
  C  C677  1  0.028700  0.107800  0.118340  1.0  -0.1146
  C  C678  1  0.062900  0.172300  0.115390  1.0  -0.0353
  C  C679  1  0.097500  0.205400  0.130110  1.0  -0.1398
  C  C680  1  0.941200  0.716200  0.163800  1.0  -0.0684
  C  C681  1  0.644800  0.466600  0.062710  1.0  0.6932
  C  C682  1  0.856900  0.246400  0.031070  1.0  -0.0984
  C  C683  1  0.767900  0.594600  0.086680  1.0  -0.2025
  C  C684  1  0.938500  0.677000  0.147890  1.0  -0.0976
  C  C685  1  0.956100  0.592000  0.079300  1.0  -0.1142
  C  C686  1  0.153900  0.400100  0.059940  1.0  -0.1441
  C  C687  1  0.238500  0.304300  0.068180  1.0  -0.1402
  C  C688  1  0.170400  0.331200  0.067210  1.0  -0.0643
  C  C689  1  0.214700  0.441000  0.054590  1.0  -0.0586
  C  C690  1  0.294300  0.350600  0.063170  1.0  -0.0901
  C  C691  1  0.030200  0.075700  0.136950  1.0  -0.0455
  C  C692  1  0.107700  0.283900  0.073650  1.0  0.018
  C  C693  1  0.283400  0.417400  0.056350  1.0  -0.0275
  C  C694  1  0.342000  0.462400  0.052040  1.0  0.6438
  C  C695  1  0.725500  0.265100  0.031290  1.0  0.6796
  C  C696  1  0.258700  0.656800  0.035210  1.0  0.733
  C  C697  1  0.977300  0.878400  0.256880  1.0  0.0435
  C  C698  1  0.987900  0.815400  0.245200  1.0  0.0615
  C  C699  1  0.727700  0.920000  0.246460  1.0  -0.0692
  C  C700  1  0.781300  0.944800  0.232430  1.0  0.0062
  C  C701  1  0.852900  0.695700  0.296630  1.0  -0.1031
  C  C702  1  0.389600  0.564400  0.400850  1.0  -0.1
  C  C703  1  0.258500  0.420000  0.309690  1.0  0.0398
  C  C704  1  0.291400  0.557700  0.347550  1.0  0.0019
  C  C705  1  0.003100  0.206200  0.320870  1.0  -0.1175
  C  C706  1  0.673900  0.473700  0.430530  1.0  0.6524
  C  C707  1  0.940400  0.332600  0.335050  1.0  0.0275
  C  C708  1  0.837500  0.466200  0.362910  1.0  0.0007
  C  C709  1  0.325800  0.600600  0.397860  1.0  -0.0587
  C  C710  1  0.873200  0.403600  0.357930  1.0  -0.1458
  C  C711  1  0.420800  0.563300  0.420460  1.0  0.7091
  C  C712  1  0.863100  0.707200  0.316190  1.0  -0.0545
  C  C713  1  0.251800  0.293700  0.309860  1.0  -0.0472
  C  C714  1  0.219700  0.547800  0.313570  1.0  -0.0833
  C  C715  1  0.296800  0.498700  0.336880  1.0  -0.1233
  C  C716  1  0.905800  0.397100  0.340940  1.0  0.0465
  C  C717  1  0.037100  0.273000  0.319650  1.0  -0.037
  C  C718  1  0.874000  0.520200  0.334520  1.0  -0.0059
  C  C719  1  0.718300  0.477100  0.414050  1.0  -0.0997
  C  C720  1  0.258600  0.417400  0.290140  1.0  -0.1349
  C  C721  1  0.938600  0.206800  0.329770  1.0  -0.0373
  C  C722  1  0.248600  0.292400  0.290470  1.0  -0.1171
  C  C723  1  0.868400  0.580000  0.320460  1.0  0.0556
  C  C724  1  0.249400  0.615600  0.340920  1.0  -0.1799
  C  C725  1  0.838400  0.523900  0.351650  1.0  -0.1941
  C  C726  1  0.855300  0.628300  0.289800  1.0  -0.0687
  C  C727  1  0.258800  0.490600  0.319690  1.0  0.0539
  C  C728  1  0.007800  0.335800  0.326040  1.0  -0.2145
  C  C729  1  0.258500  0.358200  0.319410  1.0  -0.1559
  C  C730  1  0.735200  0.507100  0.381990  1.0  -0.1403
  C  C731  1  0.694100  0.511300  0.397940  1.0  -0.1108
  C  C732  1  0.798500  0.470200  0.381570  1.0  0.0006
  C  C733  1  0.862100  0.570400  0.302170  1.0  -0.1373
  C  C734  1  0.871300  0.649000  0.327920  1.0  -0.1603
  C  C735  1  0.392200  0.528700  0.368340  1.0  -0.1118
  C  C736  1  0.327700  0.562900  0.365390  1.0  -0.0355
  C  C737  1  0.294600  0.597500  0.380110  1.0  -0.1372
  C  C738  1  0.783800  0.441200  0.413800  1.0  -0.0663
  C  C739  1  0.033400  0.144800  0.312710  1.0  0.6949
  C  C740  1  0.253600  0.356900  0.281070  1.0  -0.098
  C  C741  1  0.905400  0.267900  0.336680  1.0  -0.2015
  C  C742  1  0.823000  0.438500  0.397890  1.0  -0.0964
  C  C743  1  0.908000  0.456100  0.329300  1.0  -0.1153
  C  C744  1  0.099900  0.653900  0.309940  1.0  -0.1391
  C  C745  1  0.195700  0.738500  0.318180  1.0  -0.1384
  C  C746  1  0.168800  0.670400  0.317210  1.0  -0.0651
  C  C747  1  0.059000  0.714700  0.304590  1.0  -0.0548
  C  C748  1  0.149400  0.794300  0.313170  1.0  -0.0916
  C  C749  1  0.424300  0.530200  0.386950  1.0  -0.0464
  C  C750  1  0.216100  0.607700  0.323650  1.0  0.0191
  C  C751  1  0.082600  0.783400  0.306350  1.0  -0.0273
  C  C752  1  0.037600  0.842000  0.302040  1.0  0.6346
  C  C753  1  0.234900  0.225500  0.281290  1.0  0.6776
  C  C754  1  0.843200  0.758700  0.285210  1.0  0.7296
  C  C755  1  0.621600  0.477300  0.506880  1.0  0.0419
  C  C756  1  0.684600  0.487900  0.495200  1.0  0.0597
  C  C757  1  0.580000  0.227700  0.496460  1.0  -0.0657
  C  C758  1  0.555200  0.281300  0.482430  1.0  0.0088
  C  C759  1  0.147100  0.304300  0.796630  1.0  -0.1023
  C  C760  1  0.610400  0.435600  0.900850  1.0  -0.1001
  C  C761  1  0.741500  0.580000  0.809690  1.0  0.0401
  C  C762  1  0.708600  0.442300  0.847550  1.0  0.0014
  C  C763  1  0.996900  0.793800  0.820870  1.0  -0.1181
  C  C764  1  0.326100  0.526300  0.930530  1.0  0.6525
  C  C765  1  0.059600  0.667400  0.835050  1.0  0.0274
  C  C766  1  0.162500  0.533800  0.862910  1.0  0.001
  C  C767  1  0.674200  0.399400  0.897860  1.0  -0.0589
  C  C768  1  0.126800  0.596400  0.857930  1.0  -0.1466
  C  C769  1  0.579200  0.436700  0.920460  1.0  0.7084
  C  C770  1  0.136900  0.292800  0.816190  1.0  -0.0525
  C  C771  1  0.748200  0.706300  0.809860  1.0  -0.047
  C  C772  1  0.780300  0.452200  0.813570  1.0  -0.0829
  C  C773  1  0.703200  0.501300  0.836880  1.0  -0.1249
  C  C774  1  0.094200  0.602900  0.840940  1.0  0.0466
  C  C775  1  0.962900  0.727000  0.819650  1.0  -0.0363
  C  C776  1  0.126000  0.479800  0.834520  1.0  -0.0052
  C  C777  1  0.281700  0.522900  0.914050  1.0  -0.0995
  C  C778  1  0.741400  0.582600  0.790140  1.0  -0.1335
  C  C779  1  0.061400  0.793200  0.829770  1.0  -0.0366
  C  C780  1  0.751400  0.707600  0.790470  1.0  -0.1175
  C  C781  1  0.131600  0.420000  0.820460  1.0  0.0562
  C  C782  1  0.750600  0.384400  0.840920  1.0  -0.1793
  C  C783  1  0.161600  0.476100  0.851650  1.0  -0.1916
  C  C784  1  0.144700  0.371700  0.789800  1.0  -0.0702
  C  C785  1  0.741200  0.509400  0.819690  1.0  0.0544
  C  C786  1  0.992200  0.664200  0.826040  1.0  -0.2155
  C  C787  1  0.741500  0.641800  0.819410  1.0  -0.1561
  C  C788  1  0.264800  0.492900  0.881990  1.0  -0.1399
  C  C789  1  0.305900  0.488700  0.897940  1.0  -0.1112
  C  C790  1  0.201500  0.529800  0.881570  1.0  0.0005
  C  C791  1  0.137900  0.429600  0.802170  1.0  -0.1384
  C  C792  1  0.128700  0.351000  0.827920  1.0  -0.1593
  C  C793  1  0.607800  0.471300  0.868340  1.0  -0.113
  C  C794  1  0.672300  0.437100  0.865390  1.0  -0.0354
  C  C795  1  0.705400  0.402500  0.880110  1.0  -0.1365
  C  C796  1  0.216200  0.558800  0.913800  1.0  -0.0661
  C  C797  1  0.966600  0.855200  0.812710  1.0  0.6953
  C  C798  1  0.746400  0.643100  0.781070  1.0  -0.0968
  C  C799  1  0.094600  0.732100  0.836680  1.0  -0.1993
  C  C800  1  0.177000  0.561500  0.897890  1.0  -0.0989
  C  C801  1  0.092000  0.543900  0.829300  1.0  -0.115
  C  C802  1  0.900100  0.346100  0.809940  1.0  -0.1418
  C  C803  1  0.804300  0.261500  0.818180  1.0  -0.1403
  C  C804  1  0.831200  0.329600  0.817210  1.0  -0.0646
  C  C805  1  0.941000  0.285300  0.804590  1.0  -0.055
  C  C806  1  0.850600  0.205700  0.813170  1.0  -0.0914
  C  C807  1  0.575700  0.469800  0.886950  1.0  -0.0469
  C  C808  1  0.783900  0.392300  0.823650  1.0  0.0189
  C  C809  1  0.917400  0.216600  0.806350  1.0  -0.0272
  C  C810  1  0.962400  0.158000  0.802040  1.0  0.6345
  C  C811  1  0.765100  0.774500  0.781290  1.0  0.6779
  C  C812  1  0.156800  0.241300  0.785210  1.0  0.7315
  C  C813  1  0.378400  0.522700  0.006880  1.0  0.0431
  C  C814  1  0.315400  0.512100  0.995200  1.0  0.0606
  C  C815  1  0.420000  0.772300  0.996460  1.0  -0.0683
  C  C816  1  0.444800  0.718700  0.982430  1.0  0.0078
  O  O817  1  0.467060  0.578740  0.535770  1.0  -0.7992
  O  O818  1  0.408670  0.623030  0.484100  1.0  -0.6545
  O  O819  1  0.449930  0.698500  0.553990  1.0  -0.599
  O  O820  1  0.537970  0.481380  0.577330  1.0  -0.6141
  O  O821  1  0.490650  0.606780  0.571970  1.0  -0.6486
  O  O822  1  0.148540  0.095110  0.694020  1.0  -0.6292
  O  O823  1  0.088000  0.997260  0.687600  1.0  -0.6032
  O  O824  1  0.589170  0.381220  0.567070  1.0  -0.5869
  O  O825  1  0.751780  0.842530  0.732770  1.0  -0.6114
  O  O826  1  0.522770  0.452390  0.540910  1.0  -0.8503
  O  O827  1  0.834350  0.973790  0.702450  1.0  -0.6072
  O  O828  1  0.904690  0.068320  0.698030  1.0  -0.6167
  O  O829  1  0.222710  0.229970  0.736270  1.0  -0.5993
  O  O830  1  0.171800  0.216640  0.708430  1.0  -0.6049
  O  O831  1  0.816990  0.836800  0.706890  1.0  -0.6071
  O  O832  1  0.339320  0.604070  0.518790  1.0  -0.6377
  O  O833  1  0.421600  0.698610  0.514670  1.0  -0.6866
  O  O834  1  0.263250  0.623750  0.489410  1.0  -0.7161
  O  O835  1  0.532940  0.421260  0.035770  1.0  -0.7993
  O  O836  1  0.591330  0.376970  0.984100  1.0  -0.6513
  O  O837  1  0.550070  0.301500  0.053990  1.0  -0.6023
  O  O838  1  0.462030  0.518620  0.077330  1.0  -0.6146
  O  O839  1  0.509350  0.393220  0.071970  1.0  -0.6496
  O  O840  1  0.851460  0.904890  0.194020  1.0  -0.6303
  O  O841  1  0.912000  0.002740  0.187600  1.0  -0.6012
  O  O842  1  0.410830  0.618780  0.067070  1.0  -0.5868
  O  O843  1  0.248220  0.157470  0.232770  1.0  -0.612
  O  O844  1  0.477230  0.547610  0.040910  1.0  -0.8472
  O  O845  1  0.165650  0.026210  0.202450  1.0  -0.6078
  O  O846  1  0.095310  0.931680  0.198030  1.0  -0.6165
  O  O847  1  0.777290  0.770030  0.236270  1.0  -0.6
  O  O848  1  0.828200  0.783360  0.208430  1.0  -0.6037
  O  O849  1  0.183010  0.163200  0.206890  1.0  -0.6076
  O  O850  1  0.660680  0.395930  0.018790  1.0  -0.6366
  O  O851  1  0.578400  0.301390  0.014670  1.0  -0.6877
  O  O852  1  0.736750  0.376250  0.989410  1.0  -0.714
  O  O853  1  0.921260  0.967060  0.785770  1.0  -0.799
  O  O854  1  0.876970  0.908670  0.734100  1.0  -0.6566
  O  O855  1  0.801500  0.949930  0.803990  1.0  -0.5957
  O  O856  1  0.018620  0.037970  0.827330  1.0  -0.6138
  O  O857  1  0.893220  0.990650  0.821970  1.0  -0.6496
  O  O858  1  0.404890  0.648540  0.944020  1.0  -0.629
  O  O859  1  0.502740  0.588000  0.937600  1.0  -0.6007
  O  O860  1  0.118780  0.089170  0.817070  1.0  -0.5862
  O  O861  1  0.657470  0.251780  0.982770  1.0  -0.6175
  O  O862  1  0.047610  0.022770  0.790910  1.0  -0.8469
  O  O863  1  0.526210  0.334350  0.952450  1.0  -0.6071
  O  O864  1  0.431680  0.404690  0.948030  1.0  -0.6145
  O  O865  1  0.270030  0.722710  0.986270  1.0  -0.598
  O  O866  1  0.283360  0.671800  0.958430  1.0  -0.5982
  O  O867  1  0.663200  0.316990  0.956890  1.0  -0.6068
  O  O868  1  0.895930  0.839320  0.768790  1.0  -0.6372
  O  O869  1  0.801390  0.921600  0.764670  1.0  -0.6834
  O  O870  1  0.876250  0.763250  0.739410  1.0  -0.7165
  O  O871  1  0.078740  0.032940  0.285770  1.0  -0.7996
  O  O872  1  0.123030  0.091330  0.234100  1.0  -0.6547
  O  O873  1  0.198500  0.050070  0.303990  1.0  -0.5966
  O  O874  1  0.981380  0.962030  0.327330  1.0  -0.6155
  O  O875  1  0.106780  0.009350  0.321970  1.0  -0.6488
  O  O876  1  0.595110  0.351460  0.444020  1.0  -0.6301
  O  O877  1  0.497260  0.412000  0.437600  1.0  -0.6016
  O  O878  1  0.881220  0.910830  0.317070  1.0  -0.5877
  O  O879  1  0.342530  0.748220  0.482770  1.0  -0.6165
  O  O880  1  0.952390  0.977230  0.290910  1.0  -0.8492
  O  O881  1  0.473790  0.665650  0.452450  1.0  -0.6074
  O  O882  1  0.568320  0.595310  0.448030  1.0  -0.6137
  O  O883  1  0.729970  0.277290  0.486270  1.0  -0.5992
  O  O884  1  0.716640  0.328200  0.458430  1.0  -0.6017
  O  O885  1  0.336800  0.683010  0.456890  1.0  -0.6114
  O  O886  1  0.104070  0.160680  0.268790  1.0  -0.6382
  O  O887  1  0.198610  0.078400  0.264670  1.0  -0.6796
  O  O888  1  0.123750  0.236750  0.239410  1.0  -0.7198
  O  O889  1  0.032940  0.078740  0.714230  1.0  -0.8009
  O  O890  1  0.091330  0.123030  0.765900  1.0  -0.6514
  O  O891  1  0.050070  0.198500  0.696010  1.0  -0.5996
  O  O892  1  0.962030  0.981380  0.672670  1.0  -0.6135
  O  O893  1  0.009350  0.106780  0.678030  1.0  -0.6469
  O  O894  1  0.351460  0.595110  0.555980  1.0  -0.6292
  O  O895  1  0.412000  0.497260  0.562400  1.0  -0.6018
  O  O896  1  0.910830  0.881220  0.682930  1.0  -0.5866
  O  O897  1  0.748220  0.342530  0.517230  1.0  -0.6127
  O  O898  1  0.977230  0.952390  0.709090  1.0  -0.8483
  O  O899  1  0.665650  0.473790  0.547550  1.0  -0.608
  O  O900  1  0.595310  0.568320  0.551970  1.0  -0.6169
  O  O901  1  0.277290  0.729970  0.513730  1.0  -0.5992
  O  O902  1  0.328200  0.716640  0.541570  1.0  -0.6049
  O  O903  1  0.683010  0.336800  0.543110  1.0  -0.6095
  O  O904  1  0.160680  0.104070  0.731210  1.0  -0.6366
  O  O905  1  0.078400  0.198610  0.735330  1.0  -0.6855
  O  O906  1  0.236750  0.123750  0.760590  1.0  -0.7278
  O  O907  1  0.967060  0.921260  0.214230  1.0  -0.8005
  O  O908  1  0.908670  0.876970  0.265900  1.0  -0.6551
  O  O909  1  0.949930  0.801500  0.196010  1.0  -0.6001
  O  O910  1  0.037970  0.018620  0.172670  1.0  -0.615
  O  O911  1  0.990650  0.893220  0.178030  1.0  -0.6465
  O  O912  1  0.648540  0.404890  0.055980  1.0  -0.6292
  O  O913  1  0.588000  0.502740  0.062400  1.0  -0.6018
  O  O914  1  0.089170  0.118780  0.182930  1.0  -0.5866
  O  O915  1  0.251780  0.657470  0.017230  1.0  -0.6118
  O  O916  1  0.022770  0.047610  0.209090  1.0  -0.8514
  O  O917  1  0.334350  0.526210  0.047550  1.0  -0.6075
  O  O918  1  0.404690  0.431680  0.051970  1.0  -0.6158
  O  O919  1  0.722710  0.270030  0.013730  1.0  -0.6003
  O  O920  1  0.671800  0.283360  0.041570  1.0  -0.6063
  O  O921  1  0.316990  0.663200  0.043110  1.0  -0.608
  O  O922  1  0.839320  0.895930  0.231210  1.0  -0.638
  O  O923  1  0.921600  0.801390  0.235330  1.0  -0.6891
  O  O924  1  0.763250  0.876250  0.260590  1.0  -0.7255
  O  O925  1  0.578740  0.467060  0.464230  1.0  -0.8011
  O  O926  1  0.623030  0.408670  0.515900  1.0  -0.658
  O  O927  1  0.698500  0.449930  0.446010  1.0  -0.5955
  O  O928  1  0.481380  0.537970  0.422670  1.0  -0.6146
  O  O929  1  0.606780  0.490650  0.428030  1.0  -0.647
  O  O930  1  0.095110  0.148540  0.305980  1.0  -0.6289
  O  O931  1  0.997260  0.088000  0.312400  1.0  -0.6011
  O  O932  1  0.381220  0.589170  0.432930  1.0  -0.5867
  O  O933  1  0.842530  0.751780  0.267230  1.0  -0.616
  O  O934  1  0.452390  0.522770  0.459090  1.0  -0.8525
  O  O935  1  0.973790  0.834350  0.297550  1.0  -0.6074
  O  O936  1  0.068320  0.904690  0.301970  1.0  -0.6134
  O  O937  1  0.229970  0.222710  0.263730  1.0  -0.5981
  O  O938  1  0.216640  0.171800  0.291570  1.0  -0.6018
  O  O939  1  0.836800  0.816990  0.293110  1.0  -0.6114
  O  O940  1  0.604070  0.339320  0.481210  1.0  -0.6373
  O  O941  1  0.698610  0.421600  0.485330  1.0  -0.6785
  O  O942  1  0.623750  0.263250  0.510590  1.0  -0.7287
  O  O943  1  0.421260  0.532940  0.964230  1.0  -0.801
  O  O944  1  0.376970  0.591330  0.015900  1.0  -0.6551
  O  O945  1  0.301500  0.550070  0.946010  1.0  -0.595
  O  O946  1  0.518620  0.462030  0.922670  1.0  -0.6137
  O  O947  1  0.393220  0.509350  0.928030  1.0  -0.6463
  O  O948  1  0.904890  0.851460  0.805980  1.0  -0.6297
  O  O949  1  0.002740  0.912000  0.812400  1.0  -0.6012
  O  O950  1  0.618780  0.410830  0.932930  1.0  -0.5861
  O  O951  1  0.157470  0.248220  0.767230  1.0  -0.6188
  O  O952  1  0.547610  0.477230  0.959090  1.0  -0.8476
  O  O953  1  0.026210  0.165650  0.797550  1.0  -0.6077
  O  O954  1  0.931680  0.095310  0.801970  1.0  -0.6143
  O  O955  1  0.770030  0.777290  0.763730  1.0  -0.5994
  O  O956  1  0.783360  0.828200  0.791570  1.0  -0.5993
  O  O957  1  0.163200  0.183010  0.793110  1.0  -0.6091
  O  O958  1  0.395930  0.660680  0.981210  1.0  -0.6372
  O  O959  1  0.301390  0.578400  0.985330  1.0  -0.6835
  O  O960  1  0.376250  0.736750  0.010590  1.0  -0.7259
