# generated using pymatgen
data_CoH28C46S4(N5O4)2
_symmetry_space_group_name_H-M   'P 1'
_cell_length_a   18.33080000
_cell_length_b   22.56750000
_cell_length_c   31.74350000
_cell_angle_alpha   90.00000000
_cell_angle_beta   90.00000000
_cell_angle_gamma   90.00000000
_symmetry_Int_Tables_number   1
_chemical_formula_structural   CoH28C46S4(N5O4)2
_chemical_formula_sum   'Co8 H224 C368 S32 N80 O64'
_cell_volume   13131.66152361
_cell_formula_units_Z   8
loop_
 _symmetry_equiv_pos_site_id
 _symmetry_equiv_pos_as_xyz
  1  'x, y, z'
loop_
 _atom_site_type_symbol
 _atom_site_label
 _atom_site_symmetry_multiplicity
 _atom_site_fract_x
 _atom_site_fract_y
 _atom_site_fract_z
 _atom_site_occupancy
 _atom_site_charge
  Co  Co1  1  0.375000  0.875000  0.375000  1.0  0.6206
  Co  Co2  1  0.375000  0.375000  0.875000  1.0  0.6206
  Co  Co3  1  0.875000  0.875000  0.875000  1.0  0.6206
  Co  Co4  1  0.875000  0.375000  0.375000  1.0  0.6206
  Co  Co5  1  0.625000  0.125000  0.625000  1.0  0.6206
  Co  Co6  1  0.625000  0.625000  0.125000  1.0  0.6206
  Co  Co7  1  0.125000  0.125000  0.125000  1.0  0.6206
  Co  Co8  1  0.125000  0.625000  0.625000  1.0  0.6206
  H  H9  1  0.280700  0.055400  0.294700  1.0  0.1278
  H  H10  1  0.287300  0.986800  0.347100  1.0  0.0827
  H  H11  1  0.314700  0.081700  0.220500  1.0  0.1281
  H  H12  1  0.384200  0.052200  0.200700  1.0  0.1086
  H  H13  1  0.455800  0.913500  0.294900  1.0  0.0694
  H  H14  1  0.453600  0.980200  0.241200  1.0  0.1191
  H  H15  1  0.608200  0.203700  0.225800  1.0  0.1092
  H  H16  1  0.280700  0.555400  0.794700  1.0  0.1278
  H  H17  1  0.287300  0.486800  0.847100  1.0  0.0827
  H  H18  1  0.314700  0.581700  0.720500  1.0  0.1281
  H  H19  1  0.384200  0.552200  0.700700  1.0  0.1086
  H  H20  1  0.455800  0.413500  0.794900  1.0  0.0694
  H  H21  1  0.453600  0.480200  0.741200  1.0  0.1191
  H  H22  1  0.608200  0.703700  0.725800  1.0  0.1092
  H  H23  1  0.780700  0.055400  0.794700  1.0  0.1278
  H  H24  1  0.787300  0.986800  0.847100  1.0  0.0827
  H  H25  1  0.814700  0.081700  0.720500  1.0  0.1281
  H  H26  1  0.884200  0.052200  0.700700  1.0  0.1086
  H  H27  1  0.955800  0.913500  0.794900  1.0  0.0694
  H  H28  1  0.953600  0.980200  0.741200  1.0  0.1191
  H  H29  1  0.108200  0.203700  0.725800  1.0  0.1092
  H  H30  1  0.780700  0.555400  0.294700  1.0  0.1278
  H  H31  1  0.787300  0.486800  0.347100  1.0  0.0827
  H  H32  1  0.814700  0.581700  0.220500  1.0  0.1281
  H  H33  1  0.884200  0.552200  0.200700  1.0  0.1086
  H  H34  1  0.955800  0.413500  0.294900  1.0  0.0694
  H  H35  1  0.953600  0.480200  0.241200  1.0  0.1191
  H  H36  1  0.108200  0.703700  0.225800  1.0  0.1092
  H  H37  1  0.469300  0.694600  0.294700  1.0  0.1275
  H  H38  1  0.462700  0.763200  0.347100  1.0  0.0831
  H  H39  1  0.435300  0.668300  0.220500  1.0  0.1279
  H  H40  1  0.365800  0.697800  0.200700  1.0  0.108
  H  H41  1  0.294200  0.836500  0.294900  1.0  0.0695
  H  H42  1  0.296400  0.769800  0.241200  1.0  0.1192
  H  H43  1  0.141800  0.546300  0.225800  1.0  0.109
  H  H44  1  0.469300  0.194600  0.794700  1.0  0.1275
  H  H45  1  0.462700  0.263200  0.847100  1.0  0.0831
  H  H46  1  0.435300  0.168300  0.720500  1.0  0.1279
  H  H47  1  0.365800  0.197800  0.700700  1.0  0.108
  H  H48  1  0.294200  0.336500  0.794900  1.0  0.0695
  H  H49  1  0.296400  0.269800  0.741200  1.0  0.1192
  H  H50  1  0.141800  0.046300  0.725800  1.0  0.109
  H  H51  1  0.969300  0.694600  0.794700  1.0  0.1275
  H  H52  1  0.962700  0.763200  0.847100  1.0  0.0831
  H  H53  1  0.935300  0.668300  0.720500  1.0  0.1279
  H  H54  1  0.865800  0.697800  0.700700  1.0  0.108
  H  H55  1  0.794200  0.836500  0.794900  1.0  0.0695
  H  H56  1  0.796400  0.769800  0.741200  1.0  0.1192
  H  H57  1  0.641800  0.546300  0.725800  1.0  0.109
  H  H58  1  0.969300  0.194600  0.294700  1.0  0.1275
  H  H59  1  0.962700  0.263200  0.347100  1.0  0.0831
  H  H60  1  0.935300  0.168300  0.220500  1.0  0.1279
  H  H61  1  0.865800  0.197800  0.200700  1.0  0.108
  H  H62  1  0.794200  0.336500  0.294900  1.0  0.0695
  H  H63  1  0.796400  0.269800  0.241200  1.0  0.1192
  H  H64  1  0.641800  0.046300  0.225800  1.0  0.109
  H  H65  1  0.469300  0.055400  0.455300  1.0  0.1279
  H  H66  1  0.462700  0.986800  0.402900  1.0  0.083
  H  H67  1  0.435300  0.081700  0.529500  1.0  0.1284
  H  H68  1  0.365800  0.052200  0.549300  1.0  0.1099
  H  H69  1  0.294200  0.913500  0.455100  1.0  0.07
  H  H70  1  0.296400  0.980200  0.508800  1.0  0.1193
  H  H71  1  0.141800  0.203700  0.524200  1.0  0.1094
  H  H72  1  0.469300  0.555400  0.955300  1.0  0.1279
  H  H73  1  0.462700  0.486800  0.902900  1.0  0.083
  H  H74  1  0.435300  0.581700  0.029500  1.0  0.1284
  H  H75  1  0.365800  0.552200  0.049300  1.0  0.1099
  H  H76  1  0.294200  0.413500  0.955100  1.0  0.07
  H  H77  1  0.296400  0.480200  0.008800  1.0  0.1193
  H  H78  1  0.141800  0.703700  0.024200  1.0  0.1094
  H  H79  1  0.969300  0.055400  0.955300  1.0  0.1279
  H  H80  1  0.962700  0.986800  0.902900  1.0  0.083
  H  H81  1  0.935300  0.081700  0.029500  1.0  0.1284
  H  H82  1  0.865800  0.052200  0.049300  1.0  0.1099
  H  H83  1  0.794200  0.913500  0.955100  1.0  0.07
  H  H84  1  0.796400  0.980200  0.008800  1.0  0.1193
  H  H85  1  0.641800  0.203700  0.024200  1.0  0.1094
  H  H86  1  0.969300  0.555400  0.455300  1.0  0.1279
  H  H87  1  0.962700  0.486800  0.402900  1.0  0.083
  H  H88  1  0.935300  0.581700  0.529500  1.0  0.1284
  H  H89  1  0.865800  0.552200  0.549300  1.0  0.1099
  H  H90  1  0.794200  0.413500  0.455100  1.0  0.07
  H  H91  1  0.796400  0.480200  0.508800  1.0  0.1193
  H  H92  1  0.641800  0.703700  0.524200  1.0  0.1094
  H  H93  1  0.280700  0.694600  0.455300  1.0  0.1274
  H  H94  1  0.287300  0.763200  0.402900  1.0  0.0825
  H  H95  1  0.314700  0.668300  0.529500  1.0  0.1273
  H  H96  1  0.384200  0.697800  0.549300  1.0  0.1099
  H  H97  1  0.455800  0.836500  0.455100  1.0  0.0691
  H  H98  1  0.453600  0.769800  0.508800  1.0  0.1192
  H  H99  1  0.608200  0.546300  0.524200  1.0  0.1088
  H  H100  1  0.280700  0.194600  0.955300  1.0  0.1274
  H  H101  1  0.287300  0.263200  0.902900  1.0  0.0825
  H  H102  1  0.314700  0.168300  0.029500  1.0  0.1273
  H  H103  1  0.384200  0.197800  0.049300  1.0  0.1099
  H  H104  1  0.455800  0.336500  0.955100  1.0  0.0691
  H  H105  1  0.453600  0.269800  0.008800  1.0  0.1192
  H  H106  1  0.608200  0.046300  0.024200  1.0  0.1088
  H  H107  1  0.780700  0.694600  0.955300  1.0  0.1274
  H  H108  1  0.787300  0.763200  0.902900  1.0  0.0825
  H  H109  1  0.814700  0.668300  0.029500  1.0  0.1273
  H  H110  1  0.884200  0.697800  0.049300  1.0  0.1099
  H  H111  1  0.955800  0.836500  0.955100  1.0  0.0691
  H  H112  1  0.953600  0.769800  0.008800  1.0  0.1192
  H  H113  1  0.108200  0.546300  0.024200  1.0  0.1088
  H  H114  1  0.780700  0.194600  0.455300  1.0  0.1274
  H  H115  1  0.787300  0.263200  0.402900  1.0  0.0825
  H  H116  1  0.814700  0.168300  0.529500  1.0  0.1273
  H  H117  1  0.884200  0.197800  0.549300  1.0  0.1099
  H  H118  1  0.955800  0.336500  0.455100  1.0  0.0691
  H  H119  1  0.953600  0.269800  0.508800  1.0  0.1192
  H  H120  1  0.108200  0.046300  0.524200  1.0  0.1088
  H  H121  1  0.719300  0.944600  0.705300  1.0  0.1275
  H  H122  1  0.712700  0.013200  0.652900  1.0  0.0829
  H  H123  1  0.685300  0.918300  0.779500  1.0  0.1283
  H  H124  1  0.615800  0.947800  0.799300  1.0  0.1098
  H  H125  1  0.544200  0.086500  0.705100  1.0  0.07
  H  H126  1  0.546400  0.019800  0.758800  1.0  0.1194
  H  H127  1  0.391800  0.796300  0.774200  1.0  0.109
  H  H128  1  0.719300  0.444600  0.205300  1.0  0.1275
  H  H129  1  0.712700  0.513200  0.152900  1.0  0.0829
  H  H130  1  0.685300  0.418300  0.279500  1.0  0.1283
  H  H131  1  0.615800  0.447800  0.299300  1.0  0.1098
  H  H132  1  0.544200  0.586500  0.205100  1.0  0.07
  H  H133  1  0.546400  0.519800  0.258800  1.0  0.1194
  H  H134  1  0.391800  0.296300  0.274200  1.0  0.109
  H  H135  1  0.219300  0.944600  0.205300  1.0  0.1275
  H  H136  1  0.212700  0.013200  0.152900  1.0  0.0829
  H  H137  1  0.185300  0.918300  0.279500  1.0  0.1283
  H  H138  1  0.115800  0.947800  0.299300  1.0  0.1098
  H  H139  1  0.044200  0.086500  0.205100  1.0  0.07
  H  H140  1  0.046400  0.019800  0.258800  1.0  0.1194
  H  H141  1  0.891800  0.796300  0.274200  1.0  0.109
  H  H142  1  0.219300  0.444600  0.705300  1.0  0.1275
  H  H143  1  0.212700  0.513200  0.652900  1.0  0.0829
  H  H144  1  0.185300  0.418300  0.779500  1.0  0.1283
  H  H145  1  0.115800  0.447800  0.799300  1.0  0.1098
  H  H146  1  0.044200  0.586500  0.705100  1.0  0.07
  H  H147  1  0.046400  0.519800  0.758800  1.0  0.1194
  H  H148  1  0.891800  0.296300  0.774200  1.0  0.109
  H  H149  1  0.530700  0.305400  0.705300  1.0  0.1283
  H  H150  1  0.537300  0.236800  0.652900  1.0  0.0827
  H  H151  1  0.564700  0.331700  0.779500  1.0  0.1277
  H  H152  1  0.634200  0.302200  0.799300  1.0  0.1098
  H  H153  1  0.705800  0.163500  0.705100  1.0  0.0697
  H  H154  1  0.703600  0.230200  0.758800  1.0  0.1196
  H  H155  1  0.858200  0.453700  0.774200  1.0  0.1091
  H  H156  1  0.530700  0.805400  0.205300  1.0  0.1283
  H  H157  1  0.537300  0.736800  0.152900  1.0  0.0827
  H  H158  1  0.564700  0.831700  0.279500  1.0  0.1277
  H  H159  1  0.634200  0.802200  0.299300  1.0  0.1098
  H  H160  1  0.705800  0.663500  0.205100  1.0  0.0697
  H  H161  1  0.703600  0.730200  0.258800  1.0  0.1196
  H  H162  1  0.858200  0.953700  0.274200  1.0  0.1091
  H  H163  1  0.030700  0.305400  0.205300  1.0  0.1283
  H  H164  1  0.037300  0.236800  0.152900  1.0  0.0827
  H  H165  1  0.064700  0.331700  0.279500  1.0  0.1277
  H  H166  1  0.134200  0.302200  0.299300  1.0  0.1098
  H  H167  1  0.205800  0.163500  0.205100  1.0  0.0697
  H  H168  1  0.203600  0.230200  0.258800  1.0  0.1196
  H  H169  1  0.358200  0.453700  0.274200  1.0  0.1091
  H  H170  1  0.030700  0.805400  0.705300  1.0  0.1283
  H  H171  1  0.037300  0.736800  0.652900  1.0  0.0827
  H  H172  1  0.064700  0.831700  0.779500  1.0  0.1277
  H  H173  1  0.134200  0.802200  0.799300  1.0  0.1098
  H  H174  1  0.205800  0.663500  0.705100  1.0  0.0697
  H  H175  1  0.203600  0.730200  0.758800  1.0  0.1196
  H  H176  1  0.358200  0.953700  0.774200  1.0  0.1091
  H  H177  1  0.530700  0.944600  0.544700  1.0  0.1276
  H  H178  1  0.537300  0.013200  0.597100  1.0  0.0829
  H  H179  1  0.564700  0.918300  0.470500  1.0  0.1276
  H  H180  1  0.634200  0.947800  0.450700  1.0  0.1084
  H  H181  1  0.705800  0.086500  0.544900  1.0  0.0689
  H  H182  1  0.703600  0.019800  0.491200  1.0  0.1193
  H  H183  1  0.858200  0.796300  0.475800  1.0  0.1092
  H  H184  1  0.530700  0.444600  0.044700  1.0  0.1276
  H  H185  1  0.537300  0.513200  0.097100  1.0  0.0829
  H  H186  1  0.564700  0.418300  0.970500  1.0  0.1276
  H  H187  1  0.634200  0.447800  0.950700  1.0  0.1084
  H  H188  1  0.705800  0.586500  0.044900  1.0  0.0689
  H  H189  1  0.703600  0.519800  0.991200  1.0  0.1193
  H  H190  1  0.858200  0.296300  0.975800  1.0  0.1092
  H  H191  1  0.030700  0.944600  0.044700  1.0  0.1276
  H  H192  1  0.037300  0.013200  0.097100  1.0  0.0829
  H  H193  1  0.064700  0.918300  0.970500  1.0  0.1276
  H  H194  1  0.134200  0.947800  0.950700  1.0  0.1084
  H  H195  1  0.205800  0.086500  0.044900  1.0  0.0689
  H  H196  1  0.203600  0.019800  0.991200  1.0  0.1193
  H  H197  1  0.358200  0.796300  0.975800  1.0  0.1092
  H  H198  1  0.030700  0.444600  0.544700  1.0  0.1276
  H  H199  1  0.037300  0.513200  0.597100  1.0  0.0829
  H  H200  1  0.064700  0.418300  0.470500  1.0  0.1276
  H  H201  1  0.134200  0.447800  0.450700  1.0  0.1084
  H  H202  1  0.205800  0.586500  0.544900  1.0  0.0689
  H  H203  1  0.203600  0.519800  0.491200  1.0  0.1193
  H  H204  1  0.358200  0.296300  0.475800  1.0  0.1092
  H  H205  1  0.719300  0.305400  0.544700  1.0  0.1274
  H  H206  1  0.712700  0.236800  0.597100  1.0  0.0831
  H  H207  1  0.685300  0.331700  0.470500  1.0  0.1281
  H  H208  1  0.615800  0.302200  0.450700  1.0  0.1082
  H  H209  1  0.544200  0.163500  0.544900  1.0  0.0696
  H  H210  1  0.546400  0.230200  0.491200  1.0  0.1193
  H  H211  1  0.391800  0.453700  0.475800  1.0  0.1092
  H  H212  1  0.719300  0.805400  0.044700  1.0  0.1274
  H  H213  1  0.712700  0.736800  0.097100  1.0  0.0831
  H  H214  1  0.685300  0.831700  0.970500  1.0  0.1281
  H  H215  1  0.615800  0.802200  0.950700  1.0  0.1082
  H  H216  1  0.544200  0.663500  0.044900  1.0  0.0696
  H  H217  1  0.546400  0.730200  0.991200  1.0  0.1193
  H  H218  1  0.391800  0.953700  0.975800  1.0  0.1092
  H  H219  1  0.219300  0.305400  0.044700  1.0  0.1274
  H  H220  1  0.212700  0.236800  0.097100  1.0  0.0831
  H  H221  1  0.185300  0.331700  0.970500  1.0  0.1281
  H  H222  1  0.115800  0.302200  0.950700  1.0  0.1082
  H  H223  1  0.044200  0.163500  0.044900  1.0  0.0696
  H  H224  1  0.046400  0.230200  0.991200  1.0  0.1193
  H  H225  1  0.891800  0.453700  0.975800  1.0  0.1092
  H  H226  1  0.219300  0.805400  0.544700  1.0  0.1274
  H  H227  1  0.212700  0.736800  0.597100  1.0  0.0831
  H  H228  1  0.185300  0.831700  0.470500  1.0  0.1281
  H  H229  1  0.115800  0.802200  0.450700  1.0  0.1082
  H  H230  1  0.044200  0.663500  0.544900  1.0  0.0696
  H  H231  1  0.046400  0.730200  0.491200  1.0  0.1193
  H  H232  1  0.891800  0.953700  0.475800  1.0  0.1092
  C  C233  1  0.317100  0.026680  0.294030  1.0  -0.2019
  C  C234  1  0.321400  0.985390  0.325500  1.0  0.1635
  C  C235  1  0.499400  0.191860  0.238310  1.0  -0.0779
  C  C236  1  0.366400  0.025890  0.261300  1.0  0.1152
  C  C237  1  0.481600  0.129700  0.227380  1.0  0.4284
  C  C238  1  0.364900  0.070400  0.226060  1.0  -0.1086
  C  C239  1  0.436400  0.219690  0.252430  1.0  -0.1031
  C  C240  1  0.419900  0.942570  0.295030  1.0  0.1777
  C  C241  1  0.418800  0.982500  0.262450  1.0  -0.2016
  C  C242  1  0.565700  0.221820  0.235320  1.0  -0.0782
  C  C243  1  0.377400  0.174820  0.251440  1.0  0.5939
  C  C244  1  0.317100  0.526680  0.794030  1.0  -0.2019
  C  C245  1  0.321400  0.485390  0.825500  1.0  0.1635
  C  C246  1  0.499400  0.691860  0.738310  1.0  -0.0779
  C  C247  1  0.366400  0.525890  0.761300  1.0  0.1152
  C  C248  1  0.481600  0.629700  0.727380  1.0  0.4284
  C  C249  1  0.364900  0.570400  0.726060  1.0  -0.1086
  C  C250  1  0.436400  0.719690  0.752430  1.0  -0.1031
  C  C251  1  0.419900  0.442570  0.795030  1.0  0.1777
  C  C252  1  0.418800  0.482500  0.762450  1.0  -0.2016
  C  C253  1  0.565700  0.721820  0.735320  1.0  -0.0782
  C  C254  1  0.377400  0.674820  0.751440  1.0  0.5939
  C  C255  1  0.817100  0.026680  0.794030  1.0  -0.2019
  C  C256  1  0.821400  0.985390  0.825500  1.0  0.1635
  C  C257  1  0.999400  0.191860  0.738310  1.0  -0.0779
  C  C258  1  0.866400  0.025890  0.761300  1.0  0.1152
  C  C259  1  0.981600  0.129700  0.727380  1.0  0.4284
  C  C260  1  0.864900  0.070400  0.726060  1.0  -0.1086
  C  C261  1  0.936400  0.219690  0.752430  1.0  -0.1031
  C  C262  1  0.919900  0.942570  0.795030  1.0  0.1777
  C  C263  1  0.918800  0.982500  0.762450  1.0  -0.2016
  C  C264  1  0.065700  0.221820  0.735320  1.0  -0.0782
  C  C265  1  0.877400  0.174820  0.751440  1.0  0.5939
  C  C266  1  0.817100  0.526680  0.294030  1.0  -0.2019
  C  C267  1  0.821400  0.485390  0.325500  1.0  0.1635
  C  C268  1  0.999400  0.691860  0.238310  1.0  -0.0779
  C  C269  1  0.866400  0.525890  0.261300  1.0  0.1152
  C  C270  1  0.981600  0.629700  0.227380  1.0  0.4284
  C  C271  1  0.864900  0.570400  0.226060  1.0  -0.1086
  C  C272  1  0.936400  0.719690  0.252430  1.0  -0.1031
  C  C273  1  0.919900  0.442570  0.295030  1.0  0.1777
  C  C274  1  0.918800  0.482500  0.262450  1.0  -0.2016
  C  C275  1  0.065700  0.721820  0.235320  1.0  -0.0782
  C  C276  1  0.877400  0.674820  0.251440  1.0  0.5939
  C  C277  1  0.432900  0.723320  0.294030  1.0  -0.1988
  C  C278  1  0.428600  0.764610  0.325500  1.0  0.1644
  C  C279  1  0.250600  0.558140  0.238310  1.0  -0.0771
  C  C280  1  0.383600  0.724110  0.261300  1.0  0.1151
  C  C281  1  0.268400  0.620300  0.227380  1.0  0.4284
  C  C282  1  0.385100  0.679600  0.226060  1.0  -0.1084
  C  C283  1  0.313600  0.530310  0.252430  1.0  -0.1031
  C  C284  1  0.330100  0.807430  0.295030  1.0  0.177
  C  C285  1  0.331200  0.767500  0.262450  1.0  -0.202
  C  C286  1  0.184300  0.528180  0.235320  1.0  -0.0779
  C  C287  1  0.372600  0.575180  0.251440  1.0  0.596
  C  C288  1  0.432900  0.223320  0.794030  1.0  -0.1988
  C  C289  1  0.428600  0.264610  0.825500  1.0  0.1644
  C  C290  1  0.250600  0.058140  0.738310  1.0  -0.0771
  C  C291  1  0.383600  0.224110  0.761300  1.0  0.1151
  C  C292  1  0.268400  0.120300  0.727380  1.0  0.4284
  C  C293  1  0.385100  0.179600  0.726060  1.0  -0.1084
  C  C294  1  0.313600  0.030310  0.752430  1.0  -0.1031
  C  C295  1  0.330100  0.307430  0.795030  1.0  0.177
  C  C296  1  0.331200  0.267500  0.762450  1.0  -0.202
  C  C297  1  0.184300  0.028180  0.735320  1.0  -0.0779
  C  C298  1  0.372600  0.075180  0.751440  1.0  0.596
  C  C299  1  0.932900  0.723320  0.794030  1.0  -0.1988
  C  C300  1  0.928600  0.764610  0.825500  1.0  0.1644
  C  C301  1  0.750600  0.558140  0.738310  1.0  -0.0771
  C  C302  1  0.883600  0.724110  0.761300  1.0  0.1151
  C  C303  1  0.768400  0.620300  0.727380  1.0  0.4284
  C  C304  1  0.885100  0.679600  0.726060  1.0  -0.1084
  C  C305  1  0.813600  0.530310  0.752430  1.0  -0.1031
  C  C306  1  0.830100  0.807430  0.795030  1.0  0.177
  C  C307  1  0.831200  0.767500  0.762450  1.0  -0.202
  C  C308  1  0.684300  0.528180  0.735320  1.0  -0.0779
  C  C309  1  0.872600  0.575180  0.751440  1.0  0.596
  C  C310  1  0.932900  0.223320  0.294030  1.0  -0.1988
  C  C311  1  0.928600  0.264610  0.325500  1.0  0.1644
  C  C312  1  0.750600  0.058140  0.238310  1.0  -0.0771
  C  C313  1  0.883600  0.224110  0.261300  1.0  0.1151
  C  C314  1  0.768400  0.120300  0.227380  1.0  0.4284
  C  C315  1  0.885100  0.179600  0.226060  1.0  -0.1084
  C  C316  1  0.813600  0.030310  0.252430  1.0  -0.1031
  C  C317  1  0.830100  0.307430  0.295030  1.0  0.177
  C  C318  1  0.831200  0.267500  0.262450  1.0  -0.202
  C  C319  1  0.684300  0.028180  0.235320  1.0  -0.0779
  C  C320  1  0.872600  0.075180  0.251440  1.0  0.596
  C  C321  1  0.432900  0.026680  0.455970  1.0  -0.2003
  C  C322  1  0.428600  0.985390  0.424500  1.0  0.1643
  C  C323  1  0.250600  0.191860  0.511690  1.0  -0.0769
  C  C324  1  0.383600  0.025890  0.488700  1.0  0.1154
  C  C325  1  0.268400  0.129700  0.522620  1.0  0.4278
  C  C326  1  0.385100  0.070400  0.523940  1.0  -0.111
  C  C327  1  0.313600  0.219690  0.497570  1.0  -0.1029
  C  C328  1  0.330100  0.942570  0.454970  1.0  0.1776
  C  C329  1  0.331200  0.982500  0.487550  1.0  -0.202
  C  C330  1  0.184300  0.221820  0.514680  1.0  -0.077
  C  C331  1  0.372600  0.174820  0.498560  1.0  0.5954
  C  C332  1  0.432900  0.526680  0.955970  1.0  -0.2003
  C  C333  1  0.428600  0.485390  0.924500  1.0  0.1643
  C  C334  1  0.250600  0.691860  0.011690  1.0  -0.0769
  C  C335  1  0.383600  0.525890  0.988700  1.0  0.1154
  C  C336  1  0.268400  0.629700  0.022620  1.0  0.4278
  C  C337  1  0.385100  0.570400  0.023940  1.0  -0.111
  C  C338  1  0.313600  0.719690  0.997570  1.0  -0.1029
  C  C339  1  0.330100  0.442570  0.954970  1.0  0.1776
  C  C340  1  0.331200  0.482500  0.987550  1.0  -0.202
  C  C341  1  0.184300  0.721820  0.014680  1.0  -0.077
  C  C342  1  0.372600  0.674820  0.998560  1.0  0.5954
  C  C343  1  0.932900  0.026680  0.955970  1.0  -0.2003
  C  C344  1  0.928600  0.985390  0.924500  1.0  0.1643
  C  C345  1  0.750600  0.191860  0.011690  1.0  -0.0769
  C  C346  1  0.883600  0.025890  0.988700  1.0  0.1154
  C  C347  1  0.768400  0.129700  0.022620  1.0  0.4278
  C  C348  1  0.885100  0.070400  0.023940  1.0  -0.111
  C  C349  1  0.813600  0.219690  0.997570  1.0  -0.1029
  C  C350  1  0.830100  0.942570  0.954970  1.0  0.1776
  C  C351  1  0.831200  0.982500  0.987550  1.0  -0.202
  C  C352  1  0.684300  0.221820  0.014680  1.0  -0.077
  C  C353  1  0.872600  0.174820  0.998560  1.0  0.5954
  C  C354  1  0.932900  0.526680  0.455970  1.0  -0.2003
  C  C355  1  0.928600  0.485390  0.424500  1.0  0.1643
  C  C356  1  0.750600  0.691860  0.511690  1.0  -0.0769
  C  C357  1  0.883600  0.525890  0.488700  1.0  0.1154
  C  C358  1  0.768400  0.629700  0.522620  1.0  0.4278
  C  C359  1  0.885100  0.570400  0.523940  1.0  -0.111
  C  C360  1  0.813600  0.719690  0.497570  1.0  -0.1029
  C  C361  1  0.830100  0.442570  0.454970  1.0  0.1776
  C  C362  1  0.831200  0.482500  0.487550  1.0  -0.202
  C  C363  1  0.684300  0.721820  0.514680  1.0  -0.077
  C  C364  1  0.872600  0.674820  0.498560  1.0  0.5954
  C  C365  1  0.317100  0.723320  0.455970  1.0  -0.2017
  C  C366  1  0.321400  0.764610  0.424500  1.0  0.1642
  C  C367  1  0.499400  0.558140  0.511690  1.0  -0.0778
  C  C368  1  0.366400  0.724110  0.488700  1.0  0.1156
  C  C369  1  0.481600  0.620300  0.522620  1.0  0.4291
  C  C370  1  0.364900  0.679600  0.523940  1.0  -0.1109
  C  C371  1  0.436400  0.530310  0.497570  1.0  -0.1034
  C  C372  1  0.419900  0.807430  0.454970  1.0  0.1774
  C  C373  1  0.418800  0.767500  0.487550  1.0  -0.2034
  C  C374  1  0.565700  0.528180  0.514680  1.0  -0.0766
  C  C375  1  0.377400  0.575180  0.498560  1.0  0.5962
  C  C376  1  0.317100  0.223320  0.955970  1.0  -0.2017
  C  C377  1  0.321400  0.264610  0.924500  1.0  0.1642
  C  C378  1  0.499400  0.058140  0.011690  1.0  -0.0778
  C  C379  1  0.366400  0.224110  0.988700  1.0  0.1156
  C  C380  1  0.481600  0.120300  0.022620  1.0  0.4291
  C  C381  1  0.364900  0.179600  0.023940  1.0  -0.1109
  C  C382  1  0.436400  0.030310  0.997570  1.0  -0.1034
  C  C383  1  0.419900  0.307430  0.954970  1.0  0.1774
  C  C384  1  0.418800  0.267500  0.987550  1.0  -0.2034
  C  C385  1  0.565700  0.028180  0.014680  1.0  -0.0766
  C  C386  1  0.377400  0.075180  0.998560  1.0  0.5962
  C  C387  1  0.817100  0.723320  0.955970  1.0  -0.2017
  C  C388  1  0.821400  0.764610  0.924500  1.0  0.1642
  C  C389  1  0.999400  0.558140  0.011690  1.0  -0.0778
  C  C390  1  0.866400  0.724110  0.988700  1.0  0.1156
  C  C391  1  0.981600  0.620300  0.022620  1.0  0.4291
  C  C392  1  0.864900  0.679600  0.023940  1.0  -0.1109
  C  C393  1  0.936400  0.530310  0.997570  1.0  -0.1034
  C  C394  1  0.919900  0.807430  0.954970  1.0  0.1774
  C  C395  1  0.918800  0.767500  0.987550  1.0  -0.2034
  C  C396  1  0.065700  0.528180  0.014680  1.0  -0.0766
  C  C397  1  0.877400  0.575180  0.998560  1.0  0.5962
  C  C398  1  0.817100  0.223320  0.455970  1.0  -0.2017
  C  C399  1  0.821400  0.264610  0.424500  1.0  0.1642
  C  C400  1  0.999400  0.058140  0.511690  1.0  -0.0778
  C  C401  1  0.866400  0.224110  0.488700  1.0  0.1156
  C  C402  1  0.981600  0.120300  0.522620  1.0  0.4291
  C  C403  1  0.864900  0.179600  0.523940  1.0  -0.1109
  C  C404  1  0.936400  0.030310  0.497570  1.0  -0.1034
  C  C405  1  0.919900  0.307430  0.454970  1.0  0.1774
  C  C406  1  0.918800  0.267500  0.487550  1.0  -0.2034
  C  C407  1  0.065700  0.028180  0.514680  1.0  -0.0766
  C  C408  1  0.877400  0.075180  0.498560  1.0  0.5962
  C  C409  1  0.682900  0.973320  0.705970  1.0  -0.2005
  C  C410  1  0.678600  0.014610  0.674500  1.0  0.1642
  C  C411  1  0.500600  0.808140  0.761690  1.0  -0.0769
  C  C412  1  0.633600  0.974110  0.738700  1.0  0.1154
  C  C413  1  0.518400  0.870300  0.772620  1.0  0.4286
  C  C414  1  0.635100  0.929600  0.773940  1.0  -0.1111
  C  C415  1  0.563600  0.780310  0.747570  1.0  -0.1029
  C  C416  1  0.580100  0.057430  0.704970  1.0  0.1771
  C  C417  1  0.581200  0.017500  0.737550  1.0  -0.2027
  C  C418  1  0.434300  0.778180  0.764680  1.0  -0.0775
  C  C419  1  0.622600  0.825180  0.748560  1.0  0.5977
  C  C420  1  0.682900  0.473320  0.205970  1.0  -0.2005
  C  C421  1  0.678600  0.514610  0.174500  1.0  0.1642
  C  C422  1  0.500600  0.308140  0.261690  1.0  -0.0769
  C  C423  1  0.633600  0.474110  0.238700  1.0  0.1154
  C  C424  1  0.518400  0.370300  0.272620  1.0  0.4286
  C  C425  1  0.635100  0.429600  0.273940  1.0  -0.1111
  C  C426  1  0.563600  0.280310  0.247570  1.0  -0.1029
  C  C427  1  0.580100  0.557430  0.204970  1.0  0.1771
  C  C428  1  0.581200  0.517500  0.237550  1.0  -0.2027
  C  C429  1  0.434300  0.278180  0.264680  1.0  -0.0775
  C  C430  1  0.622600  0.325180  0.248560  1.0  0.5977
  C  C431  1  0.182900  0.973320  0.205970  1.0  -0.2005
  C  C432  1  0.178600  0.014610  0.174500  1.0  0.1642
  C  C433  1  0.000600  0.808140  0.261690  1.0  -0.0769
  C  C434  1  0.133600  0.974110  0.238700  1.0  0.1154
  C  C435  1  0.018400  0.870300  0.272620  1.0  0.4286
  C  C436  1  0.135100  0.929600  0.273940  1.0  -0.1111
  C  C437  1  0.063600  0.780310  0.247570  1.0  -0.1029
  C  C438  1  0.080100  0.057430  0.204970  1.0  0.1771
  C  C439  1  0.081200  0.017500  0.237550  1.0  -0.2027
  C  C440  1  0.934300  0.778180  0.264680  1.0  -0.0775
  C  C441  1  0.122600  0.825180  0.248560  1.0  0.5977
  C  C442  1  0.182900  0.473320  0.705970  1.0  -0.2005
  C  C443  1  0.178600  0.514610  0.674500  1.0  0.1642
  C  C444  1  0.000600  0.308140  0.761690  1.0  -0.0769
  C  C445  1  0.133600  0.474110  0.738700  1.0  0.1154
  C  C446  1  0.018400  0.370300  0.772620  1.0  0.4286
  C  C447  1  0.135100  0.429600  0.773940  1.0  -0.1111
  C  C448  1  0.063600  0.280310  0.747570  1.0  -0.1029
  C  C449  1  0.080100  0.557430  0.704970  1.0  0.1771
  C  C450  1  0.081200  0.517500  0.737550  1.0  -0.2027
  C  C451  1  0.934300  0.278180  0.764680  1.0  -0.0775
  C  C452  1  0.122600  0.325180  0.748560  1.0  0.5977
  C  C453  1  0.567100  0.276680  0.705970  1.0  -0.2023
  C  C454  1  0.571400  0.235390  0.674500  1.0  0.1643
  C  C455  1  0.749400  0.441860  0.761690  1.0  -0.0775
  C  C456  1  0.616400  0.275890  0.738700  1.0  0.1155
  C  C457  1  0.731600  0.379700  0.772620  1.0  0.4284
  C  C458  1  0.614900  0.320400  0.773940  1.0  -0.111
  C  C459  1  0.686400  0.469690  0.747570  1.0  -0.1032
  C  C460  1  0.669900  0.192570  0.704970  1.0  0.1776
  C  C461  1  0.668800  0.232500  0.737550  1.0  -0.2029
  C  C462  1  0.815700  0.471820  0.764680  1.0  -0.0769
  C  C463  1  0.627400  0.424820  0.748560  1.0  0.5972
  C  C464  1  0.567100  0.776680  0.205970  1.0  -0.2023
  C  C465  1  0.571400  0.735390  0.174500  1.0  0.1643
  C  C466  1  0.749400  0.941860  0.261690  1.0  -0.0775
  C  C467  1  0.616400  0.775890  0.238700  1.0  0.1155
  C  C468  1  0.731600  0.879700  0.272620  1.0  0.4284
  C  C469  1  0.614900  0.820400  0.273940  1.0  -0.111
  C  C470  1  0.686400  0.969690  0.247570  1.0  -0.1032
  C  C471  1  0.669900  0.692570  0.204970  1.0  0.1776
  C  C472  1  0.668800  0.732500  0.237550  1.0  -0.2029
  C  C473  1  0.815700  0.971820  0.264680  1.0  -0.0769
  C  C474  1  0.627400  0.924820  0.248560  1.0  0.5972
  C  C475  1  0.067100  0.276680  0.205970  1.0  -0.2023
  C  C476  1  0.071400  0.235390  0.174500  1.0  0.1643
  C  C477  1  0.249400  0.441860  0.261690  1.0  -0.0775
  C  C478  1  0.116400  0.275890  0.238700  1.0  0.1155
  C  C479  1  0.231600  0.379700  0.272620  1.0  0.4284
  C  C480  1  0.114900  0.320400  0.273940  1.0  -0.111
  C  C481  1  0.186400  0.469690  0.247570  1.0  -0.1032
  C  C482  1  0.169900  0.192570  0.204970  1.0  0.1776
  C  C483  1  0.168800  0.232500  0.237550  1.0  -0.2029
  C  C484  1  0.315700  0.471820  0.264680  1.0  -0.0769
  C  C485  1  0.127400  0.424820  0.248560  1.0  0.5972
  C  C486  1  0.067100  0.776680  0.705970  1.0  -0.2023
  C  C487  1  0.071400  0.735390  0.674500  1.0  0.1643
  C  C488  1  0.249400  0.941860  0.761690  1.0  -0.0775
  C  C489  1  0.116400  0.775890  0.738700  1.0  0.1155
  C  C490  1  0.231600  0.879700  0.772620  1.0  0.4284
  C  C491  1  0.114900  0.820400  0.773940  1.0  -0.111
  C  C492  1  0.186400  0.969690  0.747570  1.0  -0.1032
  C  C493  1  0.169900  0.692570  0.704970  1.0  0.1776
  C  C494  1  0.168800  0.732500  0.737550  1.0  -0.2029
  C  C495  1  0.315700  0.971820  0.764680  1.0  -0.0769
  C  C496  1  0.127400  0.924820  0.748560  1.0  0.5972
  C  C497  1  0.567100  0.973320  0.544030  1.0  -0.2006
  C  C498  1  0.571400  0.014610  0.575500  1.0  0.1643
  C  C499  1  0.749400  0.808140  0.488310  1.0  -0.078
  C  C500  1  0.616400  0.974110  0.511300  1.0  0.1152
  C  C501  1  0.731600  0.870300  0.477380  1.0  0.4291
  C  C502  1  0.614900  0.929600  0.476060  1.0  -0.1086
  C  C503  1  0.686400  0.780310  0.502430  1.0  -0.1034
  C  C504  1  0.669900  0.057430  0.545030  1.0  0.1774
  C  C505  1  0.668800  0.017500  0.512450  1.0  -0.2023
  C  C506  1  0.815700  0.778180  0.485320  1.0  -0.0772
  C  C507  1  0.627400  0.825180  0.501440  1.0  0.5972
  C  C508  1  0.567100  0.473320  0.044030  1.0  -0.2006
  C  C509  1  0.571400  0.514610  0.075500  1.0  0.1643
  C  C510  1  0.749400  0.308140  0.988310  1.0  -0.078
  C  C511  1  0.616400  0.474110  0.011300  1.0  0.1152
  C  C512  1  0.731600  0.370300  0.977380  1.0  0.4291
  C  C513  1  0.614900  0.429600  0.976060  1.0  -0.1086
  C  C514  1  0.686400  0.280310  0.002430  1.0  -0.1034
  C  C515  1  0.669900  0.557430  0.045030  1.0  0.1774
  C  C516  1  0.668800  0.517500  0.012450  1.0  -0.2023
  C  C517  1  0.815700  0.278180  0.985320  1.0  -0.0772
  C  C518  1  0.627400  0.325180  0.001440  1.0  0.5972
  C  C519  1  0.067100  0.973320  0.044030  1.0  -0.2006
  C  C520  1  0.071400  0.014610  0.075500  1.0  0.1643
  C  C521  1  0.249400  0.808140  0.988310  1.0  -0.078
  C  C522  1  0.116400  0.974110  0.011300  1.0  0.1152
  C  C523  1  0.231600  0.870300  0.977380  1.0  0.4291
  C  C524  1  0.114900  0.929600  0.976060  1.0  -0.1086
  C  C525  1  0.186400  0.780310  0.002430  1.0  -0.1034
  C  C526  1  0.169900  0.057430  0.045030  1.0  0.1774
  C  C527  1  0.168800  0.017500  0.012450  1.0  -0.2023
  C  C528  1  0.315700  0.778180  0.985320  1.0  -0.0772
  C  C529  1  0.127400  0.825180  0.001440  1.0  0.5972
  C  C530  1  0.067100  0.473320  0.544030  1.0  -0.2006
  C  C531  1  0.071400  0.514610  0.575500  1.0  0.1643
  C  C532  1  0.249400  0.308140  0.488310  1.0  -0.078
  C  C533  1  0.116400  0.474110  0.511300  1.0  0.1152
  C  C534  1  0.231600  0.370300  0.477380  1.0  0.4291
  C  C535  1  0.114900  0.429600  0.476060  1.0  -0.1086
  C  C536  1  0.186400  0.280310  0.502430  1.0  -0.1034
  C  C537  1  0.169900  0.557430  0.545030  1.0  0.1774
  C  C538  1  0.168800  0.517500  0.512450  1.0  -0.2023
  C  C539  1  0.315700  0.278180  0.485320  1.0  -0.0772
  C  C540  1  0.127400  0.325180  0.501440  1.0  0.5972
  C  C541  1  0.682900  0.276680  0.544030  1.0  -0.1994
  C  C542  1  0.678600  0.235390  0.575500  1.0  0.1639
  C  C543  1  0.500600  0.441860  0.488310  1.0  -0.0773
  C  C544  1  0.633600  0.275890  0.511300  1.0  0.1151
  C  C545  1  0.518400  0.379700  0.477380  1.0  0.4274
  C  C546  1  0.635100  0.320400  0.476060  1.0  -0.1082
  C  C547  1  0.563600  0.469690  0.502430  1.0  -0.103
  C  C548  1  0.580100  0.192570  0.545030  1.0  0.1775
  C  C549  1  0.581200  0.232500  0.512450  1.0  -0.2013
  C  C550  1  0.434300  0.471820  0.485320  1.0  -0.0781
  C  C551  1  0.622600  0.424820  0.501440  1.0  0.596
  C  C552  1  0.682900  0.776680  0.044030  1.0  -0.1994
  C  C553  1  0.678600  0.735390  0.075500  1.0  0.1639
  C  C554  1  0.500600  0.941860  0.988310  1.0  -0.0773
  C  C555  1  0.633600  0.775890  0.011300  1.0  0.1151
  C  C556  1  0.518400  0.879700  0.977380  1.0  0.4274
  C  C557  1  0.635100  0.820400  0.976060  1.0  -0.1082
  C  C558  1  0.563600  0.969690  0.002430  1.0  -0.103
  C  C559  1  0.580100  0.692570  0.045030  1.0  0.1775
  C  C560  1  0.581200  0.732500  0.012450  1.0  -0.2013
  C  C561  1  0.434300  0.971820  0.985320  1.0  -0.0781
  C  C562  1  0.622600  0.924820  0.001440  1.0  0.596
  C  C563  1  0.182900  0.276680  0.044030  1.0  -0.1994
  C  C564  1  0.178600  0.235390  0.075500  1.0  0.1639
  C  C565  1  0.000600  0.441860  0.988310  1.0  -0.0773
  C  C566  1  0.133600  0.275890  0.011300  1.0  0.1151
  C  C567  1  0.018400  0.379700  0.977380  1.0  0.4274
  C  C568  1  0.135100  0.320400  0.976060  1.0  -0.1082
  C  C569  1  0.063600  0.469690  0.002430  1.0  -0.103
  C  C570  1  0.080100  0.192570  0.045030  1.0  0.1775
  C  C571  1  0.081200  0.232500  0.012450  1.0  -0.2013
  C  C572  1  0.934300  0.471820  0.985320  1.0  -0.0781
  C  C573  1  0.122600  0.424820  0.001440  1.0  0.596
  C  C574  1  0.182900  0.776680  0.544030  1.0  -0.1994
  C  C575  1  0.178600  0.735390  0.575500  1.0  0.1639
  C  C576  1  0.000600  0.941860  0.488310  1.0  -0.0773
  C  C577  1  0.133600  0.775890  0.511300  1.0  0.1151
  C  C578  1  0.018400  0.879700  0.477380  1.0  0.4274
  C  C579  1  0.135100  0.820400  0.476060  1.0  -0.1082
  C  C580  1  0.063600  0.969690  0.502430  1.0  -0.103
  C  C581  1  0.080100  0.692570  0.545030  1.0  0.1775
  C  C582  1  0.081200  0.732500  0.512450  1.0  -0.2013
  C  C583  1  0.934300  0.971820  0.485320  1.0  -0.0781
  C  C584  1  0.122600  0.924820  0.501440  1.0  0.596
  C  C585  1  0.200600  0.875000  0.375000  1.0  0.0907
  C  C586  1  0.200600  0.375000  0.875000  1.0  0.0907
  C  C587  1  0.700600  0.875000  0.875000  1.0  0.0907
  C  C588  1  0.700600  0.375000  0.375000  1.0  0.0907
  C  C589  1  0.549400  0.875000  0.375000  1.0  0.089
  C  C590  1  0.549400  0.375000  0.875000  1.0  0.089
  C  C591  1  0.049400  0.875000  0.875000  1.0  0.089
  C  C592  1  0.049400  0.375000  0.375000  1.0  0.089
  C  C593  1  0.799400  0.125000  0.625000  1.0  0.089
  C  C594  1  0.799400  0.625000  0.125000  1.0  0.089
  C  C595  1  0.299400  0.125000  0.125000  1.0  0.089
  C  C596  1  0.299400  0.625000  0.625000  1.0  0.089
  C  C597  1  0.450600  0.125000  0.625000  1.0  0.0907
  C  C598  1  0.450600  0.625000  0.125000  1.0  0.0907
  C  C599  1  0.950600  0.125000  0.125000  1.0  0.0907
  C  C600  1  0.950600  0.625000  0.625000  1.0  0.0907
  S  S601  1  0.116680  0.846900  0.366940  1.0  0.0052
  S  S602  1  0.116680  0.346900  0.866940  1.0  0.0052
  S  S603  1  0.616680  0.846900  0.866940  1.0  0.0052
  S  S604  1  0.616680  0.346900  0.366940  1.0  0.0052
  S  S605  1  0.633320  0.903100  0.366940  1.0  0.0043
  S  S606  1  0.633320  0.403100  0.866940  1.0  0.0043
  S  S607  1  0.133320  0.903100  0.866940  1.0  0.0043
  S  S608  1  0.133320  0.403100  0.366940  1.0  0.0043
  S  S609  1  0.633320  0.846900  0.383060  1.0  0.0051
  S  S610  1  0.633320  0.346900  0.883060  1.0  0.0051
  S  S611  1  0.133320  0.846900  0.883060  1.0  0.0051
  S  S612  1  0.133320  0.346900  0.383060  1.0  0.0051
  S  S613  1  0.116680  0.903100  0.383060  1.0  0.0041
  S  S614  1  0.116680  0.403100  0.883060  1.0  0.0041
  S  S615  1  0.616680  0.903100  0.883060  1.0  0.0041
  S  S616  1  0.616680  0.403100  0.383060  1.0  0.0041
  S  S617  1  0.883320  0.153100  0.633060  1.0  0.0044
  S  S618  1  0.883320  0.653100  0.133060  1.0  0.0044
  S  S619  1  0.383320  0.153100  0.133060  1.0  0.0044
  S  S620  1  0.383320  0.653100  0.633060  1.0  0.0044
  S  S621  1  0.366680  0.096900  0.633060  1.0  0.0059
  S  S622  1  0.366680  0.596900  0.133060  1.0  0.0059
  S  S623  1  0.866680  0.096900  0.133060  1.0  0.0059
  S  S624  1  0.866680  0.596900  0.633060  1.0  0.0059
  S  S625  1  0.366680  0.153100  0.616940  1.0  0.0032
  S  S626  1  0.366680  0.653100  0.116940  1.0  0.0032
  S  S627  1  0.866680  0.153100  0.116940  1.0  0.0032
  S  S628  1  0.866680  0.653100  0.616940  1.0  0.0032
  S  S629  1  0.883320  0.096900  0.616940  1.0  0.0051
  S  S630  1  0.883320  0.596900  0.116940  1.0  0.0051
  S  S631  1  0.383320  0.096900  0.116940  1.0  0.0051
  S  S632  1  0.383320  0.596900  0.616940  1.0  0.0051
  N  N633  1  0.372710  0.943060  0.326530  1.0  -0.3203
  N  N634  1  0.407400  0.123370  0.235910  1.0  -0.1354
  N  N635  1  0.372710  0.443060  0.826530  1.0  -0.3203
  N  N636  1  0.407400  0.623370  0.735910  1.0  -0.1354
  N  N637  1  0.872710  0.943060  0.826530  1.0  -0.3203
  N  N638  1  0.907400  0.123370  0.735910  1.0  -0.1354
  N  N639  1  0.872710  0.443060  0.326530  1.0  -0.3203
  N  N640  1  0.907400  0.623370  0.235910  1.0  -0.1354
  N  N641  1  0.377290  0.806940  0.326530  1.0  -0.3202
  N  N642  1  0.342600  0.626630  0.235910  1.0  -0.1362
  N  N643  1  0.377290  0.306940  0.826530  1.0  -0.3202
  N  N644  1  0.342600  0.126630  0.735910  1.0  -0.1362
  N  N645  1  0.877290  0.806940  0.826530  1.0  -0.3202
  N  N646  1  0.842600  0.626630  0.735910  1.0  -0.1362
  N  N647  1  0.877290  0.306940  0.326530  1.0  -0.3202
  N  N648  1  0.842600  0.126630  0.235910  1.0  -0.1362
  N  N649  1  0.377290  0.943060  0.423470  1.0  -0.3219
  N  N650  1  0.342600  0.123370  0.514090  1.0  -0.136
  N  N651  1  0.377290  0.443060  0.923470  1.0  -0.3219
  N  N652  1  0.342600  0.623370  0.014090  1.0  -0.136
  N  N653  1  0.877290  0.943060  0.923470  1.0  -0.3219
  N  N654  1  0.842600  0.123370  0.014090  1.0  -0.136
  N  N655  1  0.877290  0.443060  0.423470  1.0  -0.3219
  N  N656  1  0.842600  0.623370  0.514090  1.0  -0.136
  N  N657  1  0.372710  0.806940  0.423470  1.0  -0.3208
  N  N658  1  0.407400  0.626630  0.514090  1.0  -0.1355
  N  N659  1  0.372710  0.306940  0.923470  1.0  -0.3208
  N  N660  1  0.407400  0.126630  0.014090  1.0  -0.1355
  N  N661  1  0.872710  0.806940  0.923470  1.0  -0.3208
  N  N662  1  0.907400  0.626630  0.014090  1.0  -0.1355
  N  N663  1  0.872710  0.306940  0.423470  1.0  -0.3208
  N  N664  1  0.907400  0.126630  0.514090  1.0  -0.1355
  N  N665  1  0.627290  0.056940  0.673470  1.0  -0.321
  N  N666  1  0.592600  0.876630  0.764090  1.0  -0.1364
  N  N667  1  0.627290  0.556940  0.173470  1.0  -0.321
  N  N668  1  0.592600  0.376630  0.264090  1.0  -0.1364
  N  N669  1  0.127290  0.056940  0.173470  1.0  -0.321
  N  N670  1  0.092600  0.876630  0.264090  1.0  -0.1364
  N  N671  1  0.127290  0.556940  0.673470  1.0  -0.321
  N  N672  1  0.092600  0.376630  0.764090  1.0  -0.1364
  N  N673  1  0.622710  0.193060  0.673470  1.0  -0.322
  N  N674  1  0.657400  0.373370  0.764090  1.0  -0.1353
  N  N675  1  0.622710  0.693060  0.173470  1.0  -0.322
  N  N676  1  0.657400  0.873370  0.264090  1.0  -0.1353
  N  N677  1  0.122710  0.193060  0.173470  1.0  -0.322
  N  N678  1  0.157400  0.373370  0.264090  1.0  -0.1353
  N  N679  1  0.122710  0.693060  0.673470  1.0  -0.322
  N  N680  1  0.157400  0.873370  0.764090  1.0  -0.1353
  N  N681  1  0.622710  0.056940  0.576530  1.0  -0.3199
  N  N682  1  0.657400  0.876630  0.485910  1.0  -0.1355
  N  N683  1  0.622710  0.556940  0.076530  1.0  -0.3199
  N  N684  1  0.657400  0.376630  0.985910  1.0  -0.1355
  N  N685  1  0.122710  0.056940  0.076530  1.0  -0.3199
  N  N686  1  0.157400  0.876630  0.985910  1.0  -0.1355
  N  N687  1  0.122710  0.556940  0.576530  1.0  -0.3199
  N  N688  1  0.157400  0.376630  0.485910  1.0  -0.1355
  N  N689  1  0.627290  0.193060  0.576530  1.0  -0.3205
  N  N690  1  0.592600  0.373370  0.485910  1.0  -0.1359
  N  N691  1  0.627290  0.693060  0.076530  1.0  -0.3205
  N  N692  1  0.592600  0.873370  0.985910  1.0  -0.1359
  N  N693  1  0.127290  0.193060  0.076530  1.0  -0.3205
  N  N694  1  0.092600  0.373370  0.985910  1.0  -0.1359
  N  N695  1  0.127290  0.693060  0.576530  1.0  -0.3205
  N  N696  1  0.092600  0.873370  0.485910  1.0  -0.1359
  N  N697  1  0.261300  0.875000  0.375000  1.0  -0.3914
  N  N698  1  0.261300  0.375000  0.875000  1.0  -0.3914
  N  N699  1  0.761300  0.875000  0.875000  1.0  -0.3914
  N  N700  1  0.761300  0.375000  0.375000  1.0  -0.3914
  N  N701  1  0.488700  0.875000  0.375000  1.0  -0.3907
  N  N702  1  0.488700  0.375000  0.875000  1.0  -0.3907
  N  N703  1  0.988700  0.875000  0.875000  1.0  -0.3907
  N  N704  1  0.988700  0.375000  0.375000  1.0  -0.3907
  N  N705  1  0.738700  0.125000  0.625000  1.0  -0.3907
  N  N706  1  0.738700  0.625000  0.125000  1.0  -0.3907
  N  N707  1  0.238700  0.125000  0.125000  1.0  -0.3907
  N  N708  1  0.238700  0.625000  0.625000  1.0  -0.3907
  N  N709  1  0.511300  0.125000  0.625000  1.0  -0.3914
  N  N710  1  0.511300  0.625000  0.125000  1.0  -0.3914
  N  N711  1  0.011300  0.125000  0.125000  1.0  -0.3914
  N  N712  1  0.011300  0.625000  0.625000  1.0  -0.3914
  O  O713  1  0.520450  0.090910  0.214250  1.0  -0.4924
  O  O714  1  0.314380  0.180170  0.262540  1.0  -0.5169
  O  O715  1  0.520450  0.590910  0.714250  1.0  -0.4924
  O  O716  1  0.314380  0.680170  0.762540  1.0  -0.5169
  O  O717  1  0.020450  0.090910  0.714250  1.0  -0.4924
  O  O718  1  0.814380  0.180170  0.762540  1.0  -0.5169
  O  O719  1  0.020450  0.590910  0.214250  1.0  -0.4924
  O  O720  1  0.814380  0.680170  0.262540  1.0  -0.5169
  O  O721  1  0.229550  0.659090  0.214250  1.0  -0.4928
  O  O722  1  0.435620  0.569830  0.262540  1.0  -0.5168
  O  O723  1  0.229550  0.159090  0.714250  1.0  -0.4928
  O  O724  1  0.435620  0.069830  0.762540  1.0  -0.5168
  O  O725  1  0.729550  0.659090  0.714250  1.0  -0.4928
  O  O726  1  0.935620  0.569830  0.762540  1.0  -0.5168
  O  O727  1  0.729550  0.159090  0.214250  1.0  -0.4928
  O  O728  1  0.935620  0.069830  0.262540  1.0  -0.5168
  O  O729  1  0.229550  0.090910  0.535750  1.0  -0.491
  O  O730  1  0.435620  0.180170  0.487460  1.0  -0.5161
  O  O731  1  0.229550  0.590910  0.035750  1.0  -0.491
  O  O732  1  0.435620  0.680170  0.987460  1.0  -0.5161
  O  O733  1  0.729550  0.090910  0.035750  1.0  -0.491
  O  O734  1  0.935620  0.180170  0.987460  1.0  -0.5161
  O  O735  1  0.729550  0.590910  0.535750  1.0  -0.491
  O  O736  1  0.935620  0.680170  0.487460  1.0  -0.5161
  O  O737  1  0.520450  0.659090  0.535750  1.0  -0.4926
  O  O738  1  0.314380  0.569830  0.487460  1.0  -0.5173
  O  O739  1  0.520450  0.159090  0.035750  1.0  -0.4926
  O  O740  1  0.314380  0.069830  0.987460  1.0  -0.5173
  O  O741  1  0.020450  0.659090  0.035750  1.0  -0.4926
  O  O742  1  0.814380  0.569830  0.987460  1.0  -0.5173
  O  O743  1  0.020450  0.159090  0.535750  1.0  -0.4926
  O  O744  1  0.814380  0.069830  0.487460  1.0  -0.5173
  O  O745  1  0.479550  0.909090  0.785750  1.0  -0.4913
  O  O746  1  0.685620  0.819830  0.737460  1.0  -0.5164
  O  O747  1  0.479550  0.409090  0.285750  1.0  -0.4913
  O  O748  1  0.685620  0.319830  0.237460  1.0  -0.5164
  O  O749  1  0.979550  0.909090  0.285750  1.0  -0.4913
  O  O750  1  0.185620  0.819830  0.237460  1.0  -0.5164
  O  O751  1  0.979550  0.409090  0.785750  1.0  -0.4913
  O  O752  1  0.185620  0.319830  0.737460  1.0  -0.5164
  O  O753  1  0.770450  0.340910  0.785750  1.0  -0.4918
  O  O754  1  0.564380  0.430170  0.737460  1.0  -0.5165
  O  O755  1  0.770450  0.840910  0.285750  1.0  -0.4918
  O  O756  1  0.564380  0.930170  0.237460  1.0  -0.5165
  O  O757  1  0.270450  0.340910  0.285750  1.0  -0.4918
  O  O758  1  0.064380  0.430170  0.237460  1.0  -0.5165
  O  O759  1  0.270450  0.840910  0.785750  1.0  -0.4918
  O  O760  1  0.064380  0.930170  0.737460  1.0  -0.5165
  O  O761  1  0.770450  0.909090  0.464250  1.0  -0.4929
  O  O762  1  0.564380  0.819830  0.512540  1.0  -0.5171
  O  O763  1  0.770450  0.409090  0.964250  1.0  -0.4929
  O  O764  1  0.564380  0.319830  0.012540  1.0  -0.5171
  O  O765  1  0.270450  0.909090  0.964250  1.0  -0.4929
  O  O766  1  0.064380  0.819830  0.012540  1.0  -0.5171
  O  O767  1  0.270450  0.409090  0.464250  1.0  -0.4929
  O  O768  1  0.064380  0.319830  0.512540  1.0  -0.5171
  O  O769  1  0.479550  0.340910  0.464250  1.0  -0.4928
  O  O770  1  0.685620  0.430170  0.512540  1.0  -0.5157
  O  O771  1  0.479550  0.840910  0.964250  1.0  -0.4928
  O  O772  1  0.685620  0.930170  0.012540  1.0  -0.5157
  O  O773  1  0.979550  0.340910  0.964250  1.0  -0.4928
  O  O774  1  0.185620  0.430170  0.012540  1.0  -0.5157
  O  O775  1  0.979550  0.840910  0.464250  1.0  -0.4928
  O  O776  1  0.185620  0.930170  0.512540  1.0  -0.5157
