# generated using pymatgen
data_Cu6H64C121(NO14)2
_symmetry_space_group_name_H-M   'P 1'
_cell_length_a   13.83250000
_cell_length_b   40.43500000
_cell_length_c   60.96200000
_cell_angle_alpha   90.00000000
_cell_angle_beta   90.00000000
_cell_angle_gamma   90.00000000
_symmetry_Int_Tables_number   1
_chemical_formula_structural   Cu6H64C121(NO14)2
_chemical_formula_sum   'Cu48 H512 C968 N16 O224'
_cell_volume   34097.09133628
_cell_formula_units_Z   8
loop_
 _symmetry_equiv_pos_site_id
 _symmetry_equiv_pos_as_xyz
  1  'x, y, z'
loop_
 _atom_site_type_symbol
 _atom_site_label
 _atom_site_symmetry_multiplicity
 _atom_site_fract_x
 _atom_site_fract_y
 _atom_site_fract_z
 _atom_site_occupancy
 _atom_site_charge
  Cu  Cu1  1  0.087890  0.509300  0.504010  1.0  0.9252
  Cu  Cu2  1  0.087890  0.009300  0.004010  1.0  0.9252
  Cu  Cu3  1  0.587890  0.509300  0.004010  1.0  0.9252
  Cu  Cu4  1  0.587890  0.009300  0.504010  1.0  0.9252
  Cu  Cu5  1  0.662110  0.240700  0.504010  1.0  0.9248
  Cu  Cu6  1  0.662110  0.740700  0.004010  1.0  0.9248
  Cu  Cu7  1  0.162110  0.240700  0.004010  1.0  0.9248
  Cu  Cu8  1  0.162110  0.740700  0.504010  1.0  0.9248
  Cu  Cu9  1  0.662110  0.509300  0.245990  1.0  0.9246
  Cu  Cu10  1  0.662110  0.009300  0.745990  1.0  0.9246
  Cu  Cu11  1  0.162110  0.509300  0.745990  1.0  0.9246
  Cu  Cu12  1  0.162110  0.009300  0.245990  1.0  0.9246
  Cu  Cu13  1  0.087890  0.240700  0.245990  1.0  0.9252
  Cu  Cu14  1  0.087890  0.740700  0.745990  1.0  0.9252
  Cu  Cu15  1  0.587890  0.240700  0.745990  1.0  0.9252
  Cu  Cu16  1  0.587890  0.740700  0.245990  1.0  0.9252
  Cu  Cu17  1  0.912110  0.490700  0.495990  1.0  0.924
  Cu  Cu18  1  0.912110  0.990700  0.995990  1.0  0.924
  Cu  Cu19  1  0.412110  0.490700  0.995990  1.0  0.924
  Cu  Cu20  1  0.412110  0.990700  0.495990  1.0  0.924
  Cu  Cu21  1  0.337890  0.759300  0.495990  1.0  0.9246
  Cu  Cu22  1  0.337890  0.259300  0.995990  1.0  0.9246
  Cu  Cu23  1  0.837890  0.759300  0.995990  1.0  0.9246
  Cu  Cu24  1  0.837890  0.259300  0.495990  1.0  0.9246
  Cu  Cu25  1  0.337890  0.490700  0.754010  1.0  0.9247
  Cu  Cu26  1  0.337890  0.990700  0.254010  1.0  0.9247
  Cu  Cu27  1  0.837890  0.490700  0.254010  1.0  0.9247
  Cu  Cu28  1  0.837890  0.990700  0.754010  1.0  0.9247
  Cu  Cu29  1  0.912110  0.759300  0.754010  1.0  0.9252
  Cu  Cu30  1  0.912110  0.259300  0.254010  1.0  0.9252
  Cu  Cu31  1  0.412110  0.759300  0.254010  1.0  0.9252
  Cu  Cu32  1  0.412110  0.259300  0.754010  1.0  0.9252
  Cu  Cu33  1  0.375000  0.875000  0.396060  1.0  0.9266
  Cu  Cu34  1  0.375000  0.375000  0.896060  1.0  0.9266
  Cu  Cu35  1  0.875000  0.875000  0.896060  1.0  0.9266
  Cu  Cu36  1  0.875000  0.375000  0.396060  1.0  0.9266
  Cu  Cu37  1  0.375000  0.875000  0.353940  1.0  0.9267
  Cu  Cu38  1  0.375000  0.375000  0.853940  1.0  0.9267
  Cu  Cu39  1  0.875000  0.875000  0.853940  1.0  0.9267
  Cu  Cu40  1  0.875000  0.375000  0.353940  1.0  0.9267
  Cu  Cu41  1  0.625000  0.125000  0.603940  1.0  0.9267
  Cu  Cu42  1  0.625000  0.625000  0.103940  1.0  0.9267
  Cu  Cu43  1  0.125000  0.125000  0.103940  1.0  0.9267
  Cu  Cu44  1  0.125000  0.625000  0.603940  1.0  0.9267
  Cu  Cu45  1  0.625000  0.125000  0.646060  1.0  0.9266
  Cu  Cu46  1  0.625000  0.625000  0.146060  1.0  0.9266
  Cu  Cu47  1  0.125000  0.125000  0.146060  1.0  0.9266
  Cu  Cu48  1  0.125000  0.625000  0.646060  1.0  0.9266
  H  H49  1  0.810700  0.714600  0.407900  1.0  0.125
  H  H50  1  0.703700  0.758800  0.408200  1.0  0.1306
  H  H51  1  0.638300  0.741200  0.345100  1.0  0.1284
  H  H52  1  0.745300  0.697000  0.344800  1.0  0.1248
  H  H53  1  0.668800  0.538400  0.578700  1.0  0.129
  H  H54  1  0.588200  0.567100  0.606100  1.0  0.1184
  H  H55  1  0.798200  0.635800  0.606200  1.0  0.1227
  H  H56  1  0.878800  0.607100  0.578800  1.0  0.1268
  H  H57  1  0.024000  0.641000  0.389300  1.0  0.1181
  H  H58  1  0.037700  0.602700  0.417400  1.0  0.1255
  H  H59  1  0.759900  0.618300  0.433700  1.0  0.1345
  H  H60  1  0.746200  0.656600  0.405600  1.0  0.1234
  H  H61  1  0.954200  0.566900  0.559800  1.0  0.1218
  H  H62  1  0.853500  0.571900  0.450800  1.0  0.1306
  H  H63  1  0.781100  0.540400  0.548400  1.0  0.1066
  H  H64  1  0.047000  0.583600  0.453400  1.0  0.1189
  H  H65  1  0.810700  0.214600  0.907900  1.0  0.125
  H  H66  1  0.703700  0.258800  0.908200  1.0  0.1306
  H  H67  1  0.638300  0.241200  0.845100  1.0  0.1284
  H  H68  1  0.745300  0.197000  0.844800  1.0  0.1248
  H  H69  1  0.668800  0.038400  0.078700  1.0  0.129
  H  H70  1  0.588200  0.067100  0.106100  1.0  0.1184
  H  H71  1  0.798200  0.135800  0.106200  1.0  0.1227
  H  H72  1  0.878800  0.107100  0.078800  1.0  0.1268
  H  H73  1  0.024000  0.141000  0.889300  1.0  0.1181
  H  H74  1  0.037700  0.102700  0.917400  1.0  0.1255
  H  H75  1  0.759900  0.118300  0.933700  1.0  0.1345
  H  H76  1  0.746200  0.156600  0.905600  1.0  0.1234
  H  H77  1  0.954200  0.066900  0.059800  1.0  0.1218
  H  H78  1  0.853500  0.071900  0.950800  1.0  0.1306
  H  H79  1  0.781100  0.040400  0.048400  1.0  0.1066
  H  H80  1  0.047000  0.083600  0.953400  1.0  0.1189
  H  H81  1  0.310700  0.714600  0.907900  1.0  0.125
  H  H82  1  0.203700  0.758800  0.908200  1.0  0.1306
  H  H83  1  0.138300  0.741200  0.845100  1.0  0.1284
  H  H84  1  0.245300  0.697000  0.844800  1.0  0.1248
  H  H85  1  0.168800  0.538400  0.078700  1.0  0.129
  H  H86  1  0.088200  0.567100  0.106100  1.0  0.1184
  H  H87  1  0.298200  0.635800  0.106200  1.0  0.1227
  H  H88  1  0.378800  0.607100  0.078800  1.0  0.1268
  H  H89  1  0.524000  0.641000  0.889300  1.0  0.1181
  H  H90  1  0.537700  0.602700  0.917400  1.0  0.1255
  H  H91  1  0.259900  0.618300  0.933700  1.0  0.1345
  H  H92  1  0.246200  0.656600  0.905600  1.0  0.1234
  H  H93  1  0.454200  0.566900  0.059800  1.0  0.1218
  H  H94  1  0.353500  0.571900  0.950800  1.0  0.1306
  H  H95  1  0.281100  0.540400  0.048400  1.0  0.1066
  H  H96  1  0.547000  0.583600  0.953400  1.0  0.1189
  H  H97  1  0.310700  0.214600  0.407900  1.0  0.125
  H  H98  1  0.203700  0.258800  0.408200  1.0  0.1306
  H  H99  1  0.138300  0.241200  0.345100  1.0  0.1284
  H  H100  1  0.245300  0.197000  0.344800  1.0  0.1248
  H  H101  1  0.168800  0.038400  0.578700  1.0  0.129
  H  H102  1  0.088200  0.067100  0.606100  1.0  0.1184
  H  H103  1  0.298200  0.135800  0.606200  1.0  0.1227
  H  H104  1  0.378800  0.107100  0.578800  1.0  0.1268
  H  H105  1  0.524000  0.141000  0.389300  1.0  0.1181
  H  H106  1  0.537700  0.102700  0.417400  1.0  0.1255
  H  H107  1  0.259900  0.118300  0.433700  1.0  0.1345
  H  H108  1  0.246200  0.156600  0.405600  1.0  0.1234
  H  H109  1  0.454200  0.066900  0.559800  1.0  0.1218
  H  H110  1  0.353500  0.071900  0.450800  1.0  0.1306
  H  H111  1  0.281100  0.040400  0.548400  1.0  0.1066
  H  H112  1  0.547000  0.083600  0.453400  1.0  0.1189
  H  H113  1  0.939300  0.035400  0.407900  1.0  0.1243
  H  H114  1  0.046300  0.991200  0.408200  1.0  0.1294
  H  H115  1  0.111700  0.008800  0.345100  1.0  0.1284
  H  H116  1  0.004700  0.053000  0.344800  1.0  0.1244
  H  H117  1  0.081200  0.211600  0.578700  1.0  0.13
  H  H118  1  0.161800  0.182900  0.606100  1.0  0.1193
  H  H119  1  0.951800  0.114200  0.606200  1.0  0.1218
  H  H120  1  0.871200  0.142900  0.578800  1.0  0.1269
  H  H121  1  0.726000  0.109000  0.389300  1.0  0.1174
  H  H122  1  0.712300  0.147300  0.417400  1.0  0.1254
  H  H123  1  0.990100  0.131700  0.433700  1.0  0.1341
  H  H124  1  0.003800  0.093400  0.405600  1.0  0.1234
  H  H125  1  0.795800  0.183100  0.559800  1.0  0.1214
  H  H126  1  0.896500  0.178100  0.450800  1.0  0.1298
  H  H127  1  0.968900  0.209600  0.548400  1.0  0.1076
  H  H128  1  0.703000  0.166400  0.453400  1.0  0.12
  H  H129  1  0.939300  0.535400  0.907900  1.0  0.1243
  H  H130  1  0.046300  0.491200  0.908200  1.0  0.1294
  H  H131  1  0.111700  0.508800  0.845100  1.0  0.1284
  H  H132  1  0.004700  0.553000  0.844800  1.0  0.1244
  H  H133  1  0.081200  0.711600  0.078700  1.0  0.13
  H  H134  1  0.161800  0.682900  0.106100  1.0  0.1193
  H  H135  1  0.951800  0.614200  0.106200  1.0  0.1218
  H  H136  1  0.871200  0.642900  0.078800  1.0  0.1269
  H  H137  1  0.726000  0.609000  0.889300  1.0  0.1174
  H  H138  1  0.712300  0.647300  0.917400  1.0  0.1254
  H  H139  1  0.990100  0.631700  0.933700  1.0  0.1341
  H  H140  1  0.003800  0.593400  0.905600  1.0  0.1234
  H  H141  1  0.795800  0.683100  0.059800  1.0  0.1214
  H  H142  1  0.896500  0.678100  0.950800  1.0  0.1298
  H  H143  1  0.968900  0.709600  0.048400  1.0  0.1071
  H  H144  1  0.703000  0.666400  0.953400  1.0  0.12
  H  H145  1  0.439300  0.035400  0.907900  1.0  0.1243
  H  H146  1  0.546300  0.991200  0.908200  1.0  0.1294
  H  H147  1  0.611700  0.008800  0.845100  1.0  0.1284
  H  H148  1  0.504700  0.053000  0.844800  1.0  0.1244
  H  H149  1  0.581200  0.211600  0.078700  1.0  0.13
  H  H150  1  0.661800  0.182900  0.106100  1.0  0.1193
  H  H151  1  0.451800  0.114200  0.106200  1.0  0.1218
  H  H152  1  0.371200  0.142900  0.078800  1.0  0.1269
  H  H153  1  0.226000  0.109000  0.889300  1.0  0.1174
  H  H154  1  0.212300  0.147300  0.917400  1.0  0.1254
  H  H155  1  0.490100  0.131700  0.933700  1.0  0.1341
  H  H156  1  0.503800  0.093400  0.905600  1.0  0.1234
  H  H157  1  0.295800  0.183100  0.059800  1.0  0.1214
  H  H158  1  0.396500  0.178100  0.950800  1.0  0.1298
  H  H159  1  0.468900  0.209600  0.048400  1.0  0.1075
  H  H160  1  0.203000  0.166400  0.953400  1.0  0.12
  H  H161  1  0.439300  0.535400  0.407900  1.0  0.1243
  H  H162  1  0.546300  0.491200  0.408200  1.0  0.1294
  H  H163  1  0.611700  0.508800  0.345100  1.0  0.1284
  H  H164  1  0.504700  0.553000  0.344800  1.0  0.1244
  H  H165  1  0.581200  0.711600  0.578700  1.0  0.13
  H  H166  1  0.661800  0.682900  0.606100  1.0  0.1193
  H  H167  1  0.451800  0.614200  0.606200  1.0  0.1218
  H  H168  1  0.371200  0.642900  0.578800  1.0  0.1269
  H  H169  1  0.226000  0.609000  0.389300  1.0  0.1174
  H  H170  1  0.212300  0.647300  0.417400  1.0  0.1254
  H  H171  1  0.490100  0.631700  0.433700  1.0  0.1341
  H  H172  1  0.503800  0.593400  0.405600  1.0  0.1234
  H  H173  1  0.295800  0.683100  0.559800  1.0  0.1214
  H  H174  1  0.396500  0.678100  0.450800  1.0  0.1298
  H  H175  1  0.468900  0.709600  0.548400  1.0  0.1075
  H  H176  1  0.203000  0.666400  0.453400  1.0  0.12
  H  H177  1  0.939300  0.714600  0.342100  1.0  0.1259
  H  H178  1  0.046300  0.758800  0.341800  1.0  0.1306
  H  H179  1  0.111700  0.741200  0.404900  1.0  0.1281
  H  H180  1  0.004700  0.697000  0.405200  1.0  0.1236
  H  H181  1  0.081200  0.538400  0.171300  1.0  0.1287
  H  H182  1  0.161800  0.567100  0.143900  1.0  0.1199
  H  H183  1  0.951800  0.635800  0.143800  1.0  0.1227
  H  H184  1  0.871200  0.607100  0.171200  1.0  0.1268
  H  H185  1  0.726000  0.641000  0.360700  1.0  0.1172
  H  H186  1  0.712300  0.602700  0.332600  1.0  0.1249
  H  H187  1  0.990100  0.618300  0.316300  1.0  0.1343
  H  H188  1  0.003800  0.656600  0.344400  1.0  0.1237
  H  H189  1  0.795800  0.566900  0.190200  1.0  0.1218
  H  H190  1  0.896500  0.571900  0.299200  1.0  0.1301
  H  H191  1  0.968900  0.540400  0.201600  1.0  0.1072
  H  H192  1  0.703000  0.583600  0.296600  1.0  0.12
  H  H193  1  0.939300  0.214600  0.842100  1.0  0.1259
  H  H194  1  0.046300  0.258800  0.841800  1.0  0.1306
  H  H195  1  0.111700  0.241200  0.904900  1.0  0.1281
  H  H196  1  0.004700  0.197000  0.905200  1.0  0.1236
  H  H197  1  0.081200  0.038400  0.671300  1.0  0.1287
  H  H198  1  0.161800  0.067100  0.643900  1.0  0.1199
  H  H199  1  0.951800  0.135800  0.643800  1.0  0.1227
  H  H200  1  0.871200  0.107100  0.671200  1.0  0.1268
  H  H201  1  0.726000  0.141000  0.860700  1.0  0.1172
  H  H202  1  0.712300  0.102700  0.832600  1.0  0.1249
  H  H203  1  0.990100  0.118300  0.816300  1.0  0.1343
  H  H204  1  0.003800  0.156600  0.844400  1.0  0.1237
  H  H205  1  0.795800  0.066900  0.690200  1.0  0.1218
  H  H206  1  0.896500  0.071900  0.799200  1.0  0.1301
  H  H207  1  0.968900  0.040400  0.701600  1.0  0.1072
  H  H208  1  0.703000  0.083600  0.796600  1.0  0.12
  H  H209  1  0.439300  0.714600  0.842100  1.0  0.1259
  H  H210  1  0.546300  0.758800  0.841800  1.0  0.1306
  H  H211  1  0.611700  0.741200  0.904900  1.0  0.1281
  H  H212  1  0.504700  0.697000  0.905200  1.0  0.1236
  H  H213  1  0.581200  0.538400  0.671300  1.0  0.1287
  H  H214  1  0.661800  0.567100  0.643900  1.0  0.1199
  H  H215  1  0.451800  0.635800  0.643800  1.0  0.1227
  H  H216  1  0.371200  0.607100  0.671200  1.0  0.1268
  H  H217  1  0.226000  0.641000  0.860700  1.0  0.1172
  H  H218  1  0.212300  0.602700  0.832600  1.0  0.1249
  H  H219  1  0.490100  0.618300  0.816300  1.0  0.1343
  H  H220  1  0.503800  0.656600  0.844400  1.0  0.1237
  H  H221  1  0.295800  0.566900  0.690200  1.0  0.1218
  H  H222  1  0.396500  0.571900  0.799200  1.0  0.1301
  H  H223  1  0.468900  0.540400  0.701600  1.0  0.107
  H  H224  1  0.203000  0.583600  0.796600  1.0  0.12
  H  H225  1  0.439300  0.214600  0.342100  1.0  0.1259
  H  H226  1  0.546300  0.258800  0.341800  1.0  0.1306
  H  H227  1  0.611700  0.241200  0.404900  1.0  0.1281
  H  H228  1  0.504700  0.197000  0.405200  1.0  0.1236
  H  H229  1  0.581200  0.038400  0.171300  1.0  0.1287
  H  H230  1  0.661800  0.067100  0.143900  1.0  0.1199
  H  H231  1  0.451800  0.135800  0.143800  1.0  0.1227
  H  H232  1  0.371200  0.107100  0.171200  1.0  0.1268
  H  H233  1  0.226000  0.141000  0.360700  1.0  0.1172
  H  H234  1  0.212300  0.102700  0.332600  1.0  0.1249
  H  H235  1  0.490100  0.118300  0.316300  1.0  0.1343
  H  H236  1  0.503800  0.156600  0.344400  1.0  0.1237
  H  H237  1  0.295800  0.066900  0.190200  1.0  0.1218
  H  H238  1  0.396500  0.071900  0.299200  1.0  0.1301
  H  H239  1  0.468900  0.040400  0.201600  1.0  0.107
  H  H240  1  0.203000  0.083600  0.296600  1.0  0.12
  H  H241  1  0.810700  0.035400  0.342100  1.0  0.1256
  H  H242  1  0.703700  0.991200  0.341800  1.0  0.1307
  H  H243  1  0.638300  0.008800  0.404900  1.0  0.1286
  H  H244  1  0.745300  0.053000  0.405200  1.0  0.1244
  H  H245  1  0.668800  0.211600  0.171300  1.0  0.1293
  H  H246  1  0.588200  0.182900  0.143900  1.0  0.1197
  H  H247  1  0.798200  0.114200  0.143800  1.0  0.1226
  H  H248  1  0.878800  0.142900  0.171200  1.0  0.1273
  H  H249  1  0.024000  0.109000  0.360700  1.0  0.1174
  H  H250  1  0.037700  0.147300  0.332600  1.0  0.1247
  H  H251  1  0.759900  0.131700  0.316300  1.0  0.1344
  H  H252  1  0.746200  0.093400  0.344400  1.0  0.1222
  H  H253  1  0.954200  0.183100  0.190200  1.0  0.122
  H  H254  1  0.853500  0.178100  0.299200  1.0  0.1312
  H  H255  1  0.781100  0.209600  0.201600  1.0  0.1076
  H  H256  1  0.047000  0.166400  0.296600  1.0  0.1182
  H  H257  1  0.810700  0.535400  0.842100  1.0  0.1256
  H  H258  1  0.703700  0.491200  0.841800  1.0  0.1307
  H  H259  1  0.638300  0.508800  0.904900  1.0  0.1286
  H  H260  1  0.745300  0.553000  0.905200  1.0  0.1244
  H  H261  1  0.668800  0.711600  0.671300  1.0  0.1293
  H  H262  1  0.588200  0.682900  0.643900  1.0  0.1197
  H  H263  1  0.798200  0.614200  0.643800  1.0  0.1226
  H  H264  1  0.878800  0.642900  0.671200  1.0  0.1273
  H  H265  1  0.024000  0.609000  0.860700  1.0  0.1174
  H  H266  1  0.037700  0.647300  0.832600  1.0  0.1247
  H  H267  1  0.759900  0.631700  0.816300  1.0  0.1344
  H  H268  1  0.746200  0.593400  0.844400  1.0  0.1222
  H  H269  1  0.954200  0.683100  0.690200  1.0  0.122
  H  H270  1  0.853500  0.678100  0.799200  1.0  0.1312
  H  H271  1  0.781100  0.709600  0.701600  1.0  0.1076
  H  H272  1  0.047000  0.666400  0.796600  1.0  0.1182
  H  H273  1  0.310700  0.035400  0.842100  1.0  0.1256
  H  H274  1  0.203700  0.991200  0.841800  1.0  0.1307
  H  H275  1  0.138300  0.008800  0.904900  1.0  0.1286
  H  H276  1  0.245300  0.053000  0.905200  1.0  0.1244
  H  H277  1  0.168800  0.211600  0.671300  1.0  0.1293
  H  H278  1  0.088200  0.182900  0.643900  1.0  0.1197
  H  H279  1  0.298200  0.114200  0.643800  1.0  0.1226
  H  H280  1  0.378800  0.142900  0.671200  1.0  0.1273
  H  H281  1  0.524000  0.109000  0.860700  1.0  0.1174
  H  H282  1  0.537700  0.147300  0.832600  1.0  0.1247
  H  H283  1  0.259900  0.131700  0.816300  1.0  0.1344
  H  H284  1  0.246200  0.093400  0.844400  1.0  0.1222
  H  H285  1  0.454200  0.183100  0.690200  1.0  0.122
  H  H286  1  0.353500  0.178100  0.799200  1.0  0.1312
  H  H287  1  0.281100  0.209600  0.701600  1.0  0.1076
  H  H288  1  0.547000  0.166400  0.796600  1.0  0.1182
  H  H289  1  0.310700  0.535400  0.342100  1.0  0.1256
  H  H290  1  0.203700  0.491200  0.341800  1.0  0.1307
  H  H291  1  0.138300  0.508800  0.404900  1.0  0.1286
  H  H292  1  0.245300  0.553000  0.405200  1.0  0.1244
  H  H293  1  0.168800  0.711600  0.171300  1.0  0.1293
  H  H294  1  0.088200  0.682900  0.143900  1.0  0.1197
  H  H295  1  0.298200  0.614200  0.143800  1.0  0.1226
  H  H296  1  0.378800  0.642900  0.171200  1.0  0.1273
  H  H297  1  0.524000  0.609000  0.360700  1.0  0.1174
  H  H298  1  0.537700  0.647300  0.332600  1.0  0.1247
  H  H299  1  0.259900  0.631700  0.316300  1.0  0.1344
  H  H300  1  0.246200  0.593400  0.344400  1.0  0.1222
  H  H301  1  0.454200  0.683100  0.190200  1.0  0.122
  H  H302  1  0.353500  0.678100  0.299200  1.0  0.1312
  H  H303  1  0.281100  0.709600  0.201600  1.0  0.1076
  H  H304  1  0.547000  0.666400  0.296600  1.0  0.1182
  H  H305  1  0.189300  0.285400  0.592100  1.0  0.1257
  H  H306  1  0.296300  0.241200  0.591800  1.0  0.1309
  H  H307  1  0.361700  0.258800  0.654900  1.0  0.1281
  H  H308  1  0.254700  0.303000  0.655200  1.0  0.1236
  H  H309  1  0.331200  0.461600  0.421300  1.0  0.1284
  H  H310  1  0.411800  0.432900  0.393900  1.0  0.1199
  H  H311  1  0.201800  0.364200  0.393800  1.0  0.1226
  H  H312  1  0.121200  0.392900  0.421200  1.0  0.127
  H  H313  1  0.976000  0.359000  0.610700  1.0  0.1168
  H  H314  1  0.962300  0.397300  0.582600  1.0  0.1251
  H  H315  1  0.240100  0.381700  0.566300  1.0  0.1345
  H  H316  1  0.253800  0.343400  0.594400  1.0  0.1236
  H  H317  1  0.045800  0.433100  0.440200  1.0  0.1216
  H  H318  1  0.146500  0.428100  0.549200  1.0  0.1306
  H  H319  1  0.218900  0.459600  0.451600  1.0  0.1073
  H  H320  1  0.953000  0.416400  0.546600  1.0  0.1196
  H  H321  1  0.189300  0.785400  0.092100  1.0  0.1257
  H  H322  1  0.296300  0.741200  0.091800  1.0  0.1309
  H  H323  1  0.361700  0.758800  0.154900  1.0  0.1281
  H  H324  1  0.254700  0.803000  0.155200  1.0  0.1236
  H  H325  1  0.331200  0.961600  0.921300  1.0  0.1284
  H  H326  1  0.411800  0.932900  0.893900  1.0  0.1199
  H  H327  1  0.201800  0.864200  0.893800  1.0  0.1226
  H  H328  1  0.121200  0.892900  0.921200  1.0  0.127
  H  H329  1  0.976000  0.859000  0.110700  1.0  0.1168
  H  H330  1  0.962300  0.897300  0.082600  1.0  0.1251
  H  H331  1  0.240100  0.881700  0.066300  1.0  0.1345
  H  H332  1  0.253800  0.843400  0.094400  1.0  0.1236
  H  H333  1  0.045800  0.933100  0.940200  1.0  0.1216
  H  H334  1  0.146500  0.928100  0.049200  1.0  0.1306
  H  H335  1  0.218900  0.959600  0.951600  1.0  0.1073
  H  H336  1  0.953000  0.916400  0.046600  1.0  0.1196
  H  H337  1  0.689300  0.285400  0.092100  1.0  0.1257
  H  H338  1  0.796300  0.241200  0.091800  1.0  0.1309
  H  H339  1  0.861700  0.258800  0.154900  1.0  0.1281
  H  H340  1  0.754700  0.303000  0.155200  1.0  0.1236
  H  H341  1  0.831200  0.461600  0.921300  1.0  0.1284
  H  H342  1  0.911800  0.432900  0.893900  1.0  0.1199
  H  H343  1  0.701800  0.364200  0.893800  1.0  0.1226
  H  H344  1  0.621200  0.392900  0.921200  1.0  0.127
  H  H345  1  0.476000  0.359000  0.110700  1.0  0.1168
  H  H346  1  0.462300  0.397300  0.082600  1.0  0.1251
  H  H347  1  0.740100  0.381700  0.066300  1.0  0.1345
  H  H348  1  0.753800  0.343400  0.094400  1.0  0.1236
  H  H349  1  0.545800  0.433100  0.940200  1.0  0.1216
  H  H350  1  0.646500  0.428100  0.049200  1.0  0.1306
  H  H351  1  0.718900  0.459600  0.951600  1.0  0.1073
  H  H352  1  0.453000  0.416400  0.046600  1.0  0.1196
  H  H353  1  0.689300  0.785400  0.592100  1.0  0.1257
  H  H354  1  0.796300  0.741200  0.591800  1.0  0.1309
  H  H355  1  0.861700  0.758800  0.654900  1.0  0.1281
  H  H356  1  0.754700  0.803000  0.655200  1.0  0.1236
  H  H357  1  0.831200  0.961600  0.421300  1.0  0.1284
  H  H358  1  0.911800  0.932900  0.393900  1.0  0.1199
  H  H359  1  0.701800  0.864200  0.393800  1.0  0.1226
  H  H360  1  0.621200  0.892900  0.421200  1.0  0.127
  H  H361  1  0.476000  0.859000  0.610700  1.0  0.1168
  H  H362  1  0.462300  0.897300  0.582600  1.0  0.1251
  H  H363  1  0.740100  0.881700  0.566300  1.0  0.1345
  H  H364  1  0.753800  0.843400  0.594400  1.0  0.1236
  H  H365  1  0.545800  0.933100  0.440200  1.0  0.1216
  H  H366  1  0.646500  0.928100  0.549200  1.0  0.1306
  H  H367  1  0.718900  0.959600  0.451600  1.0  0.1073
  H  H368  1  0.453000  0.916400  0.546600  1.0  0.1196
  H  H369  1  0.060700  0.964600  0.592100  1.0  0.126
  H  H370  1  0.953700  0.008800  0.591800  1.0  0.1304
  H  H371  1  0.888300  0.991200  0.654900  1.0  0.1286
  H  H372  1  0.995300  0.947000  0.655200  1.0  0.1243
  H  H373  1  0.918800  0.788400  0.421300  1.0  0.1293
  H  H374  1  0.838200  0.817100  0.393900  1.0  0.1197
  H  H375  1  0.048200  0.885800  0.393800  1.0  0.1224
  H  H376  1  0.128800  0.857100  0.421200  1.0  0.1271
  H  H377  1  0.274000  0.891000  0.610700  1.0  0.1177
  H  H378  1  0.287700  0.852700  0.582600  1.0  0.1247
  H  H379  1  0.009900  0.868300  0.566300  1.0  0.1341
  H  H380  1  0.996200  0.906600  0.594400  1.0  0.1222
  H  H381  1  0.204200  0.816900  0.440200  1.0  0.122
  H  H382  1  0.103500  0.821900  0.549200  1.0  0.1311
  H  H383  1  0.031100  0.790400  0.451600  1.0  0.1077
  H  H384  1  0.297000  0.833600  0.546600  1.0  0.1189
  H  H385  1  0.060700  0.464600  0.092100  1.0  0.126
  H  H386  1  0.953700  0.508800  0.091800  1.0  0.1304
  H  H387  1  0.888300  0.491200  0.154900  1.0  0.1286
  H  H388  1  0.995300  0.447000  0.155200  1.0  0.1243
  H  H389  1  0.918800  0.288400  0.921300  1.0  0.1293
  H  H390  1  0.838200  0.317100  0.893900  1.0  0.1197
  H  H391  1  0.048200  0.385800  0.893800  1.0  0.1224
  H  H392  1  0.128800  0.357100  0.921200  1.0  0.1271
  H  H393  1  0.274000  0.391000  0.110700  1.0  0.1177
  H  H394  1  0.287700  0.352700  0.082600  1.0  0.1247
  H  H395  1  0.009900  0.368300  0.066300  1.0  0.1341
  H  H396  1  0.996200  0.406600  0.094400  1.0  0.1222
  H  H397  1  0.204200  0.316900  0.940200  1.0  0.122
  H  H398  1  0.103500  0.321900  0.049200  1.0  0.1311
  H  H399  1  0.031100  0.290400  0.951600  1.0  0.1073
  H  H400  1  0.297000  0.333600  0.046600  1.0  0.1189
  H  H401  1  0.560700  0.964600  0.092100  1.0  0.126
  H  H402  1  0.453700  0.008800  0.091800  1.0  0.1304
  H  H403  1  0.388300  0.991200  0.154900  1.0  0.1286
  H  H404  1  0.495300  0.947000  0.155200  1.0  0.1243
  H  H405  1  0.418800  0.788400  0.921300  1.0  0.1293
  H  H406  1  0.338200  0.817100  0.893900  1.0  0.1197
  H  H407  1  0.548200  0.885800  0.893800  1.0  0.1224
  H  H408  1  0.628800  0.857100  0.921200  1.0  0.1271
  H  H409  1  0.774000  0.891000  0.110700  1.0  0.1177
  H  H410  1  0.787700  0.852700  0.082600  1.0  0.1247
  H  H411  1  0.509900  0.868300  0.066300  1.0  0.1341
  H  H412  1  0.496200  0.906600  0.094400  1.0  0.1222
  H  H413  1  0.704200  0.816900  0.940200  1.0  0.122
  H  H414  1  0.603500  0.821900  0.049200  1.0  0.1311
  H  H415  1  0.531100  0.790400  0.951600  1.0  0.1077
  H  H416  1  0.797000  0.833600  0.046600  1.0  0.1189
  H  H417  1  0.560700  0.464600  0.592100  1.0  0.126
  H  H418  1  0.453700  0.508800  0.591800  1.0  0.1304
  H  H419  1  0.388300  0.491200  0.654900  1.0  0.1286
  H  H420  1  0.495300  0.447000  0.655200  1.0  0.1243
  H  H421  1  0.418800  0.288400  0.421300  1.0  0.1293
  H  H422  1  0.338200  0.317100  0.393900  1.0  0.1197
  H  H423  1  0.548200  0.385800  0.393800  1.0  0.1224
  H  H424  1  0.628800  0.357100  0.421200  1.0  0.1271
  H  H425  1  0.774000  0.391000  0.610700  1.0  0.1177
  H  H426  1  0.787700  0.352700  0.582600  1.0  0.1247
  H  H427  1  0.509900  0.368300  0.566300  1.0  0.1341
  H  H428  1  0.496200  0.406600  0.594400  1.0  0.1222
  H  H429  1  0.704200  0.316900  0.440200  1.0  0.122
  H  H430  1  0.603500  0.321900  0.549200  1.0  0.1311
  H  H431  1  0.531100  0.290400  0.451600  1.0  0.1077
  H  H432  1  0.797000  0.333600  0.546600  1.0  0.1189
  H  H433  1  0.060700  0.285400  0.657900  1.0  0.1248
  H  H434  1  0.953700  0.241200  0.658200  1.0  0.131
  H  H435  1  0.888300  0.258800  0.595100  1.0  0.1286
  H  H436  1  0.995300  0.303000  0.594800  1.0  0.1247
  H  H437  1  0.918800  0.461600  0.828700  1.0  0.1295
  H  H438  1  0.838200  0.432900  0.856100  1.0  0.119
  H  H439  1  0.048200  0.364200  0.856200  1.0  0.122
  H  H440  1  0.128800  0.392900  0.828800  1.0  0.1267
  H  H441  1  0.274000  0.359000  0.639300  1.0  0.1179
  H  H442  1  0.287700  0.397300  0.667400  1.0  0.1254
  H  H443  1  0.009900  0.381700  0.683700  1.0  0.1344
  H  H444  1  0.996200  0.343400  0.655600  1.0  0.1234
  H  H445  1  0.204200  0.433100  0.809800  1.0  0.1218
  H  H446  1  0.103500  0.428100  0.700800  1.0  0.1305
  H  H447  1  0.031100  0.459600  0.798400  1.0  0.1069
  H  H448  1  0.297000  0.416400  0.703400  1.0  0.1184
  H  H449  1  0.060700  0.785400  0.157900  1.0  0.1248
  H  H450  1  0.953700  0.741200  0.158200  1.0  0.131
  H  H451  1  0.888300  0.758800  0.095100  1.0  0.1286
  H  H452  1  0.995300  0.803000  0.094800  1.0  0.1247
  H  H453  1  0.918800  0.961600  0.328700  1.0  0.1295
  H  H454  1  0.838200  0.932900  0.356100  1.0  0.119
  H  H455  1  0.048200  0.864200  0.356200  1.0  0.122
  H  H456  1  0.128800  0.892900  0.328800  1.0  0.1267
  H  H457  1  0.274000  0.859000  0.139300  1.0  0.1179
  H  H458  1  0.287700  0.897300  0.167400  1.0  0.1254
  H  H459  1  0.009900  0.881700  0.183700  1.0  0.1344
  H  H460  1  0.996200  0.843400  0.155600  1.0  0.1234
  H  H461  1  0.204200  0.933100  0.309800  1.0  0.1218
  H  H462  1  0.103500  0.928100  0.200800  1.0  0.1305
  H  H463  1  0.031100  0.959600  0.298400  1.0  0.1069
  H  H464  1  0.297000  0.916400  0.203400  1.0  0.1184
  H  H465  1  0.560700  0.285400  0.157900  1.0  0.1248
  H  H466  1  0.453700  0.241200  0.158200  1.0  0.131
  H  H467  1  0.388300  0.258800  0.095100  1.0  0.1286
  H  H468  1  0.495300  0.303000  0.094800  1.0  0.1247
  H  H469  1  0.418800  0.461600  0.328700  1.0  0.1295
  H  H470  1  0.338200  0.432900  0.356100  1.0  0.119
  H  H471  1  0.548200  0.364200  0.356200  1.0  0.122
  H  H472  1  0.628800  0.392900  0.328800  1.0  0.1267
  H  H473  1  0.774000  0.359000  0.139300  1.0  0.1179
  H  H474  1  0.787700  0.397300  0.167400  1.0  0.1254
  H  H475  1  0.509900  0.381700  0.183700  1.0  0.1344
  H  H476  1  0.496200  0.343400  0.155600  1.0  0.1234
  H  H477  1  0.704200  0.433100  0.309800  1.0  0.1218
  H  H478  1  0.603500  0.428100  0.200800  1.0  0.1305
  H  H479  1  0.531100  0.459600  0.298400  1.0  0.1069
  H  H480  1  0.797000  0.416400  0.203400  1.0  0.1184
  H  H481  1  0.560700  0.785400  0.657900  1.0  0.1248
  H  H482  1  0.453700  0.741200  0.658200  1.0  0.131
  H  H483  1  0.388300  0.758800  0.595100  1.0  0.1286
  H  H484  1  0.495300  0.803000  0.594800  1.0  0.1247
  H  H485  1  0.418800  0.961600  0.828700  1.0  0.1295
  H  H486  1  0.338200  0.932900  0.856100  1.0  0.119
  H  H487  1  0.548200  0.864200  0.856200  1.0  0.122
  H  H488  1  0.628800  0.892900  0.828800  1.0  0.1267
  H  H489  1  0.774000  0.859000  0.639300  1.0  0.1179
  H  H490  1  0.787700  0.897300  0.667400  1.0  0.1254
  H  H491  1  0.509900  0.881700  0.683700  1.0  0.1344
  H  H492  1  0.496200  0.843400  0.655600  1.0  0.1234
  H  H493  1  0.704200  0.933100  0.809800  1.0  0.1218
  H  H494  1  0.603500  0.928100  0.700800  1.0  0.1305
  H  H495  1  0.531100  0.959600  0.798400  1.0  0.1069
  H  H496  1  0.797000  0.916400  0.703400  1.0  0.1184
  H  H497  1  0.189300  0.964600  0.657900  1.0  0.1242
  H  H498  1  0.296300  0.008800  0.658200  1.0  0.1292
  H  H499  1  0.361700  0.991200  0.595100  1.0  0.1283
  H  H500  1  0.254700  0.947000  0.594800  1.0  0.1245
  H  H501  1  0.331200  0.788400  0.828700  1.0  0.1301
  H  H502  1  0.411800  0.817100  0.856100  1.0  0.1188
  H  H503  1  0.201800  0.885800  0.856200  1.0  0.1229
  H  H504  1  0.121200  0.857100  0.828800  1.0  0.127
  H  H505  1  0.976000  0.891000  0.639300  1.0  0.1173
  H  H506  1  0.962300  0.852700  0.667400  1.0  0.1253
  H  H507  1  0.240100  0.868300  0.683700  1.0  0.1341
  H  H508  1  0.253800  0.906600  0.655600  1.0  0.1231
  H  H509  1  0.045800  0.816900  0.809800  1.0  0.1215
  H  H510  1  0.146500  0.821900  0.700800  1.0  0.1297
  H  H511  1  0.218900  0.790400  0.798400  1.0  0.1069
  H  H512  1  0.953000  0.833600  0.703400  1.0  0.1202
  H  H513  1  0.189300  0.464600  0.157900  1.0  0.1242
  H  H514  1  0.296300  0.508800  0.158200  1.0  0.1292
  H  H515  1  0.361700  0.491200  0.095100  1.0  0.1283
  H  H516  1  0.254700  0.447000  0.094800  1.0  0.1245
  H  H517  1  0.331200  0.288400  0.328700  1.0  0.1301
  H  H518  1  0.411800  0.317100  0.356100  1.0  0.1188
  H  H519  1  0.201800  0.385800  0.356200  1.0  0.1229
  H  H520  1  0.121200  0.357100  0.328800  1.0  0.127
  H  H521  1  0.976000  0.391000  0.139300  1.0  0.1173
  H  H522  1  0.962300  0.352700  0.167400  1.0  0.1253
  H  H523  1  0.240100  0.368300  0.183700  1.0  0.1341
  H  H524  1  0.253800  0.406600  0.155600  1.0  0.1231
  H  H525  1  0.045800  0.316900  0.309800  1.0  0.1215
  H  H526  1  0.146500  0.321900  0.200800  1.0  0.1297
  H  H527  1  0.218900  0.290400  0.298400  1.0  0.1069
  H  H528  1  0.953000  0.333600  0.203400  1.0  0.1202
  H  H529  1  0.689300  0.964600  0.157900  1.0  0.1242
  H  H530  1  0.796300  0.008800  0.158200  1.0  0.1292
  H  H531  1  0.861700  0.991200  0.095100  1.0  0.1283
  H  H532  1  0.754700  0.947000  0.094800  1.0  0.1245
  H  H533  1  0.831200  0.788400  0.328700  1.0  0.1301
  H  H534  1  0.911800  0.817100  0.356100  1.0  0.1188
  H  H535  1  0.701800  0.885800  0.356200  1.0  0.1229
  H  H536  1  0.621200  0.857100  0.328800  1.0  0.127
  H  H537  1  0.476000  0.891000  0.139300  1.0  0.1173
  H  H538  1  0.462300  0.852700  0.167400  1.0  0.1253
  H  H539  1  0.740100  0.868300  0.183700  1.0  0.1341
  H  H540  1  0.753800  0.906600  0.155600  1.0  0.1231
  H  H541  1  0.545800  0.816900  0.309800  1.0  0.1215
  H  H542  1  0.646500  0.821900  0.200800  1.0  0.1297
  H  H543  1  0.718900  0.790400  0.298400  1.0  0.1069
  H  H544  1  0.453000  0.833600  0.203400  1.0  0.1202
  H  H545  1  0.689300  0.464600  0.657900  1.0  0.1242
  H  H546  1  0.796300  0.508800  0.658200  1.0  0.1292
  H  H547  1  0.861700  0.491200  0.595100  1.0  0.1283
  H  H548  1  0.754700  0.447000  0.594800  1.0  0.1245
  H  H549  1  0.831200  0.288400  0.828700  1.0  0.1301
  H  H550  1  0.911800  0.317100  0.856100  1.0  0.1188
  H  H551  1  0.701800  0.385800  0.856200  1.0  0.1229
  H  H552  1  0.621200  0.357100  0.828800  1.0  0.127
  H  H553  1  0.476000  0.391000  0.639300  1.0  0.1173
  H  H554  1  0.462300  0.352700  0.667400  1.0  0.1253
  H  H555  1  0.740100  0.368300  0.683700  1.0  0.1341
  H  H556  1  0.753800  0.406600  0.655600  1.0  0.1231
  H  H557  1  0.545800  0.316900  0.809800  1.0  0.1215
  H  H558  1  0.646500  0.321900  0.700800  1.0  0.1297
  H  H559  1  0.718900  0.290400  0.798400  1.0  0.1069
  H  H560  1  0.453000  0.333600  0.703400  1.0  0.1202
  C  C561  1  0.788600  0.701420  0.376320  1.0  0.0084
  C  C562  1  0.776200  0.719900  0.395330  1.0  -0.1429
  C  C563  1  0.712000  0.746400  0.395510  1.0  -0.0312
  C  C564  1  0.660400  0.754300  0.376700  1.0  -0.0267
  C  C565  1  0.672800  0.735800  0.357670  1.0  -0.0488
  C  C566  1  0.737000  0.709400  0.357490  1.0  -0.1172
  C  C567  1  0.781700  0.569900  0.576020  1.0  0.0394
  C  C568  1  0.694700  0.557940  0.584180  1.0  -0.0891
  C  C569  1  0.646400  0.575100  0.600610  1.0  -0.1242
  C  C570  1  0.685200  0.604300  0.608880  1.0  -0.0204
  C  C571  1  0.772200  0.616270  0.600710  1.0  -0.1221
  C  C572  1  0.820500  0.599100  0.584280  1.0  -0.1293
  C  C573  1  0.883700  0.652610  0.394610  1.0  -0.0026
  C  C574  1  0.971100  0.636500  0.398160  1.0  -0.0984
  C  C575  1  0.979300  0.613500  0.415020  1.0  -0.0851
  C  C576  1  0.900200  0.606700  0.428340  1.0  0.0478
  C  C577  1  0.812800  0.622800  0.424790  1.0  -0.0578
  C  C578  1  0.804600  0.645800  0.407930  1.0  -0.0984
  C  C579  1  0.912300  0.553900  0.551600  1.0  -0.117
  C  C580  1  0.910400  0.582200  0.446400  1.0  -0.1064
  C  C581  1  0.822800  0.552900  0.557100  1.0  -0.0655
  C  C582  1  0.602000  0.784100  0.377400  1.0  0.2574
  C  C583  1  0.989700  0.573000  0.457100  1.0  -0.1179
  C  C584  1  0.954900  0.533700  0.531200  1.0  0.5846
  C  C585  1  0.995000  0.546900  0.474800  1.0  0.5568
  C  C586  1  0.494000  0.829400  0.372000  1.0  0.3391
  C  C587  1  0.286000  0.876100  0.480700  1.0  0.0121
  C  C588  1  0.551000  0.799300  0.366500  1.0  0.2632
  C  C589  1  0.682000  0.442700  0.389600  1.0  0.0846
  C  C590  1  0.788600  0.201420  0.876320  1.0  0.0084
  C  C591  1  0.776200  0.219900  0.895330  1.0  -0.1429
  C  C592  1  0.712000  0.246400  0.895510  1.0  -0.0312
  C  C593  1  0.660400  0.254300  0.876700  1.0  -0.0267
  C  C594  1  0.672800  0.235800  0.857670  1.0  -0.0488
  C  C595  1  0.737000  0.209400  0.857490  1.0  -0.1172
  C  C596  1  0.781700  0.069900  0.076020  1.0  0.0394
  C  C597  1  0.694700  0.057940  0.084180  1.0  -0.0891
  C  C598  1  0.646400  0.075100  0.100610  1.0  -0.1242
  C  C599  1  0.685200  0.104300  0.108880  1.0  -0.0204
  C  C600  1  0.772200  0.116270  0.100710  1.0  -0.1221
  C  C601  1  0.820500  0.099100  0.084280  1.0  -0.1293
  C  C602  1  0.883700  0.152610  0.894610  1.0  -0.0026
  C  C603  1  0.971100  0.136500  0.898160  1.0  -0.0984
  C  C604  1  0.979300  0.113500  0.915020  1.0  -0.0851
  C  C605  1  0.900200  0.106700  0.928340  1.0  0.0478
  C  C606  1  0.812800  0.122800  0.924790  1.0  -0.0578
  C  C607  1  0.804600  0.145800  0.907930  1.0  -0.0984
  C  C608  1  0.912300  0.053900  0.051600  1.0  -0.117
  C  C609  1  0.910400  0.082200  0.946400  1.0  -0.1064
  C  C610  1  0.822800  0.052900  0.057100  1.0  -0.0655
  C  C611  1  0.602000  0.284100  0.877400  1.0  0.2574
  C  C612  1  0.989700  0.073000  0.957100  1.0  -0.1179
  C  C613  1  0.954900  0.033700  0.031200  1.0  0.5846
  C  C614  1  0.995000  0.046900  0.974800  1.0  0.5568
  C  C615  1  0.494000  0.329400  0.872000  1.0  0.3391
  C  C616  1  0.286000  0.376100  0.980700  1.0  0.0121
  C  C617  1  0.551000  0.299300  0.866500  1.0  0.2632
  C  C618  1  0.682000  0.942700  0.889600  1.0  0.0846
  C  C619  1  0.288600  0.701420  0.876320  1.0  0.0084
  C  C620  1  0.276200  0.719900  0.895330  1.0  -0.1429
  C  C621  1  0.212000  0.746400  0.895510  1.0  -0.0312
  C  C622  1  0.160400  0.754300  0.876700  1.0  -0.0267
  C  C623  1  0.172800  0.735800  0.857670  1.0  -0.0488
  C  C624  1  0.237000  0.709400  0.857490  1.0  -0.1172
  C  C625  1  0.281700  0.569900  0.076020  1.0  0.0394
  C  C626  1  0.194700  0.557940  0.084180  1.0  -0.0891
  C  C627  1  0.146400  0.575100  0.100610  1.0  -0.1242
  C  C628  1  0.185200  0.604300  0.108880  1.0  -0.0204
  C  C629  1  0.272200  0.616270  0.100710  1.0  -0.1221
  C  C630  1  0.320500  0.599100  0.084280  1.0  -0.1293
  C  C631  1  0.383700  0.652610  0.894610  1.0  -0.0026
  C  C632  1  0.471100  0.636500  0.898160  1.0  -0.0984
  C  C633  1  0.479300  0.613500  0.915020  1.0  -0.0851
  C  C634  1  0.400200  0.606700  0.928340  1.0  0.0478
  C  C635  1  0.312800  0.622800  0.924790  1.0  -0.0578
  C  C636  1  0.304600  0.645800  0.907930  1.0  -0.0984
  C  C637  1  0.412300  0.553900  0.051600  1.0  -0.117
  C  C638  1  0.410400  0.582200  0.946400  1.0  -0.1064
  C  C639  1  0.322800  0.552900  0.057100  1.0  -0.0655
  C  C640  1  0.102000  0.784100  0.877400  1.0  0.2574
  C  C641  1  0.489700  0.573000  0.957100  1.0  -0.1179
  C  C642  1  0.454900  0.533700  0.031200  1.0  0.5846
  C  C643  1  0.495000  0.546900  0.974800  1.0  0.5568
  C  C644  1  0.994000  0.829400  0.872000  1.0  0.3391
  C  C645  1  0.786000  0.876100  0.980700  1.0  0.0121
  C  C646  1  0.051000  0.799300  0.866500  1.0  0.2632
  C  C647  1  0.182000  0.442700  0.889600  1.0  0.0846
  C  C648  1  0.288600  0.201420  0.376320  1.0  0.0084
  C  C649  1  0.276200  0.219900  0.395330  1.0  -0.1429
  C  C650  1  0.212000  0.246400  0.395510  1.0  -0.0312
  C  C651  1  0.160400  0.254300  0.376700  1.0  -0.0267
  C  C652  1  0.172800  0.235800  0.357670  1.0  -0.0488
  C  C653  1  0.237000  0.209400  0.357490  1.0  -0.1172
  C  C654  1  0.281700  0.069900  0.576020  1.0  0.0394
  C  C655  1  0.194700  0.057940  0.584180  1.0  -0.0891
  C  C656  1  0.146400  0.075100  0.600610  1.0  -0.1242
  C  C657  1  0.185200  0.104300  0.608880  1.0  -0.0204
  C  C658  1  0.272200  0.116270  0.600710  1.0  -0.1221
  C  C659  1  0.320500  0.099100  0.584280  1.0  -0.1293
  C  C660  1  0.383700  0.152610  0.394610  1.0  -0.0026
  C  C661  1  0.471100  0.136500  0.398160  1.0  -0.0984
  C  C662  1  0.479300  0.113500  0.415020  1.0  -0.0851
  C  C663  1  0.400200  0.106700  0.428340  1.0  0.0478
  C  C664  1  0.312800  0.122800  0.424790  1.0  -0.0578
  C  C665  1  0.304600  0.145800  0.407930  1.0  -0.0984
  C  C666  1  0.412300  0.053900  0.551600  1.0  -0.117
  C  C667  1  0.410400  0.082200  0.446400  1.0  -0.1064
  C  C668  1  0.322800  0.052900  0.557100  1.0  -0.0655
  C  C669  1  0.102000  0.284100  0.377400  1.0  0.2574
  C  C670  1  0.489700  0.073000  0.457100  1.0  -0.1179
  C  C671  1  0.454900  0.033700  0.531200  1.0  0.5846
  C  C672  1  0.495000  0.046900  0.474800  1.0  0.5568
  C  C673  1  0.994000  0.329400  0.372000  1.0  0.3391
  C  C674  1  0.786000  0.376100  0.480700  1.0  0.0121
  C  C675  1  0.051000  0.299300  0.366500  1.0  0.2632
  C  C676  1  0.182000  0.942700  0.389600  1.0  0.0846
  C  C677  1  0.961400  0.048580  0.376320  1.0  0.0084
  C  C678  1  0.973800  0.030100  0.395330  1.0  -0.1414
  C  C679  1  0.038000  0.003600  0.395510  1.0  -0.0326
  C  C680  1  0.089600  0.995700  0.376700  1.0  -0.0261
  C  C681  1  0.077200  0.014200  0.357670  1.0  -0.0471
  C  C682  1  0.013000  0.040600  0.357490  1.0  -0.1168
  C  C683  1  0.968300  0.180100  0.576020  1.0  0.0401
  C  C684  1  0.055300  0.192060  0.584180  1.0  -0.0929
  C  C685  1  0.103600  0.174900  0.600610  1.0  -0.1289
  C  C686  1  0.064800  0.145700  0.608880  1.0  -0.0211
  C  C687  1  0.977800  0.133730  0.600710  1.0  -0.1208
  C  C688  1  0.929500  0.150900  0.584280  1.0  -0.1308
  C  C689  1  0.866300  0.097390  0.394610  1.0  -0.0034
  C  C690  1  0.778900  0.113500  0.398160  1.0  -0.0986
  C  C691  1  0.770700  0.136500  0.415020  1.0  -0.0847
  C  C692  1  0.849800  0.143300  0.428340  1.0  0.0485
  C  C693  1  0.937200  0.127200  0.424790  1.0  -0.0544
  C  C694  1  0.945400  0.104200  0.407930  1.0  -0.0977
  C  C695  1  0.837700  0.196100  0.551600  1.0  -0.1173
  C  C696  1  0.839600  0.167800  0.446400  1.0  -0.1081
  C  C697  1  0.927200  0.197100  0.557100  1.0  -0.0655
  C  C698  1  0.148000  0.965900  0.377400  1.0  0.2576
  C  C699  1  0.760300  0.177000  0.457100  1.0  -0.1185
  C  C700  1  0.795100  0.216300  0.531200  1.0  0.5841
  C  C701  1  0.755000  0.203100  0.474800  1.0  0.5575
  C  C702  1  0.256000  0.920600  0.372000  1.0  0.3414
  C  C703  1  0.464000  0.873900  0.480700  1.0  0.0115
  C  C704  1  0.199000  0.950700  0.366500  1.0  0.2652
  C  C705  1  0.068000  0.307300  0.389600  1.0  0.084
  C  C706  1  0.961400  0.548580  0.876320  1.0  0.0084
  C  C707  1  0.973800  0.530100  0.895330  1.0  -0.1414
  C  C708  1  0.038000  0.503600  0.895510  1.0  -0.0326
  C  C709  1  0.089600  0.495700  0.876700  1.0  -0.0261
  C  C710  1  0.077200  0.514200  0.857670  1.0  -0.0471
  C  C711  1  0.013000  0.540600  0.857490  1.0  -0.1168
  C  C712  1  0.968300  0.680100  0.076020  1.0  0.0401
  C  C713  1  0.055300  0.692060  0.084180  1.0  -0.0929
  C  C714  1  0.103600  0.674900  0.100610  1.0  -0.1289
  C  C715  1  0.064800  0.645700  0.108880  1.0  -0.0211
  C  C716  1  0.977800  0.633730  0.100710  1.0  -0.1208
  C  C717  1  0.929500  0.650900  0.084280  1.0  -0.1308
  C  C718  1  0.866300  0.597390  0.894610  1.0  -0.0034
  C  C719  1  0.778900  0.613500  0.898160  1.0  -0.0986
  C  C720  1  0.770700  0.636500  0.915020  1.0  -0.0847
  C  C721  1  0.849800  0.643300  0.928340  1.0  0.0485
  C  C722  1  0.937200  0.627200  0.924790  1.0  -0.0544
  C  C723  1  0.945400  0.604200  0.907930  1.0  -0.0977
  C  C724  1  0.837700  0.696100  0.051600  1.0  -0.1173
  C  C725  1  0.839600  0.667800  0.946400  1.0  -0.1081
  C  C726  1  0.927200  0.697100  0.057100  1.0  -0.0655
  C  C727  1  0.148000  0.465900  0.877400  1.0  0.2576
  C  C728  1  0.760300  0.677000  0.957100  1.0  -0.1185
  C  C729  1  0.795100  0.716300  0.031200  1.0  0.5841
  C  C730  1  0.755000  0.703100  0.974800  1.0  0.5575
  C  C731  1  0.256000  0.420600  0.872000  1.0  0.3414
  C  C732  1  0.464000  0.373900  0.980700  1.0  0.0115
  C  C733  1  0.199000  0.450700  0.866500  1.0  0.2652
  C  C734  1  0.068000  0.807300  0.889600  1.0  0.084
  C  C735  1  0.461400  0.048580  0.876320  1.0  0.0084
  C  C736  1  0.473800  0.030100  0.895330  1.0  -0.1414
  C  C737  1  0.538000  0.003600  0.895510  1.0  -0.0326
  C  C738  1  0.589600  0.995700  0.876700  1.0  -0.0261
  C  C739  1  0.577200  0.014200  0.857670  1.0  -0.0471
  C  C740  1  0.513000  0.040600  0.857490  1.0  -0.1168
  C  C741  1  0.468300  0.180100  0.076020  1.0  0.0401
  C  C742  1  0.555300  0.192060  0.084180  1.0  -0.0929
  C  C743  1  0.603600  0.174900  0.100610  1.0  -0.1289
  C  C744  1  0.564800  0.145700  0.108880  1.0  -0.0211
  C  C745  1  0.477800  0.133730  0.100710  1.0  -0.1208
  C  C746  1  0.429500  0.150900  0.084280  1.0  -0.1308
  C  C747  1  0.366300  0.097390  0.894610  1.0  -0.0034
  C  C748  1  0.278900  0.113500  0.898160  1.0  -0.0986
  C  C749  1  0.270700  0.136500  0.915020  1.0  -0.0847
  C  C750  1  0.349800  0.143300  0.928340  1.0  0.0485
  C  C751  1  0.437200  0.127200  0.924790  1.0  -0.0544
  C  C752  1  0.445400  0.104200  0.907930  1.0  -0.0977
  C  C753  1  0.337700  0.196100  0.051600  1.0  -0.1173
  C  C754  1  0.339600  0.167800  0.946400  1.0  -0.1081
  C  C755  1  0.427200  0.197100  0.057100  1.0  -0.0655
  C  C756  1  0.648000  0.965900  0.877400  1.0  0.2576
  C  C757  1  0.260300  0.177000  0.957100  1.0  -0.1185
  C  C758  1  0.295100  0.216300  0.031200  1.0  0.5841
  C  C759  1  0.255000  0.203100  0.974800  1.0  0.5575
  C  C760  1  0.756000  0.920600  0.872000  1.0  0.3414
  C  C761  1  0.964000  0.873900  0.980700  1.0  0.0115
  C  C762  1  0.699000  0.950700  0.866500  1.0  0.2652
  C  C763  1  0.568000  0.307300  0.889600  1.0  0.084
  C  C764  1  0.461400  0.548580  0.376320  1.0  0.0084
  C  C765  1  0.473800  0.530100  0.395330  1.0  -0.1414
  C  C766  1  0.538000  0.503600  0.395510  1.0  -0.0326
  C  C767  1  0.589600  0.495700  0.376700  1.0  -0.0261
  C  C768  1  0.577200  0.514200  0.357670  1.0  -0.0471
  C  C769  1  0.513000  0.540600  0.357490  1.0  -0.1168
  C  C770  1  0.468300  0.680100  0.576020  1.0  0.0401
  C  C771  1  0.555300  0.692060  0.584180  1.0  -0.0929
  C  C772  1  0.603600  0.674900  0.600610  1.0  -0.1289
  C  C773  1  0.564800  0.645700  0.608880  1.0  -0.0211
  C  C774  1  0.477800  0.633730  0.600710  1.0  -0.1208
  C  C775  1  0.429500  0.650900  0.584280  1.0  -0.1308
  C  C776  1  0.366300  0.597390  0.394610  1.0  -0.0034
  C  C777  1  0.278900  0.613500  0.398160  1.0  -0.0986
  C  C778  1  0.270700  0.636500  0.415020  1.0  -0.0847
  C  C779  1  0.349800  0.643300  0.428340  1.0  0.0485
  C  C780  1  0.437200  0.627200  0.424790  1.0  -0.0544
  C  C781  1  0.445400  0.604200  0.407930  1.0  -0.0977
  C  C782  1  0.337700  0.696100  0.551600  1.0  -0.1173
  C  C783  1  0.339600  0.667800  0.446400  1.0  -0.1081
  C  C784  1  0.427200  0.697100  0.557100  1.0  -0.0655
  C  C785  1  0.648000  0.465900  0.377400  1.0  0.2576
  C  C786  1  0.260300  0.677000  0.457100  1.0  -0.1185
  C  C787  1  0.295100  0.716300  0.531200  1.0  0.5841
  C  C788  1  0.255000  0.703100  0.474800  1.0  0.5575
  C  C789  1  0.756000  0.420600  0.372000  1.0  0.3414
  C  C790  1  0.964000  0.373900  0.480700  1.0  0.0115
  C  C791  1  0.699000  0.450700  0.366500  1.0  0.2652
  C  C792  1  0.568000  0.807300  0.389600  1.0  0.084
  C  C793  1  0.961400  0.701420  0.373680  1.0  0.0087
  C  C794  1  0.973800  0.719900  0.354670  1.0  -0.1407
  C  C795  1  0.038000  0.746400  0.354490  1.0  -0.0301
  C  C796  1  0.089600  0.754300  0.373300  1.0  -0.0273
  C  C797  1  0.077200  0.735800  0.392330  1.0  -0.0482
  C  C798  1  0.013000  0.709400  0.392510  1.0  -0.1154
  C  C799  1  0.968300  0.569900  0.173980  1.0  0.0438
  C  C800  1  0.055300  0.557940  0.165820  1.0  -0.0933
  C  C801  1  0.103600  0.575100  0.149390  1.0  -0.1257
  C  C802  1  0.064800  0.604300  0.141120  1.0  -0.0213
  C  C803  1  0.977800  0.616270  0.149290  1.0  -0.1233
  C  C804  1  0.929500  0.599100  0.165720  1.0  -0.1296
  C  C805  1  0.866300  0.652610  0.355390  1.0  -0.0034
  C  C806  1  0.778900  0.636500  0.351840  1.0  -0.0985
  C  C807  1  0.770700  0.613500  0.334980  1.0  -0.0864
  C  C808  1  0.849800  0.606700  0.321660  1.0  0.0485
  C  C809  1  0.937200  0.622800  0.325210  1.0  -0.0547
  C  C810  1  0.945400  0.645800  0.342070  1.0  -0.097
  C  C811  1  0.837700  0.553900  0.198400  1.0  -0.1174
  C  C812  1  0.839600  0.582200  0.303600  1.0  -0.1071
  C  C813  1  0.927200  0.552900  0.192900  1.0  -0.0632
  C  C814  1  0.148000  0.784100  0.372600  1.0  0.2552
  C  C815  1  0.760300  0.573000  0.292900  1.0  -0.1171
  C  C816  1  0.795100  0.533700  0.218800  1.0  0.5846
  C  C817  1  0.755000  0.546900  0.275200  1.0  0.5569
  C  C818  1  0.256000  0.829400  0.378000  1.0  0.3412
  C  C819  1  0.464000  0.876100  0.269300  1.0  0.0123
  C  C820  1  0.199000  0.799300  0.383500  1.0  0.2609
  C  C821  1  0.068000  0.442700  0.360400  1.0  0.0908
  C  C822  1  0.961400  0.201420  0.873680  1.0  0.0087
  C  C823  1  0.973800  0.219900  0.854670  1.0  -0.1407
  C  C824  1  0.038000  0.246400  0.854490  1.0  -0.0301
  C  C825  1  0.089600  0.254300  0.873300  1.0  -0.0273
  C  C826  1  0.077200  0.235800  0.892330  1.0  -0.0482
  C  C827  1  0.013000  0.209400  0.892510  1.0  -0.1154
  C  C828  1  0.968300  0.069900  0.673980  1.0  0.0438
  C  C829  1  0.055300  0.057940  0.665820  1.0  -0.0933
  C  C830  1  0.103600  0.075100  0.649390  1.0  -0.1257
  C  C831  1  0.064800  0.104300  0.641120  1.0  -0.0213
  C  C832  1  0.977800  0.116270  0.649290  1.0  -0.1233
  C  C833  1  0.929500  0.099100  0.665720  1.0  -0.1296
  C  C834  1  0.866300  0.152610  0.855390  1.0  -0.0034
  C  C835  1  0.778900  0.136500  0.851840  1.0  -0.0985
  C  C836  1  0.770700  0.113500  0.834980  1.0  -0.0864
  C  C837  1  0.849800  0.106700  0.821660  1.0  0.0485
  C  C838  1  0.937200  0.122800  0.825210  1.0  -0.0547
  C  C839  1  0.945400  0.145800  0.842070  1.0  -0.097
  C  C840  1  0.837700  0.053900  0.698400  1.0  -0.1174
  C  C841  1  0.839600  0.082200  0.803600  1.0  -0.1071
  C  C842  1  0.927200  0.052900  0.692900  1.0  -0.0632
  C  C843  1  0.148000  0.284100  0.872600  1.0  0.2552
  C  C844  1  0.760300  0.073000  0.792900  1.0  -0.1171
  C  C845  1  0.795100  0.033700  0.718800  1.0  0.5846
  C  C846  1  0.755000  0.046900  0.775200  1.0  0.5569
  C  C847  1  0.256000  0.329400  0.878000  1.0  0.3412
  C  C848  1  0.464000  0.376100  0.769300  1.0  0.0123
  C  C849  1  0.199000  0.299300  0.883500  1.0  0.2609
  C  C850  1  0.068000  0.942700  0.860400  1.0  0.0908
  C  C851  1  0.461400  0.701420  0.873680  1.0  0.0087
  C  C852  1  0.473800  0.719900  0.854670  1.0  -0.1407
  C  C853  1  0.538000  0.746400  0.854490  1.0  -0.0301
  C  C854  1  0.589600  0.754300  0.873300  1.0  -0.0273
  C  C855  1  0.577200  0.735800  0.892330  1.0  -0.0482
  C  C856  1  0.513000  0.709400  0.892510  1.0  -0.1154
  C  C857  1  0.468300  0.569900  0.673980  1.0  0.0438
  C  C858  1  0.555300  0.557940  0.665820  1.0  -0.0933
  C  C859  1  0.603600  0.575100  0.649390  1.0  -0.1257
  C  C860  1  0.564800  0.604300  0.641120  1.0  -0.0213
  C  C861  1  0.477800  0.616270  0.649290  1.0  -0.1233
  C  C862  1  0.429500  0.599100  0.665720  1.0  -0.1296
  C  C863  1  0.366300  0.652610  0.855390  1.0  -0.0034
  C  C864  1  0.278900  0.636500  0.851840  1.0  -0.0985
  C  C865  1  0.270700  0.613500  0.834980  1.0  -0.0864
  C  C866  1  0.349800  0.606700  0.821660  1.0  0.0485
  C  C867  1  0.437200  0.622800  0.825210  1.0  -0.0547
  C  C868  1  0.445400  0.645800  0.842070  1.0  -0.097
  C  C869  1  0.337700  0.553900  0.698400  1.0  -0.1174
  C  C870  1  0.339600  0.582200  0.803600  1.0  -0.1071
  C  C871  1  0.427200  0.552900  0.692900  1.0  -0.0632
  C  C872  1  0.648000  0.784100  0.872600  1.0  0.2552
  C  C873  1  0.260300  0.573000  0.792900  1.0  -0.1171
  C  C874  1  0.295100  0.533700  0.718800  1.0  0.5846
  C  C875  1  0.255000  0.546900  0.775200  1.0  0.5569
  C  C876  1  0.756000  0.829400  0.878000  1.0  0.3412
  C  C877  1  0.964000  0.876100  0.769300  1.0  0.0123
  C  C878  1  0.699000  0.799300  0.883500  1.0  0.2609
  C  C879  1  0.568000  0.442700  0.860400  1.0  0.0908
  C  C880  1  0.461400  0.201420  0.373680  1.0  0.0087
  C  C881  1  0.473800  0.219900  0.354670  1.0  -0.1407
  C  C882  1  0.538000  0.246400  0.354490  1.0  -0.0301
  C  C883  1  0.589600  0.254300  0.373300  1.0  -0.0273
  C  C884  1  0.577200  0.235800  0.392330  1.0  -0.0482
  C  C885  1  0.513000  0.209400  0.392510  1.0  -0.1154
  C  C886  1  0.468300  0.069900  0.173980  1.0  0.0438
  C  C887  1  0.555300  0.057940  0.165820  1.0  -0.0933
  C  C888  1  0.603600  0.075100  0.149390  1.0  -0.1257
  C  C889  1  0.564800  0.104300  0.141120  1.0  -0.0213
  C  C890  1  0.477800  0.116270  0.149290  1.0  -0.1233
  C  C891  1  0.429500  0.099100  0.165720  1.0  -0.1296
  C  C892  1  0.366300  0.152610  0.355390  1.0  -0.0034
  C  C893  1  0.278900  0.136500  0.351840  1.0  -0.0985
  C  C894  1  0.270700  0.113500  0.334980  1.0  -0.0864
  C  C895  1  0.349800  0.106700  0.321660  1.0  0.0485
  C  C896  1  0.437200  0.122800  0.325210  1.0  -0.0547
  C  C897  1  0.445400  0.145800  0.342070  1.0  -0.097
  C  C898  1  0.337700  0.053900  0.198400  1.0  -0.1174
  C  C899  1  0.339600  0.082200  0.303600  1.0  -0.1071
  C  C900  1  0.427200  0.052900  0.192900  1.0  -0.0632
  C  C901  1  0.648000  0.284100  0.372600  1.0  0.2552
  C  C902  1  0.260300  0.073000  0.292900  1.0  -0.1171
  C  C903  1  0.295100  0.033700  0.218800  1.0  0.5846
  C  C904  1  0.255000  0.046900  0.275200  1.0  0.5569
  C  C905  1  0.756000  0.329400  0.378000  1.0  0.3412
  C  C906  1  0.964000  0.376100  0.269300  1.0  0.0123
  C  C907  1  0.699000  0.299300  0.383500  1.0  0.2609
  C  C908  1  0.568000  0.942700  0.360400  1.0  0.0908
  C  C909  1  0.788600  0.048580  0.373680  1.0  0.0077
  C  C910  1  0.776200  0.030100  0.354670  1.0  -0.1414
  C  C911  1  0.712000  0.003600  0.354490  1.0  -0.0288
  C  C912  1  0.660400  0.995700  0.373300  1.0  -0.0267
  C  C913  1  0.672800  0.014200  0.392330  1.0  -0.0476
  C  C914  1  0.737000  0.040600  0.392510  1.0  -0.1164
  C  C915  1  0.781700  0.180100  0.173980  1.0  0.0419
  C  C916  1  0.694700  0.192060  0.165820  1.0  -0.0928
  C  C917  1  0.646400  0.174900  0.149390  1.0  -0.1261
  C  C918  1  0.685200  0.145700  0.141120  1.0  -0.0213
  C  C919  1  0.772200  0.133730  0.149290  1.0  -0.1226
  C  C920  1  0.820500  0.150900  0.165720  1.0  -0.1292
  C  C921  1  0.883700  0.097390  0.355390  1.0  -0.0044
  C  C922  1  0.971100  0.113500  0.351840  1.0  -0.0978
  C  C923  1  0.979300  0.136500  0.334980  1.0  -0.0847
  C  C924  1  0.900200  0.143300  0.321660  1.0  0.0485
  C  C925  1  0.812800  0.127200  0.325210  1.0  -0.0572
  C  C926  1  0.804600  0.104200  0.342070  1.0  -0.0976
  C  C927  1  0.912300  0.196100  0.198400  1.0  -0.1152
  C  C928  1  0.910400  0.167800  0.303600  1.0  -0.1066
  C  C929  1  0.822800  0.197100  0.192900  1.0  -0.0658
  C  C930  1  0.602000  0.965900  0.372600  1.0  0.2588
  C  C931  1  0.989700  0.177000  0.292900  1.0  -0.1158
  C  C932  1  0.954900  0.216300  0.218800  1.0  0.5849
  C  C933  1  0.995000  0.203100  0.275200  1.0  0.5564
  C  C934  1  0.494000  0.920600  0.378000  1.0  0.3382
  C  C935  1  0.286000  0.873900  0.269300  1.0  0.0126
  C  C936  1  0.551000  0.950700  0.383500  1.0  0.2598
  C  C937  1  0.682000  0.307300  0.360400  1.0  0.0907
  C  C938  1  0.788600  0.548580  0.873680  1.0  0.0077
  C  C939  1  0.776200  0.530100  0.854670  1.0  -0.1414
  C  C940  1  0.712000  0.503600  0.854490  1.0  -0.0288
  C  C941  1  0.660400  0.495700  0.873300  1.0  -0.0267
  C  C942  1  0.672800  0.514200  0.892330  1.0  -0.0476
  C  C943  1  0.737000  0.540600  0.892510  1.0  -0.1164
  C  C944  1  0.781700  0.680100  0.673980  1.0  0.0419
  C  C945  1  0.694700  0.692060  0.665820  1.0  -0.0928
  C  C946  1  0.646400  0.674900  0.649390  1.0  -0.1261
  C  C947  1  0.685200  0.645700  0.641120  1.0  -0.0213
  C  C948  1  0.772200  0.633730  0.649290  1.0  -0.1226
  C  C949  1  0.820500  0.650900  0.665720  1.0  -0.1292
  C  C950  1  0.883700  0.597390  0.855390  1.0  -0.0044
  C  C951  1  0.971100  0.613500  0.851840  1.0  -0.0978
  C  C952  1  0.979300  0.636500  0.834980  1.0  -0.0847
  C  C953  1  0.900200  0.643300  0.821660  1.0  0.0485
  C  C954  1  0.812800  0.627200  0.825210  1.0  -0.0572
  C  C955  1  0.804600  0.604200  0.842070  1.0  -0.0976
  C  C956  1  0.912300  0.696100  0.698400  1.0  -0.1152
  C  C957  1  0.910400  0.667800  0.803600  1.0  -0.1066
  C  C958  1  0.822800  0.697100  0.692900  1.0  -0.0658
  C  C959  1  0.602000  0.465900  0.872600  1.0  0.2588
  C  C960  1  0.989700  0.677000  0.792900  1.0  -0.1158
  C  C961  1  0.954900  0.716300  0.718800  1.0  0.5849
  C  C962  1  0.995000  0.703100  0.775200  1.0  0.5564
  C  C963  1  0.494000  0.420600  0.878000  1.0  0.3382
  C  C964  1  0.286000  0.373900  0.769300  1.0  0.0126
  C  C965  1  0.551000  0.450700  0.883500  1.0  0.2598
  C  C966  1  0.682000  0.807300  0.860400  1.0  0.0907
  C  C967  1  0.288600  0.048580  0.873680  1.0  0.0077
  C  C968  1  0.276200  0.030100  0.854670  1.0  -0.1414
  C  C969  1  0.212000  0.003600  0.854490  1.0  -0.0288
  C  C970  1  0.160400  0.995700  0.873300  1.0  -0.0267
  C  C971  1  0.172800  0.014200  0.892330  1.0  -0.0476
  C  C972  1  0.237000  0.040600  0.892510  1.0  -0.1164
  C  C973  1  0.281700  0.180100  0.673980  1.0  0.0419
  C  C974  1  0.194700  0.192060  0.665820  1.0  -0.0928
  C  C975  1  0.146400  0.174900  0.649390  1.0  -0.1261
  C  C976  1  0.185200  0.145700  0.641120  1.0  -0.0213
  C  C977  1  0.272200  0.133730  0.649290  1.0  -0.1226
  C  C978  1  0.320500  0.150900  0.665720  1.0  -0.1292
  C  C979  1  0.383700  0.097390  0.855390  1.0  -0.0044
  C  C980  1  0.471100  0.113500  0.851840  1.0  -0.0978
  C  C981  1  0.479300  0.136500  0.834980  1.0  -0.0847
  C  C982  1  0.400200  0.143300  0.821660  1.0  0.0485
  C  C983  1  0.312800  0.127200  0.825210  1.0  -0.0572
  C  C984  1  0.304600  0.104200  0.842070  1.0  -0.0976
  C  C985  1  0.412300  0.196100  0.698400  1.0  -0.1152
  C  C986  1  0.410400  0.167800  0.803600  1.0  -0.1066
  C  C987  1  0.322800  0.197100  0.692900  1.0  -0.0658
  C  C988  1  0.102000  0.965900  0.872600  1.0  0.2588
  C  C989  1  0.489700  0.177000  0.792900  1.0  -0.1158
  C  C990  1  0.454900  0.216300  0.718800  1.0  0.5849
  C  C991  1  0.495000  0.203100  0.775200  1.0  0.5564
  C  C992  1  0.994000  0.920600  0.878000  1.0  0.3382
  C  C993  1  0.786000  0.873900  0.769300  1.0  0.0126
  C  C994  1  0.051000  0.950700  0.883500  1.0  0.2598
  C  C995  1  0.182000  0.307300  0.860400  1.0  0.0907
  C  C996  1  0.288600  0.548580  0.373680  1.0  0.0077
  C  C997  1  0.276200  0.530100  0.354670  1.0  -0.1414
  C  C998  1  0.212000  0.503600  0.354490  1.0  -0.0288
  C  C999  1  0.160400  0.495700  0.373300  1.0  -0.0267
  C  C1000  1  0.172800  0.514200  0.392330  1.0  -0.0476
  C  C1001  1  0.237000  0.540600  0.392510  1.0  -0.1164
  C  C1002  1  0.281700  0.680100  0.173980  1.0  0.0419
  C  C1003  1  0.194700  0.692060  0.165820  1.0  -0.0928
  C  C1004  1  0.146400  0.674900  0.149390  1.0  -0.1261
  C  C1005  1  0.185200  0.645700  0.141120  1.0  -0.0213
  C  C1006  1  0.272200  0.633730  0.149290  1.0  -0.1226
  C  C1007  1  0.320500  0.650900  0.165720  1.0  -0.1292
  C  C1008  1  0.383700  0.597390  0.355390  1.0  -0.0044
  C  C1009  1  0.471100  0.613500  0.351840  1.0  -0.0978
  C  C1010  1  0.479300  0.636500  0.334980  1.0  -0.0847
  C  C1011  1  0.400200  0.643300  0.321660  1.0  0.0485
  C  C1012  1  0.312800  0.627200  0.325210  1.0  -0.0572
  C  C1013  1  0.304600  0.604200  0.342070  1.0  -0.0976
  C  C1014  1  0.412300  0.696100  0.198400  1.0  -0.1152
  C  C1015  1  0.410400  0.667800  0.303600  1.0  -0.1066
  C  C1016  1  0.322800  0.697100  0.192900  1.0  -0.0658
  C  C1017  1  0.102000  0.465900  0.372600  1.0  0.2588
  C  C1018  1  0.489700  0.677000  0.292900  1.0  -0.1158
  C  C1019  1  0.454900  0.716300  0.218800  1.0  0.5849
  C  C1020  1  0.495000  0.703100  0.275200  1.0  0.5564
  C  C1021  1  0.994000  0.420600  0.378000  1.0  0.3382
  C  C1022  1  0.786000  0.373900  0.269300  1.0  0.0126
  C  C1023  1  0.051000  0.450700  0.383500  1.0  0.2598
  C  C1024  1  0.182000  0.807300  0.360400  1.0  0.0907
  C  C1025  1  0.211400  0.298580  0.623680  1.0  0.0084
  C  C1026  1  0.223800  0.280100  0.604670  1.0  -0.1405
  C  C1027  1  0.288000  0.253600  0.604490  1.0  -0.0311
  C  C1028  1  0.339600  0.245700  0.623300  1.0  -0.0272
  C  C1029  1  0.327200  0.264200  0.642330  1.0  -0.0477
  C  C1030  1  0.263000  0.290600  0.642510  1.0  -0.1153
  C  C1031  1  0.218300  0.430100  0.423980  1.0  0.0432
  C  C1032  1  0.305300  0.442060  0.415820  1.0  -0.0926
  C  C1033  1  0.353600  0.424900  0.399390  1.0  -0.1276
  C  C1034  1  0.314800  0.395700  0.391120  1.0  -0.0214
  C  C1035  1  0.227800  0.383730  0.399290  1.0  -0.121
  C  C1036  1  0.179500  0.400900  0.415720  1.0  -0.1297
  C  C1037  1  0.116300  0.347390  0.605390  1.0  -0.0046
  C  C1038  1  0.028900  0.363500  0.601840  1.0  -0.0987
  C  C1039  1  0.020700  0.386500  0.584980  1.0  -0.0856
  C  C1040  1  0.099800  0.393300  0.571660  1.0  0.0489
  C  C1041  1  0.187200  0.377200  0.575210  1.0  -0.0551
  C  C1042  1  0.195400  0.354200  0.592070  1.0  -0.0971
  C  C1043  1  0.087700  0.446100  0.448400  1.0  -0.117
  C  C1044  1  0.089600  0.417800  0.553600  1.0  -0.1076
  C  C1045  1  0.177200  0.447100  0.442900  1.0  -0.0637
  C  C1046  1  0.398000  0.215900  0.622600  1.0  0.2589
  C  C1047  1  0.010300  0.427000  0.542900  1.0  -0.1169
  C  C1048  1  0.045100  0.466300  0.468800  1.0  0.5846
  C  C1049  1  0.005000  0.453100  0.525200  1.0  0.5568
  C  C1050  1  0.506000  0.170600  0.628000  1.0  0.341
  C  C1051  1  0.714000  0.123900  0.519300  1.0  0.0123
  C  C1052  1  0.449000  0.200700  0.633500  1.0  0.2615
  C  C1053  1  0.318000  0.557300  0.610400  1.0  0.0912
  C  C1054  1  0.211400  0.798580  0.123680  1.0  0.0084
  C  C1055  1  0.223800  0.780100  0.104670  1.0  -0.1405
  C  C1056  1  0.288000  0.753600  0.104490  1.0  -0.0311
  C  C1057  1  0.339600  0.745700  0.123300  1.0  -0.0272
  C  C1058  1  0.327200  0.764200  0.142330  1.0  -0.0477
  C  C1059  1  0.263000  0.790600  0.142510  1.0  -0.1153
  C  C1060  1  0.218300  0.930100  0.923980  1.0  0.0432
  C  C1061  1  0.305300  0.942060  0.915820  1.0  -0.0926
  C  C1062  1  0.353600  0.924900  0.899390  1.0  -0.1276
  C  C1063  1  0.314800  0.895700  0.891120  1.0  -0.0214
  C  C1064  1  0.227800  0.883730  0.899290  1.0  -0.121
  C  C1065  1  0.179500  0.900900  0.915720  1.0  -0.1297
  C  C1066  1  0.116300  0.847390  0.105390  1.0  -0.0046
  C  C1067  1  0.028900  0.863500  0.101840  1.0  -0.0987
  C  C1068  1  0.020700  0.886500  0.084980  1.0  -0.0856
  C  C1069  1  0.099800  0.893300  0.071660  1.0  0.0489
  C  C1070  1  0.187200  0.877200  0.075210  1.0  -0.0551
  C  C1071  1  0.195400  0.854200  0.092070  1.0  -0.0971
  C  C1072  1  0.087700  0.946100  0.948400  1.0  -0.117
  C  C1073  1  0.089600  0.917800  0.053600  1.0  -0.1076
  C  C1074  1  0.177200  0.947100  0.942900  1.0  -0.0637
  C  C1075  1  0.398000  0.715900  0.122600  1.0  0.2589
  C  C1076  1  0.010300  0.927000  0.042900  1.0  -0.1169
  C  C1077  1  0.045100  0.966300  0.968800  1.0  0.5846
  C  C1078  1  0.005000  0.953100  0.025200  1.0  0.5568
  C  C1079  1  0.506000  0.670600  0.128000  1.0  0.341
  C  C1080  1  0.714000  0.623900  0.019300  1.0  0.0123
  C  C1081  1  0.449000  0.700700  0.133500  1.0  0.2615
  C  C1082  1  0.318000  0.057300  0.110400  1.0  0.0912
  C  C1083  1  0.711400  0.298580  0.123680  1.0  0.0084
  C  C1084  1  0.723800  0.280100  0.104670  1.0  -0.1405
  C  C1085  1  0.788000  0.253600  0.104490  1.0  -0.0311
  C  C1086  1  0.839600  0.245700  0.123300  1.0  -0.0272
  C  C1087  1  0.827200  0.264200  0.142330  1.0  -0.0477
  C  C1088  1  0.763000  0.290600  0.142510  1.0  -0.1153
  C  C1089  1  0.718300  0.430100  0.923980  1.0  0.0432
  C  C1090  1  0.805300  0.442060  0.915820  1.0  -0.0926
  C  C1091  1  0.853600  0.424900  0.899390  1.0  -0.1276
  C  C1092  1  0.814800  0.395700  0.891120  1.0  -0.0214
  C  C1093  1  0.727800  0.383730  0.899290  1.0  -0.121
  C  C1094  1  0.679500  0.400900  0.915720  1.0  -0.1297
  C  C1095  1  0.616300  0.347390  0.105390  1.0  -0.0046
  C  C1096  1  0.528900  0.363500  0.101840  1.0  -0.0987
  C  C1097  1  0.520700  0.386500  0.084980  1.0  -0.0856
  C  C1098  1  0.599800  0.393300  0.071660  1.0  0.0489
  C  C1099  1  0.687200  0.377200  0.075210  1.0  -0.0551
  C  C1100  1  0.695400  0.354200  0.092070  1.0  -0.0971
  C  C1101  1  0.587700  0.446100  0.948400  1.0  -0.117
  C  C1102  1  0.589600  0.417800  0.053600  1.0  -0.1076
  C  C1103  1  0.677200  0.447100  0.942900  1.0  -0.0637
  C  C1104  1  0.898000  0.215900  0.122600  1.0  0.2589
  C  C1105  1  0.510300  0.427000  0.042900  1.0  -0.1169
  C  C1106  1  0.545100  0.466300  0.968800  1.0  0.5846
  C  C1107  1  0.505000  0.453100  0.025200  1.0  0.5568
  C  C1108  1  0.006000  0.170600  0.128000  1.0  0.341
  C  C1109  1  0.214000  0.123900  0.019300  1.0  0.0123
  C  C1110  1  0.949000  0.200700  0.133500  1.0  0.2615
  C  C1111  1  0.818000  0.557300  0.110400  1.0  0.0912
  C  C1112  1  0.711400  0.798580  0.623680  1.0  0.0084
  C  C1113  1  0.723800  0.780100  0.604670  1.0  -0.1405
  C  C1114  1  0.788000  0.753600  0.604490  1.0  -0.0311
  C  C1115  1  0.839600  0.745700  0.623300  1.0  -0.0272
  C  C1116  1  0.827200  0.764200  0.642330  1.0  -0.0477
  C  C1117  1  0.763000  0.790600  0.642510  1.0  -0.1153
  C  C1118  1  0.718300  0.930100  0.423980  1.0  0.0432
  C  C1119  1  0.805300  0.942060  0.415820  1.0  -0.0926
  C  C1120  1  0.853600  0.924900  0.399390  1.0  -0.1276
  C  C1121  1  0.814800  0.895700  0.391120  1.0  -0.0214
  C  C1122  1  0.727800  0.883730  0.399290  1.0  -0.121
  C  C1123  1  0.679500  0.900900  0.415720  1.0  -0.1297
  C  C1124  1  0.616300  0.847390  0.605390  1.0  -0.0046
  C  C1125  1  0.528900  0.863500  0.601840  1.0  -0.0987
  C  C1126  1  0.520700  0.886500  0.584980  1.0  -0.0856
  C  C1127  1  0.599800  0.893300  0.571660  1.0  0.0489
  C  C1128  1  0.687200  0.877200  0.575210  1.0  -0.0551
  C  C1129  1  0.695400  0.854200  0.592070  1.0  -0.0971
  C  C1130  1  0.587700  0.946100  0.448400  1.0  -0.117
  C  C1131  1  0.589600  0.917800  0.553600  1.0  -0.1076
  C  C1132  1  0.677200  0.947100  0.442900  1.0  -0.0637
  C  C1133  1  0.898000  0.715900  0.622600  1.0  0.2589
  C  C1134  1  0.510300  0.927000  0.542900  1.0  -0.1169
  C  C1135  1  0.545100  0.966300  0.468800  1.0  0.5846
  C  C1136  1  0.505000  0.953100  0.525200  1.0  0.5568
  C  C1137  1  0.006000  0.670600  0.628000  1.0  0.341
  C  C1138  1  0.214000  0.623900  0.519300  1.0  0.0123
  C  C1139  1  0.949000  0.700700  0.633500  1.0  0.2615
  C  C1140  1  0.818000  0.057300  0.610400  1.0  0.0912
  C  C1141  1  0.038600  0.951420  0.623680  1.0  0.0083
  C  C1142  1  0.026200  0.969900  0.604670  1.0  -0.1417
  C  C1143  1  0.962000  0.996400  0.604490  1.0  -0.0284
  C  C1144  1  0.910400  0.004300  0.623300  1.0  -0.0269
  C  C1145  1  0.922800  0.985800  0.642330  1.0  -0.0482
  C  C1146  1  0.987000  0.959400  0.642510  1.0  -0.1168
  C  C1147  1  0.031700  0.819900  0.423980  1.0  0.0424
  C  C1148  1  0.944700  0.807940  0.415820  1.0  -0.093
  C  C1149  1  0.896400  0.825100  0.399390  1.0  -0.1238
  C  C1150  1  0.935200  0.854300  0.391120  1.0  -0.0213
  C  C1151  1  0.022200  0.866270  0.399290  1.0  -0.1214
  C  C1152  1  0.070500  0.849100  0.415720  1.0  -0.128
  C  C1153  1  0.133700  0.902610  0.605390  1.0  -0.0035
  C  C1154  1  0.221100  0.886500  0.601840  1.0  -0.0988
  C  C1155  1  0.229300  0.863500  0.584980  1.0  -0.086
  C  C1156  1  0.150200  0.856700  0.571660  1.0  0.0481
  C  C1157  1  0.062800  0.872800  0.575210  1.0  -0.0566
  C  C1158  1  0.054600  0.895800  0.592070  1.0  -0.0975
  C  C1159  1  0.162300  0.803900  0.448400  1.0  -0.1158
  C  C1160  1  0.160400  0.832200  0.553600  1.0  -0.106
  C  C1161  1  0.072800  0.802900  0.442900  1.0  -0.0656
  C  C1162  1  0.852000  0.034100  0.622600  1.0  0.257
  C  C1163  1  0.239700  0.823000  0.542900  1.0  -0.1159
  C  C1164  1  0.204900  0.783700  0.468800  1.0  0.5851
  C  C1165  1  0.245000  0.796900  0.525200  1.0  0.556
  C  C1166  1  0.744000  0.079400  0.628000  1.0  0.3383
  C  C1167  1  0.536000  0.126100  0.519300  1.0  0.0126
  C  C1168  1  0.801000  0.049300  0.633500  1.0  0.259
  C  C1169  1  0.932000  0.692700  0.610400  1.0  0.0902
  C  C1170  1  0.038600  0.451420  0.123680  1.0  0.0083
  C  C1171  1  0.026200  0.469900  0.104670  1.0  -0.1417
  C  C1172  1  0.962000  0.496400  0.104490  1.0  -0.0284
  C  C1173  1  0.910400  0.504300  0.123300  1.0  -0.0269
  C  C1174  1  0.922800  0.485800  0.142330  1.0  -0.0482
  C  C1175  1  0.987000  0.459400  0.142510  1.0  -0.1168
  C  C1176  1  0.031700  0.319900  0.923980  1.0  0.0424
  C  C1177  1  0.944700  0.307940  0.915820  1.0  -0.093
  C  C1178  1  0.896400  0.325100  0.899390  1.0  -0.1238
  C  C1179  1  0.935200  0.354300  0.891120  1.0  -0.0213
  C  C1180  1  0.022200  0.366270  0.899290  1.0  -0.1214
  C  C1181  1  0.070500  0.349100  0.915720  1.0  -0.128
  C  C1182  1  0.133700  0.402610  0.105390  1.0  -0.0035
  C  C1183  1  0.221100  0.386500  0.101840  1.0  -0.0988
  C  C1184  1  0.229300  0.363500  0.084980  1.0  -0.086
  C  C1185  1  0.150200  0.356700  0.071660  1.0  0.0481
  C  C1186  1  0.062800  0.372800  0.075210  1.0  -0.0566
  C  C1187  1  0.054600  0.395800  0.092070  1.0  -0.0975
  C  C1188  1  0.162300  0.303900  0.948400  1.0  -0.1158
  C  C1189  1  0.160400  0.332200  0.053600  1.0  -0.106
  C  C1190  1  0.072800  0.302900  0.942900  1.0  -0.0656
  C  C1191  1  0.852000  0.534100  0.122600  1.0  0.257
  C  C1192  1  0.239700  0.323000  0.042900  1.0  -0.1159
  C  C1193  1  0.204900  0.283700  0.968800  1.0  0.5851
  C  C1194  1  0.245000  0.296900  0.025200  1.0  0.556
  C  C1195  1  0.744000  0.579400  0.128000  1.0  0.3383
  C  C1196  1  0.536000  0.626100  0.019300  1.0  0.0126
  C  C1197  1  0.801000  0.549300  0.133500  1.0  0.259
  C  C1198  1  0.932000  0.192700  0.110400  1.0  0.0902
  C  C1199  1  0.538600  0.951420  0.123680  1.0  0.0083
  C  C1200  1  0.526200  0.969900  0.104670  1.0  -0.1417
  C  C1201  1  0.462000  0.996400  0.104490  1.0  -0.0284
  C  C1202  1  0.410400  0.004300  0.123300  1.0  -0.0269
  C  C1203  1  0.422800  0.985800  0.142330  1.0  -0.0482
  C  C1204  1  0.487000  0.959400  0.142510  1.0  -0.1168
  C  C1205  1  0.531700  0.819900  0.923980  1.0  0.0424
  C  C1206  1  0.444700  0.807940  0.915820  1.0  -0.093
  C  C1207  1  0.396400  0.825100  0.899390  1.0  -0.1238
  C  C1208  1  0.435200  0.854300  0.891120  1.0  -0.0213
  C  C1209  1  0.522200  0.866270  0.899290  1.0  -0.1214
  C  C1210  1  0.570500  0.849100  0.915720  1.0  -0.128
  C  C1211  1  0.633700  0.902610  0.105390  1.0  -0.0035
  C  C1212  1  0.721100  0.886500  0.101840  1.0  -0.0988
  C  C1213  1  0.729300  0.863500  0.084980  1.0  -0.086
  C  C1214  1  0.650200  0.856700  0.071660  1.0  0.0481
  C  C1215  1  0.562800  0.872800  0.075210  1.0  -0.0566
  C  C1216  1  0.554600  0.895800  0.092070  1.0  -0.0975
  C  C1217  1  0.662300  0.803900  0.948400  1.0  -0.1158
  C  C1218  1  0.660400  0.832200  0.053600  1.0  -0.106
  C  C1219  1  0.572800  0.802900  0.942900  1.0  -0.0656
  C  C1220  1  0.352000  0.034100  0.122600  1.0  0.257
  C  C1221  1  0.739700  0.823000  0.042900  1.0  -0.1159
  C  C1222  1  0.704900  0.783700  0.968800  1.0  0.5851
  C  C1223  1  0.745000  0.796900  0.025200  1.0  0.556
  C  C1224  1  0.244000  0.079400  0.128000  1.0  0.3383
  C  C1225  1  0.036000  0.126100  0.019300  1.0  0.0126
  C  C1226  1  0.301000  0.049300  0.133500  1.0  0.259
  C  C1227  1  0.432000  0.692700  0.110400  1.0  0.0902
  C  C1228  1  0.538600  0.451420  0.623680  1.0  0.0083
  C  C1229  1  0.526200  0.469900  0.604670  1.0  -0.1417
  C  C1230  1  0.462000  0.496400  0.604490  1.0  -0.0284
  C  C1231  1  0.410400  0.504300  0.623300  1.0  -0.0269
  C  C1232  1  0.422800  0.485800  0.642330  1.0  -0.0482
  C  C1233  1  0.487000  0.459400  0.642510  1.0  -0.1168
  C  C1234  1  0.531700  0.319900  0.423980  1.0  0.0424
  C  C1235  1  0.444700  0.307940  0.415820  1.0  -0.093
  C  C1236  1  0.396400  0.325100  0.399390  1.0  -0.1238
  C  C1237  1  0.435200  0.354300  0.391120  1.0  -0.0213
  C  C1238  1  0.522200  0.366270  0.399290  1.0  -0.1214
  C  C1239  1  0.570500  0.349100  0.415720  1.0  -0.128
  C  C1240  1  0.633700  0.402610  0.605390  1.0  -0.0035
  C  C1241  1  0.721100  0.386500  0.601840  1.0  -0.0988
  C  C1242  1  0.729300  0.363500  0.584980  1.0  -0.086
  C  C1243  1  0.650200  0.356700  0.571660  1.0  0.0481
  C  C1244  1  0.562800  0.372800  0.575210  1.0  -0.0566
  C  C1245  1  0.554600  0.395800  0.592070  1.0  -0.0975
  C  C1246  1  0.662300  0.303900  0.448400  1.0  -0.1158
  C  C1247  1  0.660400  0.332200  0.553600  1.0  -0.106
  C  C1248  1  0.572800  0.302900  0.442900  1.0  -0.0656
  C  C1249  1  0.352000  0.534100  0.622600  1.0  0.257
  C  C1250  1  0.739700  0.323000  0.542900  1.0  -0.1159
  C  C1251  1  0.704900  0.283700  0.468800  1.0  0.5851
  C  C1252  1  0.745000  0.296900  0.525200  1.0  0.556
  C  C1253  1  0.244000  0.579400  0.628000  1.0  0.3383
  C  C1254  1  0.036000  0.626100  0.519300  1.0  0.0126
  C  C1255  1  0.301000  0.549300  0.633500  1.0  0.259
  C  C1256  1  0.432000  0.192700  0.610400  1.0  0.0902
  C  C1257  1  0.038600  0.298580  0.626320  1.0  0.0077
  C  C1258  1  0.026200  0.280100  0.645330  1.0  -0.1433
  C  C1259  1  0.962000  0.253600  0.645510  1.0  -0.0306
  C  C1260  1  0.910400  0.245700  0.626700  1.0  -0.026
  C  C1261  1  0.922800  0.264200  0.607670  1.0  -0.0479
  C  C1262  1  0.987000  0.290600  0.607490  1.0  -0.1169
  C  C1263  1  0.031700  0.430100  0.826020  1.0  0.04
  C  C1264  1  0.944700  0.442060  0.834180  1.0  -0.0895
  C  C1265  1  0.896400  0.424900  0.850610  1.0  -0.1262
  C  C1266  1  0.935200  0.395700  0.858880  1.0  -0.0209
  C  C1267  1  0.022200  0.383730  0.850710  1.0  -0.1238
  C  C1268  1  0.070500  0.400900  0.834280  1.0  -0.1313
  C  C1269  1  0.133700  0.347390  0.644610  1.0  -0.0031
  C  C1270  1  0.221100  0.363500  0.648160  1.0  -0.0979
  C  C1271  1  0.229300  0.386500  0.665020  1.0  -0.0836
  C  C1272  1  0.150200  0.393300  0.678340  1.0  0.0481
  C  C1273  1  0.062800  0.377200  0.674790  1.0  -0.0587
  C  C1274  1  0.054600  0.354200  0.657930  1.0  -0.0985
  C  C1275  1  0.162300  0.446100  0.801600  1.0  -0.1154
  C  C1276  1  0.160400  0.417800  0.696400  1.0  -0.1069
  C  C1277  1  0.072800  0.447100  0.807100  1.0  -0.0661
  C  C1278  1  0.852000  0.215900  0.627400  1.0  0.2593
  C  C1279  1  0.239700  0.427000  0.707100  1.0  -0.1178
  C  C1280  1  0.204900  0.466300  0.781200  1.0  0.5846
  C  C1281  1  0.245000  0.453100  0.724800  1.0  0.5568
  C  C1282  1  0.744000  0.170600  0.622000  1.0  0.3399
  C  C1283  1  0.536000  0.123900  0.730700  1.0  0.0119
  C  C1284  1  0.801000  0.200700  0.616500  1.0  0.2645
  C  C1285  1  0.932000  0.557300  0.639600  1.0  0.0842
  C  C1286  1  0.038600  0.798580  0.126320  1.0  0.0077
  C  C1287  1  0.026200  0.780100  0.145330  1.0  -0.1433
  C  C1288  1  0.962000  0.753600  0.145510  1.0  -0.0306
  C  C1289  1  0.910400  0.745700  0.126700  1.0  -0.026
  C  C1290  1  0.922800  0.764200  0.107670  1.0  -0.0479
  C  C1291  1  0.987000  0.790600  0.107490  1.0  -0.1169
  C  C1292  1  0.031700  0.930100  0.326020  1.0  0.04
  C  C1293  1  0.944700  0.942060  0.334180  1.0  -0.0895
  C  C1294  1  0.896400  0.924900  0.350610  1.0  -0.1262
  C  C1295  1  0.935200  0.895700  0.358880  1.0  -0.0209
  C  C1296  1  0.022200  0.883730  0.350710  1.0  -0.1238
  C  C1297  1  0.070500  0.900900  0.334280  1.0  -0.1313
  C  C1298  1  0.133700  0.847390  0.144610  1.0  -0.0031
  C  C1299  1  0.221100  0.863500  0.148160  1.0  -0.0979
  C  C1300  1  0.229300  0.886500  0.165020  1.0  -0.0836
  C  C1301  1  0.150200  0.893300  0.178340  1.0  0.0481
  C  C1302  1  0.062800  0.877200  0.174790  1.0  -0.0587
  C  C1303  1  0.054600  0.854200  0.157930  1.0  -0.0985
  C  C1304  1  0.162300  0.946100  0.301600  1.0  -0.1154
  C  C1305  1  0.160400  0.917800  0.196400  1.0  -0.1069
  C  C1306  1  0.072800  0.947100  0.307100  1.0  -0.0661
  C  C1307  1  0.852000  0.715900  0.127400  1.0  0.2593
  C  C1308  1  0.239700  0.927000  0.207100  1.0  -0.1178
  C  C1309  1  0.204900  0.966300  0.281200  1.0  0.5846
  C  C1310  1  0.245000  0.953100  0.224800  1.0  0.5568
  C  C1311  1  0.744000  0.670600  0.122000  1.0  0.3399
  C  C1312  1  0.536000  0.623900  0.230700  1.0  0.0119
  C  C1313  1  0.801000  0.700700  0.116500  1.0  0.2645
  C  C1314  1  0.932000  0.057300  0.139600  1.0  0.0842
  C  C1315  1  0.538600  0.298580  0.126320  1.0  0.0077
  C  C1316  1  0.526200  0.280100  0.145330  1.0  -0.1433
  C  C1317  1  0.462000  0.253600  0.145510  1.0  -0.0306
  C  C1318  1  0.410400  0.245700  0.126700  1.0  -0.026
  C  C1319  1  0.422800  0.264200  0.107670  1.0  -0.0479
  C  C1320  1  0.487000  0.290600  0.107490  1.0  -0.1169
  C  C1321  1  0.531700  0.430100  0.326020  1.0  0.04
  C  C1322  1  0.444700  0.442060  0.334180  1.0  -0.0895
  C  C1323  1  0.396400  0.424900  0.350610  1.0  -0.1262
  C  C1324  1  0.435200  0.395700  0.358880  1.0  -0.0209
  C  C1325  1  0.522200  0.383730  0.350710  1.0  -0.1238
  C  C1326  1  0.570500  0.400900  0.334280  1.0  -0.1313
  C  C1327  1  0.633700  0.347390  0.144610  1.0  -0.0031
  C  C1328  1  0.721100  0.363500  0.148160  1.0  -0.0979
  C  C1329  1  0.729300  0.386500  0.165020  1.0  -0.0836
  C  C1330  1  0.650200  0.393300  0.178340  1.0  0.0481
  C  C1331  1  0.562800  0.377200  0.174790  1.0  -0.0587
  C  C1332  1  0.554600  0.354200  0.157930  1.0  -0.0985
  C  C1333  1  0.662300  0.446100  0.301600  1.0  -0.1154
  C  C1334  1  0.660400  0.417800  0.196400  1.0  -0.1069
  C  C1335  1  0.572800  0.447100  0.307100  1.0  -0.0661
  C  C1336  1  0.352000  0.215900  0.127400  1.0  0.2593
  C  C1337  1  0.739700  0.427000  0.207100  1.0  -0.1178
  C  C1338  1  0.704900  0.466300  0.281200  1.0  0.5846
  C  C1339  1  0.745000  0.453100  0.224800  1.0  0.5568
  C  C1340  1  0.244000  0.170600  0.122000  1.0  0.3399
  C  C1341  1  0.036000  0.123900  0.230700  1.0  0.0119
  C  C1342  1  0.301000  0.200700  0.116500  1.0  0.2645
  C  C1343  1  0.432000  0.557300  0.139600  1.0  0.0842
  C  C1344  1  0.538600  0.798580  0.626320  1.0  0.0077
  C  C1345  1  0.526200  0.780100  0.645330  1.0  -0.1433
  C  C1346  1  0.462000  0.753600  0.645510  1.0  -0.0306
  C  C1347  1  0.410400  0.745700  0.626700  1.0  -0.026
  C  C1348  1  0.422800  0.764200  0.607670  1.0  -0.0479
  C  C1349  1  0.487000  0.790600  0.607490  1.0  -0.1169
  C  C1350  1  0.531700  0.930100  0.826020  1.0  0.04
  C  C1351  1  0.444700  0.942060  0.834180  1.0  -0.0895
  C  C1352  1  0.396400  0.924900  0.850610  1.0  -0.1262
  C  C1353  1  0.435200  0.895700  0.858880  1.0  -0.0209
  C  C1354  1  0.522200  0.883730  0.850710  1.0  -0.1238
  C  C1355  1  0.570500  0.900900  0.834280  1.0  -0.1313
  C  C1356  1  0.633700  0.847390  0.644610  1.0  -0.0031
  C  C1357  1  0.721100  0.863500  0.648160  1.0  -0.0979
  C  C1358  1  0.729300  0.886500  0.665020  1.0  -0.0836
  C  C1359  1  0.650200  0.893300  0.678340  1.0  0.0481
  C  C1360  1  0.562800  0.877200  0.674790  1.0  -0.0587
  C  C1361  1  0.554600  0.854200  0.657930  1.0  -0.0985
  C  C1362  1  0.662300  0.946100  0.801600  1.0  -0.1154
  C  C1363  1  0.660400  0.917800  0.696400  1.0  -0.1069
  C  C1364  1  0.572800  0.947100  0.807100  1.0  -0.0661
  C  C1365  1  0.352000  0.715900  0.627400  1.0  0.2593
  C  C1366  1  0.739700  0.927000  0.707100  1.0  -0.1178
  C  C1367  1  0.704900  0.966300  0.781200  1.0  0.5846
  C  C1368  1  0.745000  0.953100  0.724800  1.0  0.5568
  C  C1369  1  0.244000  0.670600  0.622000  1.0  0.3399
  C  C1370  1  0.036000  0.623900  0.730700  1.0  0.0119
  C  C1371  1  0.301000  0.700700  0.616500  1.0  0.2645
  C  C1372  1  0.432000  0.057300  0.639600  1.0  0.0842
  C  C1373  1  0.211400  0.951420  0.626320  1.0  0.0088
  C  C1374  1  0.223800  0.969900  0.645330  1.0  -0.1409
  C  C1375  1  0.288000  0.996400  0.645510  1.0  -0.0324
  C  C1376  1  0.339600  0.004300  0.626700  1.0  -0.0269
  C  C1377  1  0.327200  0.985800  0.607670  1.0  -0.0482
  C  C1378  1  0.263000  0.959400  0.607490  1.0  -0.1168
  C  C1379  1  0.218300  0.819900  0.826020  1.0  0.0394
  C  C1380  1  0.305300  0.807940  0.834180  1.0  -0.0923
  C  C1381  1  0.353600  0.825100  0.850610  1.0  -0.1279
  C  C1382  1  0.314800  0.854300  0.858880  1.0  -0.0206
  C  C1383  1  0.227800  0.866270  0.850710  1.0  -0.1225
  C  C1384  1  0.179500  0.849100  0.834280  1.0  -0.1299
  C  C1385  1  0.116300  0.902610  0.644610  1.0  -0.0028
  C  C1386  1  0.028900  0.886500  0.648160  1.0  -0.0981
  C  C1387  1  0.020700  0.863500  0.665020  1.0  -0.0856
  C  C1388  1  0.099800  0.856700  0.678340  1.0  0.048
  C  C1389  1  0.187200  0.872800  0.674790  1.0  -0.0543
  C  C1390  1  0.195400  0.895800  0.657930  1.0  -0.0977
  C  C1391  1  0.087700  0.803900  0.801600  1.0  -0.1187
  C  C1392  1  0.089600  0.832200  0.696400  1.0  -0.1074
  C  C1393  1  0.177200  0.802900  0.807100  1.0  -0.0647
  C  C1394  1  0.398000  0.034100  0.627400  1.0  0.2547
  C  C1395  1  0.010300  0.823000  0.707100  1.0  -0.1186
  C  C1396  1  0.045100  0.783700  0.781200  1.0  0.5843
  C  C1397  1  0.005000  0.796900  0.724800  1.0  0.5574
  C  C1398  1  0.506000  0.079400  0.622000  1.0  0.341
  C  C1399  1  0.714000  0.126100  0.730700  1.0  0.0118
  C  C1400  1  0.449000  0.049300  0.616500  1.0  0.2643
  C  C1401  1  0.318000  0.692700  0.639600  1.0  0.0843
  C  C1402  1  0.211400  0.451420  0.126320  1.0  0.0088
  C  C1403  1  0.223800  0.469900  0.145330  1.0  -0.1409
  C  C1404  1  0.288000  0.496400  0.145510  1.0  -0.0324
  C  C1405  1  0.339600  0.504300  0.126700  1.0  -0.0269
  C  C1406  1  0.327200  0.485800  0.107670  1.0  -0.0482
  C  C1407  1  0.263000  0.459400  0.107490  1.0  -0.1168
  C  C1408  1  0.218300  0.319900  0.326020  1.0  0.0394
  C  C1409  1  0.305300  0.307940  0.334180  1.0  -0.0923
  C  C1410  1  0.353600  0.325100  0.350610  1.0  -0.1279
  C  C1411  1  0.314800  0.354300  0.358880  1.0  -0.0206
  C  C1412  1  0.227800  0.366270  0.350710  1.0  -0.1225
  C  C1413  1  0.179500  0.349100  0.334280  1.0  -0.1299
  C  C1414  1  0.116300  0.402610  0.144610  1.0  -0.0028
  C  C1415  1  0.028900  0.386500  0.148160  1.0  -0.0981
  C  C1416  1  0.020700  0.363500  0.165020  1.0  -0.0856
  C  C1417  1  0.099800  0.356700  0.178340  1.0  0.048
  C  C1418  1  0.187200  0.372800  0.174790  1.0  -0.0543
  C  C1419  1  0.195400  0.395800  0.157930  1.0  -0.0977
  C  C1420  1  0.087700  0.303900  0.301600  1.0  -0.1187
  C  C1421  1  0.089600  0.332200  0.196400  1.0  -0.1074
  C  C1422  1  0.177200  0.302900  0.307100  1.0  -0.0647
  C  C1423  1  0.398000  0.534100  0.127400  1.0  0.2547
  C  C1424  1  0.010300  0.323000  0.207100  1.0  -0.1186
  C  C1425  1  0.045100  0.283700  0.281200  1.0  0.5843
  C  C1426  1  0.005000  0.296900  0.224800  1.0  0.5574
  C  C1427  1  0.506000  0.579400  0.122000  1.0  0.341
  C  C1428  1  0.714000  0.626100  0.230700  1.0  0.0118
  C  C1429  1  0.449000  0.549300  0.116500  1.0  0.2643
  C  C1430  1  0.318000  0.192700  0.139600  1.0  0.0843
  C  C1431  1  0.711400  0.951420  0.126320  1.0  0.0088
  C  C1432  1  0.723800  0.969900  0.145330  1.0  -0.1409
  C  C1433  1  0.788000  0.996400  0.145510  1.0  -0.0324
  C  C1434  1  0.839600  0.004300  0.126700  1.0  -0.0269
  C  C1435  1  0.827200  0.985800  0.107670  1.0  -0.0482
  C  C1436  1  0.763000  0.959400  0.107490  1.0  -0.1168
  C  C1437  1  0.718300  0.819900  0.326020  1.0  0.0394
  C  C1438  1  0.805300  0.807940  0.334180  1.0  -0.0923
  C  C1439  1  0.853600  0.825100  0.350610  1.0  -0.1279
  C  C1440  1  0.814800  0.854300  0.358880  1.0  -0.0206
  C  C1441  1  0.727800  0.866270  0.350710  1.0  -0.1225
  C  C1442  1  0.679500  0.849100  0.334280  1.0  -0.1299
  C  C1443  1  0.616300  0.902610  0.144610  1.0  -0.0028
  C  C1444  1  0.528900  0.886500  0.148160  1.0  -0.0981
  C  C1445  1  0.520700  0.863500  0.165020  1.0  -0.0856
  C  C1446  1  0.599800  0.856700  0.178340  1.0  0.048
  C  C1447  1  0.687200  0.872800  0.174790  1.0  -0.0543
  C  C1448  1  0.695400  0.895800  0.157930  1.0  -0.0977
  C  C1449  1  0.587700  0.803900  0.301600  1.0  -0.1187
  C  C1450  1  0.589600  0.832200  0.196400  1.0  -0.1074
  C  C1451  1  0.677200  0.802900  0.307100  1.0  -0.0647
  C  C1452  1  0.898000  0.034100  0.127400  1.0  0.2547
  C  C1453  1  0.510300  0.823000  0.207100  1.0  -0.1186
  C  C1454  1  0.545100  0.783700  0.281200  1.0  0.5843
  C  C1455  1  0.505000  0.796900  0.224800  1.0  0.5574
  C  C1456  1  0.006000  0.079400  0.122000  1.0  0.341
  C  C1457  1  0.214000  0.126100  0.230700  1.0  0.0118
  C  C1458  1  0.949000  0.049300  0.116500  1.0  0.2643
  C  C1459  1  0.818000  0.692700  0.139600  1.0  0.0843
  C  C1460  1  0.711400  0.451420  0.626320  1.0  0.0088
  C  C1461  1  0.723800  0.469900  0.645330  1.0  -0.1409
  C  C1462  1  0.788000  0.496400  0.645510  1.0  -0.0324
  C  C1463  1  0.839600  0.504300  0.626700  1.0  -0.0269
  C  C1464  1  0.827200  0.485800  0.607670  1.0  -0.0482
  C  C1465  1  0.763000  0.459400  0.607490  1.0  -0.1168
  C  C1466  1  0.718300  0.319900  0.826020  1.0  0.0394
  C  C1467  1  0.805300  0.307940  0.834180  1.0  -0.0923
  C  C1468  1  0.853600  0.325100  0.850610  1.0  -0.1279
  C  C1469  1  0.814800  0.354300  0.858880  1.0  -0.0206
  C  C1470  1  0.727800  0.366270  0.850710  1.0  -0.1225
  C  C1471  1  0.679500  0.349100  0.834280  1.0  -0.1299
  C  C1472  1  0.616300  0.402610  0.644610  1.0  -0.0028
  C  C1473  1  0.528900  0.386500  0.648160  1.0  -0.0981
  C  C1474  1  0.520700  0.363500  0.665020  1.0  -0.0856
  C  C1475  1  0.599800  0.356700  0.678340  1.0  0.048
  C  C1476  1  0.687200  0.372800  0.674790  1.0  -0.0543
  C  C1477  1  0.695400  0.395800  0.657930  1.0  -0.0977
  C  C1478  1  0.587700  0.303900  0.801600  1.0  -0.1187
  C  C1479  1  0.589600  0.332200  0.696400  1.0  -0.1074
  C  C1480  1  0.677200  0.302900  0.807100  1.0  -0.0647
  C  C1481  1  0.898000  0.534100  0.627400  1.0  0.2547
  C  C1482  1  0.510300  0.323000  0.707100  1.0  -0.1186
  C  C1483  1  0.545100  0.283700  0.781200  1.0  0.5843
  C  C1484  1  0.505000  0.296900  0.724800  1.0  0.5574
  C  C1485  1  0.006000  0.579400  0.622000  1.0  0.341
  C  C1486  1  0.214000  0.626100  0.730700  1.0  0.0118
  C  C1487  1  0.949000  0.549300  0.616500  1.0  0.2643
  C  C1488  1  0.818000  0.192700  0.639600  1.0  0.0843
  C  C1489  1  0.375000  0.875000  0.444100  1.0  0.411
  C  C1490  1  0.375000  0.375000  0.944100  1.0  0.411
  C  C1491  1  0.875000  0.875000  0.944100  1.0  0.411
  C  C1492  1  0.875000  0.375000  0.444100  1.0  0.411
  C  C1493  1  0.375000  0.875000  0.305900  1.0  0.4099
  C  C1494  1  0.375000  0.375000  0.805900  1.0  0.4099
  C  C1495  1  0.875000  0.875000  0.805900  1.0  0.4099
  C  C1496  1  0.875000  0.375000  0.305900  1.0  0.4099
  C  C1497  1  0.625000  0.125000  0.555900  1.0  0.4099
  C  C1498  1  0.625000  0.625000  0.055900  1.0  0.4099
  C  C1499  1  0.125000  0.125000  0.055900  1.0  0.4099
  C  C1500  1  0.125000  0.625000  0.555900  1.0  0.4099
  C  C1501  1  0.625000  0.125000  0.694100  1.0  0.411
  C  C1502  1  0.625000  0.625000  0.194100  1.0  0.411
  C  C1503  1  0.125000  0.125000  0.194100  1.0  0.411
  C  C1504  1  0.125000  0.625000  0.694100  1.0  0.411
  C  C1505  1  0.875000  0.677000  0.375000  1.0  -0.0099
  C  C1506  1  0.875000  0.177000  0.875000  1.0  -0.0099
  C  C1507  1  0.375000  0.677000  0.875000  1.0  -0.0099
  C  C1508  1  0.375000  0.177000  0.375000  1.0  -0.0099
  C  C1509  1  0.875000  0.073000  0.375000  1.0  -0.009
  C  C1510  1  0.875000  0.573000  0.875000  1.0  -0.009
  C  C1511  1  0.375000  0.073000  0.875000  1.0  -0.009
  C  C1512  1  0.375000  0.573000  0.375000  1.0  -0.009
  C  C1513  1  0.125000  0.323000  0.625000  1.0  -0.009
  C  C1514  1  0.125000  0.823000  0.125000  1.0  -0.009
  C  C1515  1  0.625000  0.323000  0.125000  1.0  -0.009
  C  C1516  1  0.625000  0.823000  0.625000  1.0  -0.009
  C  C1517  1  0.125000  0.927000  0.625000  1.0  -0.0099
  C  C1518  1  0.125000  0.427000  0.125000  1.0  -0.0099
  C  C1519  1  0.625000  0.927000  0.125000  1.0  -0.0099
  C  C1520  1  0.625000  0.427000  0.625000  1.0  -0.0099
  C  C1521  1  0.625000  0.625000  0.625000  1.0  -0.0147
  C  C1522  1  0.125000  0.125000  0.625000  1.0  -0.0147
  C  C1523  1  0.125000  0.625000  0.125000  1.0  -0.0147
  C  C1524  1  0.625000  0.125000  0.125000  1.0  -0.0147
  C  C1525  1  0.375000  0.375000  0.375000  1.0  -0.0147
  C  C1526  1  0.875000  0.875000  0.375000  1.0  -0.0147
  C  C1527  1  0.875000  0.375000  0.875000  1.0  -0.0147
  C  C1528  1  0.375000  0.875000  0.875000  1.0  -0.0147
  N  N1529  1  0.375000  0.875000  0.466400  1.0  -0.0754
  N  N1530  1  0.375000  0.375000  0.966400  1.0  -0.0754
  N  N1531  1  0.875000  0.875000  0.966400  1.0  -0.0754
  N  N1532  1  0.875000  0.375000  0.466400  1.0  -0.0754
  N  N1533  1  0.375000  0.875000  0.283600  1.0  -0.0744
  N  N1534  1  0.375000  0.375000  0.783600  1.0  -0.0744
  N  N1535  1  0.875000  0.875000  0.783600  1.0  -0.0744
  N  N1536  1  0.875000  0.375000  0.283600  1.0  -0.0744
  N  N1537  1  0.625000  0.125000  0.533600  1.0  -0.0744
  N  N1538  1  0.625000  0.625000  0.033600  1.0  -0.0744
  N  N1539  1  0.125000  0.125000  0.033600  1.0  -0.0744
  N  N1540  1  0.125000  0.625000  0.533600  1.0  -0.0744
  N  N1541  1  0.625000  0.125000  0.716400  1.0  -0.0754
  N  N1542  1  0.625000  0.625000  0.216400  1.0  -0.0754
  N  N1543  1  0.125000  0.125000  0.216400  1.0  -0.0754
  N  N1544  1  0.125000  0.625000  0.716400  1.0  -0.0754
  O  O1545  1  0.044000  0.536200  0.527600  1.0  -0.5554
  O  O1546  1  0.066500  0.546000  0.484300  1.0  -0.5299
  O  O1547  1  0.883200  0.519100  0.520940  1.0  -0.5683
  O  O1548  1  0.912500  0.530000  0.476120  1.0  -0.5687
  O  O1549  1  0.491600  0.843300  0.391300  1.0  -0.7007
  O  O1550  1  0.456000  0.837900  0.357200  1.0  -0.5875
  O  O1551  1  0.326900  0.875500  0.430500  1.0  -0.6237
  O  O1552  1  0.044000  0.036200  0.027600  1.0  -0.5554
  O  O1553  1  0.066500  0.046000  0.984300  1.0  -0.5299
  O  O1554  1  0.883200  0.019100  0.020940  1.0  -0.5683
  O  O1555  1  0.912500  0.030000  0.976120  1.0  -0.5687
  O  O1556  1  0.491600  0.343300  0.891300  1.0  -0.7007
  O  O1557  1  0.456000  0.337900  0.857200  1.0  -0.5875
  O  O1558  1  0.326900  0.375500  0.930500  1.0  -0.6237
  O  O1559  1  0.544000  0.536200  0.027600  1.0  -0.5554
  O  O1560  1  0.566500  0.546000  0.984300  1.0  -0.5299
  O  O1561  1  0.383200  0.519100  0.020940  1.0  -0.5683
  O  O1562  1  0.412500  0.530000  0.976120  1.0  -0.5687
  O  O1563  1  0.991600  0.843300  0.891300  1.0  -0.7007
  O  O1564  1  0.956000  0.837900  0.857200  1.0  -0.5875
  O  O1565  1  0.826900  0.875500  0.930500  1.0  -0.6237
  O  O1566  1  0.544000  0.036200  0.527600  1.0  -0.5554
  O  O1567  1  0.566500  0.046000  0.484300  1.0  -0.5299
  O  O1568  1  0.383200  0.019100  0.520940  1.0  -0.5683
  O  O1569  1  0.412500  0.030000  0.476120  1.0  -0.5687
  O  O1570  1  0.991600  0.343300  0.391300  1.0  -0.7007
  O  O1571  1  0.956000  0.337900  0.357200  1.0  -0.5875
  O  O1572  1  0.826900  0.375500  0.430500  1.0  -0.6237
  O  O1573  1  0.706000  0.213800  0.527600  1.0  -0.5554
  O  O1574  1  0.683500  0.204000  0.484300  1.0  -0.5317
  O  O1575  1  0.866800  0.230900  0.520940  1.0  -0.5684
  O  O1576  1  0.837500  0.220000  0.476120  1.0  -0.5702
  O  O1577  1  0.258400  0.906700  0.391300  1.0  -0.6977
  O  O1578  1  0.294000  0.912100  0.357200  1.0  -0.5869
  O  O1579  1  0.423100  0.874500  0.430500  1.0  -0.6214
  O  O1580  1  0.706000  0.713800  0.027600  1.0  -0.5554
  O  O1581  1  0.683500  0.704000  0.984300  1.0  -0.5317
  O  O1582  1  0.866800  0.730900  0.020940  1.0  -0.5684
  O  O1583  1  0.837500  0.720000  0.976120  1.0  -0.5702
  O  O1584  1  0.258400  0.406700  0.891300  1.0  -0.6977
  O  O1585  1  0.294000  0.412100  0.857200  1.0  -0.5869
  O  O1586  1  0.423100  0.374500  0.930500  1.0  -0.6214
  O  O1587  1  0.206000  0.213800  0.027600  1.0  -0.5554
  O  O1588  1  0.183500  0.204000  0.984300  1.0  -0.5317
  O  O1589  1  0.366800  0.230900  0.020940  1.0  -0.5684
  O  O1590  1  0.337500  0.220000  0.976120  1.0  -0.5702
  O  O1591  1  0.758400  0.906700  0.891300  1.0  -0.6977
  O  O1592  1  0.794000  0.912100  0.857200  1.0  -0.5869
  O  O1593  1  0.923100  0.874500  0.930500  1.0  -0.6214
  O  O1594  1  0.206000  0.713800  0.527600  1.0  -0.5554
  O  O1595  1  0.183500  0.704000  0.484300  1.0  -0.5317
  O  O1596  1  0.366800  0.730900  0.520940  1.0  -0.5684
  O  O1597  1  0.337500  0.720000  0.476120  1.0  -0.5702
  O  O1598  1  0.758400  0.406700  0.391300  1.0  -0.6977
  O  O1599  1  0.794000  0.412100  0.357200  1.0  -0.5869
  O  O1600  1  0.923100  0.374500  0.430500  1.0  -0.6214
  O  O1601  1  0.706000  0.536200  0.222400  1.0  -0.5564
  O  O1602  1  0.683500  0.546000  0.265700  1.0  -0.5319
  O  O1603  1  0.866800  0.519100  0.229060  1.0  -0.569
  O  O1604  1  0.837500  0.530000  0.273880  1.0  -0.5708
  O  O1605  1  0.258400  0.843300  0.358700  1.0  -0.6955
  O  O1606  1  0.294000  0.837900  0.392800  1.0  -0.5848
  O  O1607  1  0.423100  0.875500  0.319500  1.0  -0.6193
  O  O1608  1  0.706000  0.036200  0.722400  1.0  -0.5564
  O  O1609  1  0.683500  0.046000  0.765700  1.0  -0.5319
  O  O1610  1  0.866800  0.019100  0.729060  1.0  -0.569
  O  O1611  1  0.837500  0.030000  0.773880  1.0  -0.5708
  O  O1612  1  0.258400  0.343300  0.858700  1.0  -0.6955
  O  O1613  1  0.294000  0.337900  0.892800  1.0  -0.5848
  O  O1614  1  0.423100  0.375500  0.819500  1.0  -0.6193
  O  O1615  1  0.206000  0.536200  0.722400  1.0  -0.5564
  O  O1616  1  0.183500  0.546000  0.765700  1.0  -0.5319
  O  O1617  1  0.366800  0.519100  0.729060  1.0  -0.569
  O  O1618  1  0.337500  0.530000  0.773880  1.0  -0.5708
  O  O1619  1  0.758400  0.843300  0.858700  1.0  -0.6955
  O  O1620  1  0.794000  0.837900  0.892800  1.0  -0.5848
  O  O1621  1  0.923100  0.875500  0.819500  1.0  -0.6193
  O  O1622  1  0.206000  0.036200  0.222400  1.0  -0.5564
  O  O1623  1  0.183500  0.046000  0.265700  1.0  -0.5319
  O  O1624  1  0.366800  0.019100  0.229060  1.0  -0.569
  O  O1625  1  0.337500  0.030000  0.273880  1.0  -0.5708
  O  O1626  1  0.758400  0.343300  0.358700  1.0  -0.6955
  O  O1627  1  0.794000  0.337900  0.392800  1.0  -0.5848
  O  O1628  1  0.923100  0.375500  0.319500  1.0  -0.6193
  O  O1629  1  0.044000  0.213800  0.222400  1.0  -0.5563
  O  O1630  1  0.066500  0.204000  0.265700  1.0  -0.5307
  O  O1631  1  0.883200  0.230900  0.229060  1.0  -0.5683
  O  O1632  1  0.912500  0.220000  0.273880  1.0  -0.5694
  O  O1633  1  0.491600  0.906700  0.358700  1.0  -0.6957
  O  O1634  1  0.456000  0.912100  0.392800  1.0  -0.5861
  O  O1635  1  0.326900  0.874500  0.319500  1.0  -0.6222
  O  O1636  1  0.044000  0.713800  0.722400  1.0  -0.5563
  O  O1637  1  0.066500  0.704000  0.765700  1.0  -0.5307
  O  O1638  1  0.883200  0.730900  0.729060  1.0  -0.5683
  O  O1639  1  0.912500  0.720000  0.773880  1.0  -0.5694
  O  O1640  1  0.491600  0.406700  0.858700  1.0  -0.6957
  O  O1641  1  0.456000  0.412100  0.892800  1.0  -0.5861
  O  O1642  1  0.326900  0.374500  0.819500  1.0  -0.6222
  O  O1643  1  0.544000  0.213800  0.722400  1.0  -0.5563
  O  O1644  1  0.566500  0.204000  0.765700  1.0  -0.5307
  O  O1645  1  0.383200  0.230900  0.729060  1.0  -0.5683
  O  O1646  1  0.412500  0.220000  0.773880  1.0  -0.5694
  O  O1647  1  0.991600  0.906700  0.858700  1.0  -0.6957
  O  O1648  1  0.956000  0.912100  0.892800  1.0  -0.5861
  O  O1649  1  0.826900  0.874500  0.819500  1.0  -0.6222
  O  O1650  1  0.544000  0.713800  0.222400  1.0  -0.5563
  O  O1651  1  0.566500  0.704000  0.265700  1.0  -0.5307
  O  O1652  1  0.383200  0.730900  0.229060  1.0  -0.5683
  O  O1653  1  0.412500  0.720000  0.273880  1.0  -0.5694
  O  O1654  1  0.991600  0.406700  0.358700  1.0  -0.6957
  O  O1655  1  0.956000  0.412100  0.392800  1.0  -0.5861
  O  O1656  1  0.826900  0.374500  0.319500  1.0  -0.6222
  O  O1657  1  0.956000  0.463800  0.472400  1.0  -0.5564
  O  O1658  1  0.933500  0.454000  0.515700  1.0  -0.53
  O  O1659  1  0.116800  0.480900  0.479060  1.0  -0.5686
  O  O1660  1  0.087500  0.470000  0.523880  1.0  -0.5708
  O  O1661  1  0.508400  0.156700  0.608700  1.0  -0.6982
  O  O1662  1  0.544000  0.162100  0.642800  1.0  -0.5857
  O  O1663  1  0.673100  0.124500  0.569500  1.0  -0.6189
  O  O1664  1  0.956000  0.963800  0.972400  1.0  -0.5564
  O  O1665  1  0.933500  0.954000  0.015700  1.0  -0.53
  O  O1666  1  0.116800  0.980900  0.979060  1.0  -0.5686
  O  O1667  1  0.087500  0.970000  0.023880  1.0  -0.5708
  O  O1668  1  0.508400  0.656700  0.108700  1.0  -0.6982
  O  O1669  1  0.544000  0.662100  0.142800  1.0  -0.5857
  O  O1670  1  0.673100  0.624500  0.069500  1.0  -0.6189
  O  O1671  1  0.456000  0.463800  0.972400  1.0  -0.5564
  O  O1672  1  0.433500  0.454000  0.015700  1.0  -0.53
  O  O1673  1  0.616800  0.480900  0.979060  1.0  -0.5686
  O  O1674  1  0.587500  0.470000  0.023880  1.0  -0.5708
  O  O1675  1  0.008400  0.156700  0.108700  1.0  -0.6982
  O  O1676  1  0.044000  0.162100  0.142800  1.0  -0.5857
  O  O1677  1  0.173100  0.124500  0.069500  1.0  -0.6189
  O  O1678  1  0.456000  0.963800  0.472400  1.0  -0.5564
  O  O1679  1  0.433500  0.954000  0.515700  1.0  -0.53
  O  O1680  1  0.616800  0.980900  0.479060  1.0  -0.5686
  O  O1681  1  0.587500  0.970000  0.523880  1.0  -0.5708
  O  O1682  1  0.008400  0.656700  0.608700  1.0  -0.6982
  O  O1683  1  0.044000  0.662100  0.642800  1.0  -0.5857
  O  O1684  1  0.173100  0.624500  0.569500  1.0  -0.6189
  O  O1685  1  0.294000  0.786200  0.472400  1.0  -0.5562
  O  O1686  1  0.316500  0.796000  0.515700  1.0  -0.5283
  O  O1687  1  0.133200  0.769100  0.479060  1.0  -0.5682
  O  O1688  1  0.162500  0.780000  0.523880  1.0  -0.5696
  O  O1689  1  0.741600  0.093300  0.608700  1.0  -0.6943
  O  O1690  1  0.706000  0.087900  0.642800  1.0  -0.5851
  O  O1691  1  0.576900  0.125500  0.569500  1.0  -0.6222
  O  O1692  1  0.294000  0.286200  0.972400  1.0  -0.5562
  O  O1693  1  0.316500  0.296000  0.015700  1.0  -0.5283
  O  O1694  1  0.133200  0.269100  0.979060  1.0  -0.5682
  O  O1695  1  0.162500  0.280000  0.023880  1.0  -0.5696
  O  O1696  1  0.741600  0.593300  0.108700  1.0  -0.6943
  O  O1697  1  0.706000  0.587900  0.142800  1.0  -0.5851
  O  O1698  1  0.576900  0.625500  0.069500  1.0  -0.6222
  O  O1699  1  0.794000  0.786200  0.972400  1.0  -0.5562
  O  O1700  1  0.816500  0.796000  0.015700  1.0  -0.5283
  O  O1701  1  0.633200  0.769100  0.979060  1.0  -0.5682
  O  O1702  1  0.662500  0.780000  0.023880  1.0  -0.5696
  O  O1703  1  0.241600  0.093300  0.108700  1.0  -0.6943
  O  O1704  1  0.206000  0.087900  0.142800  1.0  -0.5851
  O  O1705  1  0.076900  0.125500  0.069500  1.0  -0.6222
  O  O1706  1  0.794000  0.286200  0.472400  1.0  -0.5562
  O  O1707  1  0.816500  0.296000  0.515700  1.0  -0.5283
  O  O1708  1  0.633200  0.269100  0.479060  1.0  -0.5682
  O  O1709  1  0.662500  0.280000  0.523880  1.0  -0.5696
  O  O1710  1  0.241600  0.593300  0.608700  1.0  -0.6943
  O  O1711  1  0.206000  0.587900  0.642800  1.0  -0.5851
  O  O1712  1  0.076900  0.625500  0.569500  1.0  -0.6222
  O  O1713  1  0.294000  0.463800  0.777600  1.0  -0.5555
  O  O1714  1  0.316500  0.454000  0.734300  1.0  -0.5287
  O  O1715  1  0.133200  0.480900  0.770940  1.0  -0.5679
  O  O1716  1  0.162500  0.470000  0.726120  1.0  -0.5689
  O  O1717  1  0.741600  0.156700  0.641300  1.0  -0.6988
  O  O1718  1  0.706000  0.162100  0.607200  1.0  -0.5873
  O  O1719  1  0.576900  0.124500  0.680500  1.0  -0.6233
  O  O1720  1  0.294000  0.963800  0.277600  1.0  -0.5555
  O  O1721  1  0.316500  0.954000  0.234300  1.0  -0.5287
  O  O1722  1  0.133200  0.980900  0.270940  1.0  -0.5679
  O  O1723  1  0.162500  0.970000  0.226120  1.0  -0.5689
  O  O1724  1  0.741600  0.656700  0.141300  1.0  -0.6988
  O  O1725  1  0.706000  0.662100  0.107200  1.0  -0.5873
  O  O1726  1  0.576900  0.624500  0.180500  1.0  -0.6233
  O  O1727  1  0.794000  0.463800  0.277600  1.0  -0.5555
  O  O1728  1  0.816500  0.454000  0.234300  1.0  -0.5287
  O  O1729  1  0.633200  0.480900  0.270940  1.0  -0.5679
  O  O1730  1  0.662500  0.470000  0.226120  1.0  -0.5689
  O  O1731  1  0.241600  0.156700  0.141300  1.0  -0.6988
  O  O1732  1  0.206000  0.162100  0.107200  1.0  -0.5873
  O  O1733  1  0.076900  0.124500  0.180500  1.0  -0.6233
  O  O1734  1  0.794000  0.963800  0.777600  1.0  -0.5555
  O  O1735  1  0.816500  0.954000  0.734300  1.0  -0.5287
  O  O1736  1  0.633200  0.980900  0.770940  1.0  -0.5679
  O  O1737  1  0.662500  0.970000  0.726120  1.0  -0.5689
  O  O1738  1  0.241600  0.656700  0.641300  1.0  -0.6988
  O  O1739  1  0.206000  0.662100  0.607200  1.0  -0.5873
  O  O1740  1  0.076900  0.624500  0.680500  1.0  -0.6233
  O  O1741  1  0.956000  0.786200  0.777600  1.0  -0.5553
  O  O1742  1  0.933500  0.796000  0.734300  1.0  -0.5295
  O  O1743  1  0.116800  0.769100  0.770940  1.0  -0.569
  O  O1744  1  0.087500  0.780000  0.726120  1.0  -0.5704
  O  O1745  1  0.508400  0.093300  0.641300  1.0  -0.6984
  O  O1746  1  0.544000  0.087900  0.607200  1.0  -0.5869
  O  O1747  1  0.673100  0.125500  0.680500  1.0  -0.6217
  O  O1748  1  0.956000  0.286200  0.277600  1.0  -0.5553
  O  O1749  1  0.933500  0.296000  0.234300  1.0  -0.5295
  O  O1750  1  0.116800  0.269100  0.270940  1.0  -0.569
  O  O1751  1  0.087500  0.280000  0.226120  1.0  -0.5704
  O  O1752  1  0.508400  0.593300  0.141300  1.0  -0.6984
  O  O1753  1  0.544000  0.587900  0.107200  1.0  -0.5869
  O  O1754  1  0.673100  0.625500  0.180500  1.0  -0.6217
  O  O1755  1  0.456000  0.786200  0.277600  1.0  -0.5553
  O  O1756  1  0.433500  0.796000  0.234300  1.0  -0.5295
  O  O1757  1  0.616800  0.769100  0.270940  1.0  -0.569
  O  O1758  1  0.587500  0.780000  0.226120  1.0  -0.5704
  O  O1759  1  0.008400  0.093300  0.141300  1.0  -0.6984
  O  O1760  1  0.044000  0.087900  0.107200  1.0  -0.5869
  O  O1761  1  0.173100  0.125500  0.180500  1.0  -0.6217
  O  O1762  1  0.456000  0.286200  0.777600  1.0  -0.5553
  O  O1763  1  0.433500  0.296000  0.734300  1.0  -0.5295
  O  O1764  1  0.616800  0.269100  0.770940  1.0  -0.569
  O  O1765  1  0.587500  0.280000  0.726120  1.0  -0.5704
  O  O1766  1  0.008400  0.593300  0.641300  1.0  -0.6984
  O  O1767  1  0.044000  0.587900  0.607200  1.0  -0.5869
  O  O1768  1  0.173100  0.625500  0.680500  1.0  -0.6217
