# generated using pymatgen
data_Cr3Cd2H24C36N6Cl8O13
_symmetry_space_group_name_H-M   'P 1'
_cell_length_a   23.75100000
_cell_length_b   30.60700000
_cell_length_c   23.76400000
_cell_angle_alpha   90.00000000
_cell_angle_beta   90.00000000
_cell_angle_gamma   90.00000000
_symmetry_Int_Tables_number   1
_chemical_formula_structural   Cr3Cd2H24C36N6Cl8O13
_chemical_formula_sum   'Cr24 Cd16 H192 C288 N48 Cl64 O104'
_cell_volume   17275.16510975
_cell_formula_units_Z   8
loop_
 _symmetry_equiv_pos_site_id
 _symmetry_equiv_pos_as_xyz
  1  'x, y, z'
loop_
 _atom_site_type_symbol
 _atom_site_label
 _atom_site_symmetry_multiplicity
 _atom_site_fract_x
 _atom_site_fract_y
 _atom_site_fract_z
 _atom_site_occupancy
 _atom_site_charge
  Cr  Cr1  1  0.782460  0.452210  0.780130  1.0  1.4231
  Cr  Cr2  1  0.282460  0.952210  0.780130  1.0  1.4231
  Cr  Cr3  1  0.717540  0.547790  0.780130  1.0  1.426
  Cr  Cr4  1  0.217540  0.047790  0.780130  1.0  1.426
  Cr  Cr5  1  0.217540  0.452210  0.719870  1.0  1.4252
  Cr  Cr6  1  0.717540  0.952210  0.719870  1.0  1.4252
  Cr  Cr7  1  0.282460  0.547790  0.719870  1.0  1.4253
  Cr  Cr8  1  0.782460  0.047790  0.719870  1.0  1.4253
  Cr  Cr9  1  0.217540  0.547790  0.219870  1.0  1.4271
  Cr  Cr10  1  0.717540  0.047790  0.219870  1.0  1.4271
  Cr  Cr11  1  0.282460  0.452210  0.219870  1.0  1.4232
  Cr  Cr12  1  0.782460  0.952210  0.219870  1.0  1.4232
  Cr  Cr13  1  0.782460  0.547790  0.280130  1.0  1.4248
  Cr  Cr14  1  0.282460  0.047790  0.280130  1.0  1.4248
  Cr  Cr15  1  0.717540  0.452210  0.280130  1.0  1.4245
  Cr  Cr16  1  0.217540  0.952210  0.280130  1.0  1.4245
  Cr  Cr17  1  0.750000  0.500000  0.661020  1.0  1.3747
  Cr  Cr18  1  0.250000  0.000000  0.661020  1.0  1.3747
  Cr  Cr19  1  0.250000  0.500000  0.838980  1.0  1.3763
  Cr  Cr20  1  0.750000  0.000000  0.838980  1.0  1.3763
  Cr  Cr21  1  0.250000  0.500000  0.338980  1.0  1.3763
  Cr  Cr22  1  0.750000  0.000000  0.338980  1.0  1.3763
  Cr  Cr23  1  0.750000  0.500000  0.161020  1.0  1.3747
  Cr  Cr24  1  0.250000  0.000000  0.161020  1.0  1.3747
  Cd  Cd25  1  0.630500  0.250000  0.750000  1.0  1.0416
  Cd  Cd26  1  0.869500  0.750000  0.750000  1.0  1.0414
  Cd  Cd27  1  0.369500  0.250000  0.750000  1.0  1.0414
  Cd  Cd28  1  0.130500  0.750000  0.750000  1.0  1.0416
  Cd  Cd29  1  0.369500  0.750000  0.250000  1.0  1.0414
  Cd  Cd30  1  0.130500  0.250000  0.250000  1.0  1.0416
  Cd  Cd31  1  0.630500  0.750000  0.250000  1.0  1.0416
  Cd  Cd32  1  0.869500  0.250000  0.250000  1.0  1.0414
  Cd  Cd33  1  0.500000  0.500000  0.500000  1.0  0.8322
  Cd  Cd34  1  0.000000  0.000000  0.500000  1.0  0.8322
  Cd  Cd35  1  0.000000  0.500000  0.500000  1.0  0.8322
  Cd  Cd36  1  0.500000  0.000000  0.500000  1.0  0.8322
  Cd  Cd37  1  0.500000  0.500000  0.000000  1.0  0.8322
  Cd  Cd38  1  0.000000  0.000000  0.000000  1.0  0.8322
  Cd  Cd39  1  0.000000  0.500000  0.000000  1.0  0.8322
  Cd  Cd40  1  0.500000  0.000000  0.000000  1.0  0.8322
  H  H41  1  0.569200  0.291500  0.636500  1.0  0.1144
  H  H42  1  0.691500  0.338600  0.738800  1.0  0.1129
  H  H43  1  0.578500  0.352900  0.578500  1.0  0.1159
  H  H44  1  0.644300  0.407100  0.600700  1.0  0.1151
  H  H45  1  0.560500  0.597400  0.717400  1.0  0.1135
  H  H46  1  0.596700  0.513400  0.592400  1.0  0.1057
  H  H47  1  0.652600  0.384100  0.857500  1.0  0.1301
  H  H48  1  0.603500  0.507900  0.912700  1.0  0.1277
  H  H49  1  0.473500  0.615400  0.671800  1.0  0.125
  H  H50  1  0.581200  0.353200  0.914500  1.0  0.1225
  H  H51  1  0.454100  0.578600  0.588800  1.0  0.0909
  H  H52  1  0.531200  0.399600  0.969400  1.0  0.1038
  H  H53  1  0.069200  0.791500  0.636500  1.0  0.1144
  H  H54  1  0.191500  0.838600  0.738800  1.0  0.1129
  H  H55  1  0.078500  0.852900  0.578500  1.0  0.1159
  H  H56  1  0.144300  0.907100  0.600700  1.0  0.1151
  H  H57  1  0.060500  0.097400  0.717400  1.0  0.1135
  H  H58  1  0.096700  0.013400  0.592400  1.0  0.1057
  H  H59  1  0.152600  0.884100  0.857500  1.0  0.1301
  H  H60  1  0.103500  0.007900  0.912700  1.0  0.1277
  H  H61  1  0.973500  0.115400  0.671800  1.0  0.125
  H  H62  1  0.081200  0.853200  0.914500  1.0  0.1225
  H  H63  1  0.954100  0.078600  0.588800  1.0  0.0909
  H  H64  1  0.031200  0.899600  0.969400  1.0  0.1038
  H  H65  1  0.930800  0.708500  0.636500  1.0  0.115
  H  H66  1  0.808500  0.661400  0.738800  1.0  0.113
  H  H67  1  0.921500  0.647100  0.578500  1.0  0.1154
  H  H68  1  0.855700  0.592900  0.600700  1.0  0.1143
  H  H69  1  0.939500  0.402600  0.717400  1.0  0.1135
  H  H70  1  0.903300  0.486600  0.592400  1.0  0.106
  H  H71  1  0.847400  0.615900  0.857500  1.0  0.1305
  H  H72  1  0.896500  0.492100  0.912700  1.0  0.1279
  H  H73  1  0.026500  0.384600  0.671800  1.0  0.1248
  H  H74  1  0.918800  0.646800  0.914500  1.0  0.1229
  H  H75  1  0.045900  0.421400  0.588800  1.0  0.0901
  H  H76  1  0.968800  0.600400  0.969400  1.0  0.1031
  H  H77  1  0.430800  0.208500  0.636500  1.0  0.115
  H  H78  1  0.308500  0.161400  0.738800  1.0  0.113
  H  H79  1  0.421500  0.147100  0.578500  1.0  0.1154
  H  H80  1  0.355700  0.092900  0.600700  1.0  0.1143
  H  H81  1  0.439500  0.902600  0.717400  1.0  0.1135
  H  H82  1  0.403300  0.986600  0.592400  1.0  0.106
  H  H83  1  0.347400  0.115900  0.857500  1.0  0.1305
  H  H84  1  0.396500  0.992100  0.912700  1.0  0.1279
  H  H85  1  0.526500  0.884600  0.671800  1.0  0.1248
  H  H86  1  0.418800  0.146800  0.914500  1.0  0.1229
  H  H87  1  0.545900  0.921400  0.588800  1.0  0.0901
  H  H88  1  0.468800  0.100400  0.969400  1.0  0.1031
  H  H89  1  0.430800  0.291500  0.863500  1.0  0.1146
  H  H90  1  0.308500  0.338600  0.761200  1.0  0.1129
  H  H91  1  0.421500  0.352900  0.921500  1.0  0.1146
  H  H92  1  0.355700  0.407100  0.899300  1.0  0.1149
  H  H93  1  0.439500  0.597400  0.782600  1.0  0.1135
  H  H94  1  0.403300  0.513400  0.907600  1.0  0.106
  H  H95  1  0.347400  0.384100  0.642500  1.0  0.1295
  H  H96  1  0.396500  0.507900  0.587300  1.0  0.1275
  H  H97  1  0.526500  0.615400  0.828200  1.0  0.1257
  H  H98  1  0.418800  0.353200  0.585500  1.0  0.1228
  H  H99  1  0.545900  0.578600  0.911200  1.0  0.0899
  H  H100  1  0.468800  0.399600  0.530600  1.0  0.1032
  H  H101  1  0.930800  0.791500  0.863500  1.0  0.1146
  H  H102  1  0.808500  0.838600  0.761200  1.0  0.1129
  H  H103  1  0.921500  0.852900  0.921500  1.0  0.1146
  H  H104  1  0.855700  0.907100  0.899300  1.0  0.1149
  H  H105  1  0.939500  0.097400  0.782600  1.0  0.1135
  H  H106  1  0.903300  0.013400  0.907600  1.0  0.106
  H  H107  1  0.847400  0.884100  0.642500  1.0  0.1295
  H  H108  1  0.896500  0.007900  0.587300  1.0  0.1275
  H  H109  1  0.026500  0.115400  0.828200  1.0  0.1257
  H  H110  1  0.918800  0.853200  0.585500  1.0  0.1228
  H  H111  1  0.045900  0.078600  0.911200  1.0  0.0899
  H  H112  1  0.968800  0.899600  0.530600  1.0  0.1032
  H  H113  1  0.069200  0.708500  0.863500  1.0  0.1152
  H  H114  1  0.191500  0.661400  0.761200  1.0  0.1128
  H  H115  1  0.078500  0.647100  0.921500  1.0  0.115
  H  H116  1  0.144300  0.592900  0.899300  1.0  0.1152
  H  H117  1  0.060500  0.402600  0.782600  1.0  0.1136
  H  H118  1  0.096700  0.486600  0.907600  1.0  0.1052
  H  H119  1  0.152600  0.615900  0.642500  1.0  0.1297
  H  H120  1  0.103500  0.492100  0.587300  1.0  0.1276
  H  H121  1  0.973500  0.384600  0.828200  1.0  0.125
  H  H122  1  0.081200  0.646800  0.585500  1.0  0.1222
  H  H123  1  0.954100  0.421400  0.911200  1.0  0.0906
  H  H124  1  0.031200  0.600400  0.530600  1.0  0.1036
  H  H125  1  0.569200  0.208500  0.863500  1.0  0.1152
  H  H126  1  0.691500  0.161400  0.761200  1.0  0.1128
  H  H127  1  0.578500  0.147100  0.921500  1.0  0.115
  H  H128  1  0.644300  0.092900  0.899300  1.0  0.1152
  H  H129  1  0.560500  0.902600  0.782600  1.0  0.1136
  H  H130  1  0.596700  0.986600  0.907600  1.0  0.1052
  H  H131  1  0.652600  0.115900  0.642500  1.0  0.1297
  H  H132  1  0.603500  0.992100  0.587300  1.0  0.1276
  H  H133  1  0.473500  0.884600  0.828200  1.0  0.125
  H  H134  1  0.581200  0.146800  0.585500  1.0  0.1222
  H  H135  1  0.454100  0.921400  0.911200  1.0  0.0906
  H  H136  1  0.531200  0.100400  0.530600  1.0  0.1036
  H  H137  1  0.430800  0.708500  0.363500  1.0  0.115
  H  H138  1  0.308500  0.661400  0.261200  1.0  0.1129
  H  H139  1  0.421500  0.647100  0.421500  1.0  0.1159
  H  H140  1  0.355700  0.592900  0.399300  1.0  0.1149
  H  H141  1  0.439500  0.402600  0.282600  1.0  0.1135
  H  H142  1  0.403300  0.486600  0.407600  1.0  0.1054
  H  H143  1  0.347400  0.615900  0.142500  1.0  0.1296
  H  H144  1  0.396500  0.492100  0.087300  1.0  0.1275
  H  H145  1  0.526500  0.384600  0.328200  1.0  0.1246
  H  H146  1  0.418800  0.646800  0.085500  1.0  0.1227
  H  H147  1  0.545900  0.421400  0.411200  1.0  0.09
  H  H148  1  0.468800  0.600400  0.030600  1.0  0.1033
  H  H149  1  0.930800  0.208500  0.363500  1.0  0.115
  H  H150  1  0.808500  0.161400  0.261200  1.0  0.1129
  H  H151  1  0.921500  0.147100  0.421500  1.0  0.1159
  H  H152  1  0.855700  0.092900  0.399300  1.0  0.1149
  H  H153  1  0.939500  0.902600  0.282600  1.0  0.1135
  H  H154  1  0.903300  0.986600  0.407600  1.0  0.1054
  H  H155  1  0.847400  0.115900  0.142500  1.0  0.1296
  H  H156  1  0.896500  0.992100  0.087300  1.0  0.1275
  H  H157  1  0.026500  0.884600  0.328200  1.0  0.1246
  H  H158  1  0.918800  0.146800  0.085500  1.0  0.1227
  H  H159  1  0.045900  0.921400  0.411200  1.0  0.09
  H  H160  1  0.968800  0.100400  0.030600  1.0  0.1033
  H  H161  1  0.069200  0.291500  0.363500  1.0  0.1145
  H  H162  1  0.191500  0.338600  0.261200  1.0  0.1129
  H  H163  1  0.078500  0.352900  0.421500  1.0  0.1161
  H  H164  1  0.144300  0.407100  0.399300  1.0  0.1149
  H  H165  1  0.060500  0.597400  0.282600  1.0  0.1136
  H  H166  1  0.096700  0.513400  0.407600  1.0  0.1056
  H  H167  1  0.152600  0.384100  0.142500  1.0  0.1296
  H  H168  1  0.103500  0.507900  0.087300  1.0  0.1278
  H  H169  1  0.973500  0.615400  0.328200  1.0  0.1251
  H  H170  1  0.081200  0.353200  0.085500  1.0  0.122
  H  H171  1  0.954100  0.578600  0.411200  1.0  0.0908
  H  H172  1  0.031200  0.399600  0.030600  1.0  0.1032
  H  H173  1  0.569200  0.791500  0.363500  1.0  0.1145
  H  H174  1  0.691500  0.838600  0.261200  1.0  0.1129
  H  H175  1  0.578500  0.852900  0.421500  1.0  0.1161
  H  H176  1  0.644300  0.907100  0.399300  1.0  0.1149
  H  H177  1  0.560500  0.097400  0.282600  1.0  0.1136
  H  H178  1  0.596700  0.013400  0.407600  1.0  0.1056
  H  H179  1  0.652600  0.884100  0.142500  1.0  0.1296
  H  H180  1  0.603500  0.007900  0.087300  1.0  0.1278
  H  H181  1  0.473500  0.115400  0.328200  1.0  0.1251
  H  H182  1  0.581200  0.853200  0.085500  1.0  0.122
  H  H183  1  0.454100  0.078600  0.411200  1.0  0.0908
  H  H184  1  0.531200  0.899600  0.030600  1.0  0.1032
  H  H185  1  0.569200  0.708500  0.136500  1.0  0.1149
  H  H186  1  0.691500  0.661400  0.238800  1.0  0.1127
  H  H187  1  0.578500  0.647100  0.078500  1.0  0.1149
  H  H188  1  0.644300  0.592900  0.100700  1.0  0.1147
  H  H189  1  0.560500  0.402600  0.217400  1.0  0.1136
  H  H190  1  0.596700  0.486600  0.092400  1.0  0.1056
  H  H191  1  0.652600  0.615900  0.357500  1.0  0.1304
  H  H192  1  0.603500  0.492100  0.412700  1.0  0.1277
  H  H193  1  0.473500  0.384600  0.171800  1.0  0.1253
  H  H194  1  0.581200  0.646800  0.414500  1.0  0.1225
  H  H195  1  0.454100  0.421400  0.088800  1.0  0.0905
  H  H196  1  0.531200  0.600400  0.469400  1.0  0.1035
  H  H197  1  0.069200  0.208500  0.136500  1.0  0.1149
  H  H198  1  0.191500  0.161400  0.238800  1.0  0.1127
  H  H199  1  0.078500  0.147100  0.078500  1.0  0.1149
  H  H200  1  0.144300  0.092900  0.100700  1.0  0.1147
  H  H201  1  0.060500  0.902600  0.217400  1.0  0.1136
  H  H202  1  0.096700  0.986600  0.092400  1.0  0.1056
  H  H203  1  0.152600  0.115900  0.357500  1.0  0.1304
  H  H204  1  0.103500  0.992100  0.412700  1.0  0.1277
  H  H205  1  0.973500  0.884600  0.171800  1.0  0.1253
  H  H206  1  0.081200  0.146800  0.414500  1.0  0.1225
  H  H207  1  0.954100  0.921400  0.088800  1.0  0.0905
  H  H208  1  0.031200  0.100400  0.469400  1.0  0.1035
  H  H209  1  0.930800  0.291500  0.136500  1.0  0.1146
  H  H210  1  0.808500  0.338600  0.238800  1.0  0.1131
  H  H211  1  0.921500  0.352900  0.078500  1.0  0.1141
  H  H212  1  0.855700  0.407100  0.100700  1.0  0.1149
  H  H213  1  0.939500  0.597400  0.217400  1.0  0.1132
  H  H214  1  0.903300  0.513400  0.092400  1.0  0.106
  H  H215  1  0.847400  0.384100  0.357500  1.0  0.1301
  H  H216  1  0.896500  0.507900  0.412700  1.0  0.1276
  H  H217  1  0.026500  0.615400  0.171800  1.0  0.1257
  H  H218  1  0.918800  0.353200  0.414500  1.0  0.1231
  H  H219  1  0.045900  0.578600  0.088800  1.0  0.0902
  H  H220  1  0.968800  0.399600  0.469400  1.0  0.1034
  H  H221  1  0.430800  0.791500  0.136500  1.0  0.1146
  H  H222  1  0.308500  0.838600  0.238800  1.0  0.1131
  H  H223  1  0.421500  0.852900  0.078500  1.0  0.1141
  H  H224  1  0.355700  0.907100  0.100700  1.0  0.1149
  H  H225  1  0.439500  0.097400  0.217400  1.0  0.1132
  H  H226  1  0.403300  0.013400  0.092400  1.0  0.106
  H  H227  1  0.347400  0.884100  0.357500  1.0  0.1301
  H  H228  1  0.396500  0.007900  0.412700  1.0  0.1276
  H  H229  1  0.526500  0.115400  0.171800  1.0  0.1257
  H  H230  1  0.418800  0.853200  0.414500  1.0  0.1231
  H  H231  1  0.545900  0.078600  0.088800  1.0  0.0902
  H  H232  1  0.468800  0.899600  0.469400  1.0  0.1034
  C  C233  1  0.595900  0.313500  0.645500  1.0  0.1433
  C  C234  1  0.668600  0.341500  0.706300  1.0  0.1094
  C  C235  1  0.601500  0.350000  0.611100  1.0  -0.0963
  C  C236  1  0.674100  0.378000  0.671900  1.0  -0.1544
  C  C237  1  0.640600  0.382200  0.624300  1.0  -0.0383
  C  C238  1  0.714400  0.410600  0.688400  1.0  0.747
  C  C239  1  0.639200  0.542300  0.684100  1.0  0.7265
  C  C240  1  0.678500  0.472800  0.843100  1.0  0.7545
  C  C241  1  0.585000  0.553400  0.659000  1.0  -0.12
  C  C242  1  0.633500  0.450100  0.878700  1.0  -0.1394
  C  C243  1  0.550200  0.583700  0.683000  1.0  -0.0583
  C  C244  1  0.571300  0.533700  0.608700  1.0  0.1277
  C  C245  1  0.628400  0.401900  0.879500  1.0  -0.0432
  C  C246  1  0.598900  0.477100  0.912400  1.0  0.1317
  C  C247  1  0.499000  0.594500  0.656700  1.0  -0.1408
  C  C248  1  0.587700  0.383800  0.913100  1.0  -0.1091
  C  C249  1  0.488600  0.572500  0.607400  1.0  0.1636
  C  C250  1  0.557400  0.412500  0.944100  1.0  0.1358
  C  C251  1  0.095900  0.813500  0.645500  1.0  0.1433
  C  C252  1  0.168600  0.841500  0.706300  1.0  0.1094
  C  C253  1  0.101500  0.850000  0.611100  1.0  -0.0963
  C  C254  1  0.174100  0.878000  0.671900  1.0  -0.1544
  C  C255  1  0.140600  0.882200  0.624300  1.0  -0.0383
  C  C256  1  0.214400  0.910600  0.688400  1.0  0.747
  C  C257  1  0.139200  0.042300  0.684100  1.0  0.7265
  C  C258  1  0.178500  0.972800  0.843100  1.0  0.7545
  C  C259  1  0.085000  0.053400  0.659000  1.0  -0.12
  C  C260  1  0.133500  0.950100  0.878700  1.0  -0.1394
  C  C261  1  0.050200  0.083700  0.683000  1.0  -0.0583
  C  C262  1  0.071300  0.033700  0.608700  1.0  0.1277
  C  C263  1  0.128400  0.901900  0.879500  1.0  -0.0432
  C  C264  1  0.098900  0.977100  0.912400  1.0  0.1317
  C  C265  1  0.999000  0.094500  0.656700  1.0  -0.1408
  C  C266  1  0.087700  0.883800  0.913100  1.0  -0.1091
  C  C267  1  0.988600  0.072500  0.607400  1.0  0.1636
  C  C268  1  0.057400  0.912500  0.944100  1.0  0.1358
  C  C269  1  0.904100  0.686500  0.645500  1.0  0.1429
  C  C270  1  0.831400  0.658500  0.706300  1.0  0.1078
  C  C271  1  0.898500  0.650000  0.611100  1.0  -0.0971
  C  C272  1  0.825900  0.622000  0.671900  1.0  -0.1549
  C  C273  1  0.859400  0.617800  0.624300  1.0  -0.0372
  C  C274  1  0.785600  0.589400  0.688400  1.0  0.747
  C  C275  1  0.860800  0.457700  0.684100  1.0  0.7272
  C  C276  1  0.821500  0.527200  0.843100  1.0  0.755
  C  C277  1  0.915000  0.446600  0.659000  1.0  -0.1198
  C  C278  1  0.866500  0.549900  0.878700  1.0  -0.1378
  C  C279  1  0.949800  0.416300  0.683000  1.0  -0.0582
  C  C280  1  0.928700  0.466300  0.608700  1.0  0.1259
  C  C281  1  0.871600  0.598100  0.879500  1.0  -0.0432
  C  C282  1  0.901100  0.522900  0.912400  1.0  0.1324
  C  C283  1  0.001000  0.405500  0.656700  1.0  -0.1406
  C  C284  1  0.912300  0.616200  0.913100  1.0  -0.1105
  C  C285  1  0.011400  0.427500  0.607400  1.0  0.1631
  C  C286  1  0.942600  0.587500  0.944100  1.0  0.1347
  C  C287  1  0.404100  0.186500  0.645500  1.0  0.1429
  C  C288  1  0.331400  0.158500  0.706300  1.0  0.1078
  C  C289  1  0.398500  0.150000  0.611100  1.0  -0.0971
  C  C290  1  0.325900  0.122000  0.671900  1.0  -0.1549
  C  C291  1  0.359400  0.117800  0.624300  1.0  -0.0372
  C  C292  1  0.285600  0.089400  0.688400  1.0  0.747
  C  C293  1  0.360800  0.957700  0.684100  1.0  0.7272
  C  C294  1  0.321500  0.027200  0.843100  1.0  0.755
  C  C295  1  0.415000  0.946600  0.659000  1.0  -0.1198
  C  C296  1  0.366500  0.049900  0.878700  1.0  -0.1378
  C  C297  1  0.449800  0.916300  0.683000  1.0  -0.0582
  C  C298  1  0.428700  0.966300  0.608700  1.0  0.1259
  C  C299  1  0.371600  0.098100  0.879500  1.0  -0.0432
  C  C300  1  0.401100  0.022900  0.912400  1.0  0.1324
  C  C301  1  0.501000  0.905500  0.656700  1.0  -0.1406
  C  C302  1  0.412300  0.116200  0.913100  1.0  -0.1105
  C  C303  1  0.511400  0.927500  0.607400  1.0  0.1631
  C  C304  1  0.442600  0.087500  0.944100  1.0  0.1347
  C  C305  1  0.404100  0.313500  0.854500  1.0  0.1433
  C  C306  1  0.331400  0.341500  0.793700  1.0  0.108
  C  C307  1  0.398500  0.350000  0.888900  1.0  -0.0977
  C  C308  1  0.325900  0.378000  0.828100  1.0  -0.1554
  C  C309  1  0.359400  0.382200  0.875700  1.0  -0.0369
  C  C310  1  0.285600  0.410600  0.811600  1.0  0.7478
  C  C311  1  0.360800  0.542300  0.815900  1.0  0.7272
  C  C312  1  0.321500  0.472800  0.656900  1.0  0.7554
  C  C313  1  0.415000  0.553400  0.841000  1.0  -0.1195
  C  C314  1  0.366500  0.450100  0.621300  1.0  -0.1389
  C  C315  1  0.449800  0.583700  0.817000  1.0  -0.0589
  C  C316  1  0.428700  0.533700  0.891300  1.0  0.1274
  C  C317  1  0.371600  0.401900  0.620500  1.0  -0.0437
  C  C318  1  0.401100  0.477100  0.587600  1.0  0.1312
  C  C319  1  0.501000  0.594500  0.843300  1.0  -0.1399
  C  C320  1  0.412300  0.383800  0.586900  1.0  -0.1092
  C  C321  1  0.511400  0.572500  0.892600  1.0  0.1627
  C  C322  1  0.442600  0.412500  0.555900  1.0  0.1351
  C  C323  1  0.904100  0.813500  0.854500  1.0  0.1433
  C  C324  1  0.831400  0.841500  0.793700  1.0  0.108
  C  C325  1  0.898500  0.850000  0.888900  1.0  -0.0977
  C  C326  1  0.825900  0.878000  0.828100  1.0  -0.1554
  C  C327  1  0.859400  0.882200  0.875700  1.0  -0.0369
  C  C328  1  0.785600  0.910600  0.811600  1.0  0.7478
  C  C329  1  0.860800  0.042300  0.815900  1.0  0.7272
  C  C330  1  0.821500  0.972800  0.656900  1.0  0.7554
  C  C331  1  0.915000  0.053400  0.841000  1.0  -0.1195
  C  C332  1  0.866500  0.950100  0.621300  1.0  -0.1389
  C  C333  1  0.949800  0.083700  0.817000  1.0  -0.0589
  C  C334  1  0.928700  0.033700  0.891300  1.0  0.1274
  C  C335  1  0.871600  0.901900  0.620500  1.0  -0.0437
  C  C336  1  0.901100  0.977100  0.587600  1.0  0.1312
  C  C337  1  0.001000  0.094500  0.843300  1.0  -0.1399
  C  C338  1  0.912300  0.883800  0.586900  1.0  -0.1092
  C  C339  1  0.011400  0.072500  0.892600  1.0  0.1627
  C  C340  1  0.942600  0.912500  0.555900  1.0  0.1351
  C  C341  1  0.095900  0.686500  0.854500  1.0  0.1425
  C  C342  1  0.168600  0.658500  0.793700  1.0  0.109
  C  C343  1  0.101500  0.650000  0.888900  1.0  -0.0986
  C  C344  1  0.174100  0.622000  0.828100  1.0  -0.1546
  C  C345  1  0.140600  0.617800  0.875700  1.0  -0.0372
  C  C346  1  0.214400  0.589400  0.811600  1.0  0.7472
  C  C347  1  0.139200  0.457700  0.815900  1.0  0.7267
  C  C348  1  0.178500  0.527200  0.656900  1.0  0.754
  C  C349  1  0.085000  0.446600  0.841000  1.0  -0.1199
  C  C350  1  0.133500  0.549900  0.621300  1.0  -0.14
  C  C351  1  0.050200  0.416300  0.817000  1.0  -0.0588
  C  C352  1  0.071300  0.466300  0.891300  1.0  0.127
  C  C353  1  0.128400  0.598100  0.620500  1.0  -0.0431
  C  C354  1  0.098900  0.522900  0.587600  1.0  0.1328
  C  C355  1  0.999000  0.405500  0.843300  1.0  -0.14
  C  C356  1  0.087700  0.616200  0.586900  1.0  -0.1097
  C  C357  1  0.988600  0.427500  0.892600  1.0  0.1628
  C  C358  1  0.057400  0.587500  0.555900  1.0  0.1349
  C  C359  1  0.595900  0.186500  0.854500  1.0  0.1425
  C  C360  1  0.668600  0.158500  0.793700  1.0  0.109
  C  C361  1  0.601500  0.150000  0.888900  1.0  -0.0986
  C  C362  1  0.674100  0.122000  0.828100  1.0  -0.1546
  C  C363  1  0.640600  0.117800  0.875700  1.0  -0.0372
  C  C364  1  0.714400  0.089400  0.811600  1.0  0.7472
  C  C365  1  0.639200  0.957700  0.815900  1.0  0.7267
  C  C366  1  0.678500  0.027200  0.656900  1.0  0.754
  C  C367  1  0.585000  0.946600  0.841000  1.0  -0.1199
  C  C368  1  0.633500  0.049900  0.621300  1.0  -0.14
  C  C369  1  0.550200  0.916300  0.817000  1.0  -0.0588
  C  C370  1  0.571300  0.966300  0.891300  1.0  0.127
  C  C371  1  0.628400  0.098100  0.620500  1.0  -0.0431
  C  C372  1  0.598900  0.022900  0.587600  1.0  0.1328
  C  C373  1  0.499000  0.905500  0.843300  1.0  -0.14
  C  C374  1  0.587700  0.116200  0.586900  1.0  -0.1097
  C  C375  1  0.488600  0.927500  0.892600  1.0  0.1628
  C  C376  1  0.557400  0.087500  0.555900  1.0  0.1349
  C  C377  1  0.404100  0.686500  0.354500  1.0  0.1425
  C  C378  1  0.331400  0.658500  0.293700  1.0  0.1081
  C  C379  1  0.398500  0.650000  0.388900  1.0  -0.0979
  C  C380  1  0.325900  0.622000  0.328100  1.0  -0.1551
  C  C381  1  0.359400  0.617800  0.375700  1.0  -0.0371
  C  C382  1  0.285600  0.589400  0.311600  1.0  0.7474
  C  C383  1  0.360800  0.457700  0.315900  1.0  0.7271
  C  C384  1  0.321500  0.527200  0.156900  1.0  0.7551
  C  C385  1  0.415000  0.446600  0.341000  1.0  -0.1196
  C  C386  1  0.366500  0.549900  0.121300  1.0  -0.1386
  C  C387  1  0.449800  0.416300  0.317000  1.0  -0.0589
  C  C388  1  0.428700  0.466300  0.391300  1.0  0.1258
  C  C389  1  0.371600  0.598100  0.120500  1.0  -0.0437
  C  C390  1  0.401100  0.522900  0.087600  1.0  0.1327
  C  C391  1  0.501000  0.405500  0.343300  1.0  -0.1406
  C  C392  1  0.412300  0.616200  0.086900  1.0  -0.1105
  C  C393  1  0.511400  0.427500  0.392600  1.0  0.1643
  C  C394  1  0.442600  0.587500  0.055900  1.0  0.1346
  C  C395  1  0.904100  0.186500  0.354500  1.0  0.1425
  C  C396  1  0.831400  0.158500  0.293700  1.0  0.1081
  C  C397  1  0.898500  0.150000  0.388900  1.0  -0.0979
  C  C398  1  0.825900  0.122000  0.328100  1.0  -0.1551
  C  C399  1  0.859400  0.117800  0.375700  1.0  -0.0371
  C  C400  1  0.785600  0.089400  0.311600  1.0  0.7474
  C  C401  1  0.860800  0.957700  0.315900  1.0  0.7271
  C  C402  1  0.821500  0.027200  0.156900  1.0  0.7551
  C  C403  1  0.915000  0.946600  0.341000  1.0  -0.1196
  C  C404  1  0.866500  0.049900  0.121300  1.0  -0.1386
  C  C405  1  0.949800  0.916300  0.317000  1.0  -0.0589
  C  C406  1  0.928700  0.966300  0.391300  1.0  0.1258
  C  C407  1  0.871600  0.098100  0.120500  1.0  -0.0437
  C  C408  1  0.901100  0.022900  0.087600  1.0  0.1327
  C  C409  1  0.001000  0.905500  0.343300  1.0  -0.1406
  C  C410  1  0.912300  0.116200  0.086900  1.0  -0.1105
  C  C411  1  0.011400  0.927500  0.392600  1.0  0.1643
  C  C412  1  0.942600  0.087500  0.055900  1.0  0.1346
  C  C413  1  0.095900  0.313500  0.354500  1.0  0.1435
  C  C414  1  0.168600  0.341500  0.293700  1.0  0.1089
  C  C415  1  0.101500  0.350000  0.388900  1.0  -0.0982
  C  C416  1  0.174100  0.378000  0.328100  1.0  -0.155
  C  C417  1  0.140600  0.382200  0.375700  1.0  -0.0369
  C  C418  1  0.214400  0.410600  0.311600  1.0  0.7473
  C  C419  1  0.139200  0.542300  0.315900  1.0  0.7265
  C  C420  1  0.178500  0.472800  0.156900  1.0  0.7543
  C  C421  1  0.085000  0.553400  0.341000  1.0  -0.1196
  C  C422  1  0.133500  0.450100  0.121300  1.0  -0.1402
  C  C423  1  0.050200  0.583700  0.317000  1.0  -0.0587
  C  C424  1  0.071300  0.533700  0.391300  1.0  0.128
  C  C425  1  0.128400  0.401900  0.120500  1.0  -0.043
  C  C426  1  0.098900  0.477100  0.087600  1.0  0.1319
  C  C427  1  0.999000  0.594500  0.343300  1.0  -0.1408
  C  C428  1  0.087700  0.383800  0.086900  1.0  -0.1088
  C  C429  1  0.988600  0.572500  0.392600  1.0  0.1638
  C  C430  1  0.057400  0.412500  0.055900  1.0  0.1355
  C  C431  1  0.595900  0.813500  0.354500  1.0  0.1435
  C  C432  1  0.668600  0.841500  0.293700  1.0  0.1089
  C  C433  1  0.601500  0.850000  0.388900  1.0  -0.0982
  C  C434  1  0.674100  0.878000  0.328100  1.0  -0.155
  C  C435  1  0.640600  0.882200  0.375700  1.0  -0.0369
  C  C436  1  0.714400  0.910600  0.311600  1.0  0.7473
  C  C437  1  0.639200  0.042300  0.315900  1.0  0.7265
  C  C438  1  0.678500  0.972800  0.156900  1.0  0.7543
  C  C439  1  0.585000  0.053400  0.341000  1.0  -0.1196
  C  C440  1  0.633500  0.950100  0.121300  1.0  -0.1402
  C  C441  1  0.550200  0.083700  0.317000  1.0  -0.0587
  C  C442  1  0.571300  0.033700  0.391300  1.0  0.128
  C  C443  1  0.628400  0.901900  0.120500  1.0  -0.043
  C  C444  1  0.598900  0.977100  0.087600  1.0  0.1319
  C  C445  1  0.499000  0.094500  0.343300  1.0  -0.1408
  C  C446  1  0.587700  0.883800  0.086900  1.0  -0.1088
  C  C447  1  0.488600  0.072500  0.392600  1.0  0.1638
  C  C448  1  0.557400  0.912500  0.055900  1.0  0.1355
  C  C449  1  0.595900  0.686500  0.145500  1.0  0.143
  C  C450  1  0.668600  0.658500  0.206300  1.0  0.1086
  C  C451  1  0.601500  0.650000  0.111100  1.0  -0.0968
  C  C452  1  0.674100  0.622000  0.171900  1.0  -0.1542
  C  C453  1  0.640600  0.617800  0.124300  1.0  -0.0377
  C  C454  1  0.714400  0.589400  0.188400  1.0  0.747
  C  C455  1  0.639200  0.457700  0.184100  1.0  0.7268
  C  C456  1  0.678500  0.527200  0.343100  1.0  0.7541
  C  C457  1  0.585000  0.446600  0.159000  1.0  -0.1204
  C  C458  1  0.633500  0.549900  0.378700  1.0  -0.1392
  C  C459  1  0.550200  0.416300  0.183000  1.0  -0.058
  C  C460  1  0.571300  0.466300  0.108700  1.0  0.1269
  C  C461  1  0.628400  0.598100  0.379500  1.0  -0.043
  C  C462  1  0.598900  0.522900  0.412400  1.0  0.1325
  C  C463  1  0.499000  0.405500  0.156700  1.0  -0.1399
  C  C464  1  0.587700  0.616200  0.413100  1.0  -0.1099
  C  C465  1  0.488600  0.427500  0.107400  1.0  0.1621
  C  C466  1  0.557400  0.587500  0.444100  1.0  0.1351
  C  C467  1  0.095900  0.186500  0.145500  1.0  0.143
  C  C468  1  0.168600  0.158500  0.206300  1.0  0.1086
  C  C469  1  0.101500  0.150000  0.111100  1.0  -0.0968
  C  C470  1  0.174100  0.122000  0.171900  1.0  -0.1542
  C  C471  1  0.140600  0.117800  0.124300  1.0  -0.0377
  C  C472  1  0.214400  0.089400  0.188400  1.0  0.747
  C  C473  1  0.139200  0.957700  0.184100  1.0  0.7268
  C  C474  1  0.178500  0.027200  0.343100  1.0  0.7541
  C  C475  1  0.085000  0.946600  0.159000  1.0  -0.1204
  C  C476  1  0.133500  0.049900  0.378700  1.0  -0.1392
  C  C477  1  0.050200  0.916300  0.183000  1.0  -0.058
  C  C478  1  0.071300  0.966300  0.108700  1.0  0.1269
  C  C479  1  0.128400  0.098100  0.379500  1.0  -0.043
  C  C480  1  0.098900  0.022900  0.412400  1.0  0.1325
  C  C481  1  0.999000  0.905500  0.156700  1.0  -0.1399
  C  C482  1  0.087700  0.116200  0.413100  1.0  -0.1099
  C  C483  1  0.988600  0.927500  0.107400  1.0  0.1621
  C  C484  1  0.057400  0.087500  0.444100  1.0  0.1351
  C  C485  1  0.904100  0.313500  0.145500  1.0  0.1432
  C  C486  1  0.831400  0.341500  0.206300  1.0  0.1082
  C  C487  1  0.898500  0.350000  0.111100  1.0  -0.0967
  C  C488  1  0.825900  0.378000  0.171900  1.0  -0.1551
  C  C489  1  0.859400  0.382200  0.124300  1.0  -0.0381
  C  C490  1  0.785600  0.410600  0.188400  1.0  0.7474
  C  C491  1  0.860800  0.542300  0.184100  1.0  0.7271
  C  C492  1  0.821500  0.472800  0.343100  1.0  0.7554
  C  C493  1  0.915000  0.553400  0.159000  1.0  -0.1196
  C  C494  1  0.866500  0.450100  0.378700  1.0  -0.1382
  C  C495  1  0.949800  0.583700  0.183000  1.0  -0.0587
  C  C496  1  0.928700  0.533700  0.108700  1.0  0.1272
  C  C497  1  0.871600  0.401900  0.379500  1.0  -0.0436
  C  C498  1  0.901100  0.477100  0.412400  1.0  0.131
  C  C499  1  0.001000  0.594500  0.156700  1.0  -0.1398
  C  C500  1  0.912300  0.383800  0.413100  1.0  -0.1095
  C  C501  1  0.011400  0.572500  0.107400  1.0  0.1622
  C  C502  1  0.942600  0.412500  0.444100  1.0  0.1356
  C  C503  1  0.404100  0.813500  0.145500  1.0  0.1432
  C  C504  1  0.331400  0.841500  0.206300  1.0  0.1082
  C  C505  1  0.398500  0.850000  0.111100  1.0  -0.0967
  C  C506  1  0.325900  0.878000  0.171900  1.0  -0.1551
  C  C507  1  0.359400  0.882200  0.124300  1.0  -0.0381
  C  C508  1  0.285600  0.910600  0.188400  1.0  0.7474
  C  C509  1  0.360800  0.042300  0.184100  1.0  0.7271
  C  C510  1  0.321500  0.972800  0.343100  1.0  0.7554
  C  C511  1  0.415000  0.053400  0.159000  1.0  -0.1196
  C  C512  1  0.366500  0.950100  0.378700  1.0  -0.1382
  C  C513  1  0.449800  0.083700  0.183000  1.0  -0.0587
  C  C514  1  0.428700  0.033700  0.108700  1.0  0.1272
  C  C515  1  0.371600  0.901900  0.379500  1.0  -0.0436
  C  C516  1  0.401100  0.977100  0.412400  1.0  0.131
  C  C517  1  0.501000  0.094500  0.156700  1.0  -0.1398
  C  C518  1  0.412300  0.883800  0.413100  1.0  -0.1095
  C  C519  1  0.511400  0.072500  0.107400  1.0  0.1622
  C  C520  1  0.442600  0.912500  0.444100  1.0  0.1356
  N  N521  1  0.629500  0.309300  0.693100  1.0  -0.301
  N  N522  1  0.523400  0.542600  0.582700  1.0  -0.3408
  N  N523  1  0.558400  0.457000  0.945000  1.0  -0.3205
  N  N524  1  0.129500  0.809300  0.693100  1.0  -0.301
  N  N525  1  0.023400  0.042600  0.582700  1.0  -0.3408
  N  N526  1  0.058400  0.957000  0.945000  1.0  -0.3205
  N  N527  1  0.870500  0.690700  0.693100  1.0  -0.3026
  N  N528  1  0.976600  0.457400  0.582700  1.0  -0.34
  N  N529  1  0.941600  0.543000  0.945000  1.0  -0.3188
  N  N530  1  0.370500  0.190700  0.693100  1.0  -0.3026
  N  N531  1  0.476600  0.957400  0.582700  1.0  -0.34
  N  N532  1  0.441600  0.043000  0.945000  1.0  -0.3188
  N  N533  1  0.370500  0.309300  0.806900  1.0  -0.3001
  N  N534  1  0.476600  0.542600  0.917300  1.0  -0.3404
  N  N535  1  0.441600  0.457000  0.555000  1.0  -0.3191
  N  N536  1  0.870500  0.809300  0.806900  1.0  -0.3001
  N  N537  1  0.976600  0.042600  0.917300  1.0  -0.3404
  N  N538  1  0.941600  0.957000  0.555000  1.0  -0.3191
  N  N539  1  0.129500  0.690700  0.806900  1.0  -0.3005
  N  N540  1  0.023400  0.457400  0.917300  1.0  -0.34
  N  N541  1  0.058400  0.543000  0.555000  1.0  -0.3209
  N  N542  1  0.629500  0.190700  0.806900  1.0  -0.3005
  N  N543  1  0.523400  0.957400  0.917300  1.0  -0.34
  N  N544  1  0.558400  0.043000  0.555000  1.0  -0.3209
  N  N545  1  0.370500  0.690700  0.306900  1.0  -0.3005
  N  N546  1  0.476600  0.457400  0.417300  1.0  -0.3401
  N  N547  1  0.441600  0.543000  0.055000  1.0  -0.319
  N  N548  1  0.870500  0.190700  0.306900  1.0  -0.3005
  N  N549  1  0.976600  0.957400  0.417300  1.0  -0.3401
  N  N550  1  0.941600  0.043000  0.055000  1.0  -0.319
  N  N551  1  0.129500  0.309300  0.306900  1.0  -0.3003
  N  N552  1  0.023400  0.542600  0.417300  1.0  -0.3402
  N  N553  1  0.058400  0.457000  0.055000  1.0  -0.3208
  N  N554  1  0.629500  0.809300  0.306900  1.0  -0.3003
  N  N555  1  0.523400  0.042600  0.417300  1.0  -0.3402
  N  N556  1  0.558400  0.957000  0.055000  1.0  -0.3208
  N  N557  1  0.629500  0.690700  0.193100  1.0  -0.3023
  N  N558  1  0.523400  0.457400  0.082700  1.0  -0.34
  N  N559  1  0.558400  0.543000  0.445000  1.0  -0.3202
  N  N560  1  0.129500  0.190700  0.193100  1.0  -0.3023
  N  N561  1  0.023400  0.957400  0.082700  1.0  -0.34
  N  N562  1  0.058400  0.043000  0.445000  1.0  -0.3202
  N  N563  1  0.870500  0.309300  0.193100  1.0  -0.3009
  N  N564  1  0.976600  0.542600  0.082700  1.0  -0.341
  N  N565  1  0.941600  0.457000  0.445000  1.0  -0.3195
  N  N566  1  0.370500  0.809300  0.193100  1.0  -0.3009
  N  N567  1  0.476600  0.042600  0.082700  1.0  -0.341
  N  N568  1  0.441600  0.957000  0.445000  1.0  -0.3195
  Cl  Cl569  1  0.731400  0.234500  0.713700  1.0  -0.3095
  Cl  Cl570  1  0.554300  0.217400  0.699100  1.0  -0.2567
  Cl  Cl571  1  0.624600  0.206000  0.667400  1.0  -0.2952
  Cl  Cl572  1  0.583920  0.449400  0.516420  1.0  -0.5736
  Cl  Cl573  1  0.231400  0.734500  0.713700  1.0  -0.3095
  Cl  Cl574  1  0.054300  0.717400  0.699100  1.0  -0.2567
  Cl  Cl575  1  0.124600  0.706000  0.667400  1.0  -0.2952
  Cl  Cl576  1  0.083920  0.949400  0.516420  1.0  -0.5736
  Cl  Cl577  1  0.768600  0.765500  0.713700  1.0  -0.3106
  Cl  Cl578  1  0.945700  0.782600  0.699100  1.0  -0.2603
  Cl  Cl579  1  0.875400  0.794000  0.667400  1.0  -0.2955
  Cl  Cl580  1  0.916080  0.550600  0.516420  1.0  -0.5726
  Cl  Cl581  1  0.268600  0.265500  0.713700  1.0  -0.3106
  Cl  Cl582  1  0.445700  0.282600  0.699100  1.0  -0.2603
  Cl  Cl583  1  0.375400  0.294000  0.667400  1.0  -0.2955
  Cl  Cl584  1  0.416080  0.050600  0.516420  1.0  -0.5726
  Cl  Cl585  1  0.268600  0.234500  0.786300  1.0  -0.3089
  Cl  Cl586  1  0.445700  0.217400  0.800900  1.0  -0.2603
  Cl  Cl587  1  0.375400  0.206000  0.832600  1.0  -0.2952
  Cl  Cl588  1  0.416080  0.449400  0.983580  1.0  -0.5732
  Cl  Cl589  1  0.768600  0.734500  0.786300  1.0  -0.3089
  Cl  Cl590  1  0.945700  0.717400  0.800900  1.0  -0.2603
  Cl  Cl591  1  0.875400  0.706000  0.832600  1.0  -0.2952
  Cl  Cl592  1  0.916080  0.949400  0.983580  1.0  -0.5732
  Cl  Cl593  1  0.231400  0.765500  0.786300  1.0  -0.3083
  Cl  Cl594  1  0.054300  0.782600  0.800900  1.0  -0.2575
  Cl  Cl595  1  0.124600  0.794000  0.832600  1.0  -0.2949
  Cl  Cl596  1  0.083920  0.550600  0.983580  1.0  -0.5728
  Cl  Cl597  1  0.731400  0.265500  0.786300  1.0  -0.3083
  Cl  Cl598  1  0.554300  0.282600  0.800900  1.0  -0.2575
  Cl  Cl599  1  0.624600  0.294000  0.832600  1.0  -0.2949
  Cl  Cl600  1  0.583920  0.050600  0.983580  1.0  -0.5728
  Cl  Cl601  1  0.268600  0.765500  0.286300  1.0  -0.3088
  Cl  Cl602  1  0.445700  0.782600  0.300900  1.0  -0.2609
  Cl  Cl603  1  0.375400  0.794000  0.332600  1.0  -0.2954
  Cl  Cl604  1  0.416080  0.550600  0.483580  1.0  -0.5728
  Cl  Cl605  1  0.768600  0.265500  0.286300  1.0  -0.3088
  Cl  Cl606  1  0.945700  0.282600  0.300900  1.0  -0.2609
  Cl  Cl607  1  0.875400  0.294000  0.332600  1.0  -0.2954
  Cl  Cl608  1  0.916080  0.050600  0.483580  1.0  -0.5728
  Cl  Cl609  1  0.231400  0.234500  0.286300  1.0  -0.3083
  Cl  Cl610  1  0.054300  0.217400  0.300900  1.0  -0.257
  Cl  Cl611  1  0.124600  0.206000  0.332600  1.0  -0.2948
  Cl  Cl612  1  0.083920  0.449400  0.483580  1.0  -0.5732
  Cl  Cl613  1  0.731400  0.734500  0.286300  1.0  -0.3083
  Cl  Cl614  1  0.554300  0.717400  0.300900  1.0  -0.257
  Cl  Cl615  1  0.624600  0.706000  0.332600  1.0  -0.2948
  Cl  Cl616  1  0.583920  0.949400  0.483580  1.0  -0.5732
  Cl  Cl617  1  0.731400  0.765500  0.213700  1.0  -0.3093
  Cl  Cl618  1  0.554300  0.782600  0.199100  1.0  -0.2571
  Cl  Cl619  1  0.624600  0.794000  0.167400  1.0  -0.2951
  Cl  Cl620  1  0.583920  0.550600  0.016420  1.0  -0.573
  Cl  Cl621  1  0.231400  0.265500  0.213700  1.0  -0.3093
  Cl  Cl622  1  0.054300  0.282600  0.199100  1.0  -0.2571
  Cl  Cl623  1  0.124600  0.294000  0.167400  1.0  -0.2951
  Cl  Cl624  1  0.083920  0.050600  0.016420  1.0  -0.573
  Cl  Cl625  1  0.768600  0.234500  0.213700  1.0  -0.311
  Cl  Cl626  1  0.945700  0.217400  0.199100  1.0  -0.2599
  Cl  Cl627  1  0.875400  0.206000  0.167400  1.0  -0.2955
  Cl  Cl628  1  0.916080  0.449400  0.016420  1.0  -0.5731
  Cl  Cl629  1  0.268600  0.734500  0.213700  1.0  -0.311
  Cl  Cl630  1  0.445700  0.717400  0.199100  1.0  -0.2599
  Cl  Cl631  1  0.375400  0.706000  0.167400  1.0  -0.2955
  Cl  Cl632  1  0.416080  0.949400  0.016420  1.0  -0.5731
  O  O633  1  0.717800  0.443300  0.655900  1.0  -0.6227
  O  O634  1  0.741000  0.408100  0.735000  1.0  -0.6079
  O  O635  1  0.675000  0.523500  0.653100  1.0  -0.6095
  O  O636  1  0.719100  0.447400  0.833800  1.0  -0.602
  O  O637  1  0.671900  0.511100  0.831400  1.0  -0.5649
  O  O638  1  0.649500  0.553900  0.733500  1.0  -0.5925
  O  O639  1  0.217800  0.943300  0.655900  1.0  -0.6227
  O  O640  1  0.241000  0.908100  0.735000  1.0  -0.6079
  O  O641  1  0.175000  0.023500  0.653100  1.0  -0.6095
  O  O642  1  0.219100  0.947400  0.833800  1.0  -0.602
  O  O643  1  0.171900  0.011100  0.831400  1.0  -0.5649
  O  O644  1  0.149500  0.053900  0.733500  1.0  -0.5925
  O  O645  1  0.782200  0.556700  0.655900  1.0  -0.6221
  O  O646  1  0.759000  0.591900  0.735000  1.0  -0.6067
  O  O647  1  0.825000  0.476500  0.653100  1.0  -0.6082
  O  O648  1  0.780900  0.552600  0.833800  1.0  -0.6
  O  O649  1  0.828100  0.488900  0.831400  1.0  -0.5644
  O  O650  1  0.850500  0.446100  0.733500  1.0  -0.5919
  O  O651  1  0.282200  0.056700  0.655900  1.0  -0.6221
  O  O652  1  0.259000  0.091900  0.735000  1.0  -0.6067
  O  O653  1  0.325000  0.976500  0.653100  1.0  -0.6082
  O  O654  1  0.280900  0.052600  0.833800  1.0  -0.6
  O  O655  1  0.328100  0.988900  0.831400  1.0  -0.5644
  O  O656  1  0.350500  0.946100  0.733500  1.0  -0.5919
  O  O657  1  0.282200  0.443300  0.844100  1.0  -0.622
  O  O658  1  0.259000  0.408100  0.765000  1.0  -0.6067
  O  O659  1  0.325000  0.523500  0.846900  1.0  -0.6106
  O  O660  1  0.280900  0.447400  0.666200  1.0  -0.6019
  O  O661  1  0.328100  0.511100  0.668600  1.0  -0.5636
  O  O662  1  0.350500  0.553900  0.766500  1.0  -0.5935
  O  O663  1  0.782200  0.943300  0.844100  1.0  -0.622
  O  O664  1  0.759000  0.908100  0.765000  1.0  -0.6067
  O  O665  1  0.825000  0.023500  0.846900  1.0  -0.6106
  O  O666  1  0.780900  0.947400  0.666200  1.0  -0.6019
  O  O667  1  0.828100  0.011100  0.668600  1.0  -0.5636
  O  O668  1  0.850500  0.053900  0.766500  1.0  -0.5935
  O  O669  1  0.217800  0.556700  0.844100  1.0  -0.6227
  O  O670  1  0.241000  0.591900  0.765000  1.0  -0.6073
  O  O671  1  0.175000  0.476500  0.846900  1.0  -0.6104
  O  O672  1  0.219100  0.552600  0.666200  1.0  -0.6007
  O  O673  1  0.171900  0.488900  0.668600  1.0  -0.565
  O  O674  1  0.149500  0.446100  0.766500  1.0  -0.5939
  O  O675  1  0.717800  0.056700  0.844100  1.0  -0.6227
  O  O676  1  0.741000  0.091900  0.765000  1.0  -0.6073
  O  O677  1  0.675000  0.976500  0.846900  1.0  -0.6104
  O  O678  1  0.719100  0.052600  0.666200  1.0  -0.6007
  O  O679  1  0.671900  0.988900  0.668600  1.0  -0.565
  O  O680  1  0.649500  0.946100  0.766500  1.0  -0.5939
  O  O681  1  0.282200  0.556700  0.344100  1.0  -0.6224
  O  O682  1  0.259000  0.591900  0.265000  1.0  -0.6067
  O  O683  1  0.325000  0.476500  0.346900  1.0  -0.6104
  O  O684  1  0.280900  0.552600  0.166200  1.0  -0.5995
  O  O685  1  0.328100  0.488900  0.168600  1.0  -0.5642
  O  O686  1  0.350500  0.446100  0.266500  1.0  -0.5935
  O  O687  1  0.782200  0.056700  0.344100  1.0  -0.6224
  O  O688  1  0.759000  0.091900  0.265000  1.0  -0.6067
  O  O689  1  0.825000  0.976500  0.346900  1.0  -0.6104
  O  O690  1  0.780900  0.052600  0.166200  1.0  -0.5995
  O  O691  1  0.828100  0.988900  0.168600  1.0  -0.5642
  O  O692  1  0.850500  0.946100  0.266500  1.0  -0.5935
  O  O693  1  0.217800  0.443300  0.344100  1.0  -0.6225
  O  O694  1  0.241000  0.408100  0.265000  1.0  -0.607
  O  O695  1  0.175000  0.523500  0.346900  1.0  -0.6106
  O  O696  1  0.219100  0.447400  0.166200  1.0  -0.6023
  O  O697  1  0.171900  0.511100  0.168600  1.0  -0.5648
  O  O698  1  0.149500  0.553900  0.266500  1.0  -0.5941
  O  O699  1  0.717800  0.943300  0.344100  1.0  -0.6225
  O  O700  1  0.741000  0.908100  0.265000  1.0  -0.607
  O  O701  1  0.675000  0.023500  0.346900  1.0  -0.6106
  O  O702  1  0.719100  0.947400  0.166200  1.0  -0.6023
  O  O703  1  0.671900  0.011100  0.168600  1.0  -0.5648
  O  O704  1  0.649500  0.053900  0.266500  1.0  -0.5941
  O  O705  1  0.717800  0.556700  0.155900  1.0  -0.6231
  O  O706  1  0.741000  0.591900  0.235000  1.0  -0.6071
  O  O707  1  0.675000  0.476500  0.153100  1.0  -0.6086
  O  O708  1  0.719100  0.552600  0.333800  1.0  -0.6013
  O  O709  1  0.671900  0.488900  0.331400  1.0  -0.565
  O  O710  1  0.649500  0.446100  0.233500  1.0  -0.5923
  O  O711  1  0.217800  0.056700  0.155900  1.0  -0.6231
  O  O712  1  0.241000  0.091900  0.235000  1.0  -0.6071
  O  O713  1  0.175000  0.976500  0.153100  1.0  -0.6086
  O  O714  1  0.219100  0.052600  0.333800  1.0  -0.6013
  O  O715  1  0.171900  0.988900  0.331400  1.0  -0.565
  O  O716  1  0.149500  0.946100  0.233500  1.0  -0.5923
  O  O717  1  0.782200  0.443300  0.155900  1.0  -0.6216
  O  O718  1  0.759000  0.408100  0.235000  1.0  -0.6077
  O  O719  1  0.825000  0.523500  0.153100  1.0  -0.6092
  O  O720  1  0.780900  0.447400  0.333800  1.0  -0.6009
  O  O721  1  0.828100  0.511100  0.331400  1.0  -0.564
  O  O722  1  0.850500  0.553900  0.233500  1.0  -0.5918
  O  O723  1  0.282200  0.943300  0.155900  1.0  -0.6216
  O  O724  1  0.259000  0.908100  0.235000  1.0  -0.6077
  O  O725  1  0.325000  0.023500  0.153100  1.0  -0.6092
  O  O726  1  0.280900  0.947400  0.333800  1.0  -0.6009
  O  O727  1  0.328100  0.011100  0.331400  1.0  -0.564
  O  O728  1  0.350500  0.053900  0.233500  1.0  -0.5918
  O  O729  1  0.750000  0.500000  0.742600  1.0  -1.1353
  O  O730  1  0.250000  0.000000  0.742600  1.0  -1.1353
  O  O731  1  0.250000  0.500000  0.757400  1.0  -1.1357
  O  O732  1  0.750000  0.000000  0.757400  1.0  -1.1357
  O  O733  1  0.250000  0.500000  0.257400  1.0  -1.1357
  O  O734  1  0.750000  0.000000  0.257400  1.0  -1.1357
  O  O735  1  0.750000  0.500000  0.242600  1.0  -1.1353
  O  O736  1  0.250000  0.000000  0.242600  1.0  -1.1353
