# generated using pymatgen
data_Th2H36C63(NO6)3
_symmetry_space_group_name_H-M   'P 1'
_cell_length_a   24.86120000
_cell_length_b   24.86120000
_cell_length_c   28.26000000
_cell_angle_alpha   90.00000000
_cell_angle_beta   90.00000000
_cell_angle_gamma   120.00000000
_symmetry_Int_Tables_number   1
_chemical_formula_structural   Th2H36C63(NO6)3
_chemical_formula_sum   'Th12 H216 C378 N18 O108'
_cell_volume   15126.79648167
_cell_formula_units_Z   6
loop_
 _symmetry_equiv_pos_site_id
 _symmetry_equiv_pos_as_xyz
  1  'x, y, z'
loop_
 _atom_site_type_symbol
 _atom_site_label
 _atom_site_symmetry_multiplicity
 _atom_site_fract_x
 _atom_site_fract_y
 _atom_site_fract_z
 _atom_site_occupancy
 _atom_site_charge
  Th  Th1  1  0.666667  0.333333  0.987770  1.0  2.3067
  Th  Th2  1  0.333333  0.666667  0.321100  1.0  2.3071
  Th  Th3  1  0.000000  0.000000  0.654440  1.0  2.3068
  Th  Th4  1  0.333333  0.666667  0.512230  1.0  2.3083
  Th  Th5  1  0.000000  0.000000  0.845560  1.0  2.3085
  Th  Th6  1  0.666667  0.333333  0.178900  1.0  2.3088
  Th  Th7  1  0.333333  0.666667  0.012230  1.0  2.3083
  Th  Th8  1  0.000000  0.000000  0.345560  1.0  2.3085
  Th  Th9  1  0.666667  0.333333  0.678900  1.0  2.3088
  Th  Th10  1  0.666667  0.333333  0.487770  1.0  2.3067
  Th  Th11  1  0.333333  0.666667  0.821100  1.0  2.3071
  Th  Th12  1  0.000000  0.000000  0.154440  1.0  2.3068
  H  H13  1  0.738300  0.652000  0.961700  1.0  0.1345
  H  H14  1  0.739600  0.560300  0.977400  1.0  0.1245
  H  H15  1  0.567300  0.551100  0.902500  1.0  0.1272
  H  H16  1  0.567600  0.459700  0.920600  1.0  0.1282
  H  H17  1  0.572100  0.636800  0.984500  1.0  0.1367
  H  H18  1  0.477300  0.635600  0.984700  1.0  0.1228
  H  H19  1  0.404970  0.985330  0.295030  1.0  0.1345
  H  H20  1  0.406270  0.893630  0.310730  1.0  0.1245
  H  H21  1  0.233970  0.884430  0.235830  1.0  0.1272
  H  H22  1  0.234270  0.793030  0.253930  1.0  0.1282
  H  H23  1  0.238770  0.970130  0.317830  1.0  0.1367
  H  H24  1  0.143970  0.968930  0.318030  1.0  0.1228
  H  H25  1  0.071630  0.318670  0.628370  1.0  0.1346
  H  H26  1  0.072930  0.226970  0.644070  1.0  0.1245
  H  H27  1  0.900630  0.217770  0.569170  1.0  0.1272
  H  H28  1  0.900930  0.126370  0.587270  1.0  0.1282
  H  H29  1  0.905430  0.303470  0.651170  1.0  0.1366
  H  H30  1  0.810630  0.302270  0.651370  1.0  0.1228
  H  H31  1  0.348000  0.086300  0.961700  1.0  0.1355
  H  H32  1  0.439700  0.179300  0.977400  1.0  0.1242
  H  H33  1  0.448900  0.016200  0.902500  1.0  0.1274
  H  H34  1  0.540300  0.107900  0.920600  1.0  0.1281
  H  H35  1  0.363200  0.935300  0.984500  1.0  0.1365
  H  H36  1  0.364400  0.841700  0.984700  1.0  0.1225
  H  H37  1  0.014670  0.419630  0.295030  1.0  0.1355
  H  H38  1  0.106370  0.512630  0.310730  1.0  0.1242
  H  H39  1  0.115570  0.349530  0.235830  1.0  0.1274
  H  H40  1  0.206970  0.441230  0.253930  1.0  0.1281
  H  H41  1  0.029870  0.268630  0.317830  1.0  0.1363
  H  H42  1  0.031070  0.175030  0.318030  1.0  0.1225
  H  H43  1  0.681330  0.752970  0.628370  1.0  0.1355
  H  H44  1  0.773030  0.845970  0.644070  1.0  0.1242
  H  H45  1  0.782230  0.682870  0.569170  1.0  0.1274
  H  H46  1  0.873630  0.774570  0.587270  1.0  0.1281
  H  H47  1  0.696530  0.601970  0.651170  1.0  0.1364
  H  H48  1  0.697730  0.508370  0.651370  1.0  0.1225
  H  H49  1  0.913700  0.261700  0.961700  1.0  0.136
  H  H50  1  0.820700  0.260400  0.977400  1.0  0.1257
  H  H51  1  0.983800  0.432700  0.902500  1.0  0.1271
  H  H52  1  0.892100  0.432400  0.920600  1.0  0.129
  H  H53  1  0.064700  0.427900  0.984500  1.0  0.1365
  H  H54  1  0.158300  0.522700  0.984700  1.0  0.1221
  H  H55  1  0.580370  0.595030  0.295030  1.0  0.136
  H  H56  1  0.487370  0.593730  0.310730  1.0  0.1257
  H  H57  1  0.650470  0.766030  0.235830  1.0  0.1271
  H  H58  1  0.558770  0.765730  0.253930  1.0  0.129
  H  H59  1  0.731370  0.761230  0.317830  1.0  0.1365
  H  H60  1  0.824970  0.856030  0.318030  1.0  0.1221
  H  H61  1  0.247030  0.928370  0.628370  1.0  0.136
  H  H62  1  0.154030  0.927070  0.644070  1.0  0.1257
  H  H63  1  0.317130  0.099370  0.569170  1.0  0.1271
  H  H64  1  0.225430  0.099070  0.587270  1.0  0.129
  H  H65  1  0.398030  0.094570  0.651170  1.0  0.1364
  H  H66  1  0.491630  0.189370  0.651370  1.0  0.1221
  H  H67  1  0.652000  0.738300  0.538300  1.0  0.1344
  H  H68  1  0.560300  0.739600  0.522600  1.0  0.1262
  H  H69  1  0.551100  0.567300  0.597500  1.0  0.1271
  H  H70  1  0.459700  0.567600  0.579400  1.0  0.1287
  H  H71  1  0.636800  0.572100  0.515500  1.0  0.1373
  H  H72  1  0.635600  0.477300  0.515300  1.0  0.1218
  H  H73  1  0.318670  0.071630  0.871630  1.0  0.1345
  H  H74  1  0.226970  0.072930  0.855930  1.0  0.1261
  H  H75  1  0.217770  0.900630  0.930830  1.0  0.1271
  H  H76  1  0.126370  0.900930  0.912730  1.0  0.1287
  H  H77  1  0.303470  0.905430  0.848830  1.0  0.1372
  H  H78  1  0.302270  0.810630  0.848630  1.0  0.1218
  H  H79  1  0.985330  0.404970  0.204970  1.0  0.1344
  H  H80  1  0.893630  0.406270  0.189270  1.0  0.1262
  H  H81  1  0.884430  0.233970  0.264170  1.0  0.1271
  H  H82  1  0.793030  0.234270  0.246070  1.0  0.1287
  H  H83  1  0.970130  0.238770  0.182170  1.0  0.1373
  H  H84  1  0.968930  0.143970  0.181970  1.0  0.1218
  H  H85  1  0.086300  0.348000  0.538300  1.0  0.134
  H  H86  1  0.179300  0.439700  0.522600  1.0  0.1248
  H  H87  1  0.016200  0.448900  0.597500  1.0  0.1268
  H  H88  1  0.107900  0.540300  0.579400  1.0  0.1291
  H  H89  1  0.935300  0.363200  0.515500  1.0  0.1373
  H  H90  1  0.841700  0.364400  0.515300  1.0  0.1224
  H  H91  1  0.752970  0.681330  0.871630  1.0  0.1341
  H  H92  1  0.845970  0.773030  0.855930  1.0  0.1248
  H  H93  1  0.682870  0.782230  0.930830  1.0  0.1268
  H  H94  1  0.774570  0.873630  0.912730  1.0  0.1291
  H  H95  1  0.601970  0.696530  0.848830  1.0  0.1371
  H  H96  1  0.508370  0.697730  0.848630  1.0  0.1224
  H  H97  1  0.419630  0.014670  0.204970  1.0  0.134
  H  H98  1  0.512630  0.106370  0.189270  1.0  0.1248
  H  H99  1  0.349530  0.115570  0.264170  1.0  0.1268
  H  H100  1  0.441230  0.206970  0.246070  1.0  0.1291
  H  H101  1  0.268630  0.029870  0.182170  1.0  0.1371
  H  H102  1  0.175030  0.031070  0.181970  1.0  0.1224
  H  H103  1  0.261700  0.913700  0.538300  1.0  0.1348
  H  H104  1  0.260400  0.820700  0.522600  1.0  0.1246
  H  H105  1  0.432700  0.983800  0.597500  1.0  0.1264
  H  H106  1  0.432400  0.892100  0.579400  1.0  0.128
  H  H107  1  0.427900  0.064700  0.515500  1.0  0.137
  H  H108  1  0.522700  0.158300  0.515300  1.0  0.1223
  H  H109  1  0.928370  0.247030  0.871630  1.0  0.1348
  H  H110  1  0.927070  0.154030  0.855930  1.0  0.1246
  H  H111  1  0.099370  0.317130  0.930830  1.0  0.1265
  H  H112  1  0.099070  0.225430  0.912730  1.0  0.128
  H  H113  1  0.094570  0.398030  0.848830  1.0  0.1367
  H  H114  1  0.189370  0.491630  0.848630  1.0  0.1223
  H  H115  1  0.595030  0.580370  0.204970  1.0  0.1348
  H  H116  1  0.593730  0.487370  0.189270  1.0  0.1246
  H  H117  1  0.766030  0.650470  0.264170  1.0  0.1264
  H  H118  1  0.765730  0.558770  0.246070  1.0  0.128
  H  H119  1  0.761230  0.731370  0.182170  1.0  0.1369
  H  H120  1  0.856030  0.824970  0.181970  1.0  0.1223
  H  H121  1  0.261700  0.348000  0.038300  1.0  0.1344
  H  H122  1  0.260400  0.439700  0.022600  1.0  0.1253
  H  H123  1  0.432700  0.448900  0.097500  1.0  0.1268
  H  H124  1  0.432400  0.540300  0.079400  1.0  0.129
  H  H125  1  0.427900  0.363200  0.015500  1.0  0.1374
  H  H126  1  0.522700  0.364400  0.015300  1.0  0.1221
  H  H127  1  0.928370  0.681330  0.371630  1.0  0.1344
  H  H128  1  0.927070  0.773030  0.355930  1.0  0.1253
  H  H129  1  0.099370  0.782230  0.430830  1.0  0.1269
  H  H130  1  0.099070  0.873630  0.412730  1.0  0.129
  H  H131  1  0.094570  0.696530  0.348830  1.0  0.1372
  H  H132  1  0.189370  0.697730  0.348630  1.0  0.1221
  H  H133  1  0.595030  0.014670  0.704970  1.0  0.1344
  H  H134  1  0.593730  0.106370  0.689270  1.0  0.1253
  H  H135  1  0.766030  0.115570  0.764170  1.0  0.1268
  H  H136  1  0.765730  0.206970  0.746070  1.0  0.129
  H  H137  1  0.761230  0.029870  0.682170  1.0  0.1374
  H  H138  1  0.856030  0.031070  0.681970  1.0  0.1221
  H  H139  1  0.652000  0.913700  0.038300  1.0  0.136
  H  H140  1  0.560300  0.820700  0.022600  1.0  0.1251
  H  H141  1  0.551100  0.983800  0.097500  1.0  0.1271
  H  H142  1  0.459700  0.892100  0.079400  1.0  0.1288
  H  H143  1  0.636800  0.064700  0.015500  1.0  0.1366
  H  H144  1  0.635600  0.158300  0.015300  1.0  0.1223
  H  H145  1  0.318670  0.247030  0.371630  1.0  0.1361
  H  H146  1  0.226970  0.154030  0.355930  1.0  0.1251
  H  H147  1  0.217770  0.317130  0.430830  1.0  0.1272
  H  H148  1  0.126370  0.225430  0.412730  1.0  0.1288
  H  H149  1  0.303470  0.398030  0.348830  1.0  0.1364
  H  H150  1  0.302270  0.491630  0.348630  1.0  0.1222
  H  H151  1  0.985330  0.580370  0.704970  1.0  0.136
  H  H152  1  0.893630  0.487370  0.689270  1.0  0.1251
  H  H153  1  0.884430  0.650470  0.764170  1.0  0.1271
  H  H154  1  0.793030  0.558770  0.746070  1.0  0.1288
  H  H155  1  0.970130  0.731370  0.682170  1.0  0.1365
  H  H156  1  0.968930  0.824970  0.681970  1.0  0.1223
  H  H157  1  0.086300  0.738300  0.038300  1.0  0.1349
  H  H158  1  0.179300  0.739600  0.022600  1.0  0.1262
  H  H159  1  0.016200  0.567300  0.097500  1.0  0.1275
  H  H160  1  0.107900  0.567600  0.079400  1.0  0.129
  H  H161  1  0.935300  0.572100  0.015500  1.0  0.1373
  H  H162  1  0.841700  0.477300  0.015300  1.0  0.122
  H  H163  1  0.752970  0.071630  0.371630  1.0  0.1349
  H  H164  1  0.845970  0.072930  0.355930  1.0  0.1262
  H  H165  1  0.682870  0.900630  0.430830  1.0  0.1276
  H  H166  1  0.774570  0.900930  0.412730  1.0  0.1291
  H  H167  1  0.601970  0.905430  0.348830  1.0  0.1371
  H  H168  1  0.508370  0.810630  0.348630  1.0  0.122
  H  H169  1  0.419630  0.404970  0.704970  1.0  0.1349
  H  H170  1  0.512630  0.406270  0.689270  1.0  0.1262
  H  H171  1  0.349530  0.233970  0.764170  1.0  0.1275
  H  H172  1  0.441230  0.234270  0.746070  1.0  0.129
  H  H173  1  0.268630  0.238770  0.682170  1.0  0.1373
  H  H174  1  0.175030  0.143970  0.681970  1.0  0.122
  H  H175  1  0.348000  0.261700  0.461700  1.0  0.1349
  H  H176  1  0.439700  0.260400  0.477400  1.0  0.1258
  H  H177  1  0.448900  0.432700  0.402500  1.0  0.1275
  H  H178  1  0.540300  0.432400  0.420600  1.0  0.1291
  H  H179  1  0.363200  0.427900  0.484500  1.0  0.1366
  H  H180  1  0.364400  0.522700  0.484700  1.0  0.1223
  H  H181  1  0.014670  0.595030  0.795030  1.0  0.1349
  H  H182  1  0.106370  0.593730  0.810730  1.0  0.1258
  H  H183  1  0.115570  0.766030  0.735830  1.0  0.1275
  H  H184  1  0.206970  0.765730  0.753930  1.0  0.1291
  H  H185  1  0.029870  0.761230  0.817830  1.0  0.1366
  H  H186  1  0.031070  0.856030  0.818030  1.0  0.1223
  H  H187  1  0.681330  0.928370  0.128370  1.0  0.1349
  H  H188  1  0.773030  0.927070  0.144070  1.0  0.1258
  H  H189  1  0.782230  0.099370  0.069170  1.0  0.1275
  H  H190  1  0.873630  0.099070  0.087270  1.0  0.1291
  H  H191  1  0.696530  0.094570  0.151170  1.0  0.1365
  H  H192  1  0.697730  0.189370  0.151370  1.0  0.1223
  H  H193  1  0.913700  0.652000  0.461700  1.0  0.1345
  H  H194  1  0.820700  0.560300  0.477400  1.0  0.1249
  H  H195  1  0.983800  0.551100  0.402500  1.0  0.1274
  H  H196  1  0.892100  0.459700  0.420600  1.0  0.1286
  H  H197  1  0.064700  0.636800  0.484500  1.0  0.1367
  H  H198  1  0.158300  0.635600  0.484700  1.0  0.1225
  H  H199  1  0.580370  0.985330  0.795030  1.0  0.1345
  H  H200  1  0.487370  0.893630  0.810730  1.0  0.1249
  H  H201  1  0.650470  0.884430  0.735830  1.0  0.1274
  H  H202  1  0.558770  0.793030  0.753930  1.0  0.1286
  H  H203  1  0.731370  0.970130  0.817830  1.0  0.1365
  H  H204  1  0.824970  0.968930  0.818030  1.0  0.1224
  H  H205  1  0.247030  0.318670  0.128370  1.0  0.1345
  H  H206  1  0.154030  0.226970  0.144070  1.0  0.1249
  H  H207  1  0.317130  0.217770  0.069170  1.0  0.1274
  H  H208  1  0.225430  0.126370  0.087270  1.0  0.1286
  H  H209  1  0.398030  0.303470  0.151170  1.0  0.1365
  H  H210  1  0.491630  0.302270  0.151370  1.0  0.1225
  H  H211  1  0.738300  0.086300  0.461700  1.0  0.1353
  H  H212  1  0.739600  0.179300  0.477400  1.0  0.1242
  H  H213  1  0.567300  0.016200  0.402500  1.0  0.1269
  H  H214  1  0.567600  0.107900  0.420600  1.0  0.1284
  H  H215  1  0.572100  0.935300  0.484500  1.0  0.1367
  H  H216  1  0.477300  0.841700  0.484700  1.0  0.1225
  H  H217  1  0.404970  0.419630  0.795030  1.0  0.1353
  H  H218  1  0.406270  0.512630  0.810730  1.0  0.1242
  H  H219  1  0.233970  0.349530  0.735830  1.0  0.1269
  H  H220  1  0.234270  0.441230  0.753930  1.0  0.1284
  H  H221  1  0.238770  0.268630  0.817830  1.0  0.1367
  H  H222  1  0.143970  0.175030  0.818030  1.0  0.1225
  H  H223  1  0.071630  0.752970  0.128370  1.0  0.1353
  H  H224  1  0.072930  0.845970  0.144070  1.0  0.1242
  H  H225  1  0.900630  0.682870  0.069170  1.0  0.1269
  H  H226  1  0.900930  0.774570  0.087270  1.0  0.1284
  H  H227  1  0.905430  0.601970  0.151170  1.0  0.1365
  H  H228  1  0.810630  0.508370  0.151370  1.0  0.1225
  C  C229  1  0.654850  0.500750  0.949280  1.0  -0.1025
  C  C230  1  0.653480  0.611100  0.928460  1.0  0.1494
  C  C231  1  0.657030  0.442690  0.958770  1.0  0.7025
  C  C232  1  0.704270  0.613150  0.952220  1.0  -0.1865
  C  C233  1  0.704690  0.558280  0.961920  1.0  -0.0348
  C  C234  1  0.602600  0.553270  0.917420  1.0  -0.1631
  C  C235  1  0.602930  0.498730  0.927950  1.0  -0.0322
  C  C236  1  0.558990  0.648810  0.956860  1.0  -0.1792
  C  C237  1  0.502580  0.648360  0.957080  1.0  -0.0282
  C  C238  1  0.321520  0.834080  0.282610  1.0  -0.1025
  C  C239  1  0.320150  0.944430  0.261790  1.0  0.1495
  C  C240  1  0.323700  0.776020  0.292100  1.0  0.7025
  C  C241  1  0.370940  0.946480  0.285550  1.0  -0.1865
  C  C242  1  0.371360  0.891610  0.295250  1.0  -0.0348
  C  C243  1  0.269270  0.886600  0.250750  1.0  -0.1624
  C  C244  1  0.269600  0.832060  0.261280  1.0  -0.0322
  C  C245  1  0.225660  0.982140  0.290190  1.0  -0.179
  C  C246  1  0.169250  0.981690  0.290410  1.0  -0.0282
  C  C247  1  0.988180  0.167420  0.615950  1.0  -0.1025
  C  C248  1  0.986810  0.277770  0.595130  1.0  0.1495
  C  C249  1  0.990360  0.109360  0.625440  1.0  0.7025
  C  C250  1  0.037600  0.279820  0.618890  1.0  -0.1868
  C  C251  1  0.038020  0.224950  0.628590  1.0  -0.035
  C  C252  1  0.935930  0.219940  0.584090  1.0  -0.1631
  C  C253  1  0.936260  0.165400  0.594620  1.0  -0.0322
  C  C254  1  0.892320  0.315480  0.623530  1.0  -0.1794
  C  C255  1  0.835910  0.315030  0.623750  1.0  -0.0283
  C  C256  1  0.499250  0.154100  0.949280  1.0  -0.1007
  C  C257  1  0.388900  0.042380  0.928460  1.0  0.1497
  C  C258  1  0.557310  0.214340  0.958770  1.0  0.7034
  C  C259  1  0.386850  0.091120  0.952220  1.0  -0.1885
  C  C260  1  0.441720  0.146410  0.961920  1.0  -0.0338
  C  C261  1  0.446730  0.049330  0.917420  1.0  -0.1632
  C  C262  1  0.501270  0.104200  0.927950  1.0  -0.0322
  C  C263  1  0.351190  0.910180  0.956860  1.0  -0.1788
  C  C264  1  0.351640  0.854220  0.957080  1.0  -0.0284
  C  C265  1  0.165920  0.487430  0.282610  1.0  -0.1007
  C  C266  1  0.055570  0.375710  0.261790  1.0  0.1497
  C  C267  1  0.223980  0.547670  0.292100  1.0  0.7034
  C  C268  1  0.053520  0.424450  0.285550  1.0  -0.1885
  C  C269  1  0.108390  0.479740  0.295250  1.0  -0.0338
  C  C270  1  0.113400  0.382660  0.250750  1.0  -0.163
  C  C271  1  0.167940  0.437530  0.261280  1.0  -0.0322
  C  C272  1  0.017860  0.243510  0.290190  1.0  -0.1785
  C  C273  1  0.018310  0.187550  0.290410  1.0  -0.0284
  C  C274  1  0.832580  0.820770  0.615950  1.0  -0.1007
  C  C275  1  0.722230  0.709050  0.595130  1.0  0.1496
  C  C276  1  0.890640  0.881010  0.625440  1.0  0.7034
  C  C277  1  0.720180  0.757790  0.618890  1.0  -0.1883
  C  C278  1  0.775050  0.813080  0.628590  1.0  -0.0338
  C  C279  1  0.780060  0.716000  0.584090  1.0  -0.163
  C  C280  1  0.834600  0.770870  0.594620  1.0  -0.0322
  C  C281  1  0.684520  0.576850  0.623530  1.0  -0.1786
  C  C282  1  0.684970  0.520890  0.623750  1.0  -0.0284
  C  C283  1  0.845900  0.345150  0.949280  1.0  -0.1009
  C  C284  1  0.957620  0.346520  0.928460  1.0  0.1498
  C  C285  1  0.785660  0.342970  0.958770  1.0  0.6988
  C  C286  1  0.908880  0.295730  0.952220  1.0  -0.1898
  C  C287  1  0.853590  0.295310  0.961920  1.0  -0.0351
  C  C288  1  0.950670  0.397400  0.917420  1.0  -0.1606
  C  C289  1  0.895800  0.397070  0.927950  1.0  -0.0327
  C  C290  1  0.089820  0.441010  0.956860  1.0  -0.1811
  C  C291  1  0.145780  0.497420  0.957080  1.0  -0.0281
  C  C292  1  0.512570  0.678480  0.282610  1.0  -0.1009
  C  C293  1  0.624290  0.679850  0.261790  1.0  0.1497
  C  C294  1  0.452330  0.676300  0.292100  1.0  0.6988
  C  C295  1  0.575550  0.629060  0.285550  1.0  -0.1898
  C  C296  1  0.520260  0.628640  0.295250  1.0  -0.0351
  C  C297  1  0.617340  0.730730  0.250750  1.0  -0.1615
  C  C298  1  0.562470  0.730400  0.261280  1.0  -0.0327
  C  C299  1  0.756490  0.774340  0.290190  1.0  -0.181
  C  C300  1  0.812450  0.830750  0.290410  1.0  -0.0281
  C  C301  1  0.179230  0.011820  0.615950  1.0  -0.1009
  C  C302  1  0.290950  0.013190  0.595130  1.0  0.1496
  C  C303  1  0.118990  0.009640  0.625440  1.0  0.6988
  C  C304  1  0.242210  0.962400  0.618890  1.0  -0.1894
  C  C305  1  0.186920  0.961980  0.628590  1.0  -0.0351
  C  C306  1  0.284000  0.064070  0.584090  1.0  -0.1606
  C  C307  1  0.229130  0.063740  0.594620  1.0  -0.0327
  C  C308  1  0.423150  0.107680  0.623530  1.0  -0.1809
  C  C309  1  0.479110  0.164090  0.623750  1.0  -0.0282
  C  C310  1  0.500750  0.654850  0.550720  1.0  -0.1006
  C  C311  1  0.611100  0.653480  0.571540  1.0  0.1497
  C  C312  1  0.442690  0.657030  0.541230  1.0  0.6995
  C  C313  1  0.613150  0.704270  0.547780  1.0  -0.1881
  C  C314  1  0.558280  0.704690  0.538080  1.0  -0.035
  C  C315  1  0.553270  0.602600  0.582580  1.0  -0.1619
  C  C316  1  0.498730  0.602930  0.572050  1.0  -0.0333
  C  C317  1  0.648810  0.558990  0.543140  1.0  -0.1811
  C  C318  1  0.648360  0.502580  0.542920  1.0  -0.0281
  C  C319  1  0.167420  0.988180  0.884050  1.0  -0.1006
  C  C320  1  0.277770  0.986810  0.904870  1.0  0.1499
  C  C321  1  0.109360  0.990360  0.874560  1.0  0.6995
  C  C322  1  0.279820  0.037600  0.881110  1.0  -0.1884
  C  C323  1  0.224950  0.038020  0.871410  1.0  -0.0353
  C  C324  1  0.219940  0.935930  0.915910  1.0  -0.1619
  C  C325  1  0.165400  0.936260  0.905380  1.0  -0.0332
  C  C326  1  0.315480  0.892320  0.876470  1.0  -0.1814
  C  C327  1  0.315030  0.835910  0.876250  1.0  -0.0283
  C  C328  1  0.834080  0.321520  0.217390  1.0  -0.1006
  C  C329  1  0.944430  0.320150  0.238210  1.0  0.1499
  C  C330  1  0.776020  0.323700  0.207900  1.0  0.6995
  C  C331  1  0.946480  0.370940  0.214450  1.0  -0.1881
  C  C332  1  0.891610  0.371360  0.204750  1.0  -0.035
  C  C333  1  0.886600  0.269270  0.249250  1.0  -0.1612
  C  C334  1  0.832060  0.269600  0.238720  1.0  -0.0333
  C  C335  1  0.982140  0.225660  0.209810  1.0  -0.1809
  C  C336  1  0.981690  0.169250  0.209590  1.0  -0.028
  C  C337  1  0.154100  0.499250  0.550720  1.0  -0.101
  C  C338  1  0.042380  0.388900  0.571540  1.0  0.1497
  C  C339  1  0.214340  0.557310  0.541230  1.0  0.704
  C  C340  1  0.091120  0.386850  0.547780  1.0  -0.1865
  C  C341  1  0.146410  0.441720  0.538080  1.0  -0.0347
  C  C342  1  0.049330  0.446730  0.582580  1.0  -0.1645
  C  C343  1  0.104200  0.501270  0.572050  1.0  -0.032
  C  C344  1  0.910180  0.351190  0.543140  1.0  -0.1809
  C  C345  1  0.854220  0.351640  0.542920  1.0  -0.028
  C  C346  1  0.820770  0.832580  0.884050  1.0  -0.101
  C  C347  1  0.709050  0.722230  0.904870  1.0  0.1496
  C  C348  1  0.881010  0.890640  0.874560  1.0  0.704
  C  C349  1  0.757790  0.720180  0.881110  1.0  -0.1864
  C  C350  1  0.813080  0.775050  0.871410  1.0  -0.0347
  C  C351  1  0.716000  0.780060  0.915910  1.0  -0.1642
  C  C352  1  0.770870  0.834600  0.905380  1.0  -0.032
  C  C353  1  0.576850  0.684520  0.876470  1.0  -0.1807
  C  C354  1  0.520890  0.684970  0.876250  1.0  -0.028
  C  C355  1  0.487430  0.165920  0.217390  1.0  -0.101
  C  C356  1  0.375710  0.055570  0.238210  1.0  0.1497
  C  C357  1  0.547670  0.223980  0.207900  1.0  0.704
  C  C358  1  0.424450  0.053520  0.214450  1.0  -0.1865
  C  C359  1  0.479740  0.108390  0.204750  1.0  -0.0347
  C  C360  1  0.382660  0.113400  0.249250  1.0  -0.1642
  C  C361  1  0.437530  0.167940  0.238720  1.0  -0.0321
  C  C362  1  0.243510  0.017860  0.209810  1.0  -0.1807
  C  C363  1  0.187550  0.018310  0.209590  1.0  -0.028
  C  C364  1  0.345150  0.845900  0.550720  1.0  -0.1017
  C  C365  1  0.346520  0.957620  0.571540  1.0  0.1498
  C  C366  1  0.342970  0.785660  0.541230  1.0  0.7047
  C  C367  1  0.295730  0.908880  0.547780  1.0  -0.1873
  C  C368  1  0.295310  0.853590  0.538080  1.0  -0.0333
  C  C369  1  0.397400  0.950670  0.582580  1.0  -0.1622
  C  C370  1  0.397070  0.895800  0.572050  1.0  -0.0323
  C  C371  1  0.441010  0.089820  0.543140  1.0  -0.18
  C  C372  1  0.497420  0.145780  0.542920  1.0  -0.0295
  C  C373  1  0.011820  0.179230  0.884050  1.0  -0.1017
  C  C374  1  0.013190  0.290950  0.904870  1.0  0.1496
  C  C375  1  0.009640  0.118990  0.874560  1.0  0.7047
  C  C376  1  0.962400  0.242210  0.881110  1.0  -0.1874
  C  C377  1  0.961980  0.186920  0.871410  1.0  -0.0333
  C  C378  1  0.064070  0.284000  0.915910  1.0  -0.1622
  C  C379  1  0.063740  0.229130  0.905380  1.0  -0.0323
  C  C380  1  0.107680  0.423150  0.876470  1.0  -0.1797
  C  C381  1  0.164090  0.479110  0.876250  1.0  -0.0296
  C  C382  1  0.678480  0.512570  0.217390  1.0  -0.1017
  C  C383  1  0.679850  0.624290  0.238210  1.0  0.1497
  C  C384  1  0.676300  0.452330  0.207900  1.0  0.7047
  C  C385  1  0.629060  0.575550  0.214450  1.0  -0.1873
  C  C386  1  0.628640  0.520260  0.204750  1.0  -0.0333
  C  C387  1  0.730730  0.617340  0.249250  1.0  -0.1632
  C  C388  1  0.730400  0.562470  0.238720  1.0  -0.0323
  C  C389  1  0.774340  0.756490  0.209810  1.0  -0.1798
  C  C390  1  0.830750  0.812450  0.209590  1.0  -0.0296
  C  C391  1  0.345150  0.499250  0.050720  1.0  -0.1012
  C  C392  1  0.346520  0.388900  0.071540  1.0  0.15
  C  C393  1  0.342970  0.557310  0.041230  1.0  0.7048
  C  C394  1  0.295730  0.386850  0.047780  1.0  -0.1872
  C  C395  1  0.295310  0.441720  0.038080  1.0  -0.0348
  C  C396  1  0.397400  0.446730  0.082580  1.0  -0.1631
  C  C397  1  0.397070  0.501270  0.072050  1.0  -0.0324
  C  C398  1  0.441010  0.351190  0.043140  1.0  -0.1804
  C  C399  1  0.497420  0.351640  0.042920  1.0  -0.0292
  C  C400  1  0.011820  0.832580  0.384050  1.0  -0.1012
  C  C401  1  0.013190  0.722230  0.404870  1.0  0.1501
  C  C402  1  0.009640  0.890640  0.374560  1.0  0.7048
  C  C403  1  0.962400  0.720180  0.381110  1.0  -0.1871
  C  C404  1  0.961980  0.775050  0.371410  1.0  -0.035
  C  C405  1  0.064070  0.780060  0.415910  1.0  -0.1631
  C  C406  1  0.063740  0.834600  0.405380  1.0  -0.0324
  C  C407  1  0.107680  0.684520  0.376470  1.0  -0.1806
  C  C408  1  0.164090  0.684970  0.376250  1.0  -0.0293
  C  C409  1  0.678480  0.165920  0.717390  1.0  -0.1012
  C  C410  1  0.679850  0.055570  0.738210  1.0  0.1501
  C  C411  1  0.676300  0.223980  0.707900  1.0  0.7048
  C  C412  1  0.629060  0.053520  0.714450  1.0  -0.1872
  C  C413  1  0.628640  0.108390  0.704750  1.0  -0.0348
  C  C414  1  0.730730  0.113400  0.749250  1.0  -0.1624
  C  C415  1  0.730400  0.167940  0.738720  1.0  -0.0324
  C  C416  1  0.774340  0.017860  0.709810  1.0  -0.1802
  C  C417  1  0.830750  0.018310  0.709590  1.0  -0.0291
  C  C418  1  0.500750  0.845900  0.050720  1.0  -0.1025
  C  C419  1  0.611100  0.957620  0.071540  1.0  0.1501
  C  C420  1  0.442690  0.785660  0.041230  1.0  0.7047
  C  C421  1  0.613150  0.908880  0.047780  1.0  -0.1869
  C  C422  1  0.558280  0.853590  0.038080  1.0  -0.0346
  C  C423  1  0.553270  0.950670  0.082580  1.0  -0.1642
  C  C424  1  0.498730  0.895800  0.072050  1.0  -0.0338
  C  C425  1  0.648810  0.089820  0.043140  1.0  -0.1783
  C  C426  1  0.648360  0.145780  0.042920  1.0  -0.0287
  C  C427  1  0.167420  0.179230  0.384050  1.0  -0.1025
  C  C428  1  0.277770  0.290950  0.404870  1.0  0.15
  C  C429  1  0.109360  0.118990  0.374560  1.0  0.7047
  C  C430  1  0.279820  0.242210  0.381110  1.0  -0.1868
  C  C431  1  0.224950  0.186920  0.371410  1.0  -0.0346
  C  C432  1  0.219940  0.284000  0.415910  1.0  -0.164
  C  C433  1  0.165400  0.229130  0.405380  1.0  -0.0338
  C  C434  1  0.315480  0.423150  0.376470  1.0  -0.1781
  C  C435  1  0.315030  0.479110  0.376250  1.0  -0.0287
  C  C436  1  0.834080  0.512570  0.717390  1.0  -0.1025
  C  C437  1  0.944430  0.624290  0.738210  1.0  0.1501
  C  C438  1  0.776020  0.452330  0.707900  1.0  0.7047
  C  C439  1  0.946480  0.575550  0.714450  1.0  -0.1869
  C  C440  1  0.891610  0.520260  0.704750  1.0  -0.0346
  C  C441  1  0.886600  0.617340  0.749250  1.0  -0.164
  C  C442  1  0.832060  0.562470  0.738720  1.0  -0.0339
  C  C443  1  0.982140  0.756490  0.709810  1.0  -0.1781
  C  C444  1  0.981690  0.812450  0.709590  1.0  -0.0287
  C  C445  1  0.154100  0.654850  0.050720  1.0  -0.1001
  C  C446  1  0.042380  0.653480  0.071540  1.0  0.1494
  C  C447  1  0.214340  0.657030  0.041230  1.0  0.7001
  C  C448  1  0.091120  0.704270  0.047780  1.0  -0.1889
  C  C449  1  0.146410  0.704690  0.038080  1.0  -0.0357
  C  C450  1  0.049330  0.602600  0.082580  1.0  -0.1629
  C  C451  1  0.104200  0.602930  0.072050  1.0  -0.0337
  C  C452  1  0.910180  0.558990  0.043140  1.0  -0.1796
  C  C453  1  0.854220  0.502580  0.042920  1.0  -0.0289
  C  C454  1  0.820770  0.988180  0.384050  1.0  -0.1
  C  C455  1  0.709050  0.986810  0.404870  1.0  0.1492
  C  C456  1  0.881010  0.990360  0.374560  1.0  0.7001
  C  C457  1  0.757790  0.037600  0.381110  1.0  -0.189
  C  C458  1  0.813080  0.038020  0.371410  1.0  -0.0357
  C  C459  1  0.716000  0.935930  0.415910  1.0  -0.1629
  C  C460  1  0.770870  0.936260  0.405380  1.0  -0.0337
  C  C461  1  0.576850  0.892320  0.376470  1.0  -0.1794
  C  C462  1  0.520890  0.835910  0.376250  1.0  -0.0291
  C  C463  1  0.487430  0.321520  0.717390  1.0  -0.1001
  C  C464  1  0.375710  0.320150  0.738210  1.0  0.1494
  C  C465  1  0.547670  0.323700  0.707900  1.0  0.7001
  C  C466  1  0.424450  0.370940  0.714450  1.0  -0.1889
  C  C467  1  0.479740  0.371360  0.704750  1.0  -0.0357
  C  C468  1  0.382660  0.269270  0.749250  1.0  -0.1638
  C  C469  1  0.437530  0.269600  0.738720  1.0  -0.0337
  C  C470  1  0.243510  0.225660  0.709810  1.0  -0.1795
  C  C471  1  0.187550  0.169250  0.709590  1.0  -0.0289
  C  C472  1  0.499250  0.345150  0.449280  1.0  -0.1004
  C  C473  1  0.388900  0.346520  0.428460  1.0  0.1492
  C  C474  1  0.557310  0.342970  0.458770  1.0  0.6991
  C  C475  1  0.386850  0.295730  0.452220  1.0  -0.1897
  C  C476  1  0.441720  0.295310  0.461920  1.0  -0.0363
  C  C477  1  0.446730  0.397400  0.417420  1.0  -0.1637
  C  C478  1  0.501270  0.397070  0.427950  1.0  -0.0328
  C  C479  1  0.351190  0.441010  0.456860  1.0  -0.1798
  C  C480  1  0.351640  0.497420  0.457080  1.0  -0.0284
  C  C481  1  0.165920  0.678480  0.782610  1.0  -0.1004
  C  C482  1  0.055570  0.679850  0.761790  1.0  0.1494
  C  C483  1  0.223980  0.676300  0.792100  1.0  0.6991
  C  C484  1  0.053520  0.629060  0.785550  1.0  -0.1897
  C  C485  1  0.108390  0.628640  0.795250  1.0  -0.0363
  C  C486  1  0.113400  0.730730  0.750750  1.0  -0.163
  C  C487  1  0.167940  0.730400  0.761280  1.0  -0.0328
  C  C488  1  0.017860  0.774340  0.790190  1.0  -0.1796
  C  C489  1  0.018310  0.830750  0.790410  1.0  -0.0284
  C  C490  1  0.832580  0.011820  0.115950  1.0  -0.1004
  C  C491  1  0.722230  0.013190  0.095130  1.0  0.1493
  C  C492  1  0.890640  0.009640  0.125440  1.0  0.6991
  C  C493  1  0.720180  0.962400  0.118890  1.0  -0.1896
  C  C494  1  0.775050  0.961980  0.128590  1.0  -0.0366
  C  C495  1  0.780060  0.064070  0.084090  1.0  -0.1637
  C  C496  1  0.834600  0.063740  0.094620  1.0  -0.0327
  C  C497  1  0.684520  0.107680  0.123530  1.0  -0.18
  C  C498  1  0.684970  0.164090  0.123750  1.0  -0.0285
  C  C499  1  0.845900  0.500750  0.449280  1.0  -0.103
  C  C500  1  0.957620  0.611100  0.428460  1.0  0.1498
  C  C501  1  0.785660  0.442690  0.458770  1.0  0.7038
  C  C502  1  0.908880  0.613150  0.452220  1.0  -0.1894
  C  C503  1  0.853590  0.558280  0.461920  1.0  -0.0349
  C  C504  1  0.950670  0.553270  0.417420  1.0  -0.1622
  C  C505  1  0.895800  0.498730  0.427950  1.0  -0.0339
  C  C506  1  0.089820  0.648810  0.456860  1.0  -0.1819
  C  C507  1  0.145780  0.648360  0.457080  1.0  -0.0284
  C  C508  1  0.512570  0.834080  0.782610  1.0  -0.1031
  C  C509  1  0.624290  0.944430  0.761790  1.0  0.1498
  C  C510  1  0.452330  0.776020  0.792100  1.0  0.7038
  C  C511  1  0.575550  0.946480  0.785550  1.0  -0.1894
  C  C512  1  0.520260  0.891610  0.795250  1.0  -0.0349
  C  C513  1  0.617340  0.886600  0.750750  1.0  -0.162
  C  C514  1  0.562470  0.832060  0.761280  1.0  -0.034
  C  C515  1  0.756490  0.982140  0.790190  1.0  -0.1816
  C  C516  1  0.812450  0.981690  0.790410  1.0  -0.0283
  C  C517  1  0.179230  0.167420  0.115950  1.0  -0.103
  C  C518  1  0.290950  0.277770  0.095130  1.0  0.1498
  C  C519  1  0.118990  0.109360  0.125440  1.0  0.7038
  C  C520  1  0.242210  0.279820  0.118890  1.0  -0.1893
  C  C521  1  0.186920  0.224950  0.128590  1.0  -0.0349
  C  C522  1  0.284000  0.219940  0.084090  1.0  -0.162
  C  C523  1  0.229130  0.165400  0.094620  1.0  -0.0339
  C  C524  1  0.423150  0.315480  0.123530  1.0  -0.1816
  C  C525  1  0.479110  0.315030  0.123750  1.0  -0.0284
  C  C526  1  0.654850  0.154100  0.449280  1.0  -0.1014
  C  C527  1  0.653480  0.042380  0.428460  1.0  0.1502
  C  C528  1  0.657030  0.214340  0.458770  1.0  0.7032
  C  C529  1  0.704270  0.091120  0.452220  1.0  -0.1859
  C  C530  1  0.704690  0.146410  0.461920  1.0  -0.034
  C  C531  1  0.602600  0.049330  0.417420  1.0  -0.1637
  C  C532  1  0.602930  0.104200  0.427950  1.0  -0.033
  C  C533  1  0.558990  0.910180  0.456860  1.0  -0.1792
  C  C534  1  0.502580  0.854220  0.457080  1.0  -0.0287
  C  C535  1  0.321520  0.487430  0.782610  1.0  -0.1014
  C  C536  1  0.320150  0.375710  0.761790  1.0  0.1501
  C  C537  1  0.323700  0.547670  0.792100  1.0  0.7032
  C  C538  1  0.370940  0.424450  0.785550  1.0  -0.1859
  C  C539  1  0.371360  0.479740  0.795250  1.0  -0.034
  C  C540  1  0.269270  0.382660  0.750750  1.0  -0.1646
  C  C541  1  0.269600  0.437530  0.761280  1.0  -0.033
  C  C542  1  0.225660  0.243510  0.790190  1.0  -0.1791
  C  C543  1  0.169250  0.187550  0.790410  1.0  -0.0287
  C  C544  1  0.988180  0.820770  0.115950  1.0  -0.1014
  C  C545  1  0.986810  0.709050  0.095130  1.0  0.15
  C  C546  1  0.990360  0.881010  0.125440  1.0  0.7032
  C  C547  1  0.037600  0.757790  0.118890  1.0  -0.1856
  C  C548  1  0.038020  0.813080  0.128590  1.0  -0.034
  C  C549  1  0.935930  0.716000  0.084090  1.0  -0.1637
  C  C550  1  0.936260  0.770870  0.094620  1.0  -0.033
  C  C551  1  0.892320  0.576850  0.123530  1.0  -0.179
  C  C552  1  0.835910  0.520890  0.123750  1.0  -0.0288
  C  C553  1  0.596180  0.666667  0.916670  1.0  0.1586
  C  C554  1  0.483160  0.666667  0.916670  1.0  -0.0993
  C  C555  1  0.422860  0.666667  0.916670  1.0  0.7148
  C  C556  1  0.262850  0.000000  0.250000  1.0  0.1592
  C  C557  1  0.149830  0.000000  0.250000  1.0  -0.0961
  C  C558  1  0.089530  0.000000  0.250000  1.0  0.715
  C  C559  1  0.333333  0.929520  0.916670  1.0  0.1593
  C  C560  1  0.333333  0.816500  0.916670  1.0  -0.0959
  C  C561  1  0.333333  0.756200  0.916670  1.0  0.7136
  C  C562  1  0.000000  0.262850  0.250000  1.0  0.1592
  C  C563  1  0.000000  0.149830  0.250000  1.0  -0.0969
  C  C564  1  0.000000  0.089530  0.250000  1.0  0.7135
  C  C565  1  0.070480  0.403820  0.916670  1.0  0.1587
  C  C566  1  0.183500  0.516840  0.916670  1.0  -0.0994
  C  C567  1  0.243800  0.577140  0.916670  1.0  0.7141
  C  C568  1  0.737150  0.737150  0.250000  1.0  0.1588
  C  C569  1  0.850170  0.850170  0.250000  1.0  -0.0967
  C  C570  1  0.910470  0.910470  0.250000  1.0  0.7143
  C  C571  1  0.666667  0.596180  0.583330  1.0  0.1586
  C  C572  1  0.666667  0.483160  0.583330  1.0  -0.1
  C  C573  1  0.666667  0.422860  0.583330  1.0  0.7133
  C  C574  1  0.929520  0.333333  0.583330  1.0  0.1593
  C  C575  1  0.816500  0.333333  0.583330  1.0  -0.0951
  C  C576  1  0.756200  0.333333  0.583330  1.0  0.7155
  C  C577  1  0.403820  0.070480  0.583330  1.0  0.1587
  C  C578  1  0.516840  0.183500  0.583330  1.0  -0.0994
  C  C579  1  0.577140  0.243800  0.583330  1.0  0.7143
  C  C580  1  0.403820  0.333333  0.083330  1.0  0.1594
  C  C581  1  0.516840  0.333333  0.083330  1.0  -0.0997
  C  C582  1  0.577140  0.333333  0.083330  1.0  0.7143
  C  C583  1  0.666667  0.070480  0.083330  1.0  0.1593
  C  C584  1  0.666667  0.183500  0.083330  1.0  -0.0956
  C  C585  1  0.666667  0.243800  0.083330  1.0  0.7151
  C  C586  1  0.929520  0.596180  0.083330  1.0  0.1596
  C  C587  1  0.816500  0.483160  0.083330  1.0  -0.0991
  C  C588  1  0.756200  0.422860  0.083330  1.0  0.7134
  C  C589  1  0.333333  0.403820  0.416670  1.0  0.1586
  C  C590  1  0.333333  0.516840  0.416670  1.0  -0.0996
  C  C591  1  0.333333  0.577140  0.416670  1.0  0.7144
  C  C592  1  0.000000  0.737150  0.750000  1.0  0.1592
  C  C593  1  0.000000  0.850170  0.750000  1.0  -0.0964
  C  C594  1  0.000000  0.910470  0.750000  1.0  0.7145
  C  C595  1  0.070480  0.666667  0.416670  1.0  0.1601
  C  C596  1  0.183500  0.666667  0.416670  1.0  -0.0956
  C  C597  1  0.243800  0.666667  0.416670  1.0  0.7146
  C  C598  1  0.737150  0.000000  0.750000  1.0  0.16
  C  C599  1  0.850170  0.000000  0.750000  1.0  -0.0965
  C  C600  1  0.910470  0.000000  0.750000  1.0  0.7145
  C  C601  1  0.596180  0.929520  0.416670  1.0  0.1596
  C  C602  1  0.483160  0.816500  0.416670  1.0  -0.0991
  C  C603  1  0.422860  0.756200  0.416670  1.0  0.7132
  C  C604  1  0.262850  0.262850  0.750000  1.0  0.1597
  C  C605  1  0.149830  0.149830  0.750000  1.0  -0.0964
  C  C606  1  0.089530  0.089530  0.750000  1.0  0.7134
  N  N607  1  0.653860  0.666667  0.916670  1.0  -0.1382
  N  N608  1  0.320530  0.000000  0.250000  1.0  -0.1382
  N  N609  1  0.333333  0.987200  0.916670  1.0  -0.1381
  N  N610  1  0.000000  0.320530  0.250000  1.0  -0.1381
  N  N611  1  0.012800  0.346140  0.916670  1.0  -0.138
  N  N612  1  0.679470  0.679470  0.250000  1.0  -0.1379
  N  N613  1  0.666667  0.653860  0.583330  1.0  -0.1382
  N  N614  1  0.987200  0.333333  0.583330  1.0  -0.1383
  N  N615  1  0.346140  0.012800  0.583330  1.0  -0.138
  N  N616  1  0.346140  0.333333  0.083330  1.0  -0.1377
  N  N617  1  0.666667  0.012800  0.083330  1.0  -0.1383
  N  N618  1  0.987200  0.653860  0.083330  1.0  -0.1385
  N  N619  1  0.333333  0.346140  0.416670  1.0  -0.1382
  N  N620  1  0.000000  0.679470  0.750000  1.0  -0.1383
  N  N621  1  0.012800  0.666667  0.416670  1.0  -0.1376
  N  N622  1  0.679470  0.000000  0.750000  1.0  -0.1376
  N  N623  1  0.653860  0.987200  0.416670  1.0  -0.1384
  N  N624  1  0.320530  0.320530  0.750000  1.0  -0.1384
  O  O625  1  0.610500  0.389780  0.949070  1.0  -0.6009
  O  O626  1  0.705570  0.446750  0.976660  1.0  -0.6625
  O  O627  1  0.388120  0.644110  0.952340  1.0  -0.7002
  O  O628  1  0.277170  0.723110  0.282400  1.0  -0.6009
  O  O629  1  0.372240  0.780080  0.309990  1.0  -0.6629
  O  O630  1  0.054790  0.977440  0.285670  1.0  -0.7143
  O  O631  1  0.943830  0.056450  0.615740  1.0  -0.6301
  O  O632  1  0.038900  0.113420  0.643330  1.0  -0.6625
  O  O633  1  0.721450  0.310780  0.619010  1.0  -0.6999
  O  O634  1  0.610220  0.220720  0.949070  1.0  -0.6292
  O  O635  1  0.553250  0.258820  0.976660  1.0  -0.6634
  O  O636  1  0.355890  0.744010  0.952340  1.0  -0.7157
  O  O637  1  0.276890  0.554050  0.282400  1.0  -0.6292
  O  O638  1  0.219920  0.592150  0.309990  1.0  -0.6637
  O  O639  1  0.022560  0.077340  0.285670  1.0  -0.6882
  O  O640  1  0.943550  0.887390  0.615740  1.0  -0.6292
  O  O641  1  0.886580  0.925490  0.643330  1.0  -0.6637
  O  O642  1  0.689220  0.410680  0.619010  1.0  -0.7157
  O  O643  1  0.779280  0.389500  0.949070  1.0  -0.6285
  O  O644  1  0.741180  0.294430  0.976660  1.0  -0.6635
  O  O645  1  0.255990  0.611880  0.952340  1.0  -0.7154
  O  O646  1  0.445950  0.722830  0.282400  1.0  -0.6285
  O  O647  1  0.407850  0.627760  0.309990  1.0  -0.6636
  O  O648  1  0.922660  0.945210  0.285670  1.0  -0.6973
  O  O649  1  0.112610  0.056170  0.615740  1.0  -0.5788
  O  O650  1  0.074510  0.961100  0.643330  1.0  -0.6635
  O  O651  1  0.589320  0.278550  0.619010  1.0  -0.7148
  O  O652  1  0.389780  0.610500  0.550930  1.0  -0.6004
  O  O653  1  0.446750  0.705570  0.523340  1.0  -0.663
  O  O654  1  0.644110  0.388120  0.547660  1.0  -0.7024
  O  O655  1  0.056450  0.943830  0.884260  1.0  -0.63
  O  O656  1  0.113420  0.038900  0.856670  1.0  -0.663
  O  O657  1  0.310780  0.721450  0.880990  1.0  -0.702
  O  O658  1  0.723110  0.277170  0.217600  1.0  -0.6004
  O  O659  1  0.780080  0.372240  0.190010  1.0  -0.6633
  O  O660  1  0.977440  0.054790  0.214330  1.0  -0.7164
  O  O661  1  0.220720  0.610220  0.550930  1.0  -0.6294
  O  O662  1  0.258820  0.553250  0.523340  1.0  -0.663
  O  O663  1  0.744010  0.355890  0.547660  1.0  -0.7143
  O  O664  1  0.887390  0.943550  0.884260  1.0  -0.6294
  O  O665  1  0.925490  0.886580  0.856670  1.0  -0.6632
  O  O666  1  0.410680  0.689220  0.880990  1.0  -0.7143
  O  O667  1  0.554050  0.276890  0.217600  1.0  -0.6294
  O  O668  1  0.592150  0.219920  0.190010  1.0  -0.6632
  O  O669  1  0.077340  0.022560  0.214330  1.0  -0.6876
  O  O670  1  0.389500  0.779280  0.550930  1.0  -0.6295
  O  O671  1  0.294430  0.741180  0.523340  1.0  -0.6643
  O  O672  1  0.611880  0.255990  0.547660  1.0  -0.715
  O  O673  1  0.056170  0.112610  0.884260  1.0  -0.5799
  O  O674  1  0.961100  0.074510  0.856670  1.0  -0.6643
  O  O675  1  0.278550  0.589320  0.880990  1.0  -0.7144
  O  O676  1  0.722830  0.445950  0.217600  1.0  -0.6295
  O  O677  1  0.627760  0.407850  0.190010  1.0  -0.6644
  O  O678  1  0.945210  0.922660  0.214330  1.0  -0.6963
  O  O679  1  0.389500  0.610220  0.050930  1.0  -0.5986
  O  O680  1  0.294430  0.553250  0.023340  1.0  -0.6618
  O  O681  1  0.611880  0.355890  0.047660  1.0  -0.7012
  O  O682  1  0.056170  0.943550  0.384260  1.0  -0.6289
  O  O683  1  0.961100  0.886580  0.356670  1.0  -0.6618
  O  O684  1  0.278550  0.689220  0.380990  1.0  -0.7009
  O  O685  1  0.722830  0.276890  0.717600  1.0  -0.5986
  O  O686  1  0.627760  0.219920  0.690010  1.0  -0.6622
  O  O687  1  0.945210  0.022560  0.714330  1.0  -0.7152
  O  O688  1  0.389780  0.779280  0.050930  1.0  -0.6301
  O  O689  1  0.446750  0.741180  0.023340  1.0  -0.6637
  O  O690  1  0.644110  0.255990  0.047660  1.0  -0.7145
  O  O691  1  0.056450  0.112610  0.384260  1.0  -0.6301
  O  O692  1  0.113420  0.074510  0.356670  1.0  -0.6639
  O  O693  1  0.310780  0.589320  0.380990  1.0  -0.7145
  O  O694  1  0.723110  0.445950  0.717600  1.0  -0.6301
  O  O695  1  0.780080  0.407850  0.690010  1.0  -0.6639
  O  O696  1  0.977440  0.922660  0.714330  1.0  -0.6876
  O  O697  1  0.220720  0.610500  0.050930  1.0  -0.6306
  O  O698  1  0.258820  0.705570  0.023340  1.0  -0.6615
  O  O699  1  0.744010  0.388120  0.047660  1.0  -0.7156
  O  O700  1  0.887390  0.943830  0.384260  1.0  -0.5805
  O  O701  1  0.925490  0.038900  0.356670  1.0  -0.6615
  O  O702  1  0.410680  0.721450  0.380990  1.0  -0.715
  O  O703  1  0.554050  0.277170  0.717600  1.0  -0.6306
  O  O704  1  0.592150  0.372240  0.690010  1.0  -0.6616
  O  O705  1  0.077340  0.054790  0.714330  1.0  -0.6972
  O  O706  1  0.610220  0.389500  0.449070  1.0  -0.5984
  O  O707  1  0.553250  0.294430  0.476660  1.0  -0.6606
  O  O708  1  0.355890  0.611880  0.452340  1.0  -0.7024
  O  O709  1  0.276890  0.722830  0.782400  1.0  -0.5984
  O  O710  1  0.219920  0.627760  0.809990  1.0  -0.661
  O  O711  1  0.022560  0.945210  0.785670  1.0  -0.7161
  O  O712  1  0.943550  0.056170  0.115740  1.0  -0.6277
  O  O713  1  0.886580  0.961100  0.143330  1.0  -0.6606
  O  O714  1  0.689220  0.278550  0.119010  1.0  -0.7021
  O  O715  1  0.779280  0.389780  0.449070  1.0  -0.63
  O  O716  1  0.741180  0.446750  0.476660  1.0  -0.6616
  O  O717  1  0.255990  0.644110  0.452340  1.0  -0.7147
  O  O718  1  0.445950  0.723110  0.782400  1.0  -0.63
  O  O719  1  0.407850  0.780080  0.809990  1.0  -0.6619
  O  O720  1  0.922660  0.977440  0.785670  1.0  -0.6874
  O  O721  1  0.112610  0.056450  0.115740  1.0  -0.63
  O  O722  1  0.074510  0.113420  0.143330  1.0  -0.6619
  O  O723  1  0.589320  0.310780  0.119010  1.0  -0.7147
  O  O724  1  0.610500  0.220720  0.449070  1.0  -0.6282
  O  O725  1  0.705570  0.258820  0.476660  1.0  -0.663
  O  O726  1  0.388120  0.744010  0.452340  1.0  -0.7139
  O  O727  1  0.277170  0.554050  0.782400  1.0  -0.6282
  O  O728  1  0.372240  0.592150  0.809990  1.0  -0.6631
  O  O729  1  0.054790  0.077340  0.785670  1.0  -0.6957
  O  O730  1  0.943830  0.887390  0.115740  1.0  -0.5791
  O  O731  1  0.038900  0.925490  0.143330  1.0  -0.663
  O  O732  1  0.721450  0.410680  0.119010  1.0  -0.7133
