# generated using pymatgen
data_Ag3H34C41S3N10O13F9
_symmetry_space_group_name_H-M   'P 1'
_cell_length_a   14.81680000
_cell_length_b   24.03950000
_cell_length_c   42.37340000
_cell_angle_alpha   97.12100000
_cell_angle_beta   90.00000000
_cell_angle_gamma   90.00000000
_symmetry_Int_Tables_number   1
_chemical_formula_structural   Ag3H34C41S3N10O13F9
_chemical_formula_sum   'Ag24 H272 C328 S24 N80 O104 F72'
_cell_volume   14976.49807436
_cell_formula_units_Z   8
loop_
 _symmetry_equiv_pos_site_id
 _symmetry_equiv_pos_as_xyz
  1  'x, y, z'
loop_
 _atom_site_type_symbol
 _atom_site_label
 _atom_site_symmetry_multiplicity
 _atom_site_fract_x
 _atom_site_fract_y
 _atom_site_fract_z
 _atom_site_occupancy
 _atom_site_charge
  Ag  Ag1  1  0.388350  0.828730  0.731890  1.0  0.2418
  Ag  Ag2  1  0.163210  0.668980  0.773440  1.0  0.3186
  Ag  Ag3  1  0.223750  0.251710  0.502090  1.0  0.4753
  Ag  Ag4  1  0.540450  0.463840  0.662980  1.0  0.4185
  Ag  Ag5  1  0.497820  0.035320  0.336240  1.0  0.3945
  Ag  Ag6  1  0.888350  0.171270  0.768110  1.0  0.2381
  Ag  Ag7  1  0.663210  0.331020  0.726560  1.0  0.3224
  Ag  Ag8  1  0.723750  0.748290  0.997910  1.0  0.4755
  Ag  Ag9  1  0.040450  0.536160  0.837020  1.0  0.4186
  Ag  Ag10  1  0.997820  0.964680  0.163760  1.0  0.3948
  Ag  Ag11  1  0.611650  0.171270  0.268110  1.0  0.2394
  Ag  Ag12  1  0.836790  0.331020  0.226560  1.0  0.3202
  Ag  Ag13  1  0.776250  0.748290  0.497910  1.0  0.4736
  Ag  Ag14  1  0.459550  0.536160  0.337020  1.0  0.4182
  Ag  Ag15  1  0.502180  0.964680  0.663760  1.0  0.3947
  Ag  Ag16  1  0.111650  0.828730  0.231890  1.0  0.243
  Ag  Ag17  1  0.336790  0.668980  0.273440  1.0  0.3169
  Ag  Ag18  1  0.276250  0.251710  0.002090  1.0  0.4743
  Ag  Ag19  1  0.959550  0.463840  0.162980  1.0  0.4181
  Ag  Ag20  1  0.002180  0.035320  0.836240  1.0  0.3944
  Ag  Ag21  1  0.500000  0.500000  0.500000  1.0  0.3976
  Ag  Ag22  1  0.000000  0.500000  0.000000  1.0  0.3976
  Ag  Ag23  1  0.500000  0.000000  0.500000  1.0  0.3482
  Ag  Ag24  1  0.000000  0.000000  0.000000  1.0  0.3482
  H  H25  1  0.268000  0.893900  0.785200  1.0  0.1008
  H  H26  1  0.182200  0.977800  0.794600  1.0  0.1242
  H  H27  1  0.249200  0.007800  0.705800  1.0  0.1081
  H  H28  1  0.335200  0.926700  0.700400  1.0  0.0667
  H  H29  1  0.256200  0.098100  0.745100  1.0  0.1007
  H  H30  1  0.193400  0.125100  0.773700  1.0  0.1021
  H  H31  1  0.160000  0.123800  0.737700  1.0  0.1078
  H  H32  1  0.167100  0.797600  0.791400  1.0  0.0827
  H  H33  1  0.077400  0.872700  0.813300  1.0  0.1127
  H  H34  1  0.871400  0.760900  0.813400  1.0  0.1168
  H  H35  1  0.972900  0.690000  0.796300  1.0  0.0938
  H  H36  1  0.816500  0.892200  0.864200  1.0  0.1154
  H  H37  1  0.899600  0.856200  0.874700  1.0  0.1246
  H  H38  1  0.818500  0.825800  0.854400  1.0  0.1182
  H  H39  1  0.100600  0.220800  0.442000  1.0  0.0935
  H  H40  1  0.106800  0.170700  0.393000  1.0  0.1188
  H  H41  1  0.339800  0.098800  0.417700  1.0  0.094
  H  H42  1  0.324800  0.144600  0.469500  1.0  0.1031
  H  H43  1  0.180800  0.056200  0.332200  1.0  0.1338
  H  H44  1  0.152100  0.041600  0.366600  1.0  0.1345
  H  H45  1  0.110600  0.095500  0.353200  1.0  0.1285
  H  H46  1  0.539700  0.388700  0.525600  1.0  0.1039
  H  H47  1  0.616600  0.353900  0.566400  1.0  0.1174
  H  H48  1  0.661300  0.511200  0.607200  1.0  0.1174
  H  H49  1  0.594900  0.543600  0.563900  1.0  0.0905
  H  H50  1  0.823800  0.424900  0.639400  1.0  0.134
  H  H51  1  0.781300  0.479600  0.627200  1.0  0.1225
  H  H52  1  0.828800  0.432800  0.602500  1.0  0.1315
  H  H53  1  0.559700  0.957500  0.432500  1.0  0.101
  H  H54  1  0.637300  0.990300  0.391400  1.0  0.107
  H  H55  1  0.594400  0.150200  0.430000  1.0  0.1153
  H  H56  1  0.523600  0.112400  0.471400  1.0  0.0797
  H  H57  1  0.786100  0.083400  0.354700  1.0  0.1322
  H  H58  1  0.798600  0.072700  0.390900  1.0  0.1276
  H  H59  1  0.753100  0.025600  0.365900  1.0  0.1261
  H  H60  1  0.650700  0.638000  0.737900  1.0  0.0949
  H  H61  1  0.594900  0.614500  0.786400  1.0  0.1176
  H  H62  1  0.515800  0.528000  0.784300  1.0  0.1171
  H  H63  1  0.902000  0.859700  0.760100  1.0  0.1077
  H  H64  1  0.954800  0.888900  0.711600  1.0  0.1173
  H  H65  1  0.033500  0.974300  0.714700  1.0  0.1218
  H  H66  1  0.281100  0.604100  0.719200  1.0  0.0788
  H  H67  1  0.363700  0.520200  0.708500  1.0  0.1013
  H  H68  1  0.310900  0.490600  0.797500  1.0  0.1097
  H  H69  1  0.215200  0.565900  0.803900  1.0  0.0918
  H  H70  1  0.404700  0.365100  0.748700  1.0  0.0981
  H  H71  1  0.310500  0.385900  0.735800  1.0  0.0993
  H  H72  1  0.333000  0.396200  0.773000  1.0  0.1036
  H  H73  1  0.380700  0.700000  0.709000  1.0  0.0741
  H  H74  1  0.472300  0.627700  0.686900  1.0  0.1017
  H  H75  1  0.675200  0.741200  0.686400  1.0  0.1159
  H  H76  1  0.577200  0.807400  0.706900  1.0  0.0757
  H  H77  1  0.729000  0.606400  0.634400  1.0  0.1064
  H  H78  1  0.726300  0.673100  0.643000  1.0  0.1254
  H  H79  1  0.644600  0.641200  0.623800  1.0  0.1224
  H  H80  1  0.121300  0.284100  0.565100  1.0  0.0911
  H  H81  1  0.145600  0.326500  0.615900  1.0  0.128
  H  H82  1  0.366100  0.401000  0.581000  1.0  0.1072
  H  H83  1  0.335100  0.355500  0.532800  1.0  0.0884
  H  H84  1  0.221800  0.444800  0.673400  1.0  0.1252
  H  H85  1  0.150300  0.403500  0.654400  1.0  0.1237
  H  H86  1  0.183500  0.458500  0.639900  1.0  0.1332
  H  H87  1  0.356700  0.286500  0.621400  1.0  0.1125
  H  H88  1  0.474900  0.228500  0.607300  1.0  0.0978
  H  H89  1  0.623600  0.261800  0.611000  1.0  0.121
  H  H90  1  0.584600  0.237100  0.386000  1.0  0.1009
  H  H91  1  0.442800  0.275100  0.387300  1.0  0.1101
  H  H92  1  0.318700  0.212800  0.376500  1.0  0.1188
  H  H93  1  0.768000  0.106100  0.714800  1.0  0.1008
  H  H94  1  0.682200  0.022200  0.705400  1.0  0.1238
  H  H95  1  0.749200  0.992200  0.794200  1.0  0.1075
  H  H96  1  0.835200  0.073300  0.799600  1.0  0.0667
  H  H97  1  0.756200  0.901900  0.754900  1.0  0.1009
  H  H98  1  0.693400  0.874900  0.726300  1.0  0.1016
  H  H99  1  0.660000  0.876200  0.762300  1.0  0.1083
  H  H100  1  0.667100  0.202400  0.708600  1.0  0.0828
  H  H101  1  0.577400  0.127300  0.686700  1.0  0.1128
  H  H102  1  0.371400  0.239100  0.686600  1.0  0.1168
  H  H103  1  0.472900  0.310000  0.703700  1.0  0.0939
  H  H104  1  0.316500  0.107800  0.635800  1.0  0.1152
  H  H105  1  0.399600  0.143800  0.625300  1.0  0.1244
  H  H106  1  0.318500  0.174200  0.645600  1.0  0.1176
  H  H107  1  0.600600  0.779200  0.058000  1.0  0.0937
  H  H108  1  0.606800  0.829300  0.107000  1.0  0.119
  H  H109  1  0.839800  0.901200  0.082300  1.0  0.0941
  H  H110  1  0.824800  0.855400  0.030500  1.0  0.102
  H  H111  1  0.680800  0.943800  0.167800  1.0  0.1351
  H  H112  1  0.652100  0.958400  0.133400  1.0  0.134
  H  H113  1  0.610600  0.904500  0.146800  1.0  0.1282
  H  H114  1  0.039700  0.611300  0.974400  1.0  0.1046
  H  H115  1  0.116600  0.646100  0.933600  1.0  0.1173
  H  H116  1  0.161300  0.488800  0.892800  1.0  0.1181
  H  H117  1  0.094900  0.456400  0.936100  1.0  0.0914
  H  H118  1  0.323800  0.575100  0.860600  1.0  0.1352
  H  H119  1  0.281300  0.520400  0.872800  1.0  0.1236
  H  H120  1  0.328800  0.567200  0.897500  1.0  0.1321
  H  H121  1  0.059700  0.042500  0.067500  1.0  0.1008
  H  H122  1  0.137300  0.009700  0.108600  1.0  0.107
  H  H123  1  0.094400  0.849800  0.070000  1.0  0.116
  H  H124  1  0.023600  0.887600  0.028600  1.0  0.0809
  H  H125  1  0.286100  0.916600  0.145300  1.0  0.1313
  H  H126  1  0.298600  0.927300  0.109100  1.0  0.1285
  H  H127  1  0.253100  0.974400  0.134100  1.0  0.1266
  H  H128  1  0.150700  0.362000  0.762100  1.0  0.0942
  H  H129  1  0.094900  0.385500  0.713600  1.0  0.1173
  H  H130  1  0.015800  0.472000  0.715700  1.0  0.1172
  H  H131  1  0.402000  0.140300  0.739900  1.0  0.1069
  H  H132  1  0.454800  0.111100  0.788400  1.0  0.1178
  H  H133  1  0.533500  0.025700  0.785300  1.0  0.1226
  H  H134  1  0.781100  0.395900  0.780800  1.0  0.079
  H  H135  1  0.863700  0.479800  0.791500  1.0  0.1006
  H  H136  1  0.810900  0.509400  0.702500  1.0  0.1109
  H  H137  1  0.715200  0.434100  0.696100  1.0  0.0915
  H  H138  1  0.904700  0.634900  0.751300  1.0  0.0999
  H  H139  1  0.810500  0.614100  0.764200  1.0  0.1003
  H  H140  1  0.833000  0.603800  0.727000  1.0  0.1041
  H  H141  1  0.880700  0.300000  0.791000  1.0  0.0741
  H  H142  1  0.972300  0.372300  0.813100  1.0  0.102
  H  H143  1  0.175200  0.258800  0.813600  1.0  0.1158
  H  H144  1  0.077200  0.192600  0.793100  1.0  0.0753
  H  H145  1  0.229000  0.393600  0.865600  1.0  0.1061
  H  H146  1  0.226300  0.326900  0.857000  1.0  0.125
  H  H147  1  0.144600  0.358800  0.876200  1.0  0.1232
  H  H148  1  0.621300  0.715900  0.934900  1.0  0.0909
  H  H149  1  0.645600  0.673500  0.884100  1.0  0.1284
  H  H150  1  0.866100  0.599000  0.919000  1.0  0.107
  H  H151  1  0.835100  0.644500  0.967200  1.0  0.089
  H  H152  1  0.721800  0.555200  0.826600  1.0  0.1263
  H  H153  1  0.650300  0.596500  0.845600  1.0  0.1226
  H  H154  1  0.683500  0.541500  0.860100  1.0  0.1341
  H  H155  1  0.856700  0.713500  0.878600  1.0  0.1129
  H  H156  1  0.974900  0.771500  0.892700  1.0  0.0983
  H  H157  1  0.123600  0.738200  0.889000  1.0  0.1208
  H  H158  1  0.084600  0.762900  0.114000  1.0  0.1006
  H  H159  1  0.942800  0.724900  0.112700  1.0  0.1102
  H  H160  1  0.818700  0.787200  0.123500  1.0  0.1183
  H  H161  1  0.732000  0.106100  0.214800  1.0  0.1009
  H  H162  1  0.817800  0.022200  0.205400  1.0  0.1242
  H  H163  1  0.750800  0.992200  0.294200  1.0  0.1065
  H  H164  1  0.664800  0.073300  0.299600  1.0  0.0671
  H  H165  1  0.743800  0.901900  0.254900  1.0  0.1024
  H  H166  1  0.806600  0.874900  0.226300  1.0  0.1014
  H  H167  1  0.840000  0.876200  0.262300  1.0  0.1076
  H  H168  1  0.832900  0.202400  0.208600  1.0  0.0835
  H  H169  1  0.922600  0.127300  0.186700  1.0  0.1128
  H  H170  1  0.128600  0.239100  0.186600  1.0  0.1168
  H  H171  1  0.027100  0.310000  0.203700  1.0  0.0938
  H  H172  1  0.183500  0.107800  0.135800  1.0  0.1151
  H  H173  1  0.100400  0.143800  0.125300  1.0  0.1244
  H  H174  1  0.181500  0.174200  0.145600  1.0  0.1179
  H  H175  1  0.899400  0.779200  0.558000  1.0  0.0944
  H  H176  1  0.893200  0.829300  0.607000  1.0  0.1196
  H  H177  1  0.660200  0.901200  0.582300  1.0  0.0945
  H  H178  1  0.675200  0.855400  0.530500  1.0  0.1026
  H  H179  1  0.819200  0.943800  0.667800  1.0  0.1331
  H  H180  1  0.847900  0.958400  0.633400  1.0  0.1336
  H  H181  1  0.889400  0.904500  0.646800  1.0  0.1278
  H  H182  1  0.460300  0.611300  0.474400  1.0  0.1044
  H  H183  1  0.383400  0.646100  0.433600  1.0  0.1171
  H  H184  1  0.338700  0.488800  0.392800  1.0  0.1188
  H  H185  1  0.405100  0.456400  0.436100  1.0  0.0914
  H  H186  1  0.176200  0.575100  0.360600  1.0  0.135
  H  H187  1  0.218700  0.520400  0.372800  1.0  0.123
  H  H188  1  0.171200  0.567200  0.397500  1.0  0.1327
  H  H189  1  0.440300  0.042500  0.567500  1.0  0.1011
  H  H190  1  0.362700  0.009700  0.608600  1.0  0.1072
  H  H191  1  0.405600  0.849800  0.570000  1.0  0.1158
  H  H192  1  0.476400  0.887600  0.528600  1.0  0.0801
  H  H193  1  0.213900  0.916600  0.645300  1.0  0.1315
  H  H194  1  0.201400  0.927300  0.609100  1.0  0.1281
  H  H195  1  0.246900  0.974400  0.634100  1.0  0.1272
  H  H196  1  0.349300  0.362000  0.262100  1.0  0.0945
  H  H197  1  0.405100  0.385500  0.213600  1.0  0.1169
  H  H198  1  0.484200  0.472000  0.215700  1.0  0.1173
  H  H199  1  0.098000  0.140300  0.239900  1.0  0.1072
  H  H200  1  0.045200  0.111100  0.288400  1.0  0.118
  H  H201  1  0.966500  0.025700  0.285300  1.0  0.1226
  H  H202  1  0.718900  0.395900  0.280800  1.0  0.0784
  H  H203  1  0.636300  0.479800  0.291500  1.0  0.1002
  H  H204  1  0.689100  0.509400  0.202500  1.0  0.1102
  H  H205  1  0.784800  0.434100  0.196100  1.0  0.0915
  H  H206  1  0.595300  0.634900  0.251300  1.0  0.0995
  H  H207  1  0.689500  0.614100  0.264200  1.0  0.1009
  H  H208  1  0.667000  0.603800  0.227000  1.0  0.1043
  H  H209  1  0.619300  0.300000  0.291000  1.0  0.0735
  H  H210  1  0.527700  0.372300  0.313100  1.0  0.1013
  H  H211  1  0.324800  0.258800  0.313600  1.0  0.116
  H  H212  1  0.422800  0.192600  0.293100  1.0  0.0758
  H  H213  1  0.271000  0.393600  0.365600  1.0  0.1065
  H  H214  1  0.273700  0.326900  0.357000  1.0  0.1247
  H  H215  1  0.355400  0.358800  0.376200  1.0  0.1227
  H  H216  1  0.878700  0.715900  0.434900  1.0  0.0908
  H  H217  1  0.854400  0.673500  0.384100  1.0  0.1287
  H  H218  1  0.633900  0.599000  0.419000  1.0  0.1067
  H  H219  1  0.664900  0.644500  0.467200  1.0  0.0884
  H  H220  1  0.778200  0.555200  0.326600  1.0  0.126
  H  H221  1  0.849700  0.596500  0.345600  1.0  0.1246
  H  H222  1  0.816500  0.541500  0.360100  1.0  0.134
  H  H223  1  0.643300  0.713500  0.378600  1.0  0.1129
  H  H224  1  0.525100  0.771500  0.392700  1.0  0.0976
  H  H225  1  0.376400  0.738200  0.389000  1.0  0.1206
  H  H226  1  0.415400  0.762900  0.614000  1.0  0.101
  H  H227  1  0.557200  0.724900  0.612700  1.0  0.1107
  H  H228  1  0.681300  0.787200  0.623500  1.0  0.1183
  H  H229  1  0.232000  0.893900  0.285200  1.0  0.1016
  H  H230  1  0.317800  0.977800  0.294600  1.0  0.1249
  H  H231  1  0.250800  0.007800  0.205800  1.0  0.1079
  H  H232  1  0.164800  0.926700  0.200400  1.0  0.0671
  H  H233  1  0.243800  0.098100  0.245100  1.0  0.1021
  H  H234  1  0.306600  0.125100  0.273700  1.0  0.102
  H  H235  1  0.340000  0.123800  0.237700  1.0  0.1074
  H  H236  1  0.332900  0.797600  0.291400  1.0  0.0832
  H  H237  1  0.422600  0.872700  0.313300  1.0  0.113
  H  H238  1  0.628600  0.760900  0.313400  1.0  0.1171
  H  H239  1  0.527100  0.690000  0.296300  1.0  0.0936
  H  H240  1  0.683500  0.892200  0.364200  1.0  0.1146
  H  H241  1  0.600400  0.856200  0.374700  1.0  0.1241
  H  H242  1  0.681500  0.825800  0.354400  1.0  0.1189
  H  H243  1  0.399400  0.220800  0.942000  1.0  0.0939
  H  H244  1  0.393200  0.170700  0.893000  1.0  0.1195
  H  H245  1  0.160200  0.098800  0.917700  1.0  0.0935
  H  H246  1  0.175200  0.144600  0.969500  1.0  0.1033
  H  H247  1  0.319200  0.056200  0.832200  1.0  0.1334
  H  H248  1  0.347900  0.041600  0.866600  1.0  0.1341
  H  H249  1  0.389400  0.095500  0.853200  1.0  0.1287
  H  H250  1  0.960300  0.388700  0.025600  1.0  0.104
  H  H251  1  0.883400  0.353900  0.066400  1.0  0.1173
  H  H252  1  0.838700  0.511200  0.107200  1.0  0.1178
  H  H253  1  0.905100  0.543600  0.063900  1.0  0.0906
  H  H254  1  0.676200  0.424900  0.139400  1.0  0.1337
  H  H255  1  0.718700  0.479600  0.127200  1.0  0.1226
  H  H256  1  0.671200  0.432800  0.102500  1.0  0.1306
  H  H257  1  0.940300  0.957500  0.932500  1.0  0.1013
  H  H258  1  0.862700  0.990300  0.891400  1.0  0.107
  H  H259  1  0.905600  0.150200  0.930000  1.0  0.1153
  H  H260  1  0.976400  0.112400  0.971400  1.0  0.0787
  H  H261  1  0.713900  0.083400  0.854700  1.0  0.1317
  H  H262  1  0.701400  0.072700  0.890900  1.0  0.1285
  H  H263  1  0.746900  0.025600  0.865900  1.0  0.1251
  H  H264  1  0.849300  0.638000  0.237900  1.0  0.0954
  H  H265  1  0.905100  0.614500  0.286400  1.0  0.117
  H  H266  1  0.984200  0.528000  0.284300  1.0  0.117
  H  H267  1  0.598000  0.859700  0.260100  1.0  0.1087
  H  H268  1  0.545200  0.888900  0.211600  1.0  0.1173
  H  H269  1  0.466500  0.974300  0.214700  1.0  0.1216
  H  H270  1  0.218900  0.604100  0.219200  1.0  0.0789
  H  H271  1  0.136300  0.520200  0.208500  1.0  0.1011
  H  H272  1  0.189100  0.490600  0.297500  1.0  0.1096
  H  H273  1  0.284800  0.565900  0.303900  1.0  0.0915
  H  H274  1  0.095300  0.365100  0.248700  1.0  0.0982
  H  H275  1  0.189500  0.385900  0.235800  1.0  0.0995
  H  H276  1  0.167000  0.396200  0.273000  1.0  0.1043
  H  H277  1  0.119300  0.700000  0.209000  1.0  0.0731
  H  H278  1  0.027700  0.627700  0.186900  1.0  0.1018
  H  H279  1  0.824800  0.741200  0.186400  1.0  0.1162
  H  H280  1  0.922800  0.807400  0.206900  1.0  0.0763
  H  H281  1  0.771000  0.606400  0.134400  1.0  0.1059
  H  H282  1  0.773700  0.673100  0.143000  1.0  0.1257
  H  H283  1  0.855400  0.641200  0.123800  1.0  0.1212
  H  H284  1  0.378700  0.284100  0.065100  1.0  0.0914
  H  H285  1  0.354400  0.326500  0.115900  1.0  0.1278
  H  H286  1  0.133900  0.401000  0.081000  1.0  0.1076
  H  H287  1  0.164900  0.355500  0.032800  1.0  0.0883
  H  H288  1  0.278200  0.444800  0.173400  1.0  0.125
  H  H289  1  0.349700  0.403500  0.154400  1.0  0.126
  H  H290  1  0.316500  0.458500  0.139900  1.0  0.1333
  H  H291  1  0.143300  0.286500  0.121400  1.0  0.1126
  H  H292  1  0.025100  0.228500  0.107300  1.0  0.097
  H  H293  1  0.876400  0.261800  0.111000  1.0  0.1205
  H  H294  1  0.915400  0.237100  0.886000  1.0  0.1014
  H  H295  1  0.057200  0.275100  0.887300  1.0  0.1108
  H  H296  1  0.181300  0.212800  0.876500  1.0  0.1187
  C  C297  1  0.265000  0.918400  0.769300  1.0  0.1617
  C  C298  1  0.212800  0.968000  0.775000  1.0  -0.2242
  C  C299  1  0.208200  0.002500  0.750100  1.0  0.2354
  C  C300  1  0.252700  0.986000  0.723000  1.0  -0.1395
  C  C301  1  0.303900  0.936900  0.719800  1.0  0.1865
  C  C302  1  0.193800  0.103500  0.752500  1.0  -0.1469
  C  C303  1  0.060700  0.050900  0.764500  1.0  0.4437
  C  C304  1  0.106300  0.790500  0.796800  1.0  0.1666
  C  C305  1  0.054000  0.835700  0.809400  1.0  -0.1985
  C  C306  1  0.963400  0.822800  0.815800  1.0  0.1432
  C  C307  1  0.932900  0.769500  0.810000  1.0  -0.1952
  C  C308  1  0.992800  0.727900  0.799000  1.0  0.1549
  C  C309  1  0.855400  0.859800  0.857800  1.0  -0.1638
  C  C310  1  0.902600  0.919400  0.819900  1.0  0.6065
  C  C311  1  0.150000  0.196000  0.437200  1.0  0.1517
  C  C312  1  0.154100  0.167900  0.407800  1.0  -0.2197
  C  C313  1  0.231700  0.133500  0.399300  1.0  0.1711
  C  C314  1  0.291500  0.124500  0.422600  1.0  -0.1687
  C  C315  1  0.283200  0.152100  0.453500  1.0  0.145
  C  C316  1  0.164500  0.072100  0.353900  1.0  -0.1562
  C  C317  1  0.318900  0.103700  0.352300  1.0  0.5946
  C  C318  1  0.566100  0.414000  0.542100  1.0  0.1422
  C  C319  1  0.612600  0.393300  0.566200  1.0  -0.1722
  C  C320  1  0.654300  0.429500  0.590400  1.0  0.2051
  C  C321  1  0.640600  0.485300  0.590000  1.0  -0.2011
  C  C322  1  0.597300  0.504400  0.564900  1.0  0.1632
  C  C323  1  0.792000  0.439300  0.621800  1.0  -0.21
  C  C324  1  0.680100  0.367300  0.631800  1.0  0.6142
  C  C325  1  0.567200  0.996700  0.432400  1.0  0.0973
  C  C326  1  0.611000  0.016300  0.407400  1.0  -0.1755
  C  C327  1  0.617300  0.071300  0.405300  1.0  0.2152
  C  C328  1  0.587400  0.110900  0.430000  1.0  -0.1673
  C  C329  1  0.546200  0.086700  0.454300  1.0  0.1491
  C  C330  1  0.759400  0.066000  0.372200  1.0  -0.1619
  C  C331  1  0.642700  0.133600  0.364300  1.0  0.5177
  C  C332  1  0.605200  0.569400  0.709400  1.0  0.2016
  C  C333  1  0.618200  0.604000  0.738200  1.0  -0.1212
  C  C334  1  0.585900  0.590800  0.767000  1.0  -0.1418
  C  C335  1  0.539000  0.540000  0.765300  1.0  -0.0916
  C  C336  1  0.525900  0.507300  0.736900  1.0  0.2034
  C  C337  1  0.946300  0.930200  0.789000  1.0  0.1228
  C  C338  1  0.932500  0.894400  0.760000  1.0  -0.0787
  C  C339  1  0.964300  0.911200  0.731400  1.0  -0.1124
  C  C340  1  0.010000  0.961400  0.733300  1.0  -0.0836
  C  C341  1  0.020800  0.991400  0.761400  1.0  0.246
  C  C342  1  0.285300  0.580400  0.735500  1.0  0.1551
  C  C343  1  0.336700  0.529600  0.728800  1.0  -0.1621
  C  C344  1  0.345800  0.496800  0.750600  1.0  0.2816
  C  C345  1  0.302500  0.512700  0.780600  1.0  -0.1736
  C  C346  1  0.249600  0.558700  0.785000  1.0  0.1246
  C  C347  1  0.358500  0.394500  0.751600  1.0  -0.1519
  C  C348  1  0.481600  0.449400  0.735100  1.0  0.5424
  C  C349  1  0.441600  0.708300  0.704300  1.0  0.1552
  C  C350  1  0.495700  0.664700  0.691100  1.0  -0.1954
  C  C351  1  0.582500  0.675700  0.684400  1.0  0.1863
  C  C352  1  0.614600  0.731700  0.690800  1.0  -0.1937
  C  C353  1  0.555900  0.769900  0.703200  1.0  0.1866
  C  C354  1  0.689800  0.638900  0.640500  1.0  -0.1548
  C  C355  1  0.640000  0.579400  0.679200  1.0  0.5354
  C  C356  1  0.173200  0.307300  0.568600  1.0  0.1326
  C  C357  1  0.185800  0.333000  0.599300  1.0  -0.2284
  C  C358  1  0.260800  0.369700  0.605200  1.0  0.2228
  C  C359  1  0.315600  0.376500  0.578600  1.0  -0.2194
  C  C360  1  0.296800  0.348900  0.549900  1.0  0.1642
  C  C361  1  0.201700  0.428400  0.652300  1.0  -0.1932
  C  C362  1  0.361500  0.397200  0.648300  1.0  0.5906
  C  C363  1  0.430000  0.355900  0.634400  1.0  0.0297
  C  C364  1  0.416400  0.300800  0.623200  1.0  -0.1471
  C  C365  1  0.486200  0.266700  0.614700  1.0  -0.0794
  C  C366  1  0.573700  0.285800  0.616500  1.0  -0.1395
  C  C367  1  0.584300  0.343400  0.627200  1.0  0.1982
  C  C368  1  0.550500  0.157100  0.368600  1.0  0.0184
  C  C369  1  0.534500  0.213700  0.379600  1.0  -0.0806
  C  C370  1  0.451800  0.236000  0.381400  1.0  -0.1262
  C  C371  1  0.379000  0.199500  0.374400  1.0  -0.1235
  C  C372  1  0.396500  0.143500  0.364100  1.0  0.2202
  C  C373  1  0.377800  0.603300  0.605600  1.0  0.4888
  C  C374  1  0.341000  0.896800  0.394900  1.0  0.4561
  C  C375  1  0.014000  0.293400  0.969100  1.0  0.5214
  C  C376  1  0.765000  0.081600  0.730700  1.0  0.162
  C  C377  1  0.712800  0.032000  0.725000  1.0  -0.2241
  C  C378  1  0.708200  0.997500  0.749900  1.0  0.2354
  C  C379  1  0.752700  0.014000  0.777000  1.0  -0.14
  C  C380  1  0.803900  0.063100  0.780200  1.0  0.187
  C  C381  1  0.693800  0.896500  0.747500  1.0  -0.1472
  C  C382  1  0.560700  0.949100  0.735500  1.0  0.4447
  C  C383  1  0.606300  0.209500  0.703200  1.0  0.1668
  C  C384  1  0.554000  0.164300  0.690600  1.0  -0.1995
  C  C385  1  0.463400  0.177200  0.684200  1.0  0.1429
  C  C386  1  0.432900  0.230500  0.690000  1.0  -0.1966
  C  C387  1  0.492800  0.272100  0.701000  1.0  0.1542
  C  C388  1  0.355400  0.140200  0.642200  1.0  -0.1643
  C  C389  1  0.402600  0.080600  0.680100  1.0  0.6088
  C  C390  1  0.650000  0.804000  0.062800  1.0  0.1525
  C  C391  1  0.654100  0.832100  0.092200  1.0  -0.2197
  C  C392  1  0.731700  0.866500  0.100700  1.0  0.1702
  C  C393  1  0.791500  0.875500  0.077400  1.0  -0.1697
  C  C394  1  0.783200  0.847900  0.046500  1.0  0.1446
  C  C395  1  0.664500  0.927900  0.146100  1.0  -0.1558
  C  C396  1  0.818900  0.896300  0.147700  1.0  0.5945
  C  C397  1  0.066100  0.586000  0.957900  1.0  0.1424
  C  C398  1  0.112600  0.606700  0.933800  1.0  -0.1715
  C  C399  1  0.154300  0.570500  0.909600  1.0  0.2052
  C  C400  1  0.140600  0.514700  0.910000  1.0  -0.2027
  C  C401  1  0.097300  0.495600  0.935100  1.0  0.162
  C  C402  1  0.292000  0.560700  0.878200  1.0  -0.2094
  C  C403  1  0.180100  0.632700  0.868200  1.0  0.6144
  C  C404  1  0.067200  0.003300  0.067600  1.0  0.098
  C  C405  1  0.111000  0.983700  0.092600  1.0  -0.1741
  C  C406  1  0.117300  0.928700  0.094700  1.0  0.2163
  C  C407  1  0.087400  0.889100  0.070000  1.0  -0.1656
  C  C408  1  0.046200  0.913300  0.045700  1.0  0.1497
  C  C409  1  0.259400  0.934000  0.127800  1.0  -0.1608
  C  C410  1  0.142700  0.866400  0.135700  1.0  0.5165
  C  C411  1  0.105200  0.430600  0.790600  1.0  0.2026
  C  C412  1  0.118200  0.396000  0.761800  1.0  -0.1213
  C  C413  1  0.085900  0.409200  0.733000  1.0  -0.1432
  C  C414  1  0.039000  0.460000  0.734700  1.0  -0.0903
  C  C415  1  0.025900  0.492700  0.763100  1.0  0.2028
  C  C416  1  0.446300  0.069800  0.711000  1.0  0.1226
  C  C417  1  0.432500  0.105600  0.740000  1.0  -0.0776
  C  C418  1  0.464300  0.088800  0.768600  1.0  -0.1124
  C  C419  1  0.510000  0.038600  0.766700  1.0  -0.0837
  C  C420  1  0.520800  0.008600  0.738600  1.0  0.2459
  C  C421  1  0.785300  0.419600  0.764500  1.0  0.1564
  C  C422  1  0.836700  0.470400  0.771200  1.0  -0.1609
  C  C423  1  0.845800  0.503200  0.749400  1.0  0.2819
  C  C424  1  0.802500  0.487300  0.719400  1.0  -0.1724
  C  C425  1  0.749600  0.441300  0.715000  1.0  0.1252
  C  C426  1  0.858500  0.605500  0.748400  1.0  -0.1525
  C  C427  1  0.981600  0.550600  0.764900  1.0  0.5415
  C  C428  1  0.941600  0.291700  0.795700  1.0  0.1538
  C  C429  1  0.995700  0.335300  0.808900  1.0  -0.1945
  C  C430  1  0.082500  0.324300  0.815600  1.0  0.1868
  C  C431  1  0.114600  0.268300  0.809200  1.0  -0.1949
  C  C432  1  0.055900  0.230100  0.796800  1.0  0.1871
  C  C433  1  0.189800  0.361100  0.859500  1.0  -0.154
  C  C434  1  0.140000  0.420600  0.820800  1.0  0.5348
  C  C435  1  0.673200  0.692700  0.931400  1.0  0.1335
  C  C436  1  0.685800  0.667000  0.900700  1.0  -0.2283
  C  C437  1  0.760800  0.630300  0.894800  1.0  0.2225
  C  C438  1  0.815600  0.623500  0.921400  1.0  -0.2181
  C  C439  1  0.796800  0.651100  0.950100  1.0  0.1652
  C  C440  1  0.701700  0.571600  0.847700  1.0  -0.194
  C  C441  1  0.861500  0.602800  0.851700  1.0  0.5906
  C  C442  1  0.930000  0.644100  0.865600  1.0  0.0297
  C  C443  1  0.916400  0.699200  0.876800  1.0  -0.1475
  C  C444  1  0.986200  0.733300  0.885300  1.0  -0.0799
  C  C445  1  0.073700  0.714200  0.883500  1.0  -0.1402
  C  C446  1  0.084300  0.656600  0.872800  1.0  0.1977
  C  C447  1  0.050500  0.842900  0.131400  1.0  0.0178
  C  C448  1  0.034500  0.786300  0.120400  1.0  -0.0808
  C  C449  1  0.951800  0.764000  0.118600  1.0  -0.1265
  C  C450  1  0.879000  0.800500  0.125600  1.0  -0.123
  C  C451  1  0.896500  0.856500  0.135900  1.0  0.22
  C  C452  1  0.877800  0.396700  0.894400  1.0  0.4897
  C  C453  1  0.841000  0.103200  0.105100  1.0  0.4563
  C  C454  1  0.514000  0.706600  0.530900  1.0  0.5208
  C  C455  1  0.735000  0.081600  0.230700  1.0  0.1619
  C  C456  1  0.787200  0.032000  0.225000  1.0  -0.2234
  C  C457  1  0.791800  0.997500  0.249900  1.0  0.2357
  C  C458  1  0.747300  0.014000  0.277000  1.0  -0.1399
  C  C459  1  0.696100  0.063100  0.280200  1.0  0.1885
  C  C460  1  0.806200  0.896500  0.247500  1.0  -0.1469
  C  C461  1  0.939300  0.949100  0.235500  1.0  0.446
  C  C462  1  0.893700  0.209500  0.203200  1.0  0.1678
  C  C463  1  0.946000  0.164300  0.190600  1.0  -0.2005
  C  C464  1  0.036600  0.177200  0.184200  1.0  0.1428
  C  C465  1  0.067100  0.230500  0.190000  1.0  -0.1956
  C  C466  1  0.007200  0.272100  0.201000  1.0  0.1548
  C  C467  1  0.144600  0.140200  0.142200  1.0  -0.1644
  C  C468  1  0.097400  0.080600  0.180100  1.0  0.6084
  C  C469  1  0.850000  0.804000  0.562800  1.0  0.1494
  C  C470  1  0.845900  0.832100  0.592200  1.0  -0.2196
  C  C471  1  0.768300  0.866500  0.600700  1.0  0.1715
  C  C472  1  0.708500  0.875500  0.577400  1.0  -0.1697
  C  C473  1  0.716800  0.847900  0.546500  1.0  0.1453
  C  C474  1  0.835500  0.927900  0.646100  1.0  -0.1551
  C  C475  1  0.681100  0.896300  0.647700  1.0  0.5935
  C  C476  1  0.433900  0.586000  0.457900  1.0  0.1409
  C  C477  1  0.387400  0.606700  0.433800  1.0  -0.1729
  C  C478  1  0.345700  0.570500  0.409600  1.0  0.2031
  C  C479  1  0.359400  0.514700  0.410000  1.0  -0.2034
  C  C480  1  0.402700  0.495600  0.435100  1.0  0.1617
  C  C481  1  0.208000  0.560700  0.378200  1.0  -0.2065
  C  C482  1  0.319900  0.632700  0.368200  1.0  0.6134
  C  C483  1  0.432800  0.003300  0.567600  1.0  0.098
  C  C484  1  0.389000  0.983700  0.592600  1.0  -0.1758
  C  C485  1  0.382700  0.928700  0.594700  1.0  0.2152
  C  C486  1  0.412600  0.889100  0.570000  1.0  -0.1667
  C  C487  1  0.453800  0.913300  0.545700  1.0  0.1503
  C  C488  1  0.240600  0.934000  0.627800  1.0  -0.1586
  C  C489  1  0.357300  0.866400  0.635700  1.0  0.5172
  C  C490  1  0.394800  0.430600  0.290600  1.0  0.2027
  C  C491  1  0.381800  0.396000  0.261800  1.0  -0.1209
  C  C492  1  0.414100  0.409200  0.233000  1.0  -0.1423
  C  C493  1  0.461000  0.460000  0.234700  1.0  -0.0904
  C  C494  1  0.474100  0.492700  0.263100  1.0  0.2029
  C  C495  1  0.053700  0.069800  0.211000  1.0  0.123
  C  C496  1  0.067500  0.105600  0.240000  1.0  -0.0769
  C  C497  1  0.035700  0.088800  0.268600  1.0  -0.1121
  C  C498  1  0.990000  0.038600  0.266700  1.0  -0.0844
  C  C499  1  0.979200  0.008600  0.238600  1.0  0.2458
  C  C500  1  0.714700  0.419600  0.264500  1.0  0.1568
  C  C501  1  0.663300  0.470400  0.271200  1.0  -0.1614
  C  C502  1  0.654200  0.503200  0.249400  1.0  0.2819
  C  C503  1  0.697500  0.487300  0.219400  1.0  -0.1719
  C  C504  1  0.750400  0.441300  0.215000  1.0  0.1239
  C  C505  1  0.641500  0.605500  0.248400  1.0  -0.1521
  C  C506  1  0.518400  0.550600  0.264900  1.0  0.5442
  C  C507  1  0.558400  0.291700  0.295700  1.0  0.1523
  C  C508  1  0.504300  0.335300  0.308900  1.0  -0.196
  C  C509  1  0.417500  0.324300  0.315600  1.0  0.187
  C  C510  1  0.385400  0.268300  0.309200  1.0  -0.1942
  C  C511  1  0.444100  0.230100  0.296800  1.0  0.1877
  C  C512  1  0.310200  0.361100  0.359500  1.0  -0.1548
  C  C513  1  0.360000  0.420600  0.320800  1.0  0.5359
  C  C514  1  0.826800  0.692700  0.431400  1.0  0.133
  C  C515  1  0.814200  0.667000  0.400700  1.0  -0.2267
  C  C516  1  0.739200  0.630300  0.394800  1.0  0.2215
  C  C517  1  0.684400  0.623500  0.421400  1.0  -0.2172
  C  C518  1  0.703200  0.651100  0.450100  1.0  0.1669
  C  C519  1  0.798300  0.571600  0.347700  1.0  -0.1947
  C  C520  1  0.638500  0.602800  0.351700  1.0  0.5903
  C  C521  1  0.570000  0.644100  0.365600  1.0  0.0292
  C  C522  1  0.583600  0.699200  0.376800  1.0  -0.1479
  C  C523  1  0.513800  0.733300  0.385300  1.0  -0.0806
  C  C524  1  0.426300  0.714200  0.383500  1.0  -0.1409
  C  C525  1  0.415700  0.656600  0.372800  1.0  0.1967
  C  C526  1  0.449500  0.842900  0.631400  1.0  0.0165
  C  C527  1  0.465500  0.786300  0.620400  1.0  -0.0796
  C  C528  1  0.548200  0.764000  0.618600  1.0  -0.1273
  C  C529  1  0.621000  0.800500  0.625600  1.0  -0.1237
  C  C530  1  0.603500  0.856500  0.635900  1.0  0.2203
  C  C531  1  0.622200  0.396700  0.394400  1.0  0.4875
  C  C532  1  0.659000  0.103200  0.605100  1.0  0.4535
  C  C533  1  0.986000  0.706600  0.030900  1.0  0.5198
  C  C534  1  0.235000  0.918400  0.269300  1.0  0.1623
  C  C535  1  0.287200  0.968000  0.275000  1.0  -0.2239
  C  C536  1  0.291800  0.002500  0.250100  1.0  0.2356
  C  C537  1  0.247300  0.986000  0.223000  1.0  -0.1399
  C  C538  1  0.196100  0.936900  0.219800  1.0  0.1877
  C  C539  1  0.306200  0.103500  0.252500  1.0  -0.1468
  C  C540  1  0.439300  0.050900  0.264500  1.0  0.4446
  C  C541  1  0.393700  0.790500  0.296800  1.0  0.1674
  C  C542  1  0.446000  0.835700  0.309400  1.0  -0.2
  C  C543  1  0.536600  0.822800  0.315800  1.0  0.1428
  C  C544  1  0.567100  0.769500  0.310000  1.0  -0.1944
  C  C545  1  0.507200  0.727900  0.299000  1.0  0.1543
  C  C546  1  0.644600  0.859800  0.357800  1.0  -0.164
  C  C547  1  0.597400  0.919400  0.319900  1.0  0.6072
  C  C548  1  0.350000  0.196000  0.937200  1.0  0.15
  C  C549  1  0.345900  0.167900  0.907800  1.0  -0.2213
  C  C550  1  0.268300  0.133500  0.899300  1.0  0.1711
  C  C551  1  0.208500  0.124500  0.922600  1.0  -0.1685
  C  C552  1  0.216800  0.152100  0.953500  1.0  0.1457
  C  C553  1  0.335500  0.072100  0.853900  1.0  -0.1556
  C  C554  1  0.181100  0.103700  0.852300  1.0  0.5934
  C  C555  1  0.933900  0.414000  0.042100  1.0  0.1413
  C  C556  1  0.887400  0.393300  0.066200  1.0  -0.1734
  C  C557  1  0.845700  0.429500  0.090400  1.0  0.2019
  C  C558  1  0.859400  0.485300  0.090000  1.0  -0.2022
  C  C559  1  0.902700  0.504400  0.064900  1.0  0.1629
  C  C560  1  0.708000  0.439300  0.121800  1.0  -0.2072
  C  C561  1  0.819900  0.367300  0.131800  1.0  0.6129
  C  C562  1  0.932800  0.996700  0.932400  1.0  0.0979
  C  C563  1  0.889000  0.016300  0.907400  1.0  -0.1772
  C  C564  1  0.882700  0.071300  0.905300  1.0  0.214
  C  C565  1  0.912600  0.110900  0.930000  1.0  -0.1691
  C  C566  1  0.953800  0.086700  0.954300  1.0  0.1492
  C  C567  1  0.740600  0.066000  0.872200  1.0  -0.159
  C  C568  1  0.857300  0.133600  0.864300  1.0  0.5185
  C  C569  1  0.894800  0.569400  0.209400  1.0  0.2017
  C  C570  1  0.881800  0.604000  0.238200  1.0  -0.1208
  C  C571  1  0.914100  0.590800  0.267000  1.0  -0.1415
  C  C572  1  0.961000  0.540000  0.265300  1.0  -0.0906
  C  C573  1  0.974100  0.507300  0.236900  1.0  0.2034
  C  C574  1  0.553700  0.930200  0.289000  1.0  0.1233
  C  C575  1  0.567500  0.894400  0.260000  1.0  -0.0785
  C  C576  1  0.535700  0.911200  0.231400  1.0  -0.1116
  C  C577  1  0.490000  0.961400  0.233300  1.0  -0.0832
  C  C578  1  0.479200  0.991400  0.261400  1.0  0.2459
  C  C579  1  0.214700  0.580400  0.235500  1.0  0.156
  C  C580  1  0.163300  0.529600  0.228800  1.0  -0.1622
  C  C581  1  0.154200  0.496800  0.250600  1.0  0.2816
  C  C582  1  0.197500  0.512700  0.280600  1.0  -0.173
  C  C583  1  0.250400  0.558700  0.285000  1.0  0.1243
  C  C584  1  0.141500  0.394500  0.251600  1.0  -0.152
  C  C585  1  0.018400  0.449400  0.235100  1.0  0.5439
  C  C586  1  0.058400  0.708300  0.204300  1.0  0.1525
  C  C587  1  0.004300  0.664700  0.191100  1.0  -0.1972
  C  C588  1  0.917500  0.675700  0.184400  1.0  0.1865
  C  C589  1  0.885400  0.731700  0.190800  1.0  -0.1933
  C  C590  1  0.944100  0.769900  0.203200  1.0  0.1857
  C  C591  1  0.810200  0.638900  0.140500  1.0  -0.1547
  C  C592  1  0.860000  0.579400  0.179200  1.0  0.536
  C  C593  1  0.326800  0.307300  0.068600  1.0  0.1319
  C  C594  1  0.314200  0.333000  0.099300  1.0  -0.2267
  C  C595  1  0.239200  0.369700  0.105200  1.0  0.2227
  C  C596  1  0.184400  0.376500  0.078600  1.0  -0.2188
  C  C597  1  0.203200  0.348900  0.049900  1.0  0.1652
  C  C598  1  0.298300  0.428400  0.152300  1.0  -0.1935
  C  C599  1  0.138500  0.397200  0.148300  1.0  0.5903
  C  C600  1  0.070000  0.355900  0.134400  1.0  0.0296
  C  C601  1  0.083600  0.300800  0.123200  1.0  -0.1478
  C  C602  1  0.013800  0.266700  0.114700  1.0  -0.0805
  C  C603  1  0.926300  0.285800  0.116500  1.0  -0.14
  C  C604  1  0.915700  0.343400  0.127200  1.0  0.1981
  C  C605  1  0.949500  0.157100  0.868600  1.0  0.0162
  C  C606  1  0.965500  0.213700  0.879600  1.0  -0.0802
  C  C607  1  0.048200  0.236000  0.881400  1.0  -0.1274
  C  C608  1  0.121000  0.199500  0.874400  1.0  -0.1238
  C  C609  1  0.103500  0.143500  0.864100  1.0  0.2202
  C  C610  1  0.122200  0.603300  0.105600  1.0  0.4858
  C  C611  1  0.159000  0.896800  0.894900  1.0  0.4541
  C  C612  1  0.486000  0.293400  0.469100  1.0  0.5207
  C  C613  1  0.268700  0.137300  0.552400  1.0  0.467
  C  C614  1  0.901100  0.727200  0.696100  1.0  0.4763
  C  C615  1  0.646000  0.771400  0.798700  1.0  0.5004
  C  C616  1  0.768700  0.862700  0.947600  1.0  0.4672
  C  C617  1  0.401100  0.272800  0.803900  1.0  0.4755
  C  C618  1  0.146000  0.228600  0.701300  1.0  0.5
  C  C619  1  0.731300  0.862700  0.447600  1.0  0.467
  C  C620  1  0.098900  0.272800  0.303900  1.0  0.4788
  C  C621  1  0.354000  0.228600  0.201300  1.0  0.4981
  C  C622  1  0.231300  0.137300  0.052400  1.0  0.4665
  C  C623  1  0.598900  0.727200  0.196100  1.0  0.4779
  C  C624  1  0.854000  0.771400  0.298700  1.0  0.498
  S  S625  1  0.383200  0.549470  0.632350  1.0  1.2177
  S  S626  1  0.341000  0.951080  0.370110  1.0  1.3361
  S  S627  1  0.098700  0.344040  0.962410  1.0  1.2567
  S  S628  1  0.883200  0.450530  0.867650  1.0  1.2178
  S  S629  1  0.841000  0.048920  0.129890  1.0  1.3365
  S  S630  1  0.598700  0.655960  0.537590  1.0  1.2576
  S  S631  1  0.616800  0.450530  0.367650  1.0  1.2193
  S  S632  1  0.659000  0.048920  0.629890  1.0  1.3374
  S  S633  1  0.901300  0.655960  0.037590  1.0  1.2591
  S  S634  1  0.116800  0.549470  0.132350  1.0  1.2189
  S  S635  1  0.159000  0.951080  0.870110  1.0  1.3366
  S  S636  1  0.401300  0.344040  0.462410  1.0  1.2587
  S  S637  1  0.378300  0.147750  0.539860  1.0  1.1982
  S  S638  1  0.871300  0.779910  0.674710  1.0  1.2696
  S  S639  1  0.675800  0.720960  0.822020  1.0  1.1239
  S  S640  1  0.878300  0.852250  0.960140  1.0  1.1987
  S  S641  1  0.371300  0.220090  0.825290  1.0  1.2708
  S  S642  1  0.175800  0.279040  0.677980  1.0  1.1226
  S  S643  1  0.621700  0.852250  0.460140  1.0  1.1976
  S  S644  1  0.128700  0.220090  0.325290  1.0  1.2711
  S  S645  1  0.324200  0.279040  0.177980  1.0  1.1247
  S  S646  1  0.121700  0.147750  0.039860  1.0  1.1969
  S  S647  1  0.628700  0.779910  0.174710  1.0  1.2705
  S  S648  1  0.824200  0.720960  0.322020  1.0  1.1259
  N  N649  1  0.311200  0.905200  0.741400  1.0  -0.3009
  N  N650  1  0.152600  0.050100  0.754100  1.0  -0.1506
  N  N651  1  0.077800  0.739000  0.792000  1.0  -0.2829
  N  N652  1  0.903200  0.867700  0.828100  1.0  -0.1131
  N  N653  1  0.212200  0.191700  0.461000  1.0  -0.3459
  N  N654  1  0.241000  0.106900  0.368400  1.0  -0.1386
  N  N655  1  0.557500  0.468900  0.541400  1.0  -0.3547
  N  N656  1  0.703300  0.409500  0.616300  1.0  -0.102
  N  N657  1  0.534000  0.033200  0.457300  1.0  -0.362
  N  N658  1  0.669000  0.091000  0.380000  1.0  -0.1304
  N  N659  1  0.561000  0.520900  0.709700  1.0  -0.3811
  N  N660  1  0.986800  0.979200  0.789100  1.0  -0.3111
  N  N661  1  0.244300  0.596300  0.762200  1.0  -0.3179
  N  N662  1  0.398900  0.448200  0.747500  1.0  0.0056
  N  N663  1  0.469300  0.761400  0.711000  1.0  -0.2961
  N  N664  1  0.644200  0.632600  0.670700  1.0  -0.1528
  N  N665  1  0.226200  0.311200  0.543100  1.0  -0.3757
  N  N666  1  0.279100  0.394900  0.635200  1.0  -0.1424
  N  N667  1  0.519100  0.377700  0.636200  1.0  -0.3999
  N  N668  1  0.476100  0.121200  0.361700  1.0  -0.3888
  N  N669  1  0.811200  0.094800  0.758600  1.0  -0.3067
  N  N670  1  0.652600  0.949900  0.745900  1.0  -0.1495
  N  N671  1  0.577800  0.261000  0.708000  1.0  -0.2876
  N  N672  1  0.403200  0.132300  0.671900  1.0  -0.1129
  N  N673  1  0.712200  0.808300  0.039000  1.0  -0.3482
  N  N674  1  0.741000  0.893100  0.131600  1.0  -0.1393
  N  N675  1  0.057500  0.531100  0.958600  1.0  -0.3543
  N  N676  1  0.203300  0.590500  0.883700  1.0  -0.1022
  N  N677  1  0.034000  0.966800  0.042700  1.0  -0.3611
  N  N678  1  0.169000  0.909000  0.120000  1.0  -0.1305
  N  N679  1  0.061000  0.479100  0.790300  1.0  -0.3802
  N  N680  1  0.486800  0.020800  0.710900  1.0  -0.3113
  N  N681  1  0.744300  0.403700  0.737800  1.0  -0.3165
  N  N682  1  0.898900  0.551800  0.752500  1.0  0.0052
  N  N683  1  0.969300  0.238600  0.789000  1.0  -0.2987
  N  N684  1  0.144200  0.367400  0.829300  1.0  -0.1528
  N  N685  1  0.726200  0.688800  0.956900  1.0  -0.3716
  N  N686  1  0.779100  0.605100  0.864800  1.0  -0.1426
  N  N687  1  0.019100  0.622300  0.863800  1.0  -0.3989
  N  N688  1  0.976100  0.878800  0.138300  1.0  -0.3896
  N  N689  1  0.688800  0.094800  0.258600  1.0  -0.3071
  N  N690  1  0.847400  0.949900  0.245900  1.0  -0.1495
  N  N691  1  0.922200  0.261000  0.208000  1.0  -0.2872
  N  N692  1  0.096800  0.132300  0.171900  1.0  -0.1131
  N  N693  1  0.787800  0.808300  0.539000  1.0  -0.3476
  N  N694  1  0.759000  0.893100  0.631600  1.0  -0.1384
  N  N695  1  0.442500  0.531100  0.458600  1.0  -0.3526
  N  N696  1  0.296700  0.590500  0.383700  1.0  -0.1029
  N  N697  1  0.466000  0.966800  0.542700  1.0  -0.3606
  N  N698  1  0.331000  0.909000  0.620000  1.0  -0.1324
  N  N699  1  0.439000  0.479100  0.290300  1.0  -0.3796
  N  N700  1  0.013200  0.020800  0.210900  1.0  -0.311
  N  N701  1  0.755700  0.403700  0.237800  1.0  -0.3143
  N  N702  1  0.601100  0.551800  0.252500  1.0  0.0046
  N  N703  1  0.530700  0.238600  0.289000  1.0  -0.2965
  N  N704  1  0.355800  0.367400  0.329300  1.0  -0.1532
  N  N705  1  0.773800  0.688800  0.456900  1.0  -0.3723
  N  N706  1  0.720900  0.605100  0.364800  1.0  -0.1419
  N  N707  1  0.480900  0.622300  0.363800  1.0  -0.3991
  N  N708  1  0.523900  0.878800  0.638300  1.0  -0.3883
  N  N709  1  0.188800  0.905200  0.241400  1.0  -0.3043
  N  N710  1  0.347400  0.050100  0.254100  1.0  -0.1502
  N  N711  1  0.422200  0.739000  0.292000  1.0  -0.2865
  N  N712  1  0.596800  0.867700  0.328100  1.0  -0.1131
  N  N713  1  0.287800  0.191700  0.961000  1.0  -0.3455
  N  N714  1  0.259000  0.106900  0.868400  1.0  -0.1373
  N  N715  1  0.942500  0.468900  0.041400  1.0  -0.3536
  N  N716  1  0.796700  0.409500  0.116300  1.0  -0.1031
  N  N717  1  0.966000  0.033200  0.957300  1.0  -0.3609
  N  N718  1  0.831000  0.091000  0.880000  1.0  -0.1314
  N  N719  1  0.939000  0.520900  0.209700  1.0  -0.3808
  N  N720  1  0.513200  0.979200  0.289100  1.0  -0.311
  N  N721  1  0.255700  0.596300  0.262200  1.0  -0.3192
  N  N722  1  0.101100  0.448200  0.247500  1.0  0.005
  N  N723  1  0.030700  0.761400  0.211000  1.0  -0.2969
  N  N724  1  0.855800  0.632600  0.170700  1.0  -0.153
  N  N725  1  0.273800  0.311200  0.043100  1.0  -0.376
  N  N726  1  0.220900  0.394900  0.135200  1.0  -0.1423
  N  N727  1  0.980900  0.377700  0.136200  1.0  -0.3995
  N  N728  1  0.023900  0.121200  0.861700  1.0  -0.3891
  O  O729  1  0.024100  0.092700  0.774000  1.0  -0.5229
  O  O730  1  0.864000  0.957700  0.835090  1.0  -0.5517
  O  O731  1  0.331300  0.071100  0.328190  1.0  -0.5634
  O  O732  1  0.730400  0.346000  0.649800  1.0  -0.4987
  O  O733  1  0.692500  0.153600  0.343900  1.0  -0.566
  O  O734  1  0.525200  0.405600  0.725000  1.0  -0.5922
  O  O735  1  0.680500  0.541100  0.661800  1.0  -0.5833
  O  O736  1  0.377600  0.428100  0.673100  1.0  -0.575
  O  O737  1  0.478300  0.548100  0.640200  1.0  -0.712
  O  O738  1  0.348700  0.500100  0.613300  1.0  -0.6328
  O  O739  1  0.327600  0.571300  0.658400  1.0  -0.5749
  O  O740  1  0.433300  0.953500  0.359900  1.0  -0.6747
  O  O741  1  0.313900  0.999000  0.390500  1.0  -0.5953
  O  O742  1  0.283900  0.930400  0.344600  1.0  -0.5911
  O  O743  1  0.177500  0.319000  0.972900  1.0  -0.6615
  O  O744  1  0.072800  0.393700  0.982200  1.0  -0.5968
  O  O745  1  0.096500  0.346700  0.929000  1.0  -0.5709
  O  O746  1  0.524100  0.907300  0.726000  1.0  -0.5221
  O  O747  1  0.364000  0.042300  0.664910  1.0  -0.5517
  O  O748  1  0.831300  0.928900  0.171810  1.0  -0.5627
  O  O749  1  0.230400  0.654000  0.850200  1.0  -0.4972
  O  O750  1  0.192500  0.846400  0.156100  1.0  -0.5712
  O  O751  1  0.025200  0.594400  0.775000  1.0  -0.5928
  O  O752  1  0.180500  0.458900  0.838200  1.0  -0.5829
  O  O753  1  0.877600  0.571900  0.826900  1.0  -0.5758
  O  O754  1  0.978300  0.451900  0.859800  1.0  -0.7107
  O  O755  1  0.848700  0.499900  0.886700  1.0  -0.6309
  O  O756  1  0.827600  0.428700  0.841600  1.0  -0.5763
  O  O757  1  0.933300  0.046500  0.140100  1.0  -0.6746
  O  O758  1  0.813900  0.001000  0.109500  1.0  -0.5977
  O  O759  1  0.783900  0.069600  0.155400  1.0  -0.5919
  O  O760  1  0.677500  0.681000  0.527100  1.0  -0.6614
  O  O761  1  0.572800  0.606300  0.517800  1.0  -0.5968
  O  O762  1  0.596500  0.653300  0.571000  1.0  -0.5724
  O  O763  1  0.975900  0.907300  0.226000  1.0  -0.5229
  O  O764  1  0.136000  0.042300  0.164910  1.0  -0.5518
  O  O765  1  0.668700  0.928900  0.671810  1.0  -0.5628
  O  O766  1  0.269600  0.654000  0.350200  1.0  -0.4973
  O  O767  1  0.307500  0.846400  0.656100  1.0  -0.5676
  O  O768  1  0.474800  0.594400  0.275000  1.0  -0.5926
  O  O769  1  0.319500  0.458900  0.338200  1.0  -0.5828
  O  O770  1  0.622400  0.571900  0.326900  1.0  -0.5762
  O  O771  1  0.521700  0.451900  0.359800  1.0  -0.7099
  O  O772  1  0.651300  0.499900  0.386700  1.0  -0.6312
  O  O773  1  0.672400  0.428700  0.341600  1.0  -0.5773
  O  O774  1  0.566700  0.046500  0.640100  1.0  -0.6713
  O  O775  1  0.686100  0.001000  0.609500  1.0  -0.5964
  O  O776  1  0.716100  0.069600  0.655400  1.0  -0.5926
  O  O777  1  0.822500  0.681000  0.027100  1.0  -0.6578
  O  O778  1  0.927200  0.606300  0.017800  1.0  -0.5972
  O  O779  1  0.903500  0.653300  0.071000  1.0  -0.5728
  O  O780  1  0.475900  0.092700  0.274000  1.0  -0.5223
  O  O781  1  0.636000  0.957700  0.335090  1.0  -0.5524
  O  O782  1  0.168700  0.071100  0.828190  1.0  -0.5638
  O  O783  1  0.769600  0.346000  0.149800  1.0  -0.4948
  O  O784  1  0.807500  0.153600  0.843900  1.0  -0.5658
  O  O785  1  0.974800  0.405600  0.225000  1.0  -0.5925
  O  O786  1  0.819500  0.541100  0.161800  1.0  -0.5832
  O  O787  1  0.122400  0.428100  0.173100  1.0  -0.5753
  O  O788  1  0.021700  0.548100  0.140200  1.0  -0.7106
  O  O789  1  0.151300  0.500100  0.113300  1.0  -0.632
  O  O790  1  0.172400  0.571300  0.158400  1.0  -0.575
  O  O791  1  0.066700  0.953500  0.859900  1.0  -0.6714
  O  O792  1  0.186100  0.999000  0.890500  1.0  -0.5955
  O  O793  1  0.216100  0.930400  0.844600  1.0  -0.5927
  O  O794  1  0.322500  0.319000  0.472900  1.0  -0.6583
  O  O795  1  0.427200  0.393700  0.482200  1.0  -0.5978
  O  O796  1  0.403500  0.346700  0.429000  1.0  -0.5718
  O  O797  1  0.393700  0.099200  0.516400  1.0  -0.6609
  O  O798  1  0.367600  0.200000  0.526300  1.0  -0.6854
  O  O799  1  0.431500  0.149100  0.568500  1.0  -0.6084
  O  O800  1  0.817900  0.807600  0.700200  1.0  -0.5919
  O  O801  1  0.817000  0.755700  0.649500  1.0  -0.5825
  O  O802  1  0.951100  0.808900  0.667600  1.0  -0.5513
  O  O803  1  0.730000  0.747300  0.846500  1.0  -0.6067
  O  O804  1  0.599300  0.691500  0.829300  1.0  -0.5427
  O  O805  1  0.728400  0.693300  0.795300  1.0  -0.6527
  O  O806  1  0.893700  0.900800  0.983600  1.0  -0.6608
  O  O807  1  0.867600  0.800000  0.973700  1.0  -0.6865
  O  O808  1  0.931500  0.850900  0.931500  1.0  -0.6082
  O  O809  1  0.317900  0.192400  0.799800  1.0  -0.5922
  O  O810  1  0.317000  0.244300  0.850500  1.0  -0.5835
  O  O811  1  0.451100  0.191100  0.832400  1.0  -0.5509
  O  O812  1  0.230000  0.252700  0.653500  1.0  -0.6061
  O  O813  1  0.099300  0.308500  0.670700  1.0  -0.5422
  O  O814  1  0.228400  0.306700  0.704700  1.0  -0.6514
  O  O815  1  0.606300  0.900800  0.483600  1.0  -0.6606
  O  O816  1  0.632400  0.800000  0.473700  1.0  -0.6864
  O  O817  1  0.568500  0.850900  0.431500  1.0  -0.6091
  O  O818  1  0.182100  0.192400  0.299800  1.0  -0.5934
  O  O819  1  0.183000  0.244300  0.350500  1.0  -0.5824
  O  O820  1  0.048900  0.191100  0.332400  1.0  -0.5482
  O  O821  1  0.270000  0.252700  0.153500  1.0  -0.6062
  O  O822  1  0.400700  0.308500  0.170700  1.0  -0.5403
  O  O823  1  0.271600  0.306700  0.204700  1.0  -0.6509
  O  O824  1  0.106300  0.099200  0.016400  1.0  -0.6607
  O  O825  1  0.132400  0.200000  0.026300  1.0  -0.6861
  O  O826  1  0.068500  0.149100  0.068500  1.0  -0.6093
  O  O827  1  0.682100  0.807600  0.200200  1.0  -0.5928
  O  O828  1  0.683000  0.755700  0.149500  1.0  -0.5824
  O  O829  1  0.548900  0.808900  0.167600  1.0  -0.5483
  O  O830  1  0.770000  0.747300  0.346500  1.0  -0.6072
  O  O831  1  0.900700  0.691500  0.329300  1.0  -0.5408
  O  O832  1  0.771600  0.693300  0.295300  1.0  -0.6521
  F  F833  1  0.418600  0.587200  0.577900  1.0  -0.1705
  F  F834  1  0.414700  0.650200  0.618300  1.0  -0.188
  F  F835  1  0.290600  0.612600  0.597600  1.0  -0.1564
  F  F836  1  0.377400  0.849200  0.382700  1.0  -0.1779
  F  F837  1  0.260800  0.886800  0.406200  1.0  -0.157
  F  F838  1  0.390900  0.913100  0.423000  1.0  -0.2033
  F  F839  1  0.001300  0.288700  0.999180  1.0  -0.1808
  F  F840  1  0.034000  0.243700  0.955400  1.0  -0.2197
  F  F841  1  0.939200  0.305300  0.956100  1.0  -0.1868
  F  F842  1  0.918600  0.412800  0.922100  1.0  -0.1702
  F  F843  1  0.914700  0.349800  0.881700  1.0  -0.1869
  F  F844  1  0.790600  0.387400  0.902400  1.0  -0.1567
  F  F845  1  0.877400  0.150800  0.117300  1.0  -0.1772
  F  F846  1  0.760800  0.113200  0.093800  1.0  -0.1579
  F  F847  1  0.890900  0.086900  0.077000  1.0  -0.2072
  F  F848  1  0.501300  0.711300  0.500820  1.0  -0.1793
  F  F849  1  0.534000  0.756300  0.544600  1.0  -0.2194
  F  F850  1  0.439200  0.694700  0.543900  1.0  -0.187
  F  F851  1  0.581400  0.412800  0.422100  1.0  -0.1716
  F  F852  1  0.585300  0.349800  0.381700  1.0  -0.1877
  F  F853  1  0.709400  0.387400  0.402400  1.0  -0.1561
  F  F854  1  0.622600  0.150800  0.617300  1.0  -0.1758
  F  F855  1  0.739200  0.113200  0.593800  1.0  -0.1575
  F  F856  1  0.609100  0.086900  0.577000  1.0  -0.2054
  F  F857  1  0.998700  0.711300  0.000820  1.0  -0.1804
  F  F858  1  0.966000  0.756300  0.044600  1.0  -0.2185
  F  F859  1  0.060800  0.694700  0.043900  1.0  -0.1879
  F  F860  1  0.081400  0.587200  0.077900  1.0  -0.17
  F  F861  1  0.085300  0.650200  0.118300  1.0  -0.1877
  F  F862  1  0.209400  0.612600  0.097600  1.0  -0.1542
  F  F863  1  0.122600  0.849200  0.882700  1.0  -0.1776
  F  F864  1  0.239200  0.886800  0.906200  1.0  -0.1594
  F  F865  1  0.109100  0.913100  0.923000  1.0  -0.2035
  F  F866  1  0.498700  0.288700  0.499180  1.0  -0.1834
  F  F867  1  0.466000  0.243700  0.455400  1.0  -0.219
  F  F868  1  0.560800  0.305300  0.456100  1.0  -0.1882
  F  F869  1  0.208900  0.134500  0.531000  1.0  -0.1616
  F  F870  1  0.242600  0.177200  0.576600  1.0  -0.1723
  F  F871  1  0.263200  0.087500  0.568200  1.0  -0.2811
  F  F872  1  0.950200  0.743600  0.722300  1.0  -0.1925
  F  F873  1  0.835000  0.696300  0.703600  1.0  -0.1917
  F  F874  1  0.958800  0.692700  0.677500  1.0  -0.177
  F  F875  1  0.603200  0.747000  0.772100  1.0  -0.2278
  F  F876  1  0.580400  0.802300  0.812300  1.0  -0.2024
  F  F877  1  0.711900  0.806200  0.794900  1.0  -0.213
  F  F878  1  0.708900  0.865500  0.969000  1.0  -0.1603
  F  F879  1  0.742600  0.822800  0.923400  1.0  -0.1736
  F  F880  1  0.763200  0.912500  0.931800  1.0  -0.2828
  F  F881  1  0.450200  0.256400  0.777700  1.0  -0.1919
  F  F882  1  0.335000  0.303700  0.796400  1.0  -0.1918
  F  F883  1  0.458800  0.307300  0.822500  1.0  -0.1768
  F  F884  1  0.103200  0.253000  0.727900  1.0  -0.2275
  F  F885  1  0.080400  0.197700  0.687700  1.0  -0.2024
  F  F886  1  0.211900  0.193800  0.705100  1.0  -0.2138
  F  F887  1  0.791100  0.865500  0.469000  1.0  -0.1639
  F  F888  1  0.757400  0.822800  0.423400  1.0  -0.1739
  F  F889  1  0.736800  0.912500  0.431800  1.0  -0.2808
  F  F890  1  0.049800  0.256400  0.277700  1.0  -0.1916
  F  F891  1  0.165000  0.303700  0.296400  1.0  -0.1909
  F  F892  1  0.041200  0.307300  0.322500  1.0  -0.1722
  F  F893  1  0.396800  0.253000  0.227900  1.0  -0.2286
  F  F894  1  0.419600  0.197700  0.187700  1.0  -0.2042
  F  F895  1  0.288100  0.193800  0.205100  1.0  -0.2138
  F  F896  1  0.291100  0.134500  0.031000  1.0  -0.1626
  F  F897  1  0.257400  0.177200  0.076600  1.0  -0.1736
  F  F898  1  0.236800  0.087500  0.068200  1.0  -0.2819
  F  F899  1  0.549800  0.743600  0.222300  1.0  -0.1906
  F  F900  1  0.665000  0.696300  0.203600  1.0  -0.19
  F  F901  1  0.541200  0.692700  0.177500  1.0  -0.175
  F  F902  1  0.896800  0.747000  0.272100  1.0  -0.2273
  F  F903  1  0.919600  0.802300  0.312300  1.0  -0.2032
  F  F904  1  0.788100  0.806200  0.294900  1.0  -0.2126
