# generated using pymatgen
data_CdH32C47S(N2O3)2
_symmetry_space_group_name_H-M   'P 1'
_cell_length_a   18.45380000
_cell_length_b   25.34420000
_cell_length_c   37.78300000
_cell_angle_alpha   90.00000000
_cell_angle_beta   90.00000000
_cell_angle_gamma   90.00000000
_symmetry_Int_Tables_number   1
_chemical_formula_structural   CdH32C47S(N2O3)2
_chemical_formula_sum   'Cd8 H256 C376 S8 N32 O48'
_cell_volume   17670.98811732
_cell_formula_units_Z   8
loop_
 _symmetry_equiv_pos_site_id
 _symmetry_equiv_pos_as_xyz
  1  'x, y, z'
loop_
 _atom_site_type_symbol
 _atom_site_label
 _atom_site_symmetry_multiplicity
 _atom_site_fract_x
 _atom_site_fract_y
 _atom_site_fract_z
 _atom_site_occupancy
 _atom_site_charge
  Cd  Cd1  1  0.526860  0.867320  0.273950  1.0  1.0177
  Cd  Cd2  1  0.385500  0.877090  0.200820  1.0  0.9864
  Cd  Cd3  1  0.973140  0.132680  0.773950  1.0  1.0165
  Cd  Cd4  1  0.114500  0.122910  0.700820  1.0  0.987
  Cd  Cd5  1  0.473140  0.367320  0.226050  1.0  1.0163
  Cd  Cd6  1  0.614500  0.377090  0.299180  1.0  0.9833
  Cd  Cd7  1  0.026860  0.632680  0.726050  1.0  1.0176
  Cd  Cd8  1  0.885500  0.622910  0.799180  1.0  0.9852
  H  H9  1  0.149500  0.521800  0.632700  1.0  0.0756
  H  H10  1  0.211000  0.518000  0.579700  1.0  0.1055
  H  H11  1  0.333500  0.642700  0.613900  1.0  0.1202
  H  H12  1  0.258900  0.641000  0.666667  1.0  0.079
  H  H13  1  0.698500  0.280600  0.417900  1.0  0.0941
  H  H14  1  0.626300  0.354100  0.420900  1.0  0.093
  H  H15  1  0.708900  0.393900  0.514300  1.0  0.1086
  H  H16  1  0.781800  0.315000  0.509200  1.0  0.0857
  H  H17  1  0.447500  0.840400  0.345500  1.0  0.0734
  H  H18  1  0.428400  0.774400  0.388200  1.0  0.1267
  H  H19  1  0.589100  0.692000  0.343400  1.0  0.1327
  H  H20  1  0.607800  0.762200  0.304900  1.0  0.0727
  H  H21  1  0.307500  0.500100  0.547000  1.0  0.1062
  H  H22  1  0.377600  0.493500  0.497100  1.0  0.1256
  H  H23  1  0.444100  0.641700  0.512100  1.0  0.1147
  H  H24  1  0.369800  0.649700  0.559600  1.0  0.1051
  H  H25  1  0.539100  0.516800  0.523000  1.0  0.12
  H  H26  1  0.617900  0.445400  0.521500  1.0  0.1196
  H  H27  1  0.586700  0.432000  0.416700  1.0  0.1091
  H  H28  1  0.507900  0.503400  0.418100  1.0  0.1016
  H  H29  1  0.586200  0.590600  0.438200  1.0  0.1135
  H  H30  1  0.604200  0.659400  0.399500  1.0  0.112
  H  H31  1  0.389400  0.695200  0.405100  1.0  0.1099
  H  H32  1  0.373000  0.625000  0.445600  1.0  0.1307
  H  H33  1  0.632900  0.961800  0.224500  1.0  0.1114
  H  H34  1  0.716800  0.028200  0.213700  1.0  0.1131
  H  H35  1  0.599400  0.079900  0.132100  1.0  0.0848
  H  H36  1  0.504200  0.018300  0.145000  1.0  0.1189
  H  H37  1  0.592100  0.157700  0.184300  1.0  0.1008
  H  H38  1  0.562500  0.231100  0.218000  1.0  0.0778
  H  H39  1  0.768200  0.265900  0.230400  1.0  0.1058
  H  H40  1  0.802200  0.189700  0.196600  1.0  0.1172
  H  H41  1  0.677100  0.466300  0.188100  1.0  0.1061
  H  H42  1  0.749900  0.535300  0.169100  1.0  0.1058
  H  H43  1  0.579200  0.600500  0.119700  1.0  0.0794
  H  H44  1  0.506400  0.531500  0.138700  1.0  0.1033
  H  H45  1  0.786300  0.657600  0.194700  1.0  0.1164
  H  H46  1  0.763000  0.726600  0.235700  1.0  0.1108
  H  H47  1  0.589500  0.769700  0.177700  1.0  0.0807
  H  H48  1  0.619700  0.708300  0.134400  1.0  0.1266
  H  H49  1  0.339800  0.963900  0.142600  1.0  0.0896
  H  H50  1  0.262000  0.979500  0.097300  1.0  0.1114
  H  H51  1  0.147700  0.851600  0.125700  1.0  0.1277
  H  H52  1  0.236500  0.836000  0.168700  1.0  0.0806
  H  H53  1  0.993400  0.652200  0.867400  1.0  0.0693
  H  H54  1  0.019800  0.712400  0.907000  1.0  0.116
  H  H55  1  0.888200  0.813200  0.854600  1.0  0.1289
  H  H56  1  0.855900  0.742100  0.820400  1.0  0.0714
  H  H57  1  0.847900  0.228000  0.899800  1.0  0.0845
  H  H58  1  0.915800  0.153200  0.907300  1.0  0.1232
  H  H59  1  0.811800  0.131600  0.999400  1.0  0.1179
  H  H60  1  0.759100  0.214500  0.989800  1.0  0.0648
  H  H61  1  0.190700  0.994600  0.056700  1.0  0.1267
  H  H62  1  0.114900  0.004600  0.007900  1.0  0.1169
  H  H63  1  0.033900  0.859800  0.024300  1.0  0.109
  H  H64  1  0.106600  0.847600  0.071900  1.0  0.1074
  H  H65  1  0.070700  0.786400  0.928600  1.0  0.1076
  H  H66  1  0.104600  0.859600  0.960000  1.0  0.102
  H  H67  1  0.908000  0.922700  0.942600  1.0  0.1053
  H  H68  1  0.881700  0.857400  0.903400  1.0  0.1135
  H  H69  1  0.945500  0.994200  0.023400  1.0  0.1221
  H  H70  1  0.877400  0.071400  0.012700  1.0  0.1238
  H  H71  1  0.956300  0.075800  0.914100  1.0  0.0998
  H  H72  1  0.030300  0.002400  0.926900  1.0  0.1168
  H  H73  1  0.350500  0.478200  0.132700  1.0  0.0764
  H  H74  1  0.289000  0.482000  0.079700  1.0  0.1057
  H  H75  1  0.166500  0.357300  0.113900  1.0  0.121
  H  H76  1  0.241100  0.359000  0.166700  1.0  0.0803
  H  H77  1  0.801500  0.719400  0.917900  1.0  0.0937
  H  H78  1  0.873700  0.645900  0.920900  1.0  0.0928
  H  H79  1  0.791100  0.606100  0.014300  1.0  0.1082
  H  H80  1  0.718200  0.685000  0.009200  1.0  0.0855
  H  H81  1  0.052500  0.159600  0.845500  1.0  0.0735
  H  H82  1  0.071600  0.225600  0.888200  1.0  0.1265
  H  H83  1  0.910900  0.308000  0.843400  1.0  0.1331
  H  H84  1  0.892200  0.237800  0.804900  1.0  0.0724
  H  H85  1  0.192500  0.499900  0.047000  1.0  0.1069
  H  H86  1  0.122400  0.506500  0.997100  1.0  0.1266
  H  H87  1  0.055900  0.358300  0.012100  1.0  0.1147
  H  H88  1  0.130200  0.350300  0.059600  1.0  0.1056
  H  H89  1  0.960900  0.483200  0.023000  1.0  0.1209
  H  H90  1  0.882100  0.554600  0.021500  1.0  0.1192
  H  H91  1  0.913300  0.568000  0.916700  1.0  0.1094
  H  H92  1  0.992100  0.496600  0.918100  1.0  0.1017
  H  H93  1  0.913800  0.409400  0.938200  1.0  0.1141
  H  H94  1  0.895800  0.340600  0.899500  1.0  0.1119
  H  H95  1  0.110600  0.304800  0.905100  1.0  0.1096
  H  H96  1  0.127000  0.375000  0.945600  1.0  0.1311
  H  H97  1  0.867100  0.038200  0.724500  1.0  0.1112
  H  H98  1  0.783200  0.971800  0.713700  1.0  0.1127
  H  H99  1  0.900600  0.920100  0.632100  1.0  0.0846
  H  H100  1  0.995800  0.981700  0.645000  1.0  0.1185
  H  H101  1  0.907900  0.842300  0.684300  1.0  0.1007
  H  H102  1  0.937500  0.768900  0.718000  1.0  0.0767
  H  H103  1  0.731800  0.734100  0.730400  1.0  0.1057
  H  H104  1  0.697800  0.810300  0.696600  1.0  0.1176
  H  H105  1  0.822900  0.533700  0.688100  1.0  0.1062
  H  H106  1  0.750100  0.464700  0.669100  1.0  0.1044
  H  H107  1  0.920800  0.399500  0.619700  1.0  0.0796
  H  H108  1  0.993600  0.468500  0.638700  1.0  0.1038
  H  H109  1  0.713700  0.342400  0.694700  1.0  0.1166
  H  H110  1  0.737000  0.273400  0.735700  1.0  0.1105
  H  H111  1  0.910500  0.230300  0.677700  1.0  0.0801
  H  H112  1  0.880300  0.291700  0.634400  1.0  0.1264
  H  H113  1  0.160200  0.036100  0.642600  1.0  0.0896
  H  H114  1  0.238000  0.020500  0.597300  1.0  0.111
  H  H115  1  0.352300  0.148400  0.625700  1.0  0.1277
  H  H116  1  0.263500  0.164000  0.668700  1.0  0.0807
  H  H117  1  0.506600  0.347800  0.367400  1.0  0.0698
  H  H118  1  0.480200  0.287600  0.407000  1.0  0.1165
  H  H119  1  0.611800  0.186800  0.354600  1.0  0.129
  H  H120  1  0.644100  0.257900  0.320400  1.0  0.0707
  H  H121  1  0.652100  0.772000  0.399800  1.0  0.085
  H  H122  1  0.584200  0.846800  0.407300  1.0  0.1235
  H  H123  1  0.688200  0.868400  0.499400  1.0  0.1187
  H  H124  1  0.740900  0.785500  0.489800  1.0  0.0649
  H  H125  1  0.309300  0.005400  0.556700  1.0  0.1255
  H  H126  1  0.385100  0.995400  0.507900  1.0  0.1168
  H  H127  1  0.466100  0.140200  0.524300  1.0  0.1104
  H  H128  1  0.393400  0.152400  0.571900  1.0  0.1082
  H  H129  1  0.429300  0.213600  0.428600  1.0  0.108
  H  H130  1  0.395400  0.140400  0.460000  1.0  0.1009
  H  H131  1  0.592000  0.077300  0.442600  1.0  0.105
  H  H132  1  0.618300  0.142600  0.403400  1.0  0.1128
  H  H133  1  0.554500  0.005800  0.523400  1.0  0.1205
  H  H134  1  0.622600  0.928600  0.512700  1.0  0.1241
  H  H135  1  0.543700  0.924200  0.414100  1.0  0.0995
  H  H136  1  0.469700  0.997600  0.426900  1.0  0.1163
  H  H137  1  0.850500  0.021800  0.867300  1.0  0.0756
  H  H138  1  0.789000  0.018000  0.920300  1.0  0.1061
  H  H139  1  0.666500  0.142700  0.886100  1.0  0.121
  H  H140  1  0.741100  0.141000  0.833300  1.0  0.0794
  H  H141  1  0.301500  0.780600  0.082100  1.0  0.0944
  H  H142  1  0.373700  0.854100  0.079100  1.0  0.0927
  H  H143  1  0.291100  0.893900  0.985700  1.0  0.1074
  H  H144  1  0.218200  0.815000  0.990800  1.0  0.0855
  H  H145  1  0.552500  0.340400  0.154500  1.0  0.0736
  H  H146  1  0.571600  0.274400  0.111800  1.0  0.1263
  H  H147  1  0.410900  0.192000  0.156600  1.0  0.1328
  H  H148  1  0.392200  0.262200  0.195100  1.0  0.0727
  H  H149  1  0.692500  0.000100  0.953000  1.0  0.107
  H  H150  1  0.622400  0.993500  0.002900  1.0  0.1253
  H  H151  1  0.555900  0.141700  0.987900  1.0  0.1149
  H  H152  1  0.630200  0.149700  0.940400  1.0  0.1055
  H  H153  1  0.460900  0.016800  0.977000  1.0  0.1209
  H  H154  1  0.382100  0.945400  0.978500  1.0  0.1188
  H  H155  1  0.413300  0.932000  0.083300  1.0  0.1084
  H  H156  1  0.492100  0.003400  0.081900  1.0  0.1017
  H  H157  1  0.413800  0.090600  0.061800  1.0  0.1144
  H  H158  1  0.395800  0.159400  0.100500  1.0  0.112
  H  H159  1  0.610600  0.195200  0.094900  1.0  0.1098
  H  H160  1  0.627000  0.125000  0.054400  1.0  0.1319
  H  H161  1  0.367100  0.461800  0.275500  1.0  0.111
  H  H162  1  0.283200  0.528200  0.286300  1.0  0.1126
  H  H163  1  0.400600  0.579900  0.367900  1.0  0.0847
  H  H164  1  0.495800  0.518300  0.355000  1.0  0.1182
  H  H165  1  0.407900  0.657700  0.315700  1.0  0.1012
  H  H166  1  0.437500  0.731100  0.282000  1.0  0.0773
  H  H167  1  0.231800  0.765900  0.269600  1.0  0.1056
  H  H168  1  0.197800  0.689700  0.303400  1.0  0.1174
  H  H169  1  0.322900  0.966300  0.311900  1.0  0.1052
  H  H170  1  0.250100  0.035300  0.330900  1.0  0.1039
  H  H171  1  0.420800  0.100500  0.380300  1.0  0.0791
  H  H172  1  0.493600  0.031500  0.361300  1.0  0.1035
  H  H173  1  0.213700  0.157600  0.305300  1.0  0.1159
  H  H174  1  0.237000  0.226600  0.264300  1.0  0.1103
  H  H175  1  0.410500  0.269700  0.322300  1.0  0.0803
  H  H176  1  0.380300  0.208300  0.365600  1.0  0.1272
  H  H177  1  0.660200  0.463900  0.357400  1.0  0.0903
  H  H178  1  0.738000  0.479500  0.402700  1.0  0.1108
  H  H179  1  0.852300  0.351600  0.374300  1.0  0.1275
  H  H180  1  0.763500  0.336000  0.331300  1.0  0.0798
  H  H181  1  0.006600  0.152200  0.632600  1.0  0.069
  H  H182  1  0.980200  0.212400  0.593000  1.0  0.1157
  H  H183  1  0.111800  0.313200  0.645400  1.0  0.1284
  H  H184  1  0.144100  0.242100  0.679600  1.0  0.0713
  H  H185  1  0.152100  0.728000  0.600200  1.0  0.0837
  H  H186  1  0.084200  0.653200  0.592700  1.0  0.1229
  H  H187  1  0.188200  0.631600  0.500600  1.0  0.1189
  H  H188  1  0.240900  0.714500  0.510200  1.0  0.0649
  H  H189  1  0.809300  0.494600  0.443300  1.0  0.1259
  H  H190  1  0.885100  0.504600  0.492100  1.0  0.1167
  H  H191  1  0.966100  0.359800  0.475700  1.0  0.1085
  H  H192  1  0.893400  0.347600  0.428100  1.0  0.1077
  H  H193  1  0.929300  0.286400  0.571400  1.0  0.1072
  H  H194  1  0.895400  0.359600  0.540000  1.0  0.101
  H  H195  1  0.092000  0.422700  0.557400  1.0  0.1045
  H  H196  1  0.118300  0.357400  0.596600  1.0  0.1127
  H  H197  1  0.054500  0.494200  0.476600  1.0  0.1209
  H  H198  1  0.122600  0.571400  0.487300  1.0  0.123
  H  H199  1  0.043700  0.575800  0.585900  1.0  0.0995
  H  H200  1  0.969700  0.502400  0.573100  1.0  0.1157
  H  H201  1  0.649500  0.978200  0.367300  1.0  0.0756
  H  H202  1  0.711000  0.982000  0.420300  1.0  0.1057
  H  H203  1  0.833500  0.857300  0.386100  1.0  0.1207
  H  H204  1  0.758900  0.859000  0.333333  1.0  0.0795
  H  H205  1  0.198500  0.219400  0.582100  1.0  0.0934
  H  H206  1  0.126300  0.145900  0.579100  1.0  0.0926
  H  H207  1  0.208900  0.106100  0.485700  1.0  0.1078
  H  H208  1  0.281800  0.185000  0.490800  1.0  0.0851
  H  H209  1  0.947500  0.659600  0.654500  1.0  0.073
  H  H210  1  0.928400  0.725600  0.611800  1.0  0.126
  H  H211  1  0.089100  0.808000  0.656600  1.0  0.1324
  H  H212  1  0.107800  0.737800  0.695100  1.0  0.0728
  H  H213  1  0.807500  0.999900  0.453000  1.0  0.1067
  H  H214  1  0.877600  0.006500  0.502900  1.0  0.1259
  H  H215  1  0.944100  0.858300  0.487900  1.0  0.1144
  H  H216  1  0.869800  0.850300  0.440400  1.0  0.1054
  H  H217  1  0.039100  0.983200  0.477000  1.0  0.1203
  H  H218  1  0.117900  0.054600  0.478500  1.0  0.1192
  H  H219  1  0.086700  0.068000  0.583300  1.0  0.1088
  H  H220  1  0.007900  0.996600  0.581900  1.0  0.1015
  H  H221  1  0.086200  0.909400  0.561800  1.0  0.114
  H  H222  1  0.104200  0.840600  0.600500  1.0  0.112
  H  H223  1  0.889400  0.804800  0.594900  1.0  0.1099
  H  H224  1  0.873000  0.875000  0.554400  1.0  0.1308
  H  H225  1  0.132900  0.538200  0.775500  1.0  0.1112
  H  H226  1  0.216800  0.471800  0.786300  1.0  0.113
  H  H227  1  0.099400  0.420100  0.867900  1.0  0.0842
  H  H228  1  0.004200  0.481700  0.855000  1.0  0.1186
  H  H229  1  0.092100  0.342300  0.815700  1.0  0.1015
  H  H230  1  0.062500  0.268900  0.782000  1.0  0.0784
  H  H231  1  0.268200  0.234100  0.769600  1.0  0.1054
  H  H232  1  0.302200  0.310300  0.803400  1.0  0.1166
  H  H233  1  0.177100  0.033700  0.811900  1.0  0.1069
  H  H234  1  0.249900  0.964700  0.830900  1.0  0.106
  H  H235  1  0.079200  0.899500  0.880300  1.0  0.0792
  H  H236  1  0.006400  0.968500  0.861300  1.0  0.1038
  H  H237  1  0.286300  0.842400  0.805300  1.0  0.1167
  H  H238  1  0.263000  0.773400  0.764300  1.0  0.1109
  H  H239  1  0.089500  0.730300  0.822300  1.0  0.0805
  H  H240  1  0.119700  0.791700  0.865600  1.0  0.1266
  H  H241  1  0.839800  0.536100  0.857400  1.0  0.0891
  H  H242  1  0.762000  0.520500  0.902700  1.0  0.1119
  H  H243  1  0.647700  0.648400  0.874300  1.0  0.1282
  H  H244  1  0.736500  0.664000  0.831300  1.0  0.0796
  H  H245  1  0.493400  0.847800  0.132600  1.0  0.0698
  H  H246  1  0.519800  0.787600  0.093000  1.0  0.1163
  H  H247  1  0.388200  0.686800  0.145400  1.0  0.1282
  H  H248  1  0.355900  0.757900  0.179600  1.0  0.0704
  H  H249  1  0.347900  0.272000  0.100200  1.0  0.0842
  H  H250  1  0.415800  0.346800  0.092700  1.0  0.1231
  H  H251  1  0.311800  0.368400  0.000600  1.0  0.1182
  H  H252  1  0.259100  0.285500  0.010200  1.0  0.0645
  H  H253  1  0.690700  0.505400  0.943300  1.0  0.1255
  H  H254  1  0.614900  0.495400  0.992100  1.0  0.1169
  H  H255  1  0.533900  0.640200  0.975700  1.0  0.1109
  H  H256  1  0.606600  0.652400  0.928100  1.0  0.1078
  H  H257  1  0.570700  0.713600  0.071400  1.0  0.1086
  H  H258  1  0.604600  0.640400  0.040000  1.0  0.1019
  H  H259  1  0.408000  0.577300  0.057400  1.0  0.1046
  H  H260  1  0.381700  0.642600  0.096600  1.0  0.1132
  H  H261  1  0.445500  0.505800  0.976600  1.0  0.121
  H  H262  1  0.377400  0.428600  0.987300  1.0  0.1233
  H  H263  1  0.456300  0.424200  0.085900  1.0  0.0996
  H  H264  1  0.530300  0.497600  0.073100  1.0  0.1163
  C  C265  1  0.185700  0.546500  0.628280  1.0  0.163
  C  C266  1  0.223900  0.542900  0.596650  1.0  -0.1693
  C  C267  1  0.285000  0.579000  0.590280  1.0  0.0613
  C  C268  1  0.297200  0.617500  0.616580  1.0  -0.1255
  C  C269  1  0.250300  0.616700  0.648740  1.0  0.1877
  C  C270  1  0.700600  0.302400  0.437660  1.0  0.1655
  C  C271  1  0.657600  0.347300  0.439600  1.0  -0.1282
  C  C272  1  0.658400  0.384500  0.469020  1.0  0.0593
  C  C273  1  0.704400  0.372300  0.494520  1.0  -0.1501
  C  C274  1  0.749100  0.323300  0.491300  1.0  0.1441
  C  C275  1  0.476300  0.810300  0.344860  1.0  0.1632
  C  C276  1  0.464300  0.770400  0.371120  1.0  -0.1927
  C  C277  1  0.506200  0.727300  0.370350  1.0  0.0675
  C  C278  1  0.560400  0.722000  0.344640  1.0  -0.2063
  C  C279  1  0.569400  0.764100  0.320810  1.0  0.1802
  C  C280  1  0.327200  0.576000  0.558250  1.0  0.0417
  C  C281  1  0.333500  0.529400  0.539440  1.0  -0.1175
  C  C282  1  0.377000  0.524800  0.509930  1.0  -0.2172
  C  C283  1  0.419600  0.566900  0.499400  1.0  0.2224
  C  C284  1  0.415600  0.613100  0.518720  1.0  -0.2446
  C  C285  1  0.371100  0.617900  0.547210  1.0  -0.1731
  C  C286  1  0.548700  0.499800  0.501700  1.0  -0.194
  C  C287  1  0.595900  0.457100  0.500800  1.0  -0.1293
  C  C288  1  0.610100  0.431700  0.468940  1.0  0.0336
  C  C289  1  0.577200  0.449000  0.437970  1.0  -0.1098
  C  C290  1  0.530000  0.491700  0.438870  1.0  -0.1781
  C  C291  1  0.515700  0.517100  0.470730  1.0  0.156
  C  C292  1  0.547600  0.612100  0.431830  1.0  -0.1973
  C  C293  1  0.557800  0.652500  0.408000  1.0  -0.1383
  C  C294  1  0.499100  0.684000  0.396140  1.0  0.0249
  C  C295  1  0.428600  0.674100  0.411520  1.0  -0.1118
  C  C296  1  0.418600  0.632400  0.436380  1.0  -0.1484
  C  C297  1  0.478800  0.603400  0.446400  1.0  0.1482
  C  C298  1  0.507200  0.940700  0.193750  1.0  0.6905
  C  C299  1  0.563800  0.982500  0.185040  1.0  -0.1202
  C  C300  1  0.625500  0.985800  0.206240  1.0  -0.0526
  C  C301  1  0.675600  0.025300  0.199710  1.0  -0.0448
  C  C302  1  0.664100  0.059600  0.172870  1.0  -0.0955
  C  C303  1  0.603600  0.056800  0.151150  1.0  -0.0642
  C  C304  1  0.547500  0.019000  0.157610  1.0  -0.1033
  C  C305  1  0.698400  0.164700  0.189590  1.0  -0.0809
  C  C306  1  0.628700  0.178100  0.194280  1.0  -0.056
  C  C307  1  0.611100  0.223100  0.214200  1.0  -0.0314
  C  C308  1  0.661400  0.254400  0.227830  1.0  -0.0781
  C  C309  1  0.732700  0.243400  0.221560  1.0  -0.0683
  C  C310  1  0.753900  0.197200  0.201410  1.0  -0.099
  C  C311  1  0.642400  0.300300  0.249170  1.0  0.7141
  C  C312  1  0.538300  0.448400  0.176840  1.0  0.7135
  C  C313  1  0.584500  0.492100  0.165320  1.0  -0.112
  C  C314  1  0.657500  0.493200  0.174430  1.0  -0.0675
  C  C315  1  0.701100  0.534500  0.163030  1.0  -0.0459
  C  C316  1  0.671800  0.574800  0.142520  1.0  -0.2053
  C  C317  1  0.598800  0.573600  0.133420  1.0  -0.0172
  C  C318  1  0.555200  0.532300  0.144820  1.0  -0.0734
  C  C319  1  0.705700  0.678000  0.161320  1.0  -0.0214
  C  C320  1  0.748300  0.681200  0.191070  1.0  -0.0658
  C  C321  1  0.732700  0.721700  0.216320  1.0  -0.0829
  C  C322  1  0.670800  0.754400  0.211670  1.0  -0.1211
  C  C323  1  0.629800  0.748200  0.181040  1.0  -0.0222
  C  C324  1  0.646800  0.710900  0.155120  1.0  -0.0943
  C  C325  1  0.649600  0.795800  0.236810  1.0  0.7101
  C  C326  1  0.300700  0.941200  0.139520  1.0  0.1782
  C  C327  1  0.255400  0.949900  0.111500  1.0  -0.1894
  C  C328  1  0.200300  0.915100  0.104140  1.0  0.0545
  C  C329  1  0.187800  0.873600  0.127870  1.0  -0.1561
  C  C330  1  0.239300  0.866600  0.155270  1.0  0.1739
  C  C331  1  0.970700  0.684900  0.865210  1.0  0.183
  C  C332  1  0.988200  0.720700  0.888600  1.0  -0.18
  C  C333  1  0.958600  0.773000  0.885800  1.0  0.0937
  C  C334  1  0.909300  0.780400  0.858530  1.0  -0.283
  C  C335  1  0.892300  0.737400  0.837110  1.0  0.1835
  C  C336  1  0.842900  0.208400  0.920500  1.0  0.1624
  C  C337  1  0.882800  0.163400  0.924500  1.0  -0.2068
  C  C338  1  0.873300  0.133500  0.954620  1.0  0.0592
  C  C339  1  0.822900  0.151100  0.979300  1.0  -0.2395
  C  C340  1  0.789000  0.200500  0.972340  1.0  0.1796
  C  C341  1  0.155500  0.918900  0.071020  1.0  0.0137
  C  C342  1  0.159100  0.967700  0.050240  1.0  -0.123
  C  C343  1  0.114800  0.973300  0.020670  1.0  -0.1571
  C  C344  1  0.069700  0.931200  0.010140  1.0  0.185
  C  C345  1  0.066400  0.886300  0.030560  1.0  -0.2118
  C  C346  1  0.108700  0.879200  0.059560  1.0  -0.1556
  C  C347  1  0.973700  0.813900  0.910870  1.0  0.0402
  C  C348  1  0.039300  0.815000  0.930090  1.0  -0.1372
  C  C349  1  0.058000  0.857100  0.950770  1.0  -0.1669
  C  C350  1  0.006700  0.896600  0.958020  1.0  0.1284
  C  C351  1  0.941300  0.895600  0.939180  1.0  -0.1675
  C  C352  1  0.925000  0.856300  0.915990  1.0  -0.1652
  C  C353  1  0.988600  0.989900  0.975400  1.0  0.2143
  C  C354  1  0.947500  0.010600  0.001410  1.0  -0.1693
  C  C355  1  0.907200  0.057500  0.995210  1.0  -0.1306
  C  C356  1  0.913200  0.082800  0.961940  1.0  -0.0098
  C  C357  1  0.955100  0.060700  0.936550  1.0  -0.1082
  C  C358  1  0.997500  0.015000  0.943500  1.0  -0.2163
  C  C359  1  0.314300  0.453500  0.128280  1.0  0.163
  C  C360  1  0.276100  0.457100  0.096650  1.0  -0.1724
  C  C361  1  0.215000  0.421000  0.090280  1.0  0.0623
  C  C362  1  0.202800  0.382500  0.116580  1.0  -0.1292
  C  C363  1  0.249700  0.383300  0.148740  1.0  0.1876
  C  C364  1  0.799400  0.697600  0.937660  1.0  0.1668
  C  C365  1  0.842400  0.652700  0.939600  1.0  -0.1285
  C  C366  1  0.841600  0.615500  0.969020  1.0  0.0603
  C  C367  1  0.795600  0.627700  0.994520  1.0  -0.1506
  C  C368  1  0.750900  0.676700  0.991300  1.0  0.1435
  C  C369  1  0.023700  0.189700  0.844860  1.0  0.1637
  C  C370  1  0.035700  0.229600  0.871120  1.0  -0.1924
  C  C371  1  0.993800  0.272700  0.870350  1.0  0.0672
  C  C372  1  0.939600  0.278000  0.844640  1.0  -0.2062
  C  C373  1  0.930600  0.235900  0.820810  1.0  0.1797
  C  C374  1  0.172800  0.424000  0.058250  1.0  0.042
  C  C375  1  0.166500  0.470600  0.039440  1.0  -0.1162
  C  C376  1  0.123000  0.475200  0.009930  1.0  -0.2188
  C  C377  1  0.080400  0.433100  0.999400  1.0  0.2223
  C  C378  1  0.084400  0.386900  0.018720  1.0  -0.2445
  C  C379  1  0.128900  0.382100  0.047210  1.0  -0.1698
  C  C380  1  0.951300  0.500200  0.001700  1.0  -0.1922
  C  C381  1  0.904100  0.542900  0.000800  1.0  -0.1304
  C  C382  1  0.889900  0.568300  0.968940  1.0  0.034
  C  C383  1  0.922800  0.551000  0.937970  1.0  -0.1106
  C  C384  1  0.970000  0.508300  0.938870  1.0  -0.1769
  C  C385  1  0.984300  0.482900  0.970730  1.0  0.1557
  C  C386  1  0.952400  0.387900  0.931830  1.0  -0.1987
  C  C387  1  0.942200  0.347500  0.908000  1.0  -0.139
  C  C388  1  0.000900  0.316000  0.896140  1.0  0.026
  C  C389  1  0.071400  0.325900  0.911520  1.0  -0.1107
  C  C390  1  0.081400  0.367600  0.936380  1.0  -0.15
  C  C391  1  0.021200  0.396600  0.946400  1.0  0.1476
  C  C392  1  0.992800  0.059300  0.693750  1.0  0.6904
  C  C393  1  0.936200  0.017500  0.685040  1.0  -0.1204
  C  C394  1  0.874500  0.014200  0.706240  1.0  -0.0531
  C  C395  1  0.824400  0.974700  0.699710  1.0  -0.047
  C  C396  1  0.835900  0.940400  0.672870  1.0  -0.0945
  C  C397  1  0.896400  0.943200  0.651150  1.0  -0.0636
  C  C398  1  0.952500  0.981000  0.657610  1.0  -0.1022
  C  C399  1  0.801600  0.835300  0.689590  1.0  -0.0794
  C  C400  1  0.871300  0.821900  0.694280  1.0  -0.0554
  C  C401  1  0.888900  0.776900  0.714200  1.0  -0.0318
  C  C402  1  0.838600  0.745600  0.727830  1.0  -0.0768
  C  C403  1  0.767300  0.756600  0.721560  1.0  -0.0709
  C  C404  1  0.746100  0.802800  0.701410  1.0  -0.1024
  C  C405  1  0.857600  0.699700  0.749170  1.0  0.7144
  C  C406  1  0.961700  0.551600  0.676840  1.0  0.715
  C  C407  1  0.915500  0.507900  0.665320  1.0  -0.1128
  C  C408  1  0.842500  0.506800  0.674430  1.0  -0.069
  C  C409  1  0.798900  0.465500  0.663030  1.0  -0.0467
  C  C410  1  0.828200  0.425200  0.642520  1.0  -0.2054
  C  C411  1  0.901200  0.426400  0.633420  1.0  -0.0193
  C  C412  1  0.944800  0.467700  0.644820  1.0  -0.0709
  C  C413  1  0.794300  0.322000  0.661320  1.0  -0.0212
  C  C414  1  0.751700  0.318800  0.691070  1.0  -0.0673
  C  C415  1  0.767300  0.278300  0.716320  1.0  -0.0841
  C  C416  1  0.829200  0.245600  0.711670  1.0  -0.1206
  C  C417  1  0.870200  0.251800  0.681040  1.0  -0.0245
  C  C418  1  0.853200  0.289100  0.655120  1.0  -0.0949
  C  C419  1  0.850400  0.204200  0.736810  1.0  0.7059
  C  C420  1  0.199300  0.058800  0.639520  1.0  0.1785
  C  C421  1  0.244600  0.050100  0.611500  1.0  -0.19
  C  C422  1  0.299700  0.084900  0.604140  1.0  0.0556
  C  C423  1  0.312200  0.126400  0.627870  1.0  -0.1501
  C  C424  1  0.260700  0.133400  0.655270  1.0  0.1738
  C  C425  1  0.529300  0.315100  0.365210  1.0  0.1852
  C  C426  1  0.511800  0.279300  0.388600  1.0  -0.1807
  C  C427  1  0.541400  0.227000  0.385800  1.0  0.0934
  C  C428  1  0.590700  0.219600  0.358530  1.0  -0.2813
  C  C429  1  0.607700  0.262600  0.337110  1.0  0.1841
  C  C430  1  0.657100  0.791600  0.420500  1.0  0.1633
  C  C431  1  0.617200  0.836600  0.424500  1.0  -0.2076
  C  C432  1  0.626700  0.866500  0.454620  1.0  0.0574
  C  C433  1  0.677100  0.848900  0.479300  1.0  -0.238
  C  C434  1  0.711000  0.799500  0.472340  1.0  0.1787
  C  C435  1  0.344500  0.081100  0.571020  1.0  0.0137
  C  C436  1  0.340900  0.032300  0.550240  1.0  -0.1252
  C  C437  1  0.385200  0.026700  0.520670  1.0  -0.1569
  C  C438  1  0.430300  0.068800  0.510140  1.0  0.1851
  C  C439  1  0.433600  0.113700  0.530560  1.0  -0.2132
  C  C440  1  0.391300  0.120800  0.559560  1.0  -0.1569
  C  C441  1  0.526300  0.186100  0.410870  1.0  0.0405
  C  C442  1  0.460700  0.185000  0.430090  1.0  -0.1387
  C  C443  1  0.442000  0.142900  0.450770  1.0  -0.1651
  C  C444  1  0.493300  0.103400  0.458020  1.0  0.1288
  C  C445  1  0.558700  0.104400  0.439180  1.0  -0.1667
  C  C446  1  0.575000  0.143700  0.415990  1.0  -0.1649
  C  C447  1  0.511400  0.010100  0.475400  1.0  0.2142
  C  C448  1  0.552500  0.989400  0.501410  1.0  -0.1679
  C  C449  1  0.592800  0.942500  0.495210  1.0  -0.1299
  C  C450  1  0.586800  0.917200  0.461940  1.0  -0.0084
  C  C451  1  0.544900  0.939300  0.436550  1.0  -0.1094
  C  C452  1  0.502500  0.985000  0.443500  1.0  -0.2163
  C  C453  1  0.814300  0.046500  0.871720  1.0  0.1613
  C  C454  1  0.776100  0.042900  0.903350  1.0  -0.1715
  C  C455  1  0.715000  0.079000  0.909720  1.0  0.061
  C  C456  1  0.702800  0.117500  0.883420  1.0  -0.1256
  C  C457  1  0.749700  0.116700  0.851260  1.0  0.187
  C  C458  1  0.299400  0.802400  0.062340  1.0  0.1679
  C  C459  1  0.342400  0.847300  0.060400  1.0  -0.1305
  C  C460  1  0.341600  0.884500  0.030980  1.0  0.0585
  C  C461  1  0.295600  0.872300  0.005480  1.0  -0.1505
  C  C462  1  0.250900  0.823300  0.008700  1.0  0.1438
  C  C463  1  0.523700  0.310300  0.155140  1.0  0.1646
  C  C464  1  0.535700  0.270400  0.128880  1.0  -0.1932
  C  C465  1  0.493800  0.227300  0.129650  1.0  0.0675
  C  C466  1  0.439600  0.222000  0.155360  1.0  -0.206
  C  C467  1  0.430600  0.264100  0.179190  1.0  0.181
  C  C468  1  0.672800  0.076000  0.941750  1.0  0.0422
  C  C469  1  0.666500  0.029400  0.960560  1.0  -0.1177
  C  C470  1  0.623000  0.024800  0.990070  1.0  -0.2176
  C  C471  1  0.580400  0.066900  0.000600  1.0  0.222
  C  C472  1  0.584400  0.113100  0.981280  1.0  -0.245
  C  C473  1  0.628900  0.117900  0.952790  1.0  -0.1705
  C  C474  1  0.451300  0.999800  0.998300  1.0  -0.1914
  C  C475  1  0.404100  0.957100  0.999200  1.0  -0.1249
  C  C476  1  0.389900  0.931700  0.031060  1.0  0.0342
  C  C477  1  0.422800  0.949000  0.062030  1.0  -0.1116
  C  C478  1  0.470000  0.991700  0.061130  1.0  -0.1771
  C  C479  1  0.484300  0.017100  0.029270  1.0  0.1552
  C  C480  1  0.452400  0.112100  0.068170  1.0  -0.1993
  C  C481  1  0.442200  0.152500  0.092000  1.0  -0.1393
  C  C482  1  0.500900  0.184000  0.103860  1.0  0.0252
  C  C483  1  0.571400  0.174100  0.088480  1.0  -0.1113
  C  C484  1  0.581400  0.132400  0.063620  1.0  -0.1501
  C  C485  1  0.521200  0.103400  0.053600  1.0  0.1475
  C  C486  1  0.492800  0.440700  0.306250  1.0  0.6895
  C  C487  1  0.436200  0.482500  0.314960  1.0  -0.1212
  C  C488  1  0.374500  0.485800  0.293760  1.0  -0.0527
  C  C489  1  0.324400  0.525300  0.300290  1.0  -0.0468
  C  C490  1  0.335900  0.559600  0.327130  1.0  -0.0948
  C  C491  1  0.396400  0.556800  0.348850  1.0  -0.0646
  C  C492  1  0.452500  0.519000  0.342390  1.0  -0.1023
  C  C493  1  0.301600  0.664700  0.310410  1.0  -0.0791
  C  C494  1  0.371300  0.678100  0.305720  1.0  -0.055
  C  C495  1  0.388900  0.723100  0.285800  1.0  -0.0314
  C  C496  1  0.338600  0.754400  0.272170  1.0  -0.0763
  C  C497  1  0.267300  0.743400  0.278440  1.0  -0.0715
  C  C498  1  0.246100  0.697200  0.298590  1.0  -0.1028
  C  C499  1  0.357600  0.800300  0.250830  1.0  0.7157
  C  C500  1  0.461700  0.948400  0.323160  1.0  0.7143
  C  C501  1  0.415500  0.992100  0.334680  1.0  -0.1136
  C  C502  1  0.342500  0.993200  0.325570  1.0  -0.068
  C  C503  1  0.298900  0.034500  0.336970  1.0  -0.0469
  C  C504  1  0.328200  0.074800  0.357480  1.0  -0.2051
  C  C505  1  0.401200  0.073600  0.366580  1.0  -0.0186
  C  C506  1  0.444800  0.032300  0.355180  1.0  -0.0702
  C  C507  1  0.294300  0.178000  0.338680  1.0  -0.0202
  C  C508  1  0.251700  0.181200  0.308930  1.0  -0.0671
  C  C509  1  0.267300  0.221700  0.283680  1.0  -0.0824
  C  C510  1  0.329200  0.254400  0.288330  1.0  -0.1203
  C  C511  1  0.370200  0.248200  0.318960  1.0  -0.0241
  C  C512  1  0.353200  0.210900  0.344880  1.0  -0.0939
  C  C513  1  0.350400  0.295800  0.263190  1.0  0.7043
  C  C514  1  0.699300  0.441200  0.360480  1.0  0.1812
  C  C515  1  0.744600  0.449900  0.388500  1.0  -0.1891
  C  C516  1  0.799700  0.415100  0.395860  1.0  0.0543
  C  C517  1  0.812200  0.373600  0.372130  1.0  -0.1503
  C  C518  1  0.760700  0.366600  0.344730  1.0  0.1718
  C  C519  1  0.029300  0.184900  0.634790  1.0  0.1842
  C  C520  1  0.011800  0.220700  0.611400  1.0  -0.1796
  C  C521  1  0.041400  0.273000  0.614200  1.0  0.0939
  C  C522  1  0.090700  0.280400  0.641470  1.0  -0.2816
  C  C523  1  0.107700  0.237400  0.662890  1.0  0.1835
  C  C524  1  0.157100  0.708400  0.579500  1.0  0.163
  C  C525  1  0.117200  0.663400  0.575500  1.0  -0.2072
  C  C526  1  0.126700  0.633500  0.545380  1.0  0.0567
  C  C527  1  0.177100  0.651100  0.520700  1.0  -0.2358
  C  C528  1  0.211000  0.700500  0.527660  1.0  0.1833
  C  C529  1  0.844500  0.418900  0.428980  1.0  0.0152
  C  C530  1  0.840900  0.467700  0.449760  1.0  -0.125
  C  C531  1  0.885200  0.473300  0.479330  1.0  -0.1558
  C  C532  1  0.930300  0.431200  0.489860  1.0  0.1846
  C  C533  1  0.933600  0.386300  0.469440  1.0  -0.2109
  C  C534  1  0.891300  0.379200  0.440440  1.0  -0.157
  C  C535  1  0.026300  0.313900  0.589130  1.0  0.041
  C  C536  1  0.960700  0.315000  0.569910  1.0  -0.1379
  C  C537  1  0.942000  0.357100  0.549230  1.0  -0.1649
  C  C538  1  0.993300  0.396600  0.541980  1.0  0.1294
  C  C539  1  0.058700  0.395600  0.560820  1.0  -0.1669
  C  C540  1  0.075000  0.356300  0.584010  1.0  -0.1641
  C  C541  1  0.011400  0.489900  0.524600  1.0  0.2125
  C  C542  1  0.052500  0.510600  0.498590  1.0  -0.1676
  C  C543  1  0.092800  0.557500  0.504790  1.0  -0.1246
  C  C544  1  0.086800  0.582800  0.538060  1.0  -0.0092
  C  C545  1  0.044900  0.560700  0.563450  1.0  -0.1081
  C  C546  1  0.002500  0.515000  0.556500  1.0  -0.2174
  C  C547  1  0.685700  0.953500  0.371720  1.0  0.1617
  C  C548  1  0.723900  0.957100  0.403350  1.0  -0.1717
  C  C549  1  0.785000  0.921000  0.409720  1.0  0.0622
  C  C550  1  0.797200  0.882500  0.383420  1.0  -0.123
  C  C551  1  0.750300  0.883300  0.351260  1.0  0.1867
  C  C552  1  0.200600  0.197600  0.562340  1.0  0.1672
  C  C553  1  0.157600  0.152700  0.560400  1.0  -0.1294
  C  C554  1  0.158400  0.115500  0.530980  1.0  0.0593
  C  C555  1  0.204400  0.127700  0.505480  1.0  -0.1491
  C  C556  1  0.249100  0.176700  0.508700  1.0  0.1433
  C  C557  1  0.976300  0.689700  0.655140  1.0  0.1637
  C  C558  1  0.964300  0.729600  0.628880  1.0  -0.1936
  C  C559  1  0.006200  0.772700  0.629650  1.0  0.0674
  C  C560  1  0.060400  0.778000  0.655360  1.0  -0.2075
  C  C561  1  0.069400  0.735900  0.679190  1.0  0.1803
  C  C562  1  0.827200  0.924000  0.441750  1.0  0.0429
  C  C563  1  0.833500  0.970600  0.460560  1.0  -0.1161
  C  C564  1  0.877000  0.975200  0.490070  1.0  -0.2168
  C  C565  1  0.919600  0.933100  0.500600  1.0  0.2221
  C  C566  1  0.915600  0.886900  0.481280  1.0  -0.2445
  C  C567  1  0.871100  0.882100  0.452790  1.0  -0.1726
  C  C568  1  0.048700  0.000200  0.498300  1.0  -0.1922
  C  C569  1  0.095900  0.042900  0.499200  1.0  -0.1245
  C  C570  1  0.110100  0.068300  0.531060  1.0  0.0337
  C  C571  1  0.077200  0.051000  0.562030  1.0  -0.1102
  C  C572  1  0.030000  0.008300  0.561130  1.0  -0.178
  C  C573  1  0.015700  0.982900  0.529270  1.0  0.1549
  C  C574  1  0.047600  0.887900  0.568170  1.0  -0.1968
  C  C575  1  0.057800  0.847500  0.592000  1.0  -0.1386
  C  C576  1  0.999100  0.816000  0.603860  1.0  0.0234
  C  C577  1  0.928600  0.825900  0.588480  1.0  -0.1118
  C  C578  1  0.918600  0.867600  0.563620  1.0  -0.1487
  C  C579  1  0.978800  0.896600  0.553600  1.0  0.148
  C  C580  1  0.007200  0.559300  0.806250  1.0  0.6905
  C  C581  1  0.063800  0.517500  0.814960  1.0  -0.1194
  C  C582  1  0.125500  0.514200  0.793760  1.0  -0.0536
  C  C583  1  0.175600  0.474700  0.800290  1.0  -0.0464
  C  C584  1  0.164100  0.440400  0.827130  1.0  -0.0955
  C  C585  1  0.103600  0.443200  0.848850  1.0  -0.0644
  C  C586  1  0.047500  0.481000  0.842390  1.0  -0.1031
  C  C587  1  0.198400  0.335300  0.810410  1.0  -0.0815
  C  C588  1  0.128700  0.321900  0.805720  1.0  -0.0555
  C  C589  1  0.111100  0.276900  0.785800  1.0  -0.0308
  C  C590  1  0.161400  0.245600  0.772170  1.0  -0.0777
  C  C591  1  0.232700  0.256600  0.778440  1.0  -0.0698
  C  C592  1  0.253900  0.302800  0.798590  1.0  -0.0986
  C  C593  1  0.142400  0.199700  0.750830  1.0  0.715
  C  C594  1  0.038300  0.051600  0.823160  1.0  0.7142
  C  C595  1  0.084500  0.007900  0.834680  1.0  -0.1125
  C  C596  1  0.157500  0.006800  0.825570  1.0  -0.0707
  C  C597  1  0.201100  0.965500  0.836970  1.0  -0.0458
  C  C598  1  0.171800  0.925200  0.857480  1.0  -0.2054
  C  C599  1  0.098800  0.926400  0.866580  1.0  -0.0173
  C  C600  1  0.055200  0.967700  0.855180  1.0  -0.0723
  C  C601  1  0.205700  0.822000  0.838680  1.0  -0.0219
  C  C602  1  0.248300  0.818800  0.808930  1.0  -0.0648
  C  C603  1  0.232700  0.778300  0.783680  1.0  -0.0825
  C  C604  1  0.170800  0.745600  0.788330  1.0  -0.1214
  C  C605  1  0.129800  0.751800  0.818960  1.0  -0.0227
  C  C606  1  0.146800  0.789100  0.844880  1.0  -0.0934
  C  C607  1  0.149600  0.704200  0.763190  1.0  0.7115
  C  C608  1  0.800700  0.558800  0.860480  1.0  0.1801
  C  C609  1  0.755400  0.550100  0.888500  1.0  -0.19
  C  C610  1  0.700300  0.584900  0.895860  1.0  0.0539
  C  C611  1  0.687800  0.626400  0.872130  1.0  -0.1558
  C  C612  1  0.739300  0.633400  0.844730  1.0  0.1723
  C  C613  1  0.470700  0.815100  0.134790  1.0  0.1841
  C  C614  1  0.488200  0.779300  0.111400  1.0  -0.1805
  C  C615  1  0.458600  0.727000  0.114200  1.0  0.0934
  C  C616  1  0.409300  0.719600  0.141470  1.0  -0.2825
  C  C617  1  0.392300  0.762600  0.162890  1.0  0.184
  C  C618  1  0.342900  0.291600  0.079500  1.0  0.1635
  C  C619  1  0.382800  0.336600  0.075500  1.0  -0.207
  C  C620  1  0.373300  0.366500  0.045380  1.0  0.0571
  C  C621  1  0.322900  0.348900  0.020700  1.0  -0.2358
  C  C622  1  0.289000  0.299500  0.027660  1.0  0.1825
  C  C623  1  0.655500  0.581100  0.928980  1.0  0.0128
  C  C624  1  0.659100  0.532300  0.949760  1.0  -0.1239
  C  C625  1  0.614800  0.526700  0.979330  1.0  -0.1576
  C  C626  1  0.569700  0.568800  0.989860  1.0  0.1851
  C  C627  1  0.566400  0.613700  0.969440  1.0  -0.2123
  C  C628  1  0.608700  0.620800  0.940440  1.0  -0.1554
  C  C629  1  0.473700  0.686100  0.089130  1.0  0.0406
  C  C630  1  0.539300  0.685000  0.069910  1.0  -0.1372
  C  C631  1  0.558000  0.642900  0.049230  1.0  -0.1664
  C  C632  1  0.506700  0.603400  0.041980  1.0  0.1288
  C  C633  1  0.441300  0.604400  0.060820  1.0  -0.1679
  C  C634  1  0.425000  0.643700  0.084010  1.0  -0.1657
  C  C635  1  0.488600  0.510100  0.024600  1.0  0.2128
  C  C636  1  0.447500  0.489400  0.998590  1.0  -0.1658
  C  C637  1  0.407200  0.442500  0.004790  1.0  -0.1233
  C  C638  1  0.413200  0.417200  0.038060  1.0  -0.011
  C  C639  1  0.455100  0.439300  0.063450  1.0  -0.1073
  C  C640  1  0.497500  0.485000  0.056500  1.0  -0.2177
  S  S641  1  0.727350  0.110330  0.164080  1.0  1.1184
  S  S642  1  0.727390  0.629330  0.130680  1.0  1.115
  S  S643  1  0.772650  0.889670  0.664080  1.0  1.1191
  S  S644  1  0.772610  0.370670  0.630680  1.0  1.1168
  S  S645  1  0.272650  0.610330  0.335920  1.0  1.1216
  S  S646  1  0.272610  0.129330  0.369320  1.0  1.1176
  S  S647  1  0.227350  0.389670  0.835920  1.0  1.1205
  S  S648  1  0.227390  0.870670  0.869320  1.0  1.116
  N  N649  1  0.198400  0.583300  0.652370  1.0  -0.4081
  N  N650  1  0.743300  0.291200  0.463580  1.0  -0.419
  N  N651  1  0.526900  0.806430  0.319460  1.0  -0.3471
  N  N652  1  0.467500  0.561600  0.471250  1.0  -0.1658
  N  N653  1  0.291600  0.901200  0.163150  1.0  -0.3735
  N  N654  1  0.923500  0.690110  0.838440  1.0  -0.3505
  N  N655  1  0.796500  0.225400  0.945510  1.0  -0.3051
  N  N656  1  0.023000  0.940600  0.980660  1.0  -0.157
  N  N657  1  0.301600  0.416700  0.152370  1.0  -0.4144
  N  N658  1  0.756700  0.708800  0.963580  1.0  -0.4181
  N  N659  1  0.973100  0.193570  0.819460  1.0  -0.3507
  N  N660  1  0.032500  0.438400  0.971250  1.0  -0.1654
  N  N661  1  0.208400  0.098800  0.663150  1.0  -0.3735
  N  N662  1  0.576500  0.309890  0.338440  1.0  -0.3501
  N  N663  1  0.703500  0.774600  0.445510  1.0  -0.3004
  N  N664  1  0.477000  0.059400  0.480660  1.0  -0.1561
  N  N665  1  0.801600  0.083300  0.847630  1.0  -0.415
  N  N666  1  0.256700  0.791200  0.036420  1.0  -0.416
  N  N667  1  0.473100  0.306430  0.180540  1.0  -0.3474
  N  N668  1  0.532500  0.061600  0.028750  1.0  -0.1657
  N  N669  1  0.708400  0.401200  0.336850  1.0  -0.3748
  N  N670  1  0.076500  0.190110  0.661560  1.0  -0.35
  N  N671  1  0.203500  0.725400  0.554490  1.0  -0.3044
  N  N672  1  0.977000  0.440600  0.519340  1.0  -0.1569
  N  N673  1  0.698400  0.916700  0.347630  1.0  -0.4133
  N  N674  1  0.243300  0.208800  0.536420  1.0  -0.4214
  N  N675  1  0.026900  0.693570  0.680540  1.0  -0.3472
  N  N676  1  0.967500  0.938400  0.528750  1.0  -0.1657
  N  N677  1  0.791600  0.598800  0.836850  1.0  -0.3758
  N  N678  1  0.423500  0.809890  0.161560  1.0  -0.3511
  N  N679  1  0.296500  0.274600  0.054490  1.0  -0.3024
  N  N680  1  0.523000  0.559400  0.019340  1.0  -0.1575
  O  O681  1  0.508900  0.916270  0.220570  1.0  -0.6738
  O  O682  1  0.457200  0.935440  0.169600  1.0  -0.6092
  O  O683  1  0.689500  0.315730  0.270600  1.0  -0.6159
  O  O684  1  0.579500  0.318870  0.249320  1.0  -0.6727
  O  O685  1  0.585400  0.809660  0.238520  1.0  -0.6272
  O  O686  1  0.703400  0.807600  0.256540  1.0  -0.4768
  O  O687  1  0.477800  0.442970  0.162660  1.0  -0.5257
  O  O688  1  0.556900  0.419630  0.203290  1.0  -0.6341
  O  O689  1  0.721000  0.123950  0.126690  1.0  -0.6057
  O  O690  1  0.793500  0.093920  0.178220  1.0  -0.5048
  O  O691  1  0.801400  0.613250  0.134980  1.0  -0.5198
  O  O692  1  0.703700  0.646780  0.096900  1.0  -0.5486
  O  O693  1  0.991100  0.083730  0.720570  1.0  -0.6723
  O  O694  1  0.042800  0.064560  0.669600  1.0  -0.6077
  O  O695  1  0.810500  0.684270  0.770600  1.0  -0.6152
  O  O696  1  0.920500  0.681130  0.749320  1.0  -0.6741
  O  O697  1  0.914600  0.190340  0.738520  1.0  -0.629
  O  O698  1  0.796600  0.192400  0.756540  1.0  -0.475
  O  O699  1  0.022200  0.557030  0.662660  1.0  -0.5279
  O  O700  1  0.943100  0.580370  0.703290  1.0  -0.6344
  O  O701  1  0.779000  0.876050  0.626690  1.0  -0.6085
  O  O702  1  0.706500  0.906080  0.678220  1.0  -0.5031
  O  O703  1  0.698600  0.386750  0.634980  1.0  -0.5098
  O  O704  1  0.796300  0.353220  0.596900  1.0  -0.5504
  O  O705  1  0.491100  0.416270  0.279430  1.0  -0.6738
  O  O706  1  0.542800  0.435440  0.330400  1.0  -0.6084
  O  O707  1  0.310500  0.815730  0.229400  1.0  -0.6153
  O  O708  1  0.420500  0.818870  0.250680  1.0  -0.6741
  O  O709  1  0.414600  0.309660  0.261480  1.0  -0.6295
  O  O710  1  0.296600  0.307600  0.243460  1.0  -0.4773
  O  O711  1  0.522200  0.942970  0.337340  1.0  -0.529
  O  O712  1  0.443100  0.919630  0.296710  1.0  -0.6343
  O  O713  1  0.279000  0.623950  0.373310  1.0  -0.6065
  O  O714  1  0.206500  0.593920  0.321780  1.0  -0.5003
  O  O715  1  0.198600  0.113250  0.365020  1.0  -0.518
  O  O716  1  0.296300  0.146780  0.403100  1.0  -0.55
  O  O717  1  0.008900  0.583730  0.779430  1.0  -0.6722
  O  O718  1  0.957200  0.564560  0.830400  1.0  -0.6081
  O  O719  1  0.189500  0.184270  0.729400  1.0  -0.614
  O  O720  1  0.079500  0.181130  0.750680  1.0  -0.6717
  O  O721  1  0.085400  0.690340  0.761480  1.0  -0.6261
  O  O722  1  0.203400  0.692400  0.743460  1.0  -0.4742
  O  O723  1  0.977800  0.057030  0.837340  1.0  -0.5266
  O  O724  1  0.056900  0.080370  0.796710  1.0  -0.6341
  O  O725  1  0.221000  0.376050  0.873310  1.0  -0.6064
  O  O726  1  0.293500  0.406080  0.821780  1.0  -0.5045
  O  O727  1  0.301400  0.886750  0.865020  1.0  -0.5124
  O  O728  1  0.203700  0.853220  0.903100  1.0  -0.5501
