# generated using pymatgen
data_CuH12C20(NO3)2
_symmetry_space_group_name_H-M   'P 1'
_cell_length_a   32.36500000
_cell_length_b   32.36500000
_cell_length_c   32.36500000
_cell_angle_alpha   90.00000000
_cell_angle_beta   90.00000000
_cell_angle_gamma   90.00000000
_symmetry_Int_Tables_number   1
_chemical_formula_structural   CuH12C20(NO3)2
_chemical_formula_sum   'Cu24 H288 C480 N48 O144'
_cell_volume   33902.11822713
_cell_formula_units_Z   24
loop_
 _symmetry_equiv_pos_site_id
 _symmetry_equiv_pos_as_xyz
  1  'x, y, z'
loop_
 _atom_site_type_symbol
 _atom_site_label
 _atom_site_symmetry_multiplicity
 _atom_site_fract_x
 _atom_site_fract_y
 _atom_site_fract_z
 _atom_site_occupancy
 _atom_site_charge
  Cu  Cu1  1  0.459580  0.250000  0.750000  1.0  0.8779
  Cu  Cu2  1  0.040420  0.250000  0.750000  1.0  0.8786
  Cu  Cu3  1  0.750000  0.459580  0.250000  1.0  0.8792
  Cu  Cu4  1  0.750000  0.040420  0.250000  1.0  0.8767
  Cu  Cu5  1  0.250000  0.750000  0.459580  1.0  0.8707
  Cu  Cu6  1  0.250000  0.750000  0.040420  1.0  0.8676
  Cu  Cu7  1  0.750000  0.540420  0.250000  1.0  0.8767
  Cu  Cu8  1  0.750000  0.959580  0.250000  1.0  0.8792
  Cu  Cu9  1  0.540420  0.250000  0.750000  1.0  0.8786
  Cu  Cu10  1  0.959580  0.250000  0.750000  1.0  0.8779
  Cu  Cu11  1  0.250000  0.750000  0.959580  1.0  0.8707
  Cu  Cu12  1  0.250000  0.750000  0.540420  1.0  0.8676
  Cu  Cu13  1  0.250000  0.459580  0.750000  1.0  0.8792
  Cu  Cu14  1  0.250000  0.040420  0.750000  1.0  0.8767
  Cu  Cu15  1  0.459580  0.750000  0.250000  1.0  0.8779
  Cu  Cu16  1  0.040420  0.750000  0.250000  1.0  0.8786
  Cu  Cu17  1  0.750000  0.250000  0.040420  1.0  0.8676
  Cu  Cu18  1  0.750000  0.250000  0.459580  1.0  0.8707
  Cu  Cu19  1  0.540420  0.750000  0.250000  1.0  0.8786
  Cu  Cu20  1  0.959580  0.750000  0.250000  1.0  0.8779
  Cu  Cu21  1  0.250000  0.540420  0.750000  1.0  0.8767
  Cu  Cu22  1  0.250000  0.959580  0.750000  1.0  0.8792
  Cu  Cu23  1  0.750000  0.250000  0.540420  1.0  0.8676
  Cu  Cu24  1  0.750000  0.250000  0.959580  1.0  0.8707
  H  H25  1  0.514100  0.386000  0.528900  1.0  0.2957
  H  H26  1  0.430400  0.321600  0.647300  1.0  0.1091
  H  H27  1  0.430000  0.363900  0.588600  1.0  0.1071
  H  H28  1  0.555200  0.361000  0.585700  1.0  0.1063
  H  H29  1  0.555600  0.318700  0.644300  1.0  0.1164
  H  H30  1  0.519000  0.418500  0.478900  1.0  0.1074
  H  H31  1  0.985900  0.114000  0.528900  1.0  0.2961
  H  H32  1  0.069600  0.178400  0.647300  1.0  0.1085
  H  H33  1  0.070000  0.136100  0.588600  1.0  0.1079
  H  H34  1  0.944800  0.139000  0.585700  1.0  0.1053
  H  H35  1  0.944400  0.181300  0.644300  1.0  0.1157
  H  H36  1  0.981000  0.081500  0.478900  1.0  0.1088
  H  H37  1  0.985900  0.386000  0.971100  1.0  0.295
  H  H38  1  0.069600  0.321600  0.852700  1.0  0.1084
  H  H39  1  0.070000  0.363900  0.911400  1.0  0.1073
  H  H40  1  0.944800  0.361000  0.914300  1.0  0.1051
  H  H41  1  0.944400  0.318700  0.855700  1.0  0.116
  H  H42  1  0.981000  0.418500  0.021100  1.0  0.1083
  H  H43  1  0.514100  0.114000  0.971100  1.0  0.2952
  H  H44  1  0.430400  0.178400  0.852700  1.0  0.1085
  H  H45  1  0.430000  0.136100  0.911400  1.0  0.1075
  H  H46  1  0.555200  0.139000  0.914300  1.0  0.1058
  H  H47  1  0.555600  0.181300  0.855700  1.0  0.1168
  H  H48  1  0.519000  0.081500  0.021100  1.0  0.1083
  H  H49  1  0.528900  0.514100  0.386000  1.0  0.2982
  H  H50  1  0.647300  0.430400  0.321600  1.0  0.1089
  H  H51  1  0.588600  0.430000  0.363900  1.0  0.1102
  H  H52  1  0.585700  0.555200  0.361000  1.0  0.1066
  H  H53  1  0.644300  0.555600  0.318700  1.0  0.1176
  H  H54  1  0.478900  0.519000  0.418500  1.0  0.1077
  H  H55  1  0.528900  0.985900  0.114000  1.0  0.2959
  H  H56  1  0.647300  0.069600  0.178400  1.0  0.1094
  H  H57  1  0.588600  0.070000  0.136100  1.0  0.1107
  H  H58  1  0.585700  0.944800  0.139000  1.0  0.1065
  H  H59  1  0.644300  0.944400  0.181300  1.0  0.1168
  H  H60  1  0.478900  0.981000  0.081500  1.0  0.1087
  H  H61  1  0.971100  0.985900  0.386000  1.0  0.2984
  H  H62  1  0.852700  0.069600  0.321600  1.0  0.1091
  H  H63  1  0.911400  0.070000  0.363900  1.0  0.1104
  H  H64  1  0.914300  0.944800  0.361000  1.0  0.1067
  H  H65  1  0.855700  0.944400  0.318700  1.0  0.1172
  H  H66  1  0.021100  0.981000  0.418500  1.0  0.107
  H  H67  1  0.971100  0.514100  0.114000  1.0  0.2956
  H  H68  1  0.852700  0.430400  0.178400  1.0  0.1089
  H  H69  1  0.911400  0.430000  0.136100  1.0  0.11
  H  H70  1  0.914300  0.555200  0.139000  1.0  0.107
  H  H71  1  0.855700  0.555600  0.181300  1.0  0.1172
  H  H72  1  0.021100  0.519000  0.081500  1.0  0.107
  H  H73  1  0.386000  0.528900  0.514100  1.0  0.2952
  H  H74  1  0.321600  0.647300  0.430400  1.0  0.1083
  H  H75  1  0.363900  0.588600  0.430000  1.0  0.1076
  H  H76  1  0.361000  0.585700  0.555200  1.0  0.1051
  H  H77  1  0.318700  0.644300  0.555600  1.0  0.1174
  H  H78  1  0.418500  0.478900  0.519000  1.0  0.1071
  H  H79  1  0.114000  0.528900  0.985900  1.0  0.2954
  H  H80  1  0.178400  0.647300  0.069600  1.0  0.1085
  H  H81  1  0.136100  0.588600  0.070000  1.0  0.1094
  H  H82  1  0.139000  0.585700  0.944800  1.0  0.1057
  H  H83  1  0.181300  0.644300  0.944400  1.0  0.118
  H  H84  1  0.081500  0.478900  0.981000  1.0  0.1057
  H  H85  1  0.386000  0.971100  0.985900  1.0  0.2956
  H  H86  1  0.321600  0.852700  0.069600  1.0  0.1085
  H  H87  1  0.363900  0.911400  0.070000  1.0  0.1094
  H  H88  1  0.361000  0.914300  0.944800  1.0  0.105
  H  H89  1  0.318700  0.855700  0.944400  1.0  0.1181
  H  H90  1  0.418500  0.021100  0.981000  1.0  0.1076
  H  H91  1  0.114000  0.971100  0.514100  1.0  0.293
  H  H92  1  0.178400  0.852700  0.430400  1.0  0.1084
  H  H93  1  0.136100  0.911400  0.430000  1.0  0.1093
  H  H94  1  0.139000  0.914300  0.555200  1.0  0.1048
  H  H95  1  0.181300  0.855700  0.555600  1.0  0.1175
  H  H96  1  0.081500  0.021100  0.519000  1.0  0.104
  H  H97  1  0.614000  0.485900  0.028900  1.0  0.2958
  H  H98  1  0.678400  0.569600  0.147300  1.0  0.1088
  H  H99  1  0.636100  0.570000  0.088600  1.0  0.1082
  H  H100  1  0.639000  0.444800  0.085700  1.0  0.1045
  H  H101  1  0.681300  0.444400  0.144300  1.0  0.1169
  H  H102  1  0.581500  0.481000  0.978900  1.0  0.1061
  H  H103  1  0.886000  0.014100  0.028900  1.0  0.2961
  H  H104  1  0.821600  0.930400  0.147300  1.0  0.1085
  H  H105  1  0.863900  0.930000  0.088600  1.0  0.1061
  H  H106  1  0.861000  0.055200  0.085700  1.0  0.1044
  H  H107  1  0.818700  0.055600  0.144300  1.0  0.1174
  H  H108  1  0.918500  0.019000  0.978900  1.0  0.109
  H  H109  1  0.614000  0.014100  0.471100  1.0  0.2938
  H  H110  1  0.678400  0.930400  0.352700  1.0  0.1084
  H  H111  1  0.636100  0.930000  0.411400  1.0  0.1072
  H  H112  1  0.639000  0.055200  0.414300  1.0  0.1043
  H  H113  1  0.681300  0.055600  0.355700  1.0  0.1173
  H  H114  1  0.581500  0.019000  0.521100  1.0  0.106
  H  H115  1  0.886000  0.485900  0.471100  1.0  0.2951
  H  H116  1  0.821600  0.569600  0.352700  1.0  0.1088
  H  H117  1  0.863900  0.570000  0.411400  1.0  0.1068
  H  H118  1  0.861000  0.444800  0.414300  1.0  0.1037
  H  H119  1  0.818700  0.444400  0.355700  1.0  0.1171
  H  H120  1  0.918500  0.481000  0.521100  1.0  0.1087
  H  H121  1  0.485900  0.471100  0.886000  1.0  0.2979
  H  H122  1  0.569600  0.352700  0.821600  1.0  0.1092
  H  H123  1  0.570000  0.411400  0.863900  1.0  0.1096
  H  H124  1  0.444800  0.414300  0.861000  1.0  0.1071
  H  H125  1  0.444400  0.355700  0.818700  1.0  0.1164
  H  H126  1  0.481000  0.521100  0.918500  1.0  0.1068
  H  H127  1  0.014100  0.471100  0.614000  1.0  0.296
  H  H128  1  0.930400  0.352700  0.678400  1.0  0.1098
  H  H129  1  0.930000  0.411400  0.636100  1.0  0.1096
  H  H130  1  0.055200  0.414300  0.639000  1.0  0.1078
  H  H131  1  0.055600  0.355700  0.681300  1.0  0.1166
  H  H132  1  0.019000  0.521100  0.581500  1.0  0.1069
  H  H133  1  0.014100  0.028900  0.886000  1.0  0.2979
  H  H134  1  0.930400  0.147300  0.821600  1.0  0.1095
  H  H135  1  0.930000  0.088600  0.863900  1.0  0.1093
  H  H136  1  0.055200  0.085700  0.861000  1.0  0.1078
  H  H137  1  0.055600  0.144300  0.818700  1.0  0.117
  H  H138  1  0.019000  0.978900  0.918500  1.0  0.1069
  H  H139  1  0.485900  0.028900  0.614000  1.0  0.2954
  H  H140  1  0.569600  0.147300  0.678400  1.0  0.1093
  H  H141  1  0.570000  0.088600  0.636100  1.0  0.1097
  H  H142  1  0.444800  0.085700  0.639000  1.0  0.1075
  H  H143  1  0.444400  0.144300  0.681300  1.0  0.1157
  H  H144  1  0.481000  0.978900  0.581500  1.0  0.1085
  H  H145  1  0.471100  0.614000  0.014100  1.0  0.2948
  H  H146  1  0.352700  0.678400  0.930400  1.0  0.1079
  H  H147  1  0.411400  0.636100  0.930000  1.0  0.1089
  H  H148  1  0.414300  0.639000  0.055200  1.0  0.1053
  H  H149  1  0.355700  0.681300  0.055600  1.0  0.1173
  H  H150  1  0.521100  0.581500  0.019000  1.0  0.1063
  H  H151  1  0.471100  0.886000  0.485900  1.0  0.2957
  H  H152  1  0.352700  0.821600  0.569600  1.0  0.1079
  H  H153  1  0.411400  0.863900  0.570000  1.0  0.1103
  H  H154  1  0.414300  0.861000  0.444800  1.0  0.1059
  H  H155  1  0.355700  0.818700  0.444400  1.0  0.1178
  H  H156  1  0.521100  0.918500  0.481000  1.0  0.1069
  H  H157  1  0.028900  0.614000  0.485900  1.0  0.2958
  H  H158  1  0.147300  0.678400  0.569600  1.0  0.1081
  H  H159  1  0.088600  0.636100  0.570000  1.0  0.1105
  H  H160  1  0.085700  0.639000  0.444800  1.0  0.1048
  H  H161  1  0.144300  0.681300  0.444400  1.0  0.1179
  H  H162  1  0.978900  0.581500  0.481000  1.0  0.1076
  H  H163  1  0.028900  0.886000  0.014100  1.0  0.295
  H  H164  1  0.147300  0.821600  0.930400  1.0  0.108
  H  H165  1  0.088600  0.863900  0.930000  1.0  0.1089
  H  H166  1  0.085700  0.861000  0.055200  1.0  0.1047
  H  H167  1  0.144300  0.818700  0.055600  1.0  0.1172
  H  H168  1  0.978900  0.918500  0.019000  1.0  0.1075
  H  H169  1  0.386000  0.514100  0.971100  1.0  0.2952
  H  H170  1  0.321600  0.430400  0.852700  1.0  0.1082
  H  H171  1  0.363900  0.430000  0.911400  1.0  0.1067
  H  H172  1  0.361000  0.555200  0.914300  1.0  0.1043
  H  H173  1  0.318700  0.555600  0.855700  1.0  0.1174
  H  H174  1  0.418500  0.519000  0.021100  1.0  0.109
  H  H175  1  0.114000  0.985900  0.971100  1.0  0.2945
  H  H176  1  0.178400  0.069600  0.852700  1.0  0.1088
  H  H177  1  0.136100  0.070000  0.911400  1.0  0.1077
  H  H178  1  0.139000  0.944800  0.914300  1.0  0.104
  H  H179  1  0.181300  0.944400  0.855700  1.0  0.1167
  H  H180  1  0.081500  0.981000  0.021100  1.0  0.1064
  H  H181  1  0.386000  0.985900  0.528900  1.0  0.2958
  H  H182  1  0.321600  0.069600  0.647300  1.0  0.1086
  H  H183  1  0.363900  0.070000  0.588600  1.0  0.1069
  H  H184  1  0.361000  0.944800  0.585700  1.0  0.1038
  H  H185  1  0.318700  0.944400  0.644300  1.0  0.1171
  H  H186  1  0.418500  0.981000  0.478900  1.0  0.1082
  H  H187  1  0.114000  0.514100  0.528900  1.0  0.2951
  H  H188  1  0.178400  0.430400  0.647300  1.0  0.1087
  H  H189  1  0.136100  0.430000  0.588600  1.0  0.1072
  H  H190  1  0.139000  0.555200  0.585700  1.0  0.1049
  H  H191  1  0.181300  0.555600  0.644300  1.0  0.1175
  H  H192  1  0.081500  0.519000  0.478900  1.0  0.1061
  H  H193  1  0.514100  0.528900  0.114000  1.0  0.2964
  H  H194  1  0.430400  0.647300  0.178400  1.0  0.1094
  H  H195  1  0.430000  0.588600  0.136100  1.0  0.1096
  H  H196  1  0.555200  0.585700  0.139000  1.0  0.1079
  H  H197  1  0.555600  0.644300  0.181300  1.0  0.1162
  H  H198  1  0.519000  0.478900  0.081500  1.0  0.1088
  H  H199  1  0.985900  0.528900  0.386000  1.0  0.2982
  H  H200  1  0.069600  0.647300  0.321600  1.0  0.1094
  H  H201  1  0.070000  0.588600  0.363900  1.0  0.1094
  H  H202  1  0.944800  0.585700  0.361000  1.0  0.1071
  H  H203  1  0.944400  0.644300  0.318700  1.0  0.1163
  H  H204  1  0.981000  0.478900  0.418500  1.0  0.1072
  H  H205  1  0.985900  0.971100  0.114000  1.0  0.2948
  H  H206  1  0.069600  0.852700  0.178400  1.0  0.1095
  H  H207  1  0.070000  0.911400  0.136100  1.0  0.1097
  H  H208  1  0.944800  0.914300  0.139000  1.0  0.1074
  H  H209  1  0.944400  0.855700  0.181300  1.0  0.1163
  H  H210  1  0.981000  0.021100  0.081500  1.0  0.1074
  H  H211  1  0.514100  0.971100  0.386000  1.0  0.2977
  H  H212  1  0.430400  0.852700  0.321600  1.0  0.1097
  H  H213  1  0.430000  0.911400  0.363900  1.0  0.1093
  H  H214  1  0.555200  0.914300  0.361000  1.0  0.1079
  H  H215  1  0.555600  0.855700  0.318700  1.0  0.1168
  H  H216  1  0.519000  0.021100  0.418500  1.0  0.1061
  H  H217  1  0.528900  0.386000  0.985900  1.0  0.2953
  H  H218  1  0.647300  0.321600  0.069600  1.0  0.1081
  H  H219  1  0.588600  0.363900  0.070000  1.0  0.1102
  H  H220  1  0.585700  0.361000  0.944800  1.0  0.1052
  H  H221  1  0.644300  0.318700  0.944400  1.0  0.1178
  H  H222  1  0.478900  0.418500  0.981000  1.0  0.1069
  H  H223  1  0.528900  0.114000  0.514100  1.0  0.2947
  H  H224  1  0.647300  0.178400  0.430400  1.0  0.1081
  H  H225  1  0.588600  0.136100  0.430000  1.0  0.1085
  H  H226  1  0.585700  0.139000  0.555200  1.0  0.1047
  H  H227  1  0.644300  0.181300  0.555600  1.0  0.1173
  H  H228  1  0.478900  0.081500  0.519000  1.0  0.1077
  H  H229  1  0.971100  0.386000  0.514100  1.0  0.2953
  H  H230  1  0.852700  0.321600  0.430400  1.0  0.1076
  H  H231  1  0.911400  0.363900  0.430000  1.0  0.109
  H  H232  1  0.914300  0.361000  0.555200  1.0  0.1053
  H  H233  1  0.855700  0.318700  0.555600  1.0  0.1172
  H  H234  1  0.021100  0.418500  0.519000  1.0  0.1067
  H  H235  1  0.971100  0.114000  0.985900  1.0  0.2964
  H  H236  1  0.852700  0.178400  0.069600  1.0  0.1078
  H  H237  1  0.911400  0.136100  0.070000  1.0  0.1108
  H  H238  1  0.914300  0.139000  0.944800  1.0  0.1055
  H  H239  1  0.855700  0.181300  0.944400  1.0  0.1179
  H  H240  1  0.021100  0.081500  0.981000  1.0  0.1067
  H  H241  1  0.485900  0.614000  0.471100  1.0  0.2946
  H  H242  1  0.569600  0.678400  0.352700  1.0  0.1086
  H  H243  1  0.570000  0.636100  0.411400  1.0  0.1078
  H  H244  1  0.444800  0.639000  0.414300  1.0  0.105
  H  H245  1  0.444400  0.681300  0.355700  1.0  0.1159
  H  H246  1  0.481000  0.581500  0.521100  1.0  0.1085
  H  H247  1  0.014100  0.886000  0.471100  1.0  0.2959
  H  H248  1  0.930400  0.821600  0.352700  1.0  0.1089
  H  H249  1  0.930000  0.863900  0.411400  1.0  0.1073
  H  H250  1  0.055200  0.861000  0.414300  1.0  0.1058
  H  H251  1  0.055600  0.818700  0.355700  1.0  0.1163
  H  H252  1  0.019000  0.918500  0.521100  1.0  0.1087
  H  H253  1  0.014100  0.614000  0.028900  1.0  0.2966
  H  H254  1  0.930400  0.678400  0.147300  1.0  0.1082
  H  H255  1  0.930000  0.636100  0.088600  1.0  0.1072
  H  H256  1  0.055200  0.639000  0.085700  1.0  0.1063
  H  H257  1  0.055600  0.681300  0.144300  1.0  0.1163
  H  H258  1  0.019000  0.581500  0.978900  1.0  0.1088
  H  H259  1  0.485900  0.886000  0.028900  1.0  0.2954
  H  H260  1  0.569600  0.821600  0.147300  1.0  0.1086
  H  H261  1  0.570000  0.863900  0.088600  1.0  0.1072
  H  H262  1  0.444800  0.861000  0.085700  1.0  0.1054
  H  H263  1  0.444400  0.818700  0.144300  1.0  0.1161
  H  H264  1  0.481000  0.918500  0.978900  1.0  0.1077
  H  H265  1  0.471100  0.485900  0.614000  1.0  0.2959
  H  H266  1  0.352700  0.569600  0.678400  1.0  0.1092
  H  H267  1  0.411400  0.570000  0.636100  1.0  0.1106
  H  H268  1  0.414300  0.444800  0.639000  1.0  0.1068
  H  H269  1  0.355700  0.444400  0.681300  1.0  0.1168
  H  H270  1  0.521100  0.481000  0.581500  1.0  0.1071
  H  H271  1  0.471100  0.014100  0.886000  1.0  0.2977
  H  H272  1  0.352700  0.930400  0.821600  1.0  0.1085
  H  H273  1  0.411400  0.930000  0.863900  1.0  0.1102
  H  H274  1  0.414300  0.055200  0.861000  1.0  0.1072
  H  H275  1  0.355700  0.055600  0.818700  1.0  0.1176
  H  H276  1  0.521100  0.019000  0.918500  1.0  0.1069
  H  H277  1  0.028900  0.014100  0.614000  1.0  0.296
  H  H278  1  0.147300  0.930400  0.678400  1.0  0.1091
  H  H279  1  0.088600  0.930000  0.636100  1.0  0.1099
  H  H280  1  0.085700  0.055200  0.639000  1.0  0.1068
  H  H281  1  0.144300  0.055600  0.681300  1.0  0.1172
  H  H282  1  0.978900  0.019000  0.581500  1.0  0.1087
  H  H283  1  0.028900  0.485900  0.886000  1.0  0.2983
  H  H284  1  0.147300  0.569600  0.821600  1.0  0.1093
  H  H285  1  0.088600  0.570000  0.863900  1.0  0.1104
  H  H286  1  0.085700  0.444800  0.861000  1.0  0.1062
  H  H287  1  0.144300  0.444400  0.818700  1.0  0.1172
  H  H288  1  0.978900  0.481000  0.918500  1.0  0.1074
  H  H289  1  0.614000  0.471100  0.485900  1.0  0.2945
  H  H290  1  0.678400  0.352700  0.569600  1.0  0.1084
  H  H291  1  0.636100  0.411400  0.570000  1.0  0.1094
  H  H292  1  0.639000  0.414300  0.444800  1.0  0.1054
  H  H293  1  0.681300  0.355700  0.444400  1.0  0.1181
  H  H294  1  0.581500  0.521100  0.481000  1.0  0.1044
  H  H295  1  0.886000  0.471100  0.014100  1.0  0.2945
  H  H296  1  0.821600  0.352700  0.930400  1.0  0.1083
  H  H297  1  0.863900  0.411400  0.930000  1.0  0.1076
  H  H298  1  0.861000  0.414300  0.055200  1.0  0.1049
  H  H299  1  0.818700  0.355700  0.055600  1.0  0.1175
  H  H300  1  0.918500  0.521100  0.019000  1.0  0.1067
  H  H301  1  0.614000  0.028900  0.014100  1.0  0.2942
  H  H302  1  0.678400  0.147300  0.930400  1.0  0.1084
  H  H303  1  0.636100  0.088600  0.930000  1.0  0.1091
  H  H304  1  0.639000  0.085700  0.055200  1.0  0.1049
  H  H305  1  0.681300  0.144300  0.055600  1.0  0.1174
  H  H306  1  0.581500  0.978900  0.019000  1.0  0.1058
  H  H307  1  0.886000  0.028900  0.485900  1.0  0.2958
  H  H308  1  0.821600  0.147300  0.569600  1.0  0.1085
  H  H309  1  0.863900  0.088600  0.570000  1.0  0.1097
  H  H310  1  0.861000  0.085700  0.444800  1.0  0.1053
  H  H311  1  0.818700  0.144300  0.444400  1.0  0.118
  H  H312  1  0.918500  0.978900  0.481000  1.0  0.1076
  C  C313  1  0.497900  0.290000  0.690070  1.0  0.5689
  C  C314  1  0.493000  0.316150  0.651300  1.0  -0.1399
  C  C315  1  0.455700  0.329560  0.634760  1.0  -0.0617
  C  C316  1  0.455500  0.354690  0.599930  1.0  -0.1812
  C  C317  1  0.492500  0.366410  0.581650  1.0  0.2837
  C  C318  1  0.529800  0.353000  0.598190  1.0  -0.1323
  C  C319  1  0.530100  0.327870  0.633020  1.0  -0.0648
  C  C320  1  0.465500  0.416900  0.538500  1.0  0.4634
  C  C321  1  0.467400  0.443400  0.502800  1.0  0.1175
  C  C322  1  0.499200  0.439900  0.475600  1.0  -0.198
  C  C323  1  0.002100  0.210000  0.690070  1.0  0.569
  C  C324  1  0.007000  0.183850  0.651300  1.0  -0.1398
  C  C325  1  0.044300  0.170440  0.634760  1.0  -0.0612
  C  C326  1  0.044500  0.145310  0.599930  1.0  -0.1812
  C  C327  1  0.007500  0.133590  0.581650  1.0  0.2835
  C  C328  1  0.970200  0.147000  0.598190  1.0  -0.134
  C  C329  1  0.969900  0.172130  0.633020  1.0  -0.0664
  C  C330  1  0.034500  0.083100  0.538500  1.0  0.4628
  C  C331  1  0.032600  0.056600  0.502800  1.0  0.1194
  C  C332  1  0.000800  0.060100  0.475600  1.0  -0.196
  C  C333  1  0.002100  0.290000  0.809930  1.0  0.5686
  C  C334  1  0.007000  0.316150  0.848700  1.0  -0.1396
  C  C335  1  0.044300  0.329560  0.865240  1.0  -0.0616
  C  C336  1  0.044500  0.354690  0.900070  1.0  -0.1813
  C  C337  1  0.007500  0.366410  0.918350  1.0  0.2832
  C  C338  1  0.970200  0.353000  0.901810  1.0  -0.1353
  C  C339  1  0.969900  0.327870  0.866980  1.0  -0.0656
  C  C340  1  0.034500  0.416900  0.961500  1.0  0.4652
  C  C341  1  0.032600  0.443400  0.997200  1.0  0.1207
  C  C342  1  0.000800  0.439900  0.024400  1.0  -0.1989
  C  C343  1  0.497900  0.210000  0.809930  1.0  0.5685
  C  C344  1  0.493000  0.183850  0.848700  1.0  -0.1395
  C  C345  1  0.455700  0.170440  0.865240  1.0  -0.0612
  C  C346  1  0.455500  0.145310  0.900070  1.0  -0.1807
  C  C347  1  0.492500  0.133590  0.918350  1.0  0.2828
  C  C348  1  0.529800  0.147000  0.901810  1.0  -0.1328
  C  C349  1  0.530100  0.172130  0.866980  1.0  -0.065
  C  C350  1  0.465500  0.083100  0.961500  1.0  0.4611
  C  C351  1  0.467400  0.056600  0.997200  1.0  0.1183
  C  C352  1  0.499200  0.060100  0.024400  1.0  -0.1967
  C  C353  1  0.690070  0.497900  0.290000  1.0  0.5667
  C  C354  1  0.651300  0.493000  0.316150  1.0  -0.1394
  C  C355  1  0.634760  0.455700  0.329560  1.0  -0.0665
  C  C356  1  0.599930  0.455500  0.354690  1.0  -0.1853
  C  C357  1  0.581650  0.492500  0.366410  1.0  0.2853
  C  C358  1  0.598190  0.529800  0.353000  1.0  -0.1361
  C  C359  1  0.633020  0.530100  0.327870  1.0  -0.0652
  C  C360  1  0.538500  0.465500  0.416900  1.0  0.4638
  C  C361  1  0.502800  0.467400  0.443400  1.0  0.1185
  C  C362  1  0.475600  0.499200  0.439900  1.0  -0.1958
  C  C363  1  0.690070  0.002100  0.210000  1.0  0.5668
  C  C364  1  0.651300  0.007000  0.183850  1.0  -0.1388
  C  C365  1  0.634760  0.044300  0.170440  1.0  -0.0657
  C  C366  1  0.599930  0.044500  0.145310  1.0  -0.1854
  C  C367  1  0.581650  0.007500  0.133590  1.0  0.2854
  C  C368  1  0.598190  0.970200  0.147000  1.0  -0.1355
  C  C369  1  0.633020  0.969900  0.172130  1.0  -0.0671
  C  C370  1  0.538500  0.034500  0.083100  1.0  0.464
  C  C371  1  0.502800  0.032600  0.056600  1.0  0.1195
  C  C372  1  0.475600  0.000800  0.060100  1.0  -0.1959
  C  C373  1  0.809930  0.002100  0.290000  1.0  0.5658
  C  C374  1  0.848700  0.007000  0.316150  1.0  -0.1396
  C  C375  1  0.865240  0.044300  0.329560  1.0  -0.0673
  C  C376  1  0.900070  0.044500  0.354690  1.0  -0.1858
  C  C377  1  0.918350  0.007500  0.366410  1.0  0.2851
  C  C378  1  0.901810  0.970200  0.353000  1.0  -0.1358
  C  C379  1  0.866980  0.969900  0.327870  1.0  -0.0667
  C  C380  1  0.961500  0.034500  0.416900  1.0  0.4644
  C  C381  1  0.997200  0.032600  0.443400  1.0  0.1168
  C  C382  1  0.024400  0.000800  0.439900  1.0  -0.1937
  C  C383  1  0.809930  0.497900  0.210000  1.0  0.566
  C  C384  1  0.848700  0.493000  0.183850  1.0  -0.1393
  C  C385  1  0.865240  0.455700  0.170440  1.0  -0.0652
  C  C386  1  0.900070  0.455500  0.145310  1.0  -0.1862
  C  C387  1  0.918350  0.492500  0.133590  1.0  0.2857
  C  C388  1  0.901810  0.529800  0.147000  1.0  -0.1339
  C  C389  1  0.866980  0.530100  0.172130  1.0  -0.0662
  C  C390  1  0.961500  0.465500  0.083100  1.0  0.4659
  C  C391  1  0.997200  0.467400  0.056600  1.0  0.1215
  C  C392  1  0.024400  0.499200  0.060100  1.0  -0.1935
  C  C393  1  0.290000  0.690070  0.497900  1.0  0.5684
  C  C394  1  0.316150  0.651300  0.493000  1.0  -0.1391
  C  C395  1  0.329560  0.634760  0.455700  1.0  -0.0672
  C  C396  1  0.354690  0.599930  0.455500  1.0  -0.1818
  C  C397  1  0.366410  0.581650  0.492500  1.0  0.284
  C  C398  1  0.353000  0.598190  0.529800  1.0  -0.1342
  C  C399  1  0.327870  0.633020  0.530100  1.0  -0.069
  C  C400  1  0.416900  0.538500  0.465500  1.0  0.469
  C  C401  1  0.443400  0.502800  0.467400  1.0  0.1165
  C  C402  1  0.439900  0.475600  0.499200  1.0  -0.1951
  C  C403  1  0.210000  0.690070  0.002100  1.0  0.569
  C  C404  1  0.183850  0.651300  0.007000  1.0  -0.1403
  C  C405  1  0.170440  0.634760  0.044300  1.0  -0.0674
  C  C406  1  0.145310  0.599930  0.044500  1.0  -0.1805
  C  C407  1  0.133590  0.581650  0.007500  1.0  0.2843
  C  C408  1  0.147000  0.598190  0.970200  1.0  -0.1338
  C  C409  1  0.172130  0.633020  0.969900  1.0  -0.0684
  C  C410  1  0.083100  0.538500  0.034500  1.0  0.4701
  C  C411  1  0.056600  0.502800  0.032600  1.0  0.121
  C  C412  1  0.060100  0.475600  0.000800  1.0  -0.1931
  C  C413  1  0.290000  0.809930  0.002100  1.0  0.5681
  C  C414  1  0.316150  0.848700  0.007000  1.0  -0.1394
  C  C415  1  0.329560  0.865240  0.044300  1.0  -0.0688
  C  C416  1  0.354690  0.900070  0.044500  1.0  -0.1832
  C  C417  1  0.366410  0.918350  0.007500  1.0  0.2842
  C  C418  1  0.353000  0.901810  0.970200  1.0  -0.1336
  C  C419  1  0.327870  0.866980  0.969900  1.0  -0.067
  C  C420  1  0.416900  0.961500  0.034500  1.0  0.4691
  C  C421  1  0.443400  0.997200  0.032600  1.0  0.119
  C  C422  1  0.439900  0.024400  0.000800  1.0  -0.1928
  C  C423  1  0.210000  0.809930  0.497900  1.0  0.5674
  C  C424  1  0.183850  0.848700  0.493000  1.0  -0.1402
  C  C425  1  0.170440  0.865240  0.455700  1.0  -0.0673
  C  C426  1  0.145310  0.900070  0.455500  1.0  -0.1814
  C  C427  1  0.133590  0.918350  0.492500  1.0  0.2848
  C  C428  1  0.147000  0.901810  0.529800  1.0  -0.1336
  C  C429  1  0.172130  0.866980  0.530100  1.0  -0.0674
  C  C430  1  0.083100  0.961500  0.465500  1.0  0.4678
  C  C431  1  0.056600  0.997200  0.467400  1.0  0.119
  C  C432  1  0.060100  0.024400  0.499200  1.0  -0.1917
  C  C433  1  0.710000  0.502100  0.190070  1.0  0.5676
  C  C434  1  0.683850  0.507000  0.151300  1.0  -0.1413
  C  C435  1  0.670440  0.544300  0.134760  1.0  -0.0659
  C  C436  1  0.645310  0.544500  0.099930  1.0  -0.1827
  C  C437  1  0.633590  0.507500  0.081650  1.0  0.2852
  C  C438  1  0.647000  0.470200  0.098190  1.0  -0.135
  C  C439  1  0.672130  0.469900  0.133020  1.0  -0.0663
  C  C440  1  0.583100  0.534500  0.038500  1.0  0.4632
  C  C441  1  0.556600  0.532600  0.002800  1.0  0.1172
  C  C442  1  0.560100  0.500800  0.975600  1.0  -0.1942
  C  C443  1  0.790000  0.997900  0.190070  1.0  0.5676
  C  C444  1  0.816150  0.993000  0.151300  1.0  -0.1406
  C  C445  1  0.829560  0.955700  0.134760  1.0  -0.0651
  C  C446  1  0.854690  0.955500  0.099930  1.0  -0.1844
  C  C447  1  0.866410  0.992500  0.081650  1.0  0.285
  C  C448  1  0.853000  0.029800  0.098190  1.0  -0.1343
  C  C449  1  0.827870  0.030100  0.133020  1.0  -0.0657
  C  C450  1  0.916900  0.965500  0.038500  1.0  0.4622
  C  C451  1  0.943400  0.967400  0.002800  1.0  0.1147
  C  C452  1  0.939900  0.999200  0.975600  1.0  -0.1961
  C  C453  1  0.710000  0.997900  0.309930  1.0  0.5667
  C  C454  1  0.683850  0.993000  0.348700  1.0  -0.1411
  C  C455  1  0.670440  0.955700  0.365240  1.0  -0.066
  C  C456  1  0.645310  0.955500  0.400070  1.0  -0.1824
  C  C457  1  0.633590  0.992500  0.418350  1.0  0.2848
  C  C458  1  0.647000  0.029800  0.401810  1.0  -0.1357
  C  C459  1  0.672130  0.030100  0.366980  1.0  -0.0639
  C  C460  1  0.583100  0.965500  0.461500  1.0  0.463
  C  C461  1  0.556600  0.967400  0.497200  1.0  0.119
  C  C462  1  0.560100  0.999200  0.524400  1.0  -0.1945
  C  C463  1  0.790000  0.502100  0.309930  1.0  0.5669
  C  C464  1  0.816150  0.507000  0.348700  1.0  -0.1401
  C  C465  1  0.829560  0.544300  0.365240  1.0  -0.0665
  C  C466  1  0.854690  0.544500  0.400070  1.0  -0.1837
  C  C467  1  0.866410  0.507500  0.418350  1.0  0.284
  C  C468  1  0.853000  0.470200  0.401810  1.0  -0.1369
  C  C469  1  0.827870  0.469900  0.366980  1.0  -0.0657
  C  C470  1  0.916900  0.534500  0.461500  1.0  0.4641
  C  C471  1  0.943400  0.532600  0.497200  1.0  0.1158
  C  C472  1  0.939900  0.500800  0.524400  1.0  -0.1963
  C  C473  1  0.502100  0.309930  0.790000  1.0  0.5679
  C  C474  1  0.507000  0.348700  0.816150  1.0  -0.14
  C  C475  1  0.544300  0.365240  0.829560  1.0  -0.0615
  C  C476  1  0.544500  0.400070  0.854690  1.0  -0.183
  C  C477  1  0.507500  0.418350  0.866410  1.0  0.2845
  C  C478  1  0.470200  0.401810  0.853000  1.0  -0.1341
  C  C479  1  0.469900  0.366980  0.827870  1.0  -0.0669
  C  C480  1  0.534500  0.461500  0.916900  1.0  0.4671
  C  C481  1  0.532600  0.497200  0.943400  1.0  0.1203
  C  C482  1  0.500800  0.524400  0.939900  1.0  -0.1975
  C  C483  1  0.997900  0.309930  0.710000  1.0  0.5677
  C  C484  1  0.993000  0.348700  0.683850  1.0  -0.1397
  C  C485  1  0.955700  0.365240  0.670440  1.0  -0.0624
  C  C486  1  0.955500  0.400070  0.645310  1.0  -0.1844
  C  C487  1  0.992500  0.418350  0.633590  1.0  0.285
  C  C488  1  0.029800  0.401810  0.647000  1.0  -0.1315
  C  C489  1  0.030100  0.366980  0.672130  1.0  -0.0654
  C  C490  1  0.965500  0.461500  0.583100  1.0  0.4656
  C  C491  1  0.967400  0.497200  0.556600  1.0  0.1219
  C  C492  1  0.999200  0.524400  0.560100  1.0  -0.1992
  C  C493  1  0.997900  0.190070  0.790000  1.0  0.5689
  C  C494  1  0.993000  0.151300  0.816150  1.0  -0.1403
  C  C495  1  0.955700  0.134760  0.829560  1.0  -0.0623
  C  C496  1  0.955500  0.099930  0.854690  1.0  -0.1824
  C  C497  1  0.992500  0.081650  0.866410  1.0  0.2846
  C  C498  1  0.029800  0.098190  0.853000  1.0  -0.1316
  C  C499  1  0.030100  0.133020  0.827870  1.0  -0.0663
  C  C500  1  0.965500  0.038500  0.916900  1.0  0.466
  C  C501  1  0.967400  0.002800  0.943400  1.0  0.1181
  C  C502  1  0.999200  0.975600  0.939900  1.0  -0.2012
  C  C503  1  0.502100  0.190070  0.710000  1.0  0.5688
  C  C504  1  0.507000  0.151300  0.683850  1.0  -0.1397
  C  C505  1  0.544300  0.134760  0.670440  1.0  -0.062
  C  C506  1  0.544500  0.099930  0.645310  1.0  -0.1834
  C  C507  1  0.507500  0.081650  0.633590  1.0  0.2848
  C  C508  1  0.470200  0.098190  0.647000  1.0  -0.1337
  C  C509  1  0.469900  0.133020  0.672130  1.0  -0.0679
  C  C510  1  0.534500  0.038500  0.583100  1.0  0.4698
  C  C511  1  0.532600  0.002800  0.556600  1.0  0.1221
  C  C512  1  0.500800  0.975600  0.560100  1.0  -0.2004
  C  C513  1  0.309930  0.710000  0.997900  1.0  0.5644
  C  C514  1  0.348700  0.683850  0.993000  1.0  -0.1383
  C  C515  1  0.365240  0.670440  0.955700  1.0  -0.0669
  C  C516  1  0.400070  0.645310  0.955500  1.0  -0.1833
  C  C517  1  0.418350  0.633590  0.992500  1.0  0.283
  C  C518  1  0.401810  0.647000  0.029800  1.0  -0.1349
  C  C519  1  0.366980  0.672130  0.030100  1.0  -0.0684
  C  C520  1  0.461500  0.583100  0.965500  1.0  0.4641
  C  C521  1  0.497200  0.556600  0.967400  1.0  0.1177
  C  C522  1  0.524400  0.560100  0.999200  1.0  -0.1905
  C  C523  1  0.309930  0.790000  0.502100  1.0  0.5648
  C  C524  1  0.348700  0.816150  0.507000  1.0  -0.1386
  C  C525  1  0.365240  0.829560  0.544300  1.0  -0.0676
  C  C526  1  0.400070  0.854690  0.544500  1.0  -0.184
  C  C527  1  0.418350  0.866410  0.507500  1.0  0.2834
  C  C528  1  0.401810  0.853000  0.470200  1.0  -0.1351
  C  C529  1  0.366980  0.827870  0.469900  1.0  -0.0667
  C  C530  1  0.461500  0.916900  0.534500  1.0  0.4666
  C  C531  1  0.497200  0.943400  0.532600  1.0  0.1209
  C  C532  1  0.524400  0.939900  0.500800  1.0  -0.1921
  C  C533  1  0.190070  0.710000  0.502100  1.0  0.5659
  C  C534  1  0.151300  0.683850  0.507000  1.0  -0.1382
  C  C535  1  0.134760  0.670440  0.544300  1.0  -0.0675
  C  C536  1  0.099930  0.645310  0.544500  1.0  -0.182
  C  C537  1  0.081650  0.633590  0.507500  1.0  0.2831
  C  C538  1  0.098190  0.647000  0.470200  1.0  -0.1359
  C  C539  1  0.133020  0.672130  0.469900  1.0  -0.0684
  C  C540  1  0.038500  0.583100  0.534500  1.0  0.464
  C  C541  1  0.002800  0.556600  0.532600  1.0  0.1194
  C  C542  1  0.975600  0.560100  0.500800  1.0  -0.1899
  C  C543  1  0.190070  0.790000  0.997900  1.0  0.5652
  C  C544  1  0.151300  0.816150  0.993000  1.0  -0.1384
  C  C545  1  0.134760  0.829560  0.955700  1.0  -0.0677
  C  C546  1  0.099930  0.854690  0.955500  1.0  -0.1817
  C  C547  1  0.081650  0.866410  0.992500  1.0  0.2836
  C  C548  1  0.098190  0.853000  0.029800  1.0  -0.1357
  C  C549  1  0.133020  0.827870  0.030100  1.0  -0.0676
  C  C550  1  0.038500  0.916900  0.965500  1.0  0.4675
  C  C551  1  0.002800  0.943400  0.967400  1.0  0.1186
  C  C552  1  0.975600  0.939900  0.999200  1.0  -0.1921
  C  C553  1  0.290000  0.497900  0.809930  1.0  0.5678
  C  C554  1  0.316150  0.493000  0.848700  1.0  -0.1404
  C  C555  1  0.329560  0.455700  0.865240  1.0  -0.0656
  C  C556  1  0.354690  0.455500  0.900070  1.0  -0.1847
  C  C557  1  0.366410  0.492500  0.918350  1.0  0.2845
  C  C558  1  0.353000  0.529800  0.901810  1.0  -0.1359
  C  C559  1  0.327870  0.530100  0.866980  1.0  -0.0653
  C  C560  1  0.416900  0.465500  0.961500  1.0  0.4621
  C  C561  1  0.443400  0.467400  0.997200  1.0  0.1165
  C  C562  1  0.439900  0.499200  0.024400  1.0  -0.1975
  C  C563  1  0.210000  0.002100  0.809930  1.0  0.5678
  C  C564  1  0.183850  0.007000  0.848700  1.0  -0.141
  C  C565  1  0.170440  0.044300  0.865240  1.0  -0.0654
  C  C566  1  0.145310  0.044500  0.900070  1.0  -0.183
  C  C567  1  0.133590  0.007500  0.918350  1.0  0.2846
  C  C568  1  0.147000  0.970200  0.901810  1.0  -0.1356
  C  C569  1  0.172130  0.969900  0.866980  1.0  -0.0657
  C  C570  1  0.083100  0.034500  0.961500  1.0  0.463
  C  C571  1  0.056600  0.032600  0.997200  1.0  0.118
  C  C572  1  0.060100  0.000800  0.024400  1.0  -0.1935
  C  C573  1  0.290000  0.002100  0.690070  1.0  0.5684
  C  C574  1  0.316150  0.007000  0.651300  1.0  -0.1402
  C  C575  1  0.329560  0.044300  0.634760  1.0  -0.0669
  C  C576  1  0.354690  0.044500  0.599930  1.0  -0.1831
  C  C577  1  0.366410  0.007500  0.581650  1.0  0.2847
  C  C578  1  0.353000  0.970200  0.598190  1.0  -0.136
  C  C579  1  0.327870  0.969900  0.633020  1.0  -0.0661
  C  C580  1  0.416900  0.034500  0.538500  1.0  0.4642
  C  C581  1  0.443400  0.032600  0.502800  1.0  0.1151
  C  C582  1  0.439900  0.000800  0.475600  1.0  -0.1945
  C  C583  1  0.210000  0.497900  0.690070  1.0  0.5684
  C  C584  1  0.183850  0.493000  0.651300  1.0  -0.1417
  C  C585  1  0.170440  0.455700  0.634760  1.0  -0.0659
  C  C586  1  0.145310  0.455500  0.599930  1.0  -0.1822
  C  C587  1  0.133590  0.492500  0.581650  1.0  0.2853
  C  C588  1  0.147000  0.529800  0.598190  1.0  -0.1348
  C  C589  1  0.172130  0.530100  0.633020  1.0  -0.0642
  C  C590  1  0.083100  0.465500  0.538500  1.0  0.4633
  C  C591  1  0.056600  0.467400  0.502800  1.0  0.1181
  C  C592  1  0.060100  0.499200  0.475600  1.0  -0.1952
  C  C593  1  0.497900  0.690070  0.210000  1.0  0.5695
  C  C594  1  0.493000  0.651300  0.183850  1.0  -0.1399
  C  C595  1  0.455700  0.634760  0.170440  1.0  -0.0626
  C  C596  1  0.455500  0.599930  0.145310  1.0  -0.1838
  C  C597  1  0.492500  0.581650  0.133590  1.0  0.2849
  C  C598  1  0.529800  0.598190  0.147000  1.0  -0.1311
  C  C599  1  0.530100  0.633020  0.172130  1.0  -0.0664
  C  C600  1  0.465500  0.538500  0.083100  1.0  0.4667
  C  C601  1  0.467400  0.502800  0.056600  1.0  0.1222
  C  C602  1  0.499200  0.475600  0.060100  1.0  -0.2007
  C  C603  1  0.002100  0.690070  0.290000  1.0  0.5698
  C  C604  1  0.007000  0.651300  0.316150  1.0  -0.1399
  C  C605  1  0.044300  0.634760  0.329560  1.0  -0.0621
  C  C606  1  0.044500  0.599930  0.354690  1.0  -0.1825
  C  C607  1  0.007500  0.581650  0.366410  1.0  0.2841
  C  C608  1  0.970200  0.598190  0.353000  1.0  -0.1338
  C  C609  1  0.969900  0.633020  0.327870  1.0  -0.0676
  C  C610  1  0.034500  0.538500  0.416900  1.0  0.4675
  C  C611  1  0.032600  0.502800  0.443400  1.0  0.1194
  C  C612  1  0.000800  0.475600  0.439900  1.0  -0.2006
  C  C613  1  0.002100  0.809930  0.210000  1.0  0.5687
  C  C614  1  0.007000  0.848700  0.183850  1.0  -0.1395
  C  C615  1  0.044300  0.865240  0.170440  1.0  -0.0617
  C  C616  1  0.044500  0.900070  0.145310  1.0  -0.184
  C  C617  1  0.007500  0.918350  0.133590  1.0  0.285
  C  C618  1  0.970200  0.901810  0.147000  1.0  -0.1342
  C  C619  1  0.969900  0.866980  0.172130  1.0  -0.0668
  C  C620  1  0.034500  0.961500  0.083100  1.0  0.4687
  C  C621  1  0.032600  0.997200  0.056600  1.0  0.1227
  C  C622  1  0.000800  0.024400  0.060100  1.0  -0.1986
  C  C623  1  0.497900  0.809930  0.290000  1.0  0.5685
  C  C624  1  0.493000  0.848700  0.316150  1.0  -0.1404
  C  C625  1  0.455700  0.865240  0.329560  1.0  -0.0618
  C  C626  1  0.455500  0.900070  0.354690  1.0  -0.1832
  C  C627  1  0.492500  0.918350  0.366410  1.0  0.2849
  C  C628  1  0.529800  0.901810  0.353000  1.0  -0.1321
  C  C629  1  0.530100  0.866980  0.327870  1.0  -0.0656
  C  C630  1  0.465500  0.961500  0.416900  1.0  0.4652
  C  C631  1  0.467400  0.997200  0.443400  1.0  0.119
  C  C632  1  0.499200  0.024400  0.439900  1.0  -0.1981
  C  C633  1  0.690070  0.290000  0.002100  1.0  0.5667
  C  C634  1  0.651300  0.316150  0.007000  1.0  -0.1384
  C  C635  1  0.634760  0.329560  0.044300  1.0  -0.0672
  C  C636  1  0.599930  0.354690  0.044500  1.0  -0.1837
  C  C637  1  0.581650  0.366410  0.007500  1.0  0.2835
  C  C638  1  0.598190  0.353000  0.970200  1.0  -0.1356
  C  C639  1  0.633020  0.327870  0.969900  1.0  -0.0674
  C  C640  1  0.538500  0.416900  0.034500  1.0  0.4658
  C  C641  1  0.502800  0.443400  0.032600  1.0  0.121
  C  C642  1  0.475600  0.439900  0.000800  1.0  -0.1926
  C  C643  1  0.690070  0.210000  0.497900  1.0  0.5663
  C  C644  1  0.651300  0.183850  0.493000  1.0  -0.1382
  C  C645  1  0.634760  0.170440  0.455700  1.0  -0.0678
  C  C646  1  0.599930  0.145310  0.455500  1.0  -0.1822
  C  C647  1  0.581650  0.133590  0.492500  1.0  0.2833
  C  C648  1  0.598190  0.147000  0.529800  1.0  -0.135
  C  C649  1  0.633020  0.172130  0.530100  1.0  -0.0675
  C  C650  1  0.538500  0.083100  0.465500  1.0  0.4627
  C  C651  1  0.502800  0.056600  0.467400  1.0  0.1171
  C  C652  1  0.475600  0.060100  0.499200  1.0  -0.1899
  C  C653  1  0.809930  0.290000  0.497900  1.0  0.5653
  C  C654  1  0.848700  0.316150  0.493000  1.0  -0.1386
  C  C655  1  0.865240  0.329560  0.455700  1.0  -0.0668
  C  C656  1  0.900070  0.354690  0.455500  1.0  -0.1829
  C  C657  1  0.918350  0.366410  0.492500  1.0  0.2835
  C  C658  1  0.901810  0.353000  0.529800  1.0  -0.1356
  C  C659  1  0.866980  0.327870  0.530100  1.0  -0.0681
  C  C660  1  0.961500  0.416900  0.465500  1.0  0.4685
  C  C661  1  0.997200  0.443400  0.467400  1.0  0.1183
  C  C662  1  0.024400  0.439900  0.499200  1.0  -0.1925
  C  C663  1  0.809930  0.210000  0.002100  1.0  0.5657
  C  C664  1  0.848700  0.183850  0.007000  1.0  -0.1384
  C  C665  1  0.865240  0.170440  0.044300  1.0  -0.068
  C  C666  1  0.900070  0.145310  0.044500  1.0  -0.1823
  C  C667  1  0.918350  0.133590  0.007500  1.0  0.2828
  C  C668  1  0.901810  0.147000  0.970200  1.0  -0.1353
  C  C669  1  0.866980  0.172130  0.969900  1.0  -0.0676
  C  C670  1  0.961500  0.083100  0.034500  1.0  0.4652
  C  C671  1  0.997200  0.056600  0.032600  1.0  0.1197
  C  C672  1  0.024400  0.060100  0.000800  1.0  -0.1902
  C  C673  1  0.502100  0.710000  0.309930  1.0  0.5677
  C  C674  1  0.507000  0.683850  0.348700  1.0  -0.1393
  C  C675  1  0.544300  0.670440  0.365240  1.0  -0.0616
  C  C676  1  0.544500  0.645310  0.400070  1.0  -0.1809
  C  C677  1  0.507500  0.633590  0.418350  1.0  0.2828
  C  C678  1  0.470200  0.647000  0.401810  1.0  -0.1351
  C  C679  1  0.469900  0.672130  0.366980  1.0  -0.0659
  C  C680  1  0.534500  0.583100  0.461500  1.0  0.4625
  C  C681  1  0.532600  0.556600  0.497200  1.0  0.1196
  C  C682  1  0.500800  0.560100  0.524400  1.0  -0.1964
  C  C683  1  0.997900  0.790000  0.309930  1.0  0.5675
  C  C684  1  0.993000  0.816150  0.348700  1.0  -0.1398
  C  C685  1  0.955700  0.829560  0.365240  1.0  -0.0614
  C  C686  1  0.955500  0.854690  0.400070  1.0  -0.1818
  C  C687  1  0.992500  0.866410  0.418350  1.0  0.2833
  C  C688  1  0.029800  0.853000  0.401810  1.0  -0.133
  C  C689  1  0.030100  0.827870  0.366980  1.0  -0.0645
  C  C690  1  0.965500  0.916900  0.461500  1.0  0.4635
  C  C691  1  0.967400  0.943400  0.497200  1.0  0.1187
  C  C692  1  0.999200  0.939900  0.524400  1.0  -0.1998
  C  C693  1  0.997900  0.710000  0.190070  1.0  0.5681
  C  C694  1  0.993000  0.683850  0.151300  1.0  -0.14
  C  C695  1  0.955700  0.670440  0.134760  1.0  -0.062
  C  C696  1  0.955500  0.645310  0.099930  1.0  -0.1805
  C  C697  1  0.992500  0.633590  0.081650  1.0  0.2834
  C  C698  1  0.029800  0.647000  0.098190  1.0  -0.1323
  C  C699  1  0.030100  0.672130  0.133020  1.0  -0.0651
  C  C700  1  0.965500  0.583100  0.038500  1.0  0.4613
  C  C701  1  0.967400  0.556600  0.002800  1.0  0.1179
  C  C702  1  0.999200  0.560100  0.975600  1.0  -0.1958
  C  C703  1  0.502100  0.790000  0.190070  1.0  0.5681
  C  C704  1  0.507000  0.816150  0.151300  1.0  -0.1397
  C  C705  1  0.544300  0.829560  0.134760  1.0  -0.0612
  C  C706  1  0.544500  0.854690  0.099930  1.0  -0.1815
  C  C707  1  0.507500  0.866410  0.081650  1.0  0.2837
  C  C708  1  0.470200  0.853000  0.098190  1.0  -0.1343
  C  C709  1  0.469900  0.827870  0.133020  1.0  -0.0661
  C  C710  1  0.534500  0.916900  0.038500  1.0  0.4653
  C  C711  1  0.532600  0.943400  0.002800  1.0  0.1199
  C  C712  1  0.500800  0.939900  0.975600  1.0  -0.1975
  C  C713  1  0.309930  0.502100  0.710000  1.0  0.5653
  C  C714  1  0.348700  0.507000  0.683850  1.0  -0.1391
  C  C715  1  0.365240  0.544300  0.670440  1.0  -0.0666
  C  C716  1  0.400070  0.544500  0.645310  1.0  -0.1847
  C  C717  1  0.418350  0.507500  0.633590  1.0  0.2853
  C  C718  1  0.401810  0.470200  0.647000  1.0  -0.1354
  C  C719  1  0.366980  0.469900  0.672130  1.0  -0.067
  C  C720  1  0.461500  0.534500  0.583100  1.0  0.4651
  C  C721  1  0.497200  0.532600  0.556600  1.0  0.121
  C  C722  1  0.524400  0.500800  0.560100  1.0  -0.193
  C  C723  1  0.309930  0.997900  0.790000  1.0  0.5648
  C  C724  1  0.348700  0.993000  0.816150  1.0  -0.1398
  C  C725  1  0.365240  0.955700  0.829560  1.0  -0.0659
  C  C726  1  0.400070  0.955500  0.854690  1.0  -0.1864
  C  C727  1  0.418350  0.992500  0.866410  1.0  0.2853
  C  C728  1  0.401810  0.029800  0.853000  1.0  -0.1356
  C  C729  1  0.366980  0.030100  0.827870  1.0  -0.0661
  C  C730  1  0.461500  0.965500  0.916900  1.0  0.4645
  C  C731  1  0.497200  0.967400  0.943400  1.0  0.1174
  C  C732  1  0.524400  0.999200  0.939900  1.0  -0.1949
  C  C733  1  0.190070  0.997900  0.710000  1.0  0.5658
  C  C734  1  0.151300  0.993000  0.683850  1.0  -0.139
  C  C735  1  0.134760  0.955700  0.670440  1.0  -0.0657
  C  C736  1  0.099930  0.955500  0.645310  1.0  -0.1853
  C  C737  1  0.081650  0.992500  0.633590  1.0  0.2859
  C  C738  1  0.098190  0.029800  0.647000  1.0  -0.1345
  C  C739  1  0.133020  0.030100  0.672130  1.0  -0.0651
  C  C740  1  0.038500  0.965500  0.583100  1.0  0.4655
  C  C741  1  0.002800  0.967400  0.556600  1.0  0.1215
  C  C742  1  0.975600  0.999200  0.560100  1.0  -0.1965
  C  C743  1  0.190070  0.502100  0.790000  1.0  0.5658
  C  C744  1  0.151300  0.507000  0.816150  1.0  -0.1393
  C  C745  1  0.134760  0.544300  0.829560  1.0  -0.0667
  C  C746  1  0.099930  0.544500  0.854690  1.0  -0.1861
  C  C747  1  0.081650  0.507500  0.866410  1.0  0.2851
  C  C748  1  0.098190  0.470200  0.853000  1.0  -0.1361
  C  C749  1  0.133020  0.469900  0.827870  1.0  -0.067
  C  C750  1  0.038500  0.534500  0.916900  1.0  0.4634
  C  C751  1  0.002800  0.532600  0.943400  1.0  0.1167
  C  C752  1  0.975600  0.500800  0.939900  1.0  -0.1942
  C  C753  1  0.710000  0.309930  0.502100  1.0  0.5671
  C  C754  1  0.683850  0.348700  0.507000  1.0  -0.1402
  C  C755  1  0.670440  0.365240  0.544300  1.0  -0.067
  C  C756  1  0.645310  0.400070  0.544500  1.0  -0.1809
  C  C757  1  0.633590  0.418350  0.507500  1.0  0.2847
  C  C758  1  0.647000  0.401810  0.470200  1.0  -0.1337
  C  C759  1  0.672130  0.366980  0.469900  1.0  -0.0673
  C  C760  1  0.583100  0.461500  0.534500  1.0  0.4695
  C  C761  1  0.556600  0.497200  0.532600  1.0  0.1206
  C  C762  1  0.560100  0.524400  0.500800  1.0  -0.1907
  C  C763  1  0.790000  0.309930  0.997900  1.0  0.5668
  C  C764  1  0.816150  0.348700  0.993000  1.0  -0.1395
  C  C765  1  0.829560  0.365240  0.955700  1.0  -0.0671
  C  C766  1  0.854690  0.400070  0.955500  1.0  -0.1824
  C  C767  1  0.866410  0.418350  0.992500  1.0  0.2843
  C  C768  1  0.853000  0.401810  0.029800  1.0  -0.1344
  C  C769  1  0.827870  0.366980  0.030100  1.0  -0.0685
  C  C770  1  0.916900  0.461500  0.965500  1.0  0.4684
  C  C771  1  0.943400  0.497200  0.967400  1.0  0.1171
  C  C772  1  0.939900  0.524400  0.999200  1.0  -0.1925
  C  C773  1  0.710000  0.190070  0.997900  1.0  0.5677
  C  C774  1  0.683850  0.151300  0.993000  1.0  -0.1403
  C  C775  1  0.670440  0.134760  0.955700  1.0  -0.0679
  C  C776  1  0.645310  0.099930  0.955500  1.0  -0.181
  C  C777  1  0.633590  0.081650  0.992500  1.0  0.2842
  C  C778  1  0.647000  0.098190  0.029800  1.0  -0.1332
  C  C779  1  0.672130  0.133020  0.030100  1.0  -0.0678
  C  C780  1  0.583100  0.038500  0.965500  1.0  0.4679
  C  C781  1  0.556600  0.002800  0.967400  1.0  0.1188
  C  C782  1  0.560100  0.975600  0.999200  1.0  -0.1942
  C  C783  1  0.790000  0.190070  0.502100  1.0  0.5681
  C  C784  1  0.816150  0.151300  0.507000  1.0  -0.1391
  C  C785  1  0.829560  0.134760  0.544300  1.0  -0.0693
  C  C786  1  0.854690  0.099930  0.544500  1.0  -0.1827
  C  C787  1  0.866410  0.081650  0.507500  1.0  0.2839
  C  C788  1  0.853000  0.098190  0.470200  1.0  -0.134
  C  C789  1  0.827870  0.133020  0.469900  1.0  -0.068
  C  C790  1  0.916900  0.038500  0.534500  1.0  0.4696
  C  C791  1  0.943400  0.002800  0.532600  1.0  0.1198
  C  C792  1  0.939900  0.975600  0.500800  1.0  -0.1947
  N  N793  1  0.493700  0.389600  0.546500  1.0  -0.2976
  N  N794  1  0.006300  0.110400  0.546500  1.0  -0.2943
  N  N795  1  0.006300  0.389600  0.953500  1.0  -0.2965
  N  N796  1  0.493700  0.110400  0.953500  1.0  -0.2954
  N  N797  1  0.546500  0.493700  0.389600  1.0  -0.299
  N  N798  1  0.546500  0.006300  0.110400  1.0  -0.3012
  N  N799  1  0.953500  0.006300  0.389600  1.0  -0.2973
  N  N800  1  0.953500  0.493700  0.110400  1.0  -0.2985
  N  N801  1  0.389600  0.546500  0.493700  1.0  -0.2948
  N  N802  1  0.110400  0.546500  0.006300  1.0  -0.2924
  N  N803  1  0.389600  0.953500  0.006300  1.0  -0.2957
  N  N804  1  0.110400  0.953500  0.493700  1.0  -0.2934
  N  N805  1  0.610400  0.506300  0.046500  1.0  -0.2941
  N  N806  1  0.889600  0.993700  0.046500  1.0  -0.2976
  N  N807  1  0.610400  0.993700  0.453500  1.0  -0.2941
  N  N808  1  0.889600  0.506300  0.453500  1.0  -0.296
  N  N809  1  0.506300  0.453500  0.889600  1.0  -0.298
  N  N810  1  0.993700  0.453500  0.610400  1.0  -0.3002
  N  N811  1  0.993700  0.046500  0.889600  1.0  -0.2978
  N  N812  1  0.506300  0.046500  0.610400  1.0  -0.2987
  N  N813  1  0.453500  0.610400  0.993700  1.0  -0.2932
  N  N814  1  0.453500  0.889600  0.506300  1.0  -0.2956
  N  N815  1  0.046500  0.610400  0.506300  1.0  -0.2947
  N  N816  1  0.046500  0.889600  0.993700  1.0  -0.2968
  N  N817  1  0.389600  0.493700  0.953500  1.0  -0.2968
  N  N818  1  0.110400  0.006300  0.953500  1.0  -0.2943
  N  N819  1  0.389600  0.006300  0.546500  1.0  -0.2965
  N  N820  1  0.110400  0.493700  0.546500  1.0  -0.2947
  N  N821  1  0.493700  0.546500  0.110400  1.0  -0.2998
  N  N822  1  0.006300  0.546500  0.389600  1.0  -0.2966
  N  N823  1  0.006300  0.953500  0.110400  1.0  -0.2989
  N  N824  1  0.493700  0.953500  0.389600  1.0  -0.2993
  N  N825  1  0.546500  0.389600  0.006300  1.0  -0.2971
  N  N826  1  0.546500  0.110400  0.493700  1.0  -0.2955
  N  N827  1  0.953500  0.389600  0.493700  1.0  -0.2951
  N  N828  1  0.953500  0.110400  0.006300  1.0  -0.2929
  N  N829  1  0.506300  0.610400  0.453500  1.0  -0.2952
  N  N830  1  0.993700  0.889600  0.453500  1.0  -0.297
  N  N831  1  0.993700  0.610400  0.046500  1.0  -0.2945
  N  N832  1  0.506300  0.889600  0.046500  1.0  -0.297
  N  N833  1  0.453500  0.506300  0.610400  1.0  -0.298
  N  N834  1  0.453500  0.993700  0.889600  1.0  -0.2991
  N  N835  1  0.046500  0.993700  0.610400  1.0  -0.3008
  N  N836  1  0.046500  0.506300  0.889600  1.0  -0.2978
  N  N837  1  0.610400  0.453500  0.506300  1.0  -0.2935
  N  N838  1  0.889600  0.453500  0.993700  1.0  -0.2954
  N  N839  1  0.610400  0.046500  0.993700  1.0  -0.2927
  N  N840  1  0.889600  0.046500  0.506300  1.0  -0.2951
  O  O841  1  0.463640  0.284270  0.703280  1.0  -0.6071
  O  O842  1  0.533900  0.284600  0.700500  1.0  -0.5561
  O  O843  1  0.433100  0.425600  0.555400  1.0  -0.4729
  O  O844  1  0.036360  0.215730  0.703280  1.0  -0.6087
  O  O845  1  0.966100  0.215400  0.700500  1.0  -0.5535
  O  O846  1  0.066900  0.074400  0.555400  1.0  -0.4731
  O  O847  1  0.036360  0.284270  0.796720  1.0  -0.6088
  O  O848  1  0.966100  0.284600  0.799500  1.0  -0.5533
  O  O849  1  0.066900  0.425600  0.944600  1.0  -0.4734
  O  O850  1  0.463640  0.215730  0.796720  1.0  -0.6069
  O  O851  1  0.533900  0.215400  0.799500  1.0  -0.5559
  O  O852  1  0.433100  0.074400  0.944600  1.0  -0.4732
  O  O853  1  0.703280  0.463640  0.284270  1.0  -0.6087
  O  O854  1  0.700500  0.533900  0.284600  1.0  -0.5527
  O  O855  1  0.555400  0.433100  0.425600  1.0  -0.4689
  O  O856  1  0.703280  0.036360  0.215730  1.0  -0.6085
  O  O857  1  0.700500  0.966100  0.215400  1.0  -0.5546
  O  O858  1  0.555400  0.066900  0.074400  1.0  -0.4717
  O  O859  1  0.796720  0.036360  0.284270  1.0  -0.6095
  O  O860  1  0.799500  0.966100  0.284600  1.0  -0.5555
  O  O861  1  0.944600  0.066900  0.425600  1.0  -0.4719
  O  O862  1  0.796720  0.463640  0.215730  1.0  -0.6096
  O  O863  1  0.799500  0.533900  0.215400  1.0  -0.5529
  O  O864  1  0.944600  0.433100  0.074400  1.0  -0.4707
  O  O865  1  0.284270  0.703280  0.463640  1.0  -0.6068
  O  O866  1  0.284600  0.700500  0.533900  1.0  -0.5532
  O  O867  1  0.425600  0.555400  0.433100  1.0  -0.4814
  O  O868  1  0.215730  0.703280  0.036360  1.0  -0.6087
  O  O869  1  0.215400  0.700500  0.966100  1.0  -0.5551
  O  O870  1  0.074400  0.555400  0.066900  1.0  -0.4761
  O  O871  1  0.284270  0.796720  0.036360  1.0  -0.6085
  O  O872  1  0.284600  0.799500  0.966100  1.0  -0.5554
  O  O873  1  0.425600  0.944600  0.066900  1.0  -0.4745
  O  O874  1  0.215730  0.796720  0.463640  1.0  -0.6082
  O  O875  1  0.215400  0.799500  0.533900  1.0  -0.5525
  O  O876  1  0.074400  0.944600  0.433100  1.0  -0.4793
  O  O877  1  0.715730  0.536360  0.203280  1.0  -0.6084
  O  O878  1  0.715400  0.466100  0.200500  1.0  -0.5544
  O  O879  1  0.574400  0.566900  0.055400  1.0  -0.4788
  O  O880  1  0.784270  0.963640  0.203280  1.0  -0.6085
  O  O881  1  0.784600  0.033900  0.200500  1.0  -0.5525
  O  O882  1  0.925600  0.933100  0.055400  1.0  -0.4755
  O  O883  1  0.715730  0.963640  0.296720  1.0  -0.6089
  O  O884  1  0.715400  0.033900  0.299500  1.0  -0.552
  O  O885  1  0.574400  0.933100  0.444600  1.0  -0.477
  O  O886  1  0.784270  0.536360  0.296720  1.0  -0.6086
  O  O887  1  0.784600  0.466100  0.299500  1.0  -0.5549
  O  O888  1  0.925600  0.566900  0.444600  1.0  -0.4802
  O  O889  1  0.536360  0.296720  0.784270  1.0  -0.6087
  O  O890  1  0.466100  0.299500  0.784600  1.0  -0.5533
  O  O891  1  0.566900  0.444600  0.925600  1.0  -0.4711
  O  O892  1  0.963640  0.296720  0.715730  1.0  -0.6068
  O  O893  1  0.033900  0.299500  0.715400  1.0  -0.5559
  O  O894  1  0.933100  0.444600  0.574400  1.0  -0.4712
  O  O895  1  0.963640  0.203280  0.784270  1.0  -0.6063
  O  O896  1  0.033900  0.200500  0.784600  1.0  -0.5561
  O  O897  1  0.933100  0.055400  0.925600  1.0  -0.4706
  O  O898  1  0.536360  0.203280  0.715730  1.0  -0.6081
  O  O899  1  0.466100  0.200500  0.715400  1.0  -0.5533
  O  O900  1  0.566900  0.055400  0.574400  1.0  -0.4715
  O  O901  1  0.296720  0.715730  0.963640  1.0  -0.6081
  O  O902  1  0.299500  0.715400  0.033900  1.0  -0.5538
  O  O903  1  0.444600  0.574400  0.933100  1.0  -0.4766
  O  O904  1  0.296720  0.784270  0.536360  1.0  -0.6091
  O  O905  1  0.299500  0.784600  0.466100  1.0  -0.5561
  O  O906  1  0.444600  0.925600  0.566900  1.0  -0.4712
  O  O907  1  0.203280  0.715730  0.536360  1.0  -0.6087
  O  O908  1  0.200500  0.715400  0.466100  1.0  -0.5555
  O  O909  1  0.055400  0.574400  0.566900  1.0  -0.4719
  O  O910  1  0.203280  0.784270  0.963640  1.0  -0.6076
  O  O911  1  0.200500  0.784600  0.033900  1.0  -0.5526
  O  O912  1  0.055400  0.925600  0.933100  1.0  -0.476
  O  O913  1  0.284270  0.463640  0.796720  1.0  -0.6085
  O  O914  1  0.284600  0.533900  0.799500  1.0  -0.5525
  O  O915  1  0.425600  0.433100  0.944600  1.0  -0.476
  O  O916  1  0.215730  0.036360  0.796720  1.0  -0.609
  O  O917  1  0.215400  0.966100  0.799500  1.0  -0.5541
  O  O918  1  0.074400  0.066900  0.944600  1.0  -0.4791
  O  O919  1  0.284270  0.036360  0.703280  1.0  -0.6082
  O  O920  1  0.284600  0.966100  0.700500  1.0  -0.5552
  O  O921  1  0.425600  0.066900  0.555400  1.0  -0.4793
  O  O922  1  0.215730  0.463640  0.703280  1.0  -0.609
  O  O923  1  0.215400  0.533900  0.700500  1.0  -0.5518
  O  O924  1  0.074400  0.433100  0.555400  1.0  -0.477
  O  O925  1  0.463640  0.703280  0.215730  1.0  -0.6062
  O  O926  1  0.533900  0.700500  0.215400  1.0  -0.5564
  O  O927  1  0.433100  0.555400  0.074400  1.0  -0.4714
  O  O928  1  0.036360  0.703280  0.284270  1.0  -0.6079
  O  O929  1  0.966100  0.700500  0.284600  1.0  -0.5531
  O  O930  1  0.066900  0.555400  0.425600  1.0  -0.4708
  O  O931  1  0.036360  0.796720  0.215730  1.0  -0.6086
  O  O932  1  0.966100  0.799500  0.215400  1.0  -0.5533
  O  O933  1  0.066900  0.944600  0.074400  1.0  -0.471
  O  O934  1  0.463640  0.796720  0.284270  1.0  -0.6069
  O  O935  1  0.533900  0.799500  0.284600  1.0  -0.5559
  O  O936  1  0.433100  0.944600  0.425600  1.0  -0.4713
  O  O937  1  0.703280  0.284270  0.036360  1.0  -0.6088
  O  O938  1  0.700500  0.284600  0.966100  1.0  -0.5553
  O  O939  1  0.555400  0.425600  0.066900  1.0  -0.4718
  O  O940  1  0.703280  0.215730  0.463640  1.0  -0.6072
  O  O941  1  0.700500  0.215400  0.533900  1.0  -0.553
  O  O942  1  0.555400  0.074400  0.433100  1.0  -0.478
  O  O943  1  0.796720  0.284270  0.463640  1.0  -0.6086
  O  O944  1  0.799500  0.284600  0.533900  1.0  -0.5536
  O  O945  1  0.944600  0.425600  0.433100  1.0  -0.4746
  O  O946  1  0.796720  0.215730  0.036360  1.0  -0.6096
  O  O947  1  0.799500  0.215400  0.966100  1.0  -0.5565
  O  O948  1  0.944600  0.074400  0.066900  1.0  -0.4709
  O  O949  1  0.536360  0.715730  0.296720  1.0  -0.6088
  O  O950  1  0.466100  0.715400  0.299500  1.0  -0.5532
  O  O951  1  0.566900  0.574400  0.444600  1.0  -0.474
  O  O952  1  0.963640  0.784270  0.296720  1.0  -0.6068
  O  O953  1  0.033900  0.784600  0.299500  1.0  -0.5559
  O  O954  1  0.933100  0.925600  0.444600  1.0  -0.473
  O  O955  1  0.963640  0.715730  0.203280  1.0  -0.6071
  O  O956  1  0.033900  0.715400  0.200500  1.0  -0.5562
  O  O957  1  0.933100  0.574400  0.055400  1.0  -0.473
  O  O958  1  0.536360  0.784270  0.203280  1.0  -0.6086
  O  O959  1  0.466100  0.784600  0.200500  1.0  -0.5532
  O  O960  1  0.566900  0.925600  0.055400  1.0  -0.4725
  O  O961  1  0.296720  0.536360  0.715730  1.0  -0.6089
  O  O962  1  0.299500  0.466100  0.715400  1.0  -0.5559
  O  O963  1  0.444600  0.566900  0.574400  1.0  -0.4724
  O  O964  1  0.296720  0.963640  0.784270  1.0  -0.6097
  O  O965  1  0.299500  0.033900  0.784600  1.0  -0.5529
  O  O966  1  0.444600  0.933100  0.925600  1.0  -0.469
  O  O967  1  0.203280  0.963640  0.715730  1.0  -0.6085
  O  O968  1  0.200500  0.033900  0.715400  1.0  -0.5525
  O  O969  1  0.055400  0.933100  0.574400  1.0  -0.4702
  O  O970  1  0.203280  0.536360  0.784270  1.0  -0.609
  O  O971  1  0.200500  0.466100  0.784600  1.0  -0.5543
  O  O972  1  0.055400  0.566900  0.925600  1.0  -0.4715
  O  O973  1  0.715730  0.296720  0.536360  1.0  -0.6091
  O  O974  1  0.715400  0.299500  0.466100  1.0  -0.5548
  O  O975  1  0.574400  0.444600  0.566900  1.0  -0.4759
  O  O976  1  0.784270  0.296720  0.963640  1.0  -0.6074
  O  O977  1  0.784600  0.299500  0.033900  1.0  -0.5531
  O  O978  1  0.925600  0.444600  0.933100  1.0  -0.482
  O  O979  1  0.715730  0.203280  0.963640  1.0  -0.6074
  O  O980  1  0.715400  0.200500  0.033900  1.0  -0.5523
  O  O981  1  0.574400  0.055400  0.933100  1.0  -0.4793
  O  O982  1  0.784270  0.203280  0.536360  1.0  -0.6082
  O  O983  1  0.784600  0.200500  0.466100  1.0  -0.5558
  O  O984  1  0.925600  0.055400  0.566900  1.0  -0.4744
