# generated using pymatgen
data_Cd3H24(C7O2)8
_symmetry_space_group_name_H-M   'P 1'
_cell_length_a   26.58790000
_cell_length_b   26.58790000
_cell_length_c   67.33100000
_cell_angle_alpha   90.00000000
_cell_angle_beta   90.00000000
_cell_angle_gamma   120.00000000
_symmetry_Int_Tables_number   1
_chemical_formula_structural   Cd3H24(C7O2)8
_chemical_formula_sum   'Cd54 H432 C1008 O288'
_cell_volume   41220.54881296
_cell_formula_units_Z   18
loop_
 _symmetry_equiv_pos_site_id
 _symmetry_equiv_pos_as_xyz
  1  'x, y, z'
loop_
 _atom_site_type_symbol
 _atom_site_label
 _atom_site_symmetry_multiplicity
 _atom_site_fract_x
 _atom_site_fract_y
 _atom_site_fract_z
 _atom_site_occupancy
 _atom_site_charge
  Cd  Cd1  1  0.814270  0.670950  0.614260  1.0  1.0766
  Cd  Cd2  1  0.480940  0.004280  0.947600  1.0  1.0789
  Cd  Cd3  1  0.147600  0.337620  0.280930  1.0  1.0782
  Cd  Cd4  1  0.329050  0.143320  0.614260  1.0  1.0774
  Cd  Cd5  1  0.995720  0.476650  0.947600  1.0  1.0796
  Cd  Cd6  1  0.662380  0.809990  0.280930  1.0  1.0788
  Cd  Cd7  1  0.856680  0.185730  0.614260  1.0  1.0774
  Cd  Cd8  1  0.523350  0.519060  0.947600  1.0  1.0795
  Cd  Cd9  1  0.190010  0.852400  0.280930  1.0  1.0794
  Cd  Cd10  1  0.670950  0.814270  0.885740  1.0  1.0781
  Cd  Cd11  1  0.337620  0.147600  0.219070  1.0  1.0797
  Cd  Cd12  1  0.004280  0.480940  0.552400  1.0  1.0801
  Cd  Cd13  1  0.143320  0.329050  0.885740  1.0  1.0779
  Cd  Cd14  1  0.809990  0.662380  0.219070  1.0  1.0798
  Cd  Cd15  1  0.476650  0.995720  0.552400  1.0  1.0799
  Cd  Cd16  1  0.185730  0.856680  0.885740  1.0  1.0846
  Cd  Cd17  1  0.852400  0.190010  0.219070  1.0  1.0794
  Cd  Cd18  1  0.519060  0.523350  0.552400  1.0  1.0793
  Cd  Cd19  1  0.185730  0.329050  0.385740  1.0  1.0772
  Cd  Cd20  1  0.852400  0.662380  0.719070  1.0  1.0787
  Cd  Cd21  1  0.519060  0.995720  0.052400  1.0  1.0795
  Cd  Cd22  1  0.670950  0.856680  0.385740  1.0  1.0767
  Cd  Cd23  1  0.337620  0.190010  0.719070  1.0  1.0782
  Cd  Cd24  1  0.004280  0.523350  0.052400  1.0  1.079
  Cd  Cd25  1  0.143320  0.814270  0.385740  1.0  1.0776
  Cd  Cd26  1  0.809990  0.147600  0.719070  1.0  1.0797
  Cd  Cd27  1  0.476650  0.480940  0.052400  1.0  1.0797
  Cd  Cd28  1  0.329050  0.185730  0.114260  1.0  1.0773
  Cd  Cd29  1  0.995720  0.519060  0.447600  1.0  1.0795
  Cd  Cd30  1  0.662380  0.852400  0.780930  1.0  1.0791
  Cd  Cd31  1  0.856680  0.670950  0.114260  1.0  1.0768
  Cd  Cd32  1  0.523350  0.004280  0.447600  1.0  1.079
  Cd  Cd33  1  0.190010  0.337620  0.780930  1.0  1.0788
  Cd  Cd34  1  0.814270  0.143320  0.114260  1.0  1.0861
  Cd  Cd35  1  0.480940  0.476650  0.447600  1.0  1.0787
  Cd  Cd36  1  0.147600  0.809990  0.780930  1.0  1.0788
  Cd  Cd37  1  0.833330  0.666667  0.666667  1.0  1.0951
  Cd  Cd38  1  0.500000  0.000000  0.000000  1.0  1.1136
  Cd  Cd39  1  0.333333  0.166670  0.666667  1.0  1.0951
  Cd  Cd40  1  0.000000  0.500000  0.000000  1.0  1.1136
  Cd  Cd41  1  0.833330  0.166670  0.666667  1.0  1.0949
  Cd  Cd42  1  0.500000  0.500000  0.000000  1.0  1.1132
  Cd  Cd43  1  0.666667  0.833330  0.833330  1.0  1.095
  Cd  Cd44  1  0.166670  0.333333  0.833330  1.0  1.0945
  Cd  Cd45  1  0.166670  0.833330  0.833330  1.0  1.1055
  Cd  Cd46  1  0.166670  0.333333  0.333333  1.0  1.0949
  Cd  Cd47  1  0.666667  0.833330  0.333333  1.0  1.0949
  Cd  Cd48  1  0.166670  0.833330  0.333333  1.0  1.0949
  Cd  Cd49  1  0.333333  0.166670  0.166670  1.0  1.0949
  Cd  Cd50  1  0.000000  0.500000  0.500000  1.0  1.1136
  Cd  Cd51  1  0.833330  0.666667  0.166670  1.0  1.0944
  Cd  Cd52  1  0.500000  0.000000  0.500000  1.0  1.1136
  Cd  Cd53  1  0.833330  0.166670  0.166670  1.0  1.1051
  Cd  Cd54  1  0.500000  0.500000  0.500000  1.0  1.1132
  H  H55  1  0.845500  0.637700  0.546600  1.0  0.134
  H  H56  1  0.681600  0.598300  0.557700  1.0  0.1428
  H  H57  1  0.658900  0.572700  0.524800  1.0  0.1342
  H  H58  1  0.638900  0.553000  0.496200  1.0  0.151
  H  H59  1  0.847700  0.556600  0.465800  1.0  0.1406
  H  H60  1  0.771800  0.544000  0.454000  1.0  0.1476
  H  H61  1  0.680800  0.516700  0.443100  1.0  0.1285
  H  H62  1  0.966600  0.620200  0.509300  1.0  0.1379
  H  H63  1  0.906200  0.639300  0.527800  1.0  0.1409
  H  H64  1  0.680400  0.467000  0.636300  1.0  0.1687
  H  H65  1  0.812800  0.402600  0.637500  1.0  0.1291
  H  H66  1  0.843500  0.501700  0.638500  1.0  0.1146
  H  H67  1  0.512170  0.971030  0.879930  1.0  0.134
  H  H68  1  0.348270  0.931630  0.891030  1.0  0.1428
  H  H69  1  0.325570  0.906030  0.858130  1.0  0.1342
  H  H70  1  0.305570  0.886330  0.829530  1.0  0.1513
  H  H71  1  0.514370  0.889930  0.799130  1.0  0.1406
  H  H72  1  0.438470  0.877330  0.787330  1.0  0.1476
  H  H73  1  0.347470  0.850030  0.776430  1.0  0.1285
  H  H74  1  0.633270  0.953530  0.842630  1.0  0.1379
  H  H75  1  0.572870  0.972630  0.861130  1.0  0.1409
  H  H76  1  0.347070  0.800330  0.969630  1.0  0.1687
  H  H77  1  0.479470  0.735930  0.970830  1.0  0.1291
  H  H78  1  0.510170  0.835030  0.971830  1.0  0.1146
  H  H79  1  0.178830  0.304370  0.213270  1.0  0.134
  H  H80  1  0.014930  0.264970  0.224370  1.0  0.1429
  H  H81  1  0.992230  0.239370  0.191470  1.0  0.1342
  H  H82  1  0.972230  0.219670  0.162870  1.0  0.1513
  H  H83  1  0.181030  0.223270  0.132470  1.0  0.1406
  H  H84  1  0.105130  0.210670  0.120670  1.0  0.1476
  H  H85  1  0.014130  0.183370  0.109770  1.0  0.1285
  H  H86  1  0.299930  0.286870  0.175970  1.0  0.1376
  H  H87  1  0.239530  0.305970  0.194470  1.0  0.1409
  H  H88  1  0.013730  0.133670  0.302970  1.0  0.1687
  H  H89  1  0.146130  0.069270  0.304170  1.0  0.1291
  H  H90  1  0.176830  0.168370  0.305170  1.0  0.1147
  H  H91  1  0.362300  0.207800  0.546600  1.0  0.1345
  H  H92  1  0.401700  0.083300  0.557700  1.0  0.1436
  H  H93  1  0.427300  0.086200  0.524800  1.0  0.1355
  H  H94  1  0.447000  0.085900  0.496200  1.0  0.1523
  H  H95  1  0.443400  0.291100  0.465800  1.0  0.1408
  H  H96  1  0.456000  0.227800  0.454000  1.0  0.1483
  H  H97  1  0.483300  0.164100  0.443100  1.0  0.1289
  H  H98  1  0.379800  0.346400  0.509300  1.0  0.1374
  H  H99  1  0.360700  0.266900  0.527800  1.0  0.1395
  H  H100  1  0.533000  0.213400  0.636300  1.0  0.1692
  H  H101  1  0.597400  0.410200  0.637500  1.0  0.1308
  H  H102  1  0.498300  0.341800  0.638500  1.0  0.1155
  H  H103  1  0.028970  0.541130  0.879930  1.0  0.1345
  H  H104  1  0.068370  0.416630  0.891030  1.0  0.1436
  H  H105  1  0.093970  0.419530  0.858130  1.0  0.1355
  H  H106  1  0.113670  0.419230  0.829530  1.0  0.1523
  H  H107  1  0.110070  0.624430  0.799130  1.0  0.1408
  H  H108  1  0.122670  0.561130  0.787330  1.0  0.1485
  H  H109  1  0.149970  0.497430  0.776430  1.0  0.1289
  H  H110  1  0.046470  0.679730  0.842630  1.0  0.1374
  H  H111  1  0.027370  0.600230  0.861130  1.0  0.1394
  H  H112  1  0.199670  0.546730  0.969630  1.0  0.1692
  H  H113  1  0.264070  0.743530  0.970830  1.0  0.1308
  H  H114  1  0.164970  0.675130  0.971830  1.0  0.1155
  H  H115  1  0.695630  0.874470  0.213270  1.0  0.1345
  H  H116  1  0.735030  0.749970  0.224370  1.0  0.1437
  H  H117  1  0.760630  0.752870  0.191470  1.0  0.1355
  H  H118  1  0.780330  0.752570  0.162870  1.0  0.1523
  H  H119  1  0.776730  0.957770  0.132470  1.0  0.1408
  H  H120  1  0.789330  0.894470  0.120670  1.0  0.1483
  H  H121  1  0.816630  0.830770  0.109770  1.0  0.129
  H  H122  1  0.713130  0.013070  0.175970  1.0  0.1374
  H  H123  1  0.694030  0.933570  0.194470  1.0  0.1394
  H  H124  1  0.866330  0.880070  0.302970  1.0  0.1691
  H  H125  1  0.930730  0.076870  0.304170  1.0  0.1307
  H  H126  1  0.831630  0.008470  0.305170  1.0  0.1155
  H  H127  1  0.792200  0.154500  0.546600  1.0  0.1344
  H  H128  1  0.916700  0.318400  0.557700  1.0  0.1429
  H  H129  1  0.913800  0.341100  0.524800  1.0  0.137
  H  H130  1  0.914100  0.361100  0.496200  1.0  0.1513
  H  H131  1  0.708900  0.152300  0.465800  1.0  0.1409
  H  H132  1  0.772200  0.228200  0.454000  1.0  0.1477
  H  H133  1  0.835900  0.319200  0.443100  1.0  0.1296
  H  H134  1  0.653600  0.033400  0.509300  1.0  0.1363
  H  H135  1  0.733100  0.093800  0.527800  1.0  0.14
  H  H136  1  0.786600  0.319600  0.636300  1.0  0.1689
  H  H137  1  0.589800  0.187200  0.637500  1.0  0.1293
  H  H138  1  0.658200  0.156500  0.638500  1.0  0.1149
  H  H139  1  0.458870  0.487830  0.879930  1.0  0.1344
  H  H140  1  0.583370  0.651730  0.891030  1.0  0.1429
  H  H141  1  0.580470  0.674430  0.858130  1.0  0.137
  H  H142  1  0.580770  0.694430  0.829530  1.0  0.1513
  H  H143  1  0.375570  0.485630  0.799130  1.0  0.1409
  H  H144  1  0.438870  0.561530  0.787330  1.0  0.1477
  H  H145  1  0.502570  0.652530  0.776430  1.0  0.1296
  H  H146  1  0.320270  0.366730  0.842630  1.0  0.1363
  H  H147  1  0.399770  0.427130  0.861130  1.0  0.1401
  H  H148  1  0.453270  0.652930  0.969630  1.0  0.1689
  H  H149  1  0.256470  0.520530  0.970830  1.0  0.1293
  H  H150  1  0.324870  0.489830  0.971830  1.0  0.1149
  H  H151  1  0.125530  0.821170  0.213270  1.0  0.1344
  H  H152  1  0.250030  0.985070  0.224370  1.0  0.143
  H  H153  1  0.247130  0.007770  0.191470  1.0  0.137
  H  H154  1  0.247430  0.027770  0.162870  1.0  0.1514
  H  H155  1  0.042230  0.818970  0.132470  1.0  0.1409
  H  H156  1  0.105530  0.894870  0.120670  1.0  0.1477
  H  H157  1  0.169230  0.985870  0.109770  1.0  0.1295
  H  H158  1  0.986930  0.700070  0.175970  1.0  0.1363
  H  H159  1  0.066430  0.760470  0.194470  1.0  0.14
  H  H160  1  0.119930  0.986270  0.302970  1.0  0.1689
  H  H161  1  0.923130  0.853870  0.304170  1.0  0.1293
  H  H162  1  0.991530  0.823170  0.305170  1.0  0.1148
  H  H163  1  0.637700  0.845500  0.953400  1.0  0.1346
  H  H164  1  0.598300  0.681600  0.942300  1.0  0.1431
  H  H165  1  0.572700  0.658900  0.975200  1.0  0.1366
  H  H166  1  0.553000  0.638900  0.003800  1.0  0.1522
  H  H167  1  0.556600  0.847700  0.034200  1.0  0.1399
  H  H168  1  0.544000  0.771800  0.046000  1.0  0.1474
  H  H169  1  0.516700  0.680800  0.056900  1.0  0.1301
  H  H170  1  0.620200  0.966600  0.990700  1.0  0.1372
  H  H171  1  0.639300  0.906200  0.972200  1.0  0.142
  H  H172  1  0.467000  0.680400  0.863700  1.0  0.169
  H  H173  1  0.402600  0.812800  0.862500  1.0  0.1296
  H  H174  1  0.501700  0.843500  0.861500  1.0  0.115
  H  H175  1  0.304370  0.178830  0.286730  1.0  0.1346
  H  H176  1  0.264970  0.014930  0.275630  1.0  0.1433
  H  H177  1  0.239370  0.992230  0.308530  1.0  0.1366
  H  H178  1  0.219670  0.972230  0.337130  1.0  0.1522
  H  H179  1  0.223270  0.181030  0.367530  1.0  0.1399
  H  H180  1  0.210670  0.105130  0.379330  1.0  0.1474
  H  H181  1  0.183370  0.014130  0.390230  1.0  0.1301
  H  H182  1  0.286870  0.299930  0.324030  1.0  0.137
  H  H183  1  0.305970  0.239530  0.305530  1.0  0.14
  H  H184  1  0.133670  0.013730  0.197030  1.0  0.169
  H  H185  1  0.069270  0.146130  0.195830  1.0  0.1296
  H  H186  1  0.168370  0.176830  0.194830  1.0  0.115
  H  H187  1  0.971030  0.512170  0.620070  1.0  0.1346
  H  H188  1  0.931630  0.348270  0.608970  1.0  0.1431
  H  H189  1  0.906030  0.325570  0.641870  1.0  0.1366
  H  H190  1  0.886330  0.305570  0.670470  1.0  0.1522
  H  H191  1  0.889930  0.514370  0.700870  1.0  0.1399
  H  H192  1  0.877330  0.438470  0.712670  1.0  0.1474
  H  H193  1  0.850030  0.347470  0.723570  1.0  0.1301
  H  H194  1  0.953530  0.633270  0.657370  1.0  0.1372
  H  H195  1  0.972630  0.572870  0.638870  1.0  0.1401
  H  H196  1  0.800330  0.347070  0.530370  1.0  0.169
  H  H197  1  0.735930  0.479470  0.529170  1.0  0.1296
  H  H198  1  0.835030  0.510170  0.528170  1.0  0.115
  H  H199  1  0.207800  0.362300  0.953400  1.0  0.134
  H  H200  1  0.083300  0.401700  0.942300  1.0  0.1431
  H  H201  1  0.086200  0.427300  0.975200  1.0  0.1337
  H  H202  1  0.085900  0.447000  0.003800  1.0  0.1517
  H  H203  1  0.291100  0.443400  0.034200  1.0  0.1399
  H  H204  1  0.227800  0.456000  0.046000  1.0  0.148
  H  H205  1  0.164100  0.483300  0.056900  1.0  0.1292
  H  H206  1  0.346400  0.379800  0.990700  1.0  0.1374
  H  H207  1  0.266900  0.360700  0.972200  1.0  0.1424
  H  H208  1  0.213400  0.533000  0.863700  1.0  0.1688
  H  H209  1  0.410200  0.597400  0.862500  1.0  0.1291
  H  H210  1  0.341800  0.498300  0.861500  1.0  0.1151
  H  H211  1  0.874470  0.695630  0.286730  1.0  0.134
  H  H212  1  0.749970  0.735030  0.275630  1.0  0.1432
  H  H213  1  0.752870  0.760630  0.308530  1.0  0.1337
  H  H214  1  0.752570  0.780330  0.337130  1.0  0.1517
  H  H215  1  0.957770  0.776730  0.367530  1.0  0.1399
  H  H216  1  0.894470  0.789330  0.379330  1.0  0.148
  H  H217  1  0.830770  0.816630  0.390230  1.0  0.1284
  H  H218  1  0.013070  0.713130  0.324030  1.0  0.1374
  H  H219  1  0.933570  0.694030  0.305530  1.0  0.1405
  H  H220  1  0.880070  0.866330  0.197030  1.0  0.1688
  H  H221  1  0.076870  0.930730  0.195830  1.0  0.129
  H  H222  1  0.008470  0.831630  0.194830  1.0  0.1151
  H  H223  1  0.541130  0.028970  0.620070  1.0  0.134
  H  H224  1  0.416630  0.068370  0.608970  1.0  0.1431
  H  H225  1  0.419530  0.093970  0.641870  1.0  0.1337
  H  H226  1  0.419230  0.113670  0.670470  1.0  0.1514
  H  H227  1  0.624430  0.110070  0.700870  1.0  0.1399
  H  H228  1  0.561130  0.122670  0.712670  1.0  0.1481
  H  H229  1  0.497430  0.149970  0.723570  1.0  0.1292
  H  H230  1  0.679730  0.046470  0.657370  1.0  0.1374
  H  H231  1  0.600230  0.027370  0.638870  1.0  0.1404
  H  H232  1  0.546730  0.199670  0.530370  1.0  0.1688
  H  H233  1  0.743530  0.264070  0.529170  1.0  0.1291
  H  H234  1  0.675130  0.164970  0.528170  1.0  0.1151
  H  H235  1  0.154500  0.792200  0.953400  1.0  0.1343
  H  H236  1  0.318400  0.916700  0.942300  1.0  0.1436
  H  H237  1  0.341100  0.913800  0.975200  1.0  0.1357
  H  H238  1  0.361100  0.914100  0.003800  1.0  0.1519
  H  H239  1  0.152300  0.708900  0.034200  1.0  0.1407
  H  H240  1  0.228200  0.772200  0.046000  1.0  0.148
  H  H241  1  0.319200  0.835900  0.056900  1.0  0.1304
  H  H242  1  0.033400  0.653600  0.990700  1.0  0.137
  H  H243  1  0.093800  0.733100  0.972200  1.0  0.1409
  H  H244  1  0.319600  0.786600  0.863700  1.0  0.1691
  H  H245  1  0.187200  0.589800  0.862500  1.0  0.1298
  H  H246  1  0.156500  0.658200  0.861500  1.0  0.1158
  H  H247  1  0.821170  0.125530  0.286730  1.0  0.1343
  H  H248  1  0.985070  0.250030  0.275630  1.0  0.1436
  H  H249  1  0.007770  0.247130  0.308530  1.0  0.1358
  H  H250  1  0.027770  0.247430  0.337130  1.0  0.1519
  H  H251  1  0.818970  0.042230  0.367530  1.0  0.1405
  H  H252  1  0.894870  0.105530  0.379330  1.0  0.148
  H  H253  1  0.985870  0.169230  0.390230  1.0  0.13
  H  H254  1  0.700070  0.986930  0.324030  1.0  0.137
  H  H255  1  0.760470  0.066430  0.305530  1.0  0.139
  H  H256  1  0.986270  0.119930  0.197030  1.0  0.1691
  H  H257  1  0.853870  0.923130  0.195830  1.0  0.1298
  H  H258  1  0.823170  0.991530  0.194830  1.0  0.1157
  H  H259  1  0.487830  0.458870  0.620070  1.0  0.1343
  H  H260  1  0.651730  0.583370  0.608970  1.0  0.1436
  H  H261  1  0.674430  0.580470  0.641870  1.0  0.1357
  H  H262  1  0.694430  0.580770  0.670470  1.0  0.1519
  H  H263  1  0.485630  0.375570  0.700870  1.0  0.1407
  H  H264  1  0.561530  0.438870  0.712670  1.0  0.1481
  H  H265  1  0.652530  0.502570  0.723570  1.0  0.1303
  H  H266  1  0.366730  0.320270  0.657370  1.0  0.137
  H  H267  1  0.427130  0.399770  0.638870  1.0  0.1391
  H  H268  1  0.652930  0.453270  0.530370  1.0  0.1691
  H  H269  1  0.520530  0.256470  0.529170  1.0  0.1298
  H  H270  1  0.489830  0.324870  0.528170  1.0  0.1158
  H  H271  1  0.154500  0.362300  0.453400  1.0  0.1346
  H  H272  1  0.318400  0.401700  0.442300  1.0  0.1432
  H  H273  1  0.341100  0.427300  0.475200  1.0  0.1345
  H  H274  1  0.361100  0.447000  0.503800  1.0  0.1517
  H  H275  1  0.152300  0.443400  0.534200  1.0  0.1396
  H  H276  1  0.228200  0.456000  0.546000  1.0  0.1473
  H  H277  1  0.319200  0.483300  0.556900  1.0  0.1296
  H  H278  1  0.033400  0.379800  0.490700  1.0  0.1375
  H  H279  1  0.093800  0.360700  0.472200  1.0  0.1407
  H  H280  1  0.319600  0.533000  0.363700  1.0  0.1691
  H  H281  1  0.187200  0.597400  0.362500  1.0  0.1296
  H  H282  1  0.156500  0.498300  0.361500  1.0  0.1152
  H  H283  1  0.821170  0.695630  0.786730  1.0  0.1346
  H  H284  1  0.985070  0.735030  0.775630  1.0  0.1433
  H  H285  1  0.007770  0.760630  0.808530  1.0  0.1345
  H  H286  1  0.027770  0.780330  0.837130  1.0  0.1517
  H  H287  1  0.818970  0.776730  0.867530  1.0  0.1396
  H  H288  1  0.894870  0.789330  0.879330  1.0  0.1473
  H  H289  1  0.985870  0.816630  0.890230  1.0  0.1298
  H  H290  1  0.700070  0.713130  0.824030  1.0  0.1373
  H  H291  1  0.760470  0.694030  0.805530  1.0  0.1407
  H  H292  1  0.986270  0.866330  0.697030  1.0  0.1692
  H  H293  1  0.853870  0.930730  0.695830  1.0  0.1296
  H  H294  1  0.823170  0.831630  0.694830  1.0  0.1152
  H  H295  1  0.487830  0.028970  0.120070  1.0  0.1346
  H  H296  1  0.651730  0.068370  0.108970  1.0  0.1432
  H  H297  1  0.674430  0.093970  0.141870  1.0  0.1345
  H  H298  1  0.694430  0.113670  0.170470  1.0  0.1517
  H  H299  1  0.485630  0.110070  0.200870  1.0  0.1396
  H  H300  1  0.561530  0.122670  0.212670  1.0  0.1473
  H  H301  1  0.652530  0.149970  0.223570  1.0  0.1296
  H  H302  1  0.366730  0.046470  0.157370  1.0  0.1376
  H  H303  1  0.427130  0.027370  0.138870  1.0  0.1408
  H  H304  1  0.652930  0.199670  0.030370  1.0  0.1691
  H  H305  1  0.520530  0.264070  0.029170  1.0  0.1296
  H  H306  1  0.489830  0.164970  0.028170  1.0  0.1152
  H  H307  1  0.637700  0.792200  0.453400  1.0  0.135
  H  H308  1  0.598300  0.916700  0.442300  1.0  0.1437
  H  H309  1  0.572700  0.913800  0.475200  1.0  0.1357
  H  H310  1  0.553000  0.914100  0.503800  1.0  0.1513
  H  H311  1  0.556600  0.708900  0.534200  1.0  0.1404
  H  H312  1  0.544000  0.772200  0.546000  1.0  0.1487
  H  H313  1  0.516700  0.835900  0.556900  1.0  0.1301
  H  H314  1  0.620200  0.653600  0.490700  1.0  0.1376
  H  H315  1  0.639300  0.733100  0.472200  1.0  0.1401
  H  H316  1  0.467000  0.786600  0.363700  1.0  0.1696
  H  H317  1  0.402600  0.589800  0.362500  1.0  0.1295
  H  H318  1  0.501700  0.658200  0.361500  1.0  0.1157
  H  H319  1  0.304370  0.125530  0.786730  1.0  0.135
  H  H320  1  0.264970  0.250030  0.775630  1.0  0.1437
  H  H321  1  0.239370  0.247130  0.808530  1.0  0.1357
  H  H322  1  0.219670  0.247430  0.837130  1.0  0.1513
  H  H323  1  0.223270  0.042230  0.867530  1.0  0.1403
  H  H324  1  0.210670  0.105530  0.879330  1.0  0.1487
  H  H325  1  0.183370  0.169230  0.890230  1.0  0.1301
  H  H326  1  0.286870  0.986930  0.824030  1.0  0.1375
  H  H327  1  0.305970  0.066430  0.805530  1.0  0.14
  H  H328  1  0.133670  0.119930  0.697030  1.0  0.1695
  H  H329  1  0.069270  0.923130  0.695830  1.0  0.1294
  H  H330  1  0.168370  0.991530  0.694830  1.0  0.1157
  H  H331  1  0.971030  0.458870  0.120070  1.0  0.135
  H  H332  1  0.931630  0.583370  0.108970  1.0  0.1437
  H  H333  1  0.906030  0.580470  0.141870  1.0  0.1357
  H  H334  1  0.886330  0.580770  0.170470  1.0  0.1513
  H  H335  1  0.889930  0.375570  0.200870  1.0  0.1404
  H  H336  1  0.877330  0.438870  0.212670  1.0  0.1488
  H  H337  1  0.850030  0.502570  0.223570  1.0  0.1301
  H  H338  1  0.953530  0.320270  0.157370  1.0  0.1376
  H  H339  1  0.972630  0.399770  0.138870  1.0  0.14
  H  H340  1  0.800330  0.453270  0.030370  1.0  0.1696
  H  H341  1  0.735930  0.256470  0.029170  1.0  0.1295
  H  H342  1  0.835030  0.324870  0.028170  1.0  0.1157
  H  H343  1  0.207800  0.845500  0.453400  1.0  0.1347
  H  H344  1  0.083300  0.681600  0.442300  1.0  0.1429
  H  H345  1  0.086200  0.658900  0.475200  1.0  0.1359
  H  H346  1  0.085900  0.638900  0.503800  1.0  0.1527
  H  H347  1  0.291100  0.847700  0.534200  1.0  0.1399
  H  H348  1  0.227800  0.771800  0.546000  1.0  0.1481
  H  H349  1  0.164100  0.680800  0.556900  1.0  0.1305
  H  H350  1  0.346400  0.966600  0.490700  1.0  0.1363
  H  H351  1  0.266900  0.906200  0.472200  1.0  0.1401
  H  H352  1  0.213400  0.680400  0.363700  1.0  0.1687
  H  H353  1  0.410200  0.812800  0.362500  1.0  0.1299
  H  H354  1  0.341800  0.843500  0.361500  1.0  0.1151
  H  H355  1  0.874470  0.178830  0.786730  1.0  0.1347
  H  H356  1  0.749970  0.014930  0.775630  1.0  0.143
  H  H357  1  0.752870  0.992230  0.808530  1.0  0.136
  H  H358  1  0.752570  0.972230  0.837130  1.0  0.1527
  H  H359  1  0.957770  0.181030  0.867530  1.0  0.1399
  H  H360  1  0.894470  0.105130  0.879330  1.0  0.1481
  H  H361  1  0.830770  0.014130  0.890230  1.0  0.1301
  H  H362  1  0.013070  0.299930  0.824030  1.0  0.1362
  H  H363  1  0.933570  0.239530  0.805530  1.0  0.1401
  H  H364  1  0.880070  0.013730  0.697030  1.0  0.1687
  H  H365  1  0.076870  0.146130  0.695830  1.0  0.1299
  H  H366  1  0.008470  0.176830  0.694830  1.0  0.1151
  H  H367  1  0.541130  0.512170  0.120070  1.0  0.1347
  H  H368  1  0.416630  0.348270  0.108970  1.0  0.1429
  H  H369  1  0.419530  0.325570  0.141870  1.0  0.1359
  H  H370  1  0.419230  0.305570  0.170470  1.0  0.1527
  H  H371  1  0.624430  0.514370  0.200870  1.0  0.1399
  H  H372  1  0.561130  0.438470  0.212670  1.0  0.1482
  H  H373  1  0.497430  0.347470  0.223570  1.0  0.1304
  H  H374  1  0.679730  0.633270  0.157370  1.0  0.1363
  H  H375  1  0.600230  0.572870  0.138870  1.0  0.1402
  H  H376  1  0.546730  0.347070  0.030370  1.0  0.1687
  H  H377  1  0.743530  0.479470  0.029170  1.0  0.1299
  H  H378  1  0.675130  0.510170  0.028170  1.0  0.1151
  H  H379  1  0.362300  0.154500  0.046600  1.0  0.1344
  H  H380  1  0.401700  0.318400  0.057700  1.0  0.1432
  H  H381  1  0.427300  0.341100  0.024800  1.0  0.1368
  H  H382  1  0.447000  0.361100  0.996200  1.0  0.1524
  H  H383  1  0.443400  0.152300  0.965800  1.0  0.1406
  H  H384  1  0.456000  0.228200  0.954000  1.0  0.1482
  H  H385  1  0.483300  0.319200  0.943100  1.0  0.1296
  H  H386  1  0.379800  0.033400  0.009300  1.0  0.1361
  H  H387  1  0.360700  0.093800  0.027800  1.0  0.1421
  H  H388  1  0.533000  0.319600  0.136300  1.0  0.1684
  H  H389  1  0.597400  0.187200  0.137500  1.0  0.1299
  H  H390  1  0.498300  0.156500  0.138500  1.0  0.1144
  H  H391  1  0.028970  0.487830  0.379930  1.0  0.1344
  H  H392  1  0.068370  0.651730  0.391030  1.0  0.1432
  H  H393  1  0.093970  0.674430  0.358130  1.0  0.1368
  H  H394  1  0.113670  0.694430  0.329530  1.0  0.1524
  H  H395  1  0.110070  0.485630  0.299130  1.0  0.1406
  H  H396  1  0.122670  0.561530  0.287330  1.0  0.1482
  H  H397  1  0.149970  0.652530  0.276430  1.0  0.1296
  H  H398  1  0.046470  0.366730  0.342630  1.0  0.1361
  H  H399  1  0.027370  0.427130  0.361130  1.0  0.14
  H  H400  1  0.199670  0.652930  0.469630  1.0  0.1684
  H  H401  1  0.264070  0.520530  0.470830  1.0  0.1299
  H  H402  1  0.164970  0.489830  0.471830  1.0  0.1144
  H  H403  1  0.695630  0.821170  0.713270  1.0  0.1344
  H  H404  1  0.735030  0.985070  0.724370  1.0  0.1433
  H  H405  1  0.760630  0.007770  0.691470  1.0  0.1368
  H  H406  1  0.780330  0.027770  0.662870  1.0  0.1525
  H  H407  1  0.776730  0.818970  0.632470  1.0  0.1406
  H  H408  1  0.789330  0.894870  0.620670  1.0  0.1482
  H  H409  1  0.816630  0.985870  0.609770  1.0  0.1296
  H  H410  1  0.713130  0.700070  0.675970  1.0  0.1359
  H  H411  1  0.694030  0.760470  0.694470  1.0  0.1399
  H  H412  1  0.866330  0.986270  0.802970  1.0  0.1685
  H  H413  1  0.930730  0.853870  0.804170  1.0  0.1299
  H  H414  1  0.831630  0.823170  0.805170  1.0  0.1145
  H  H415  1  0.792200  0.637700  0.046600  1.0  0.1349
  H  H416  1  0.916700  0.598300  0.057700  1.0  0.143
  H  H417  1  0.913800  0.572700  0.024800  1.0  0.1345
  H  H418  1  0.914100  0.553000  0.996200  1.0  0.1515
  H  H419  1  0.708900  0.556600  0.965800  1.0  0.1407
  H  H420  1  0.772200  0.544000  0.954000  1.0  0.1475
  H  H421  1  0.835900  0.516700  0.943100  1.0  0.1279
  H  H422  1  0.653600  0.620200  0.009300  1.0  0.1376
  H  H423  1  0.733100  0.639300  0.027800  1.0  0.1431
  H  H424  1  0.786600  0.467000  0.136300  1.0  0.1688
  H  H425  1  0.589800  0.402600  0.137500  1.0  0.13
  H  H426  1  0.658200  0.501700  0.138500  1.0  0.1149
  H  H427  1  0.458870  0.971030  0.379930  1.0  0.1349
  H  H428  1  0.583370  0.931630  0.391030  1.0  0.143
  H  H429  1  0.580470  0.906030  0.358130  1.0  0.1345
  H  H430  1  0.580770  0.886330  0.329530  1.0  0.1515
  H  H431  1  0.375570  0.889930  0.299130  1.0  0.1407
  H  H432  1  0.438870  0.877330  0.287330  1.0  0.1476
  H  H433  1  0.502570  0.850030  0.276430  1.0  0.1279
  H  H434  1  0.320270  0.953530  0.342630  1.0  0.1376
  H  H435  1  0.399770  0.972630  0.361130  1.0  0.1409
  H  H436  1  0.453270  0.800330  0.469630  1.0  0.1688
  H  H437  1  0.256470  0.735930  0.470830  1.0  0.13
  H  H438  1  0.324870  0.835030  0.471830  1.0  0.1149
  H  H439  1  0.125530  0.304370  0.713270  1.0  0.1349
  H  H440  1  0.250030  0.264970  0.724370  1.0  0.1431
  H  H441  1  0.247130  0.239370  0.691470  1.0  0.1345
  H  H442  1  0.247430  0.219670  0.662870  1.0  0.1515
  H  H443  1  0.042230  0.223270  0.632470  1.0  0.1407
  H  H444  1  0.105530  0.210670  0.620670  1.0  0.1475
  H  H445  1  0.169230  0.183370  0.609770  1.0  0.1273
  H  H446  1  0.986930  0.286870  0.675970  1.0  0.1375
  H  H447  1  0.066430  0.305970  0.694470  1.0  0.141
  H  H448  1  0.119930  0.133670  0.802970  1.0  0.1687
  H  H449  1  0.923130  0.069270  0.804170  1.0  0.1299
  H  H450  1  0.991530  0.168370  0.805170  1.0  0.1148
  H  H451  1  0.845500  0.207800  0.046600  1.0  0.1348
  H  H452  1  0.681600  0.083300  0.057700  1.0  0.1438
  H  H453  1  0.658900  0.086200  0.024800  1.0  0.1352
  H  H454  1  0.638900  0.085900  0.996200  1.0  0.1518
  H  H455  1  0.847700  0.291100  0.965800  1.0  0.141
  H  H456  1  0.771800  0.227800  0.954000  1.0  0.1485
  H  H457  1  0.680800  0.164100  0.943100  1.0  0.1294
  H  H458  1  0.966600  0.346400  0.009300  1.0  0.1374
  H  H459  1  0.906200  0.266900  0.027800  1.0  0.1416
  H  H460  1  0.680400  0.213400  0.136300  1.0  0.1694
  H  H461  1  0.812800  0.410200  0.137500  1.0  0.1301
  H  H462  1  0.843500  0.341800  0.138500  1.0  0.1153
  H  H463  1  0.512170  0.541130  0.379930  1.0  0.1348
  H  H464  1  0.348270  0.416630  0.391030  1.0  0.1438
  H  H465  1  0.325570  0.419530  0.358130  1.0  0.1352
  H  H466  1  0.305570  0.419230  0.329530  1.0  0.1518
  H  H467  1  0.514370  0.624430  0.299130  1.0  0.141
  H  H468  1  0.438470  0.561130  0.287330  1.0  0.1485
  H  H469  1  0.347470  0.497430  0.276430  1.0  0.1294
  H  H470  1  0.633270  0.679730  0.342630  1.0  0.1374
  H  H471  1  0.572870  0.600230  0.361130  1.0  0.1398
  H  H472  1  0.347070  0.546730  0.469630  1.0  0.1694
  H  H473  1  0.479470  0.743530  0.470830  1.0  0.1301
  H  H474  1  0.510170  0.675130  0.471830  1.0  0.1153
  H  H475  1  0.178830  0.874470  0.713270  1.0  0.1348
  H  H476  1  0.014930  0.749970  0.724370  1.0  0.1438
  H  H477  1  0.992230  0.752870  0.691470  1.0  0.1353
  H  H478  1  0.972230  0.752570  0.662870  1.0  0.1518
  H  H479  1  0.181030  0.957770  0.632470  1.0  0.141
  H  H480  1  0.105130  0.894470  0.620670  1.0  0.1485
  H  H481  1  0.014130  0.830770  0.609770  1.0  0.1292
  H  H482  1  0.299930  0.013070  0.675970  1.0  0.1374
  H  H483  1  0.239530  0.933570  0.694470  1.0  0.1398
  H  H484  1  0.013730  0.880070  0.802970  1.0  0.1694
  H  H485  1  0.146130  0.076870  0.804170  1.0  0.1301
  H  H486  1  0.176830  0.008470  0.805170  1.0  0.1153
  C  C487  1  0.782100  0.638800  0.576910  1.0  0.7195
  C  C488  1  0.794400  0.606400  0.522350  1.0  -0.0283
  C  C489  1  0.807700  0.623800  0.542100  1.0  -0.0424
  C  C490  1  0.709900  0.601100  0.548970  1.0  -0.0408
  C  C491  1  0.696500  0.585000  0.529160  1.0  -0.0688
  C  C492  1  0.765700  0.621000  0.555330  1.0  -0.1165
  C  C493  1  0.836700  0.604300  0.509270  1.0  -0.0721
  C  C494  1  0.820200  0.581300  0.490340  1.0  -0.0316
  C  C495  1  0.721300  0.567700  0.495360  1.0  -0.0313
  C  C496  1  0.666000  0.551200  0.487920  1.0  -0.0388
  C  C497  1  0.737000  0.586400  0.515630  1.0  -0.0237
  C  C498  1  0.762300  0.563800  0.482440  1.0  -0.0315
  C  C499  1  0.858500  0.571500  0.478580  1.0  -0.0447
  C  C500  1  0.650500  0.532000  0.468180  1.0  -0.1177
  C  C501  1  0.745400  0.545400  0.462690  1.0  -0.1144
  C  C502  1  0.690900  0.529600  0.456140  1.0  -0.0011
  C  C503  1  0.912500  0.584000  0.486070  1.0  -0.1333
  C  C504  1  0.929900  0.610000  0.504450  1.0  -0.0647
  C  C505  1  0.893300  0.620600  0.515590  1.0  -0.0866
  C  C506  1  0.784500  0.557300  0.638230  1.0  0.6789
  C  C507  1  0.948600  0.566200  0.474270  1.0  0.7289
  C  C508  1  0.590500  0.513500  0.460940  1.0  0.7247
  C  C509  1  0.764600  0.493500  0.637450  1.0  0.0553
  C  C510  1  0.686400  0.393200  0.636250  1.0  -0.008
  C  C511  1  0.726300  0.374400  0.635770  1.0  -0.0031
  C  C512  1  0.707000  0.454000  0.636640  1.0  -0.0521
  C  C513  1  0.785700  0.415000  0.637100  1.0  -0.1323
  C  C514  1  0.804100  0.474700  0.637800  1.0  -0.0754
  C  C515  1  0.448770  0.972130  0.910240  1.0  0.7196
  C  C516  1  0.461070  0.939730  0.855680  1.0  -0.0283
  C  C517  1  0.474370  0.957130  0.875430  1.0  -0.0424
  C  C518  1  0.376570  0.934430  0.882300  1.0  -0.0408
  C  C519  1  0.363170  0.918330  0.862490  1.0  -0.0688
  C  C520  1  0.432370  0.954330  0.888660  1.0  -0.1165
  C  C521  1  0.503370  0.937630  0.842600  1.0  -0.0721
  C  C522  1  0.486870  0.914630  0.823670  1.0  -0.0316
  C  C523  1  0.387970  0.901030  0.828690  1.0  -0.0313
  C  C524  1  0.332670  0.884530  0.821250  1.0  -0.0388
  C  C525  1  0.403670  0.919730  0.848960  1.0  -0.0237
  C  C526  1  0.428970  0.897130  0.815770  1.0  -0.0316
  C  C527  1  0.525170  0.904830  0.811910  1.0  -0.0447
  C  C528  1  0.317170  0.865330  0.801510  1.0  -0.1177
  C  C529  1  0.412070  0.878730  0.796020  1.0  -0.1144
  C  C530  1  0.357570  0.862930  0.789470  1.0  -0.0011
  C  C531  1  0.579170  0.917330  0.819400  1.0  -0.1333
  C  C532  1  0.596570  0.943330  0.837780  1.0  -0.0647
  C  C533  1  0.559970  0.953930  0.848920  1.0  -0.0866
  C  C534  1  0.451170  0.890630  0.971560  1.0  0.6789
  C  C535  1  0.615270  0.899530  0.807600  1.0  0.7287
  C  C536  1  0.257170  0.846830  0.794270  1.0  0.7247
  C  C537  1  0.431270  0.826830  0.970780  1.0  0.0554
  C  C538  1  0.353070  0.726530  0.969580  1.0  -0.008
  C  C539  1  0.392970  0.707730  0.969100  1.0  -0.0031
  C  C540  1  0.373670  0.787330  0.969970  1.0  -0.0521
  C  C541  1  0.452370  0.748330  0.970430  1.0  -0.1323
  C  C542  1  0.470770  0.808030  0.971130  1.0  -0.0754
  C  C543  1  0.115430  0.305470  0.243580  1.0  0.7192
  C  C544  1  0.127730  0.273070  0.189020  1.0  -0.0287
  C  C545  1  0.141030  0.290470  0.208770  1.0  -0.0426
  C  C546  1  0.043230  0.267770  0.215640  1.0  -0.0407
  C  C547  1  0.029830  0.251670  0.195830  1.0  -0.0688
  C  C548  1  0.099030  0.287670  0.222000  1.0  -0.1165
  C  C549  1  0.170030  0.270970  0.175940  1.0  -0.0721
  C  C550  1  0.153530  0.247970  0.157010  1.0  -0.0315
  C  C551  1  0.054630  0.234370  0.162030  1.0  -0.0313
  C  C552  1  0.999330  0.217870  0.154590  1.0  -0.0388
  C  C553  1  0.070330  0.253070  0.182300  1.0  -0.0237
  C  C554  1  0.095630  0.230470  0.149110  1.0  -0.0315
  C  C555  1  0.191830  0.238170  0.145250  1.0  -0.0446
  C  C556  1  0.983830  0.198670  0.134850  1.0  -0.1177
  C  C557  1  0.078730  0.212070  0.129360  1.0  -0.1144
  C  C558  1  0.024230  0.196270  0.122810  1.0  -0.0011
  C  C559  1  0.245830  0.250670  0.152740  1.0  -0.1333
  C  C560  1  0.263230  0.276670  0.171120  1.0  -0.0647
  C  C561  1  0.226630  0.287270  0.182260  1.0  -0.0866
  C  C562  1  0.117830  0.223970  0.304900  1.0  0.6789
  C  C563  1  0.281930  0.232870  0.140940  1.0  0.729
  C  C564  1  0.923830  0.180170  0.127610  1.0  0.7247
  C  C565  1  0.097930  0.160170  0.304120  1.0  0.0553
  C  C566  1  0.019730  0.059870  0.302920  1.0  -0.0054
  C  C567  1  0.059630  0.041070  0.302440  1.0  -0.0032
  C  C568  1  0.040330  0.120670  0.303310  1.0  -0.0521
  C  C569  1  0.119030  0.081670  0.303770  1.0  -0.1323
  C  C570  1  0.137430  0.141370  0.304470  1.0  -0.0751
  C  C571  1  0.361200  0.143300  0.576910  1.0  0.7189
  C  C572  1  0.393600  0.188000  0.522350  1.0  -0.029
  C  C573  1  0.376200  0.183900  0.542100  1.0  -0.0424
  C  C574  1  0.398900  0.108800  0.548970  1.0  -0.0407
  C  C575  1  0.415000  0.111500  0.529160  1.0  -0.0708
  C  C576  1  0.379000  0.144700  0.555330  1.0  -0.1181
  C  C577  1  0.395700  0.232400  0.509270  1.0  -0.0729
  C  C578  1  0.418700  0.238900  0.490340  1.0  -0.0325
  C  C579  1  0.432300  0.153600  0.495360  1.0  -0.0307
  C  C580  1  0.448800  0.114800  0.487920  1.0  -0.0381
  C  C581  1  0.413600  0.150600  0.515630  1.0  -0.0241
  C  C582  1  0.436200  0.198500  0.482440  1.0  -0.0301
  C  C583  1  0.428500  0.287000  0.478580  1.0  -0.0466
  C  C584  1  0.468000  0.118500  0.468180  1.0  -0.1181
  C  C585  1  0.454600  0.200000  0.462690  1.0  -0.1149
  C  C586  1  0.470400  0.161300  0.456140  1.0  -0.0023
  C  C587  1  0.416000  0.328500  0.486070  1.0  -0.135
  C  C588  1  0.390000  0.319900  0.504450  1.0  -0.0611
  C  C589  1  0.379400  0.272700  0.515590  1.0  -0.0821
  C  C590  1  0.442700  0.227200  0.638230  1.0  0.6797
  C  C591  1  0.433800  0.382400  0.474270  1.0  0.7321
  C  C592  1  0.486500  0.077000  0.460940  1.0  0.7208
  C  C593  1  0.506500  0.271100  0.637450  1.0  0.0549
  C  C594  1  0.606800  0.293200  0.636250  1.0  -0.0123
  C  C595  1  0.625600  0.351900  0.635770  1.0  -0.0013
  C  C596  1  0.546000  0.253000  0.636640  1.0  -0.0488
  C  C597  1  0.585000  0.370700  0.637100  1.0  -0.1292
  C  C598  1  0.525300  0.329400  0.637800  1.0  -0.0763
  C  C599  1  0.027870  0.476630  0.910240  1.0  0.7191
  C  C600  1  0.060270  0.521330  0.855680  1.0  -0.029
  C  C601  1  0.042870  0.517230  0.875430  1.0  -0.0424
  C  C602  1  0.065570  0.442130  0.882300  1.0  -0.0407
  C  C603  1  0.081670  0.444830  0.862490  1.0  -0.0708
  C  C604  1  0.045670  0.478030  0.888660  1.0  -0.1181
  C  C605  1  0.062370  0.565730  0.842600  1.0  -0.0729
  C  C606  1  0.085370  0.572230  0.823670  1.0  -0.0325
  C  C607  1  0.098970  0.486930  0.828690  1.0  -0.0307
  C  C608  1  0.115470  0.448130  0.821250  1.0  -0.0381
  C  C609  1  0.080270  0.483930  0.848960  1.0  -0.0241
  C  C610  1  0.102870  0.531830  0.815770  1.0  -0.0301
  C  C611  1  0.095170  0.620330  0.811910  1.0  -0.0466
  C  C612  1  0.134670  0.451830  0.801510  1.0  -0.1181
  C  C613  1  0.121270  0.533330  0.796020  1.0  -0.1149
  C  C614  1  0.137070  0.494630  0.789470  1.0  -0.0023
  C  C615  1  0.082670  0.661830  0.819400  1.0  -0.135
  C  C616  1  0.056670  0.653230  0.837780  1.0  -0.061
  C  C617  1  0.046070  0.606030  0.848920  1.0  -0.082
  C  C618  1  0.109370  0.560530  0.971560  1.0  0.6797
  C  C619  1  0.100470  0.715730  0.807600  1.0  0.7324
  C  C620  1  0.153170  0.410330  0.794270  1.0  0.7209
  C  C621  1  0.173170  0.604430  0.970780  1.0  0.0549
  C  C622  1  0.273470  0.626530  0.969580  1.0  -0.0123
  C  C623  1  0.292270  0.685230  0.969100  1.0  -0.0013
  C  C624  1  0.212670  0.586330  0.969970  1.0  -0.0488
  C  C625  1  0.251670  0.704030  0.970430  1.0  -0.1292
  C  C626  1  0.191970  0.662730  0.971130  1.0  -0.0763
  C  C627  1  0.694530  0.809970  0.243580  1.0  0.7189
  C  C628  1  0.726930  0.854670  0.189020  1.0  -0.029
  C  C629  1  0.709530  0.850570  0.208770  1.0  -0.0423
  C  C630  1  0.732230  0.775470  0.215640  1.0  -0.0408
  C  C631  1  0.748330  0.778170  0.195830  1.0  -0.0708
  C  C632  1  0.712330  0.811370  0.222000  1.0  -0.1184
  C  C633  1  0.729030  0.899070  0.175940  1.0  -0.0729
  C  C634  1  0.752030  0.905570  0.157010  1.0  -0.0322
  C  C635  1  0.765630  0.820270  0.162030  1.0  -0.0307
  C  C636  1  0.782130  0.781470  0.154590  1.0  -0.0381
  C  C637  1  0.746930  0.817270  0.182300  1.0  -0.0241
  C  C638  1  0.769530  0.865170  0.149110  1.0  -0.0301
  C  C639  1  0.761830  0.953670  0.145250  1.0  -0.0465
  C  C640  1  0.801330  0.785170  0.134850  1.0  -0.118
  C  C641  1  0.787930  0.866670  0.129360  1.0  -0.1149
  C  C642  1  0.803730  0.827970  0.122810  1.0  -0.0023
  C  C643  1  0.749330  0.995170  0.152740  1.0  -0.135
  C  C644  1  0.723330  0.986570  0.171120  1.0  -0.061
  C  C645  1  0.712730  0.939370  0.182260  1.0  -0.0821
  C  C646  1  0.776030  0.893870  0.304900  1.0  0.6798
  C  C647  1  0.767130  0.049070  0.140940  1.0  0.7326
  C  C648  1  0.819830  0.743670  0.127610  1.0  0.7207
  C  C649  1  0.839830  0.937770  0.304120  1.0  0.0549
  C  C650  1  0.940130  0.959870  0.302920  1.0  -0.0033
  C  C651  1  0.958930  0.018570  0.302440  1.0  -0.003
  C  C652  1  0.879330  0.919670  0.303310  1.0  -0.0488
  C  C653  1  0.918330  0.037370  0.303770  1.0  -0.1292
  C  C654  1  0.858630  0.996070  0.304470  1.0  -0.0762
  C  C655  1  0.856700  0.217900  0.576910  1.0  0.7195
  C  C656  1  0.812000  0.205600  0.522350  1.0  -0.0283
  C  C657  1  0.816100  0.192300  0.542100  1.0  -0.0429
  C  C658  1  0.891200  0.290100  0.548970  1.0  -0.0404
  C  C659  1  0.888500  0.303500  0.529160  1.0  -0.0731
  C  C660  1  0.855300  0.234300  0.555330  1.0  -0.1186
  C  C661  1  0.767600  0.163300  0.509270  1.0  -0.0712
  C  C662  1  0.761100  0.179800  0.490340  1.0  -0.033
  C  C663  1  0.846400  0.278700  0.495360  1.0  -0.0282
  C  C664  1  0.885200  0.334000  0.487920  1.0  -0.0384
  C  C665  1  0.849400  0.263000  0.515630  1.0  -0.0229
  C  C666  1  0.801500  0.237700  0.482440  1.0  -0.0311
  C  C667  1  0.713000  0.141500  0.478580  1.0  -0.0475
  C  C668  1  0.881500  0.349500  0.468180  1.0  -0.1169
  C  C669  1  0.800000  0.254600  0.462690  1.0  -0.1143
  C  C670  1  0.838700  0.309100  0.456140  1.0  -0.0011
  C  C671  1  0.671500  0.087500  0.486070  1.0  -0.1356
  C  C672  1  0.680100  0.070100  0.504450  1.0  -0.0648
  C  C673  1  0.727300  0.106700  0.515590  1.0  -0.0845
  C  C674  1  0.772800  0.215500  0.638230  1.0  0.6774
  C  C675  1  0.617600  0.051400  0.474270  1.0  0.7312
  C  C676  1  0.923000  0.409500  0.460940  1.0  0.7233
  C  C677  1  0.728900  0.235400  0.637450  1.0  0.0555
  C  C678  1  0.706800  0.313600  0.636250  1.0  -0.0049
  C  C679  1  0.648100  0.273700  0.635770  1.0  -0.0029
  C  C680  1  0.747000  0.293000  0.636640  1.0  -0.0518
  C  C681  1  0.629300  0.214300  0.637100  1.0  -0.1254
  C  C682  1  0.670600  0.195900  0.637800  1.0  -0.0758
  C  C683  1  0.523370  0.551230  0.910240  1.0  0.7196
  C  C684  1  0.478670  0.538930  0.855680  1.0  -0.0283
  C  C685  1  0.482770  0.525630  0.875430  1.0  -0.0429
  C  C686  1  0.557870  0.623430  0.882300  1.0  -0.0404
  C  C687  1  0.555170  0.636830  0.862490  1.0  -0.0731
  C  C688  1  0.521970  0.567630  0.888660  1.0  -0.1186
  C  C689  1  0.434270  0.496630  0.842600  1.0  -0.0712
  C  C690  1  0.427770  0.513130  0.823670  1.0  -0.033
  C  C691  1  0.513070  0.612030  0.828690  1.0  -0.0282
  C  C692  1  0.551870  0.667330  0.821250  1.0  -0.0384
  C  C693  1  0.516070  0.596330  0.848960  1.0  -0.0229
  C  C694  1  0.468170  0.571030  0.815770  1.0  -0.0311
  C  C695  1  0.379670  0.474830  0.811910  1.0  -0.0475
  C  C696  1  0.548170  0.682830  0.801510  1.0  -0.1169
  C  C697  1  0.466670  0.587930  0.796020  1.0  -0.1143
  C  C698  1  0.505370  0.642430  0.789470  1.0  -0.0011
  C  C699  1  0.338170  0.420830  0.819400  1.0  -0.1356
  C  C700  1  0.346770  0.403430  0.837780  1.0  -0.0648
  C  C701  1  0.393970  0.440030  0.848920  1.0  -0.0844
  C  C702  1  0.439470  0.548830  0.971560  1.0  0.6774
  C  C703  1  0.284270  0.384730  0.807600  1.0  0.7315
  C  C704  1  0.589670  0.742830  0.794270  1.0  0.7233
  C  C705  1  0.395570  0.568730  0.970780  1.0  0.0555
  C  C706  1  0.373470  0.646930  0.969580  1.0  -0.0049
  C  C707  1  0.314770  0.607030  0.969100  1.0  -0.0029
  C  C708  1  0.413670  0.626330  0.969970  1.0  -0.0518
  C  C709  1  0.295970  0.547630  0.970430  1.0  -0.1254
  C  C710  1  0.337270  0.529230  0.971130  1.0  -0.0758
  C  C711  1  0.190030  0.884570  0.243580  1.0  0.7192
  C  C712  1  0.145330  0.872270  0.189020  1.0  -0.0277
  C  C713  1  0.149430  0.858970  0.208770  1.0  -0.0429
  C  C714  1  0.224530  0.956770  0.215640  1.0  -0.0404
  C  C715  1  0.221830  0.970170  0.195830  1.0  -0.0731
  C  C716  1  0.188630  0.900970  0.222000  1.0  -0.1189
  C  C717  1  0.100930  0.829970  0.175940  1.0  -0.0712
  C  C718  1  0.094430  0.846470  0.157010  1.0  -0.0326
  C  C719  1  0.179730  0.945370  0.162030  1.0  -0.0282
  C  C720  1  0.218530  0.000670  0.154590  1.0  -0.0384
  C  C721  1  0.182730  0.929670  0.182300  1.0  -0.0224
  C  C722  1  0.134830  0.904370  0.149110  1.0  -0.031
  C  C723  1  0.046330  0.808170  0.145250  1.0  -0.0474
  C  C724  1  0.214830  0.016170  0.134850  1.0  -0.1169
  C  C725  1  0.133330  0.921270  0.129360  1.0  -0.1143
  C  C726  1  0.172030  0.975770  0.122810  1.0  -0.0011
  C  C727  1  0.004830  0.754170  0.152740  1.0  -0.1357
  C  C728  1  0.013430  0.736770  0.171120  1.0  -0.0646
  C  C729  1  0.060630  0.773370  0.182260  1.0  -0.0845
  C  C730  1  0.106130  0.882170  0.304900  1.0  0.6774
  C  C731  1  0.950930  0.718070  0.140940  1.0  0.7314
  C  C732  1  0.256330  0.076170  0.127610  1.0  0.7233
  C  C733  1  0.062230  0.902070  0.304120  1.0  0.0555
  C  C734  1  0.040130  0.980270  0.302920  1.0  -0.006
  C  C735  1  0.981430  0.940370  0.302440  1.0  -0.0043
  C  C736  1  0.080330  0.959670  0.303310  1.0  -0.0518
  C  C737  1  0.962630  0.880970  0.303770  1.0  -0.1254
  C  C738  1  0.003930  0.862570  0.304470  1.0  -0.0758
  C  C739  1  0.638800  0.782100  0.923090  1.0  0.7188
  C  C740  1  0.606400  0.794400  0.977650  1.0  -0.0261
  C  C741  1  0.623800  0.807700  0.957900  1.0  -0.0428
  C  C742  1  0.601100  0.709900  0.951030  1.0  -0.0404
  C  C743  1  0.585000  0.696500  0.970840  1.0  -0.0718
  C  C744  1  0.621000  0.765700  0.944670  1.0  -0.1168
  C  C745  1  0.604300  0.836700  0.990730  1.0  -0.0713
  C  C746  1  0.581300  0.820200  0.009660  1.0  -0.032
  C  C747  1  0.567700  0.721300  0.004640  1.0  -0.0278
  C  C748  1  0.551200  0.666000  0.012080  1.0  -0.0388
  C  C749  1  0.586400  0.737000  0.984370  1.0  -0.0235
  C  C750  1  0.563800  0.762300  0.017560  1.0  -0.0256
  C  C751  1  0.571500  0.858500  0.021420  1.0  -0.0466
  C  C752  1  0.532000  0.650500  0.031820  1.0  -0.1134
  C  C753  1  0.545400  0.745400  0.037310  1.0  -0.1133
  C  C754  1  0.529600  0.690900  0.043860  1.0  -0.0007
  C  C755  1  0.584000  0.912500  0.013930  1.0  -0.1349
  C  C756  1  0.610000  0.929900  0.995550  1.0  -0.0635
  C  C757  1  0.620600  0.893300  0.984410  1.0  -0.0848
  C  C758  1  0.557300  0.784500  0.861770  1.0  0.6767
  C  C759  1  0.566200  0.948600  0.025730  1.0  0.7321
  C  C760  1  0.513500  0.590500  0.039060  1.0  0.7231
  C  C761  1  0.493500  0.764600  0.862550  1.0  0.0557
  C  C762  1  0.393200  0.686400  0.863750  1.0  -0.0067
  C  C763  1  0.374400  0.726300  0.864230  1.0  -0.0029
  C  C764  1  0.454000  0.707000  0.863360  1.0  -0.051
  C  C765  1  0.415000  0.785700  0.862900  1.0  -0.132
  C  C766  1  0.474700  0.804100  0.862200  1.0  -0.0758
  C  C767  1  0.305470  0.115430  0.256420  1.0  0.7185
  C  C768  1  0.273070  0.127730  0.310980  1.0  -0.0265
  C  C769  1  0.290470  0.141030  0.291230  1.0  -0.0428
  C  C770  1  0.267770  0.043230  0.284360  1.0  -0.0404
  C  C771  1  0.251670  0.029830  0.304170  1.0  -0.0718
  C  C772  1  0.287670  0.099030  0.278000  1.0  -0.1168
  C  C773  1  0.270970  0.170030  0.324060  1.0  -0.0713
  C  C774  1  0.247970  0.153530  0.342990  1.0  -0.0317
  C  C775  1  0.234370  0.054630  0.337970  1.0  -0.0278
  C  C776  1  0.217870  0.999330  0.345410  1.0  -0.0388
  C  C777  1  0.253070  0.070330  0.317700  1.0  -0.0235
  C  C778  1  0.230470  0.095630  0.350890  1.0  -0.0256
  C  C779  1  0.238170  0.191830  0.354750  1.0  -0.0465
  C  C780  1  0.198670  0.983830  0.365150  1.0  -0.1134
  C  C781  1  0.212070  0.078730  0.370640  1.0  -0.1133
  C  C782  1  0.196270  0.024230  0.377190  1.0  -0.0007
  C  C783  1  0.250670  0.245830  0.347260  1.0  -0.135
  C  C784  1  0.276670  0.263230  0.328880  1.0  -0.0635
  C  C785  1  0.287270  0.226630  0.317740  1.0  -0.0848
  C  C786  1  0.223970  0.117830  0.195100  1.0  0.6767
  C  C787  1  0.232870  0.281930  0.359060  1.0  0.7322
  C  C788  1  0.180170  0.923830  0.372390  1.0  0.7231
  C  C789  1  0.160170  0.097930  0.195880  1.0  0.0557
  C  C790  1  0.059870  0.019730  0.197080  1.0  -0.004
  C  C791  1  0.041070  0.059630  0.197560  1.0  -0.003
  C  C792  1  0.120670  0.040330  0.196690  1.0  -0.051
  C  C793  1  0.081670  0.119030  0.196230  1.0  -0.132
  C  C794  1  0.141370  0.137430  0.195530  1.0  -0.0758
  C  C795  1  0.972130  0.448770  0.589760  1.0  0.7189
  C  C796  1  0.939730  0.461070  0.644320  1.0  -0.0261
  C  C797  1  0.957130  0.474370  0.624570  1.0  -0.0428
  C  C798  1  0.934430  0.376570  0.617700  1.0  -0.0404
  C  C799  1  0.918330  0.363170  0.637510  1.0  -0.0718
  C  C800  1  0.954330  0.432370  0.611340  1.0  -0.1168
  C  C801  1  0.937630  0.503370  0.657400  1.0  -0.0713
  C  C802  1  0.914630  0.486870  0.676330  1.0  -0.032
  C  C803  1  0.901030  0.387970  0.671310  1.0  -0.0278
  C  C804  1  0.884530  0.332670  0.678750  1.0  -0.0388
  C  C805  1  0.919730  0.403670  0.651040  1.0  -0.0235
  C  C806  1  0.897130  0.428970  0.684230  1.0  -0.0255
  C  C807  1  0.904830  0.525170  0.688090  1.0  -0.0466
  C  C808  1  0.865330  0.317170  0.698490  1.0  -0.1134
  C  C809  1  0.878730  0.412070  0.703980  1.0  -0.1133
  C  C810  1  0.862930  0.357570  0.710530  1.0  -0.0007
  C  C811  1  0.917330  0.579170  0.680600  1.0  -0.1349
  C  C812  1  0.943330  0.596570  0.662220  1.0  -0.0635
  C  C813  1  0.953930  0.559970  0.651080  1.0  -0.0848
  C  C814  1  0.890630  0.451170  0.528440  1.0  0.6767
  C  C815  1  0.899530  0.615270  0.692400  1.0  0.7318
  C  C816  1  0.846830  0.257170  0.705730  1.0  0.7231
  C  C817  1  0.826830  0.431270  0.529220  1.0  0.0558
  C  C818  1  0.726530  0.353070  0.530420  1.0  -0.0067
  C  C819  1  0.707730  0.392970  0.530900  1.0  -0.0029
  C  C820  1  0.787330  0.373670  0.530030  1.0  -0.051
  C  C821  1  0.748330  0.452370  0.529570  1.0  -0.132
  C  C822  1  0.808030  0.470770  0.528870  1.0  -0.0758
  C  C823  1  0.143300  0.361200  0.923090  1.0  0.7178
  C  C824  1  0.188000  0.393600  0.977650  1.0  -0.0284
  C  C825  1  0.183900  0.376200  0.957900  1.0  -0.0412
  C  C826  1  0.108800  0.398900  0.951030  1.0  -0.0392
  C  C827  1  0.111500  0.415000  0.970840  1.0  -0.0691
  C  C828  1  0.144700  0.379000  0.944670  1.0  -0.116
  C  C829  1  0.232400  0.395700  0.990730  1.0  -0.0723
  C  C830  1  0.238900  0.418700  0.009660  1.0  -0.0312
  C  C831  1  0.153600  0.432300  0.004640  1.0  -0.0313
  C  C832  1  0.114800  0.448800  0.012080  1.0  -0.0398
  C  C833  1  0.150600  0.413600  0.984370  1.0  -0.0249
  C  C834  1  0.198500  0.436200  0.017560  1.0  -0.0276
  C  C835  1  0.287000  0.428500  0.021420  1.0  -0.0437
  C  C836  1  0.118500  0.468000  0.031820  1.0  -0.1144
  C  C837  1  0.200000  0.454600  0.037310  1.0  -0.1139
  C  C838  1  0.161300  0.470400  0.043860  1.0  -0.0
  C  C839  1  0.328500  0.416000  0.013930  1.0  -0.1334
  C  C840  1  0.319900  0.390000  0.995550  1.0  -0.0656
  C  C841  1  0.272700  0.379400  0.984410  1.0  -0.0859
  C  C842  1  0.227200  0.442700  0.861770  1.0  0.6786
  C  C843  1  0.382400  0.433800  0.025730  1.0  0.729
  C  C844  1  0.077000  0.486500  0.039060  1.0  0.7237
  C  C845  1  0.271100  0.506500  0.862550  1.0  0.0554
  C  C846  1  0.293200  0.606800  0.863750  1.0  -0.0124
  C  C847  1  0.351900  0.625600  0.864230  1.0  -0.0008
  C  C848  1  0.253000  0.546000  0.863360  1.0  -0.0514
  C  C849  1  0.370700  0.585000  0.862900  1.0  -0.1275
  C  C850  1  0.329400  0.525300  0.862200  1.0  -0.0756
  C  C851  1  0.809970  0.694530  0.256420  1.0  0.7177
  C  C852  1  0.854670  0.726930  0.310980  1.0  -0.0284
  C  C853  1  0.850570  0.709530  0.291230  1.0  -0.0412
  C  C854  1  0.775470  0.732230  0.284360  1.0  -0.0392
  C  C855  1  0.778170  0.748330  0.304170  1.0  -0.0691
  C  C856  1  0.811370  0.712330  0.278000  1.0  -0.1163
  C  C857  1  0.899070  0.729030  0.324060  1.0  -0.0723
  C  C858  1  0.905570  0.752030  0.342990  1.0  -0.0309
  C  C859  1  0.820270  0.765630  0.337970  1.0  -0.0313
  C  C860  1  0.781470  0.782130  0.345410  1.0  -0.0398
  C  C861  1  0.817270  0.746930  0.317700  1.0  -0.0249
  C  C862  1  0.865170  0.769530  0.350890  1.0  -0.0276
  C  C863  1  0.953670  0.761830  0.354750  1.0  -0.0436
  C  C864  1  0.785170  0.801330  0.365150  1.0  -0.1144
  C  C865  1  0.866670  0.787930  0.370640  1.0  -0.1139
  C  C866  1  0.827970  0.803730  0.377190  1.0  -0.0
  C  C867  1  0.995170  0.749330  0.347260  1.0  -0.1334
  C  C868  1  0.986570  0.723330  0.328880  1.0  -0.0656
  C  C869  1  0.939370  0.712730  0.317740  1.0  -0.0861
  C  C870  1  0.893870  0.776030  0.195100  1.0  0.6787
  C  C871  1  0.049070  0.767130  0.359060  1.0  0.7294
  C  C872  1  0.743670  0.819830  0.372390  1.0  0.7237
  C  C873  1  0.937770  0.839830  0.195880  1.0  0.0554
  C  C874  1  0.959870  0.940130  0.197080  1.0  -0.0031
  C  C875  1  0.018570  0.958930  0.197560  1.0  -0.0024
  C  C876  1  0.919670  0.879330  0.196690  1.0  -0.0514
  C  C877  1  0.037370  0.918330  0.196230  1.0  -0.1275
  C  C878  1  0.996070  0.858630  0.195530  1.0  -0.0759
  C  C879  1  0.476630  0.027870  0.589760  1.0  0.718
  C  C880  1  0.521330  0.060270  0.644320  1.0  -0.0284
  C  C881  1  0.517230  0.042870  0.624570  1.0  -0.0412
  C  C882  1  0.442130  0.065570  0.617700  1.0  -0.0392
  C  C883  1  0.444830  0.081670  0.637510  1.0  -0.0691
  C  C884  1  0.478030  0.045670  0.611340  1.0  -0.116
  C  C885  1  0.565730  0.062370  0.657400  1.0  -0.0723
  C  C886  1  0.572230  0.085370  0.676330  1.0  -0.0312
  C  C887  1  0.486930  0.098970  0.671310  1.0  -0.0313
  C  C888  1  0.448130  0.115470  0.678750  1.0  -0.0398
  C  C889  1  0.483930  0.080270  0.651040  1.0  -0.0249
  C  C890  1  0.531830  0.102870  0.684230  1.0  -0.0275
  C  C891  1  0.620330  0.095170  0.688090  1.0  -0.0437
  C  C892  1  0.451830  0.134670  0.698490  1.0  -0.1144
  C  C893  1  0.533330  0.121270  0.703980  1.0  -0.1139
  C  C894  1  0.494630  0.137070  0.710530  1.0  -0.0
  C  C895  1  0.661830  0.082670  0.680600  1.0  -0.1334
  C  C896  1  0.653230  0.056670  0.662220  1.0  -0.0656
  C  C897  1  0.606030  0.046070  0.651080  1.0  -0.0859
  C  C898  1  0.560530  0.109370  0.528440  1.0  0.6787
  C  C899  1  0.715730  0.100470  0.692400  1.0  0.7293
  C  C900  1  0.410330  0.153170  0.705730  1.0  0.7238
  C  C901  1  0.604430  0.173170  0.529220  1.0  0.0554
  C  C902  1  0.626530  0.273470  0.530420  1.0  -0.0124
  C  C903  1  0.685230  0.292270  0.530900  1.0  -0.0008
  C  C904  1  0.586330  0.212670  0.530030  1.0  -0.0514
  C  C905  1  0.704030  0.251670  0.529570  1.0  -0.1275
  C  C906  1  0.662730  0.191970  0.528870  1.0  -0.0756
  C  C907  1  0.217900  0.856700  0.923090  1.0  0.7191
  C  C908  1  0.205600  0.812000  0.977650  1.0  -0.0273
  C  C909  1  0.192300  0.816100  0.957900  1.0  -0.04
  C  C910  1  0.290100  0.891200  0.951030  1.0  -0.0411
  C  C911  1  0.303500  0.888500  0.970840  1.0  -0.0713
  C  C912  1  0.234300  0.855300  0.944670  1.0  -0.1167
  C  C913  1  0.163300  0.767600  0.990730  1.0  -0.0715
  C  C914  1  0.179800  0.761100  0.009660  1.0  -0.0315
  C  C915  1  0.278700  0.846400  0.004640  1.0  -0.0303
  C  C916  1  0.334000  0.885200  0.012080  1.0  -0.0402
  C  C917  1  0.263000  0.849400  0.984370  1.0  -0.023
  C  C918  1  0.237700  0.801500  0.017560  1.0  -0.0263
  C  C919  1  0.141500  0.713000  0.021420  1.0  -0.0452
  C  C920  1  0.349500  0.881500  0.031820  1.0  -0.1151
  C  C921  1  0.254600  0.800000  0.037310  1.0  -0.1154
  C  C922  1  0.309100  0.838700  0.043860  1.0  1e-04
  C  C923  1  0.087500  0.671500  0.013930  1.0  -0.1345
  C  C924  1  0.070100  0.680100  0.995550  1.0  -0.0619
  C  C925  1  0.106700  0.727300  0.984410  1.0  -0.0829
  C  C926  1  0.215500  0.772800  0.861770  1.0  0.6799
  C  C927  1  0.051400  0.617600  0.025730  1.0  0.7328
  C  C928  1  0.409500  0.923000  0.039060  1.0  0.7223
  C  C929  1  0.235400  0.728900  0.862550  1.0  0.0556
  C  C930  1  0.313600  0.706800  0.863750  1.0  -0.0041
  C  C931  1  0.273700  0.648100  0.864230  1.0  -0.003
  C  C932  1  0.293000  0.747000  0.863360  1.0  -0.051
  C  C933  1  0.214300  0.629300  0.862900  1.0  -0.1278
  C  C934  1  0.195900  0.670600  0.862200  1.0  -0.0765
  C  C935  1  0.884570  0.190030  0.256420  1.0  0.7187
  C  C936  1  0.872270  0.145330  0.310980  1.0  -0.0268
  C  C937  1  0.858970  0.149430  0.291230  1.0  -0.0401
  C  C938  1  0.956770  0.224530  0.284360  1.0  -0.041
  C  C939  1  0.970170  0.221830  0.304170  1.0  -0.0713
  C  C940  1  0.900970  0.188630  0.278000  1.0  -0.1169
  C  C941  1  0.829970  0.100930  0.324060  1.0  -0.0715
  C  C942  1  0.846470  0.094430  0.342990  1.0  -0.0312
  C  C943  1  0.945370  0.179730  0.337970  1.0  -0.0303
  C  C944  1  0.000670  0.218530  0.345410  1.0  -0.0402
  C  C945  1  0.929670  0.182730  0.317700  1.0  -0.0226
  C  C946  1  0.904370  0.134830  0.350890  1.0  -0.0265
  C  C947  1  0.808170  0.046330  0.354750  1.0  -0.0452
  C  C948  1  0.016170  0.214830  0.365150  1.0  -0.1151
  C  C949  1  0.921270  0.133330  0.370640  1.0  -0.1154
  C  C950  1  0.975770  0.172030  0.377190  1.0  0.0002
  C  C951  1  0.754170  0.004830  0.347260  1.0  -0.1346
  C  C952  1  0.736770  0.013430  0.328880  1.0  -0.0617
  C  C953  1  0.773370  0.060630  0.317740  1.0  -0.0826
  C  C954  1  0.882170  0.106130  0.195100  1.0  0.68
  C  C955  1  0.718070  0.950930  0.359060  1.0  0.733
  C  C956  1  0.076170  0.256330  0.372390  1.0  0.7223
  C  C957  1  0.902070  0.062230  0.195880  1.0  0.0557
  C  C958  1  0.980270  0.040130  0.197080  1.0  -0.0051
  C  C959  1  0.940370  0.981430  0.197560  1.0  -0.0049
  C  C960  1  0.959670  0.080330  0.196690  1.0  -0.051
  C  C961  1  0.880970  0.962630  0.196230  1.0  -0.1278
  C  C962  1  0.862570  0.003930  0.195530  1.0  -0.0765
  C  C963  1  0.551230  0.523370  0.589760  1.0  0.7192
  C  C964  1  0.538930  0.478670  0.644320  1.0  -0.0273
  C  C965  1  0.525630  0.482770  0.624570  1.0  -0.04
  C  C966  1  0.623430  0.557870  0.617700  1.0  -0.0411
  C  C967  1  0.636830  0.555170  0.637510  1.0  -0.0713
  C  C968  1  0.567630  0.521970  0.611340  1.0  -0.1167
  C  C969  1  0.496630  0.434270  0.657400  1.0  -0.0715
  C  C970  1  0.513130  0.427770  0.676330  1.0  -0.0315
  C  C971  1  0.612030  0.513070  0.671310  1.0  -0.0303
  C  C972  1  0.667330  0.551870  0.678750  1.0  -0.0402
  C  C973  1  0.596330  0.516070  0.651040  1.0  -0.023
  C  C974  1  0.571030  0.468170  0.684230  1.0  -0.0262
  C  C975  1  0.474830  0.379670  0.688090  1.0  -0.0452
  C  C976  1  0.682830  0.548170  0.698490  1.0  -0.1151
  C  C977  1  0.587930  0.466670  0.703980  1.0  -0.1154
  C  C978  1  0.642430  0.505370  0.710530  1.0  1e-04
  C  C979  1  0.420830  0.338170  0.680600  1.0  -0.1345
  C  C980  1  0.403430  0.346770  0.662220  1.0  -0.0619
  C  C981  1  0.440030  0.393970  0.651080  1.0  -0.0827
  C  C982  1  0.548830  0.439470  0.528440  1.0  0.6799
  C  C983  1  0.384730  0.284270  0.692400  1.0  0.7331
  C  C984  1  0.742830  0.589670  0.705730  1.0  0.7224
  C  C985  1  0.568730  0.395570  0.529220  1.0  0.0557
  C  C986  1  0.646930  0.373470  0.530420  1.0  -0.0041
  C  C987  1  0.607030  0.314770  0.530900  1.0  -0.003
  C  C988  1  0.626330  0.413670  0.530030  1.0  -0.051
  C  C989  1  0.547630  0.295970  0.529570  1.0  -0.1278
  C  C990  1  0.529230  0.337270  0.528870  1.0  -0.0765
  C  C991  1  0.217900  0.361200  0.423090  1.0  0.7179
  C  C992  1  0.205600  0.393600  0.477650  1.0  -0.0277
  C  C993  1  0.192300  0.376200  0.457900  1.0  -0.0423
  C  C994  1  0.290100  0.398900  0.451030  1.0  -0.0406
  C  C995  1  0.303500  0.415000  0.470840  1.0  -0.0711
  C  C996  1  0.234300  0.379000  0.444670  1.0  -0.1148
  C  C997  1  0.163300  0.395700  0.490730  1.0  -0.0724
  C  C998  1  0.179800  0.418700  0.509660  1.0  -0.0316
  C  C999  1  0.278700  0.432300  0.504640  1.0  -0.0315
  C  C1000  1  0.334000  0.448800  0.512080  1.0  -0.0383
  C  C1001  1  0.263000  0.413600  0.484370  1.0  -0.0251
  C  C1002  1  0.237700  0.436200  0.517560  1.0  -0.0277
  C  C1003  1  0.141500  0.428500  0.521420  1.0  -0.0439
  C  C1004  1  0.349500  0.468000  0.531820  1.0  -0.115
  C  C1005  1  0.254600  0.454600  0.537310  1.0  -0.1137
  C  C1006  1  0.309100  0.470400  0.543860  1.0  0.0009
  C  C1007  1  0.087500  0.416000  0.513930  1.0  -0.1331
  C  C1008  1  0.070100  0.390000  0.495550  1.0  -0.0647
  C  C1009  1  0.106700  0.379400  0.484410  1.0  -0.0853
  C  C1010  1  0.215500  0.442700  0.361770  1.0  0.6784
  C  C1011  1  0.051400  0.433800  0.525730  1.0  0.7291
  C  C1012  1  0.409500  0.486500  0.539060  1.0  0.7226
  C  C1013  1  0.235400  0.506500  0.362550  1.0  0.0559
  C  C1014  1  0.313600  0.606800  0.363750  1.0  -0.0069
  C  C1015  1  0.273700  0.625600  0.364230  1.0  -0.0043
  C  C1016  1  0.293000  0.546000  0.363360  1.0  -0.052
  C  C1017  1  0.214300  0.585000  0.362900  1.0  -0.1344
  C  C1018  1  0.195900  0.525300  0.362200  1.0  -0.0749
  C  C1019  1  0.884570  0.694530  0.756420  1.0  0.7175
  C  C1020  1  0.872270  0.726930  0.810980  1.0  -0.0281
  C  C1021  1  0.858970  0.709530  0.791230  1.0  -0.0423
  C  C1022  1  0.956770  0.732230  0.784360  1.0  -0.0406
  C  C1023  1  0.970170  0.748330  0.804170  1.0  -0.0712
  C  C1024  1  0.900970  0.712330  0.778000  1.0  -0.1148
  C  C1025  1  0.829970  0.729030  0.824060  1.0  -0.0724
  C  C1026  1  0.846470  0.752030  0.842990  1.0  -0.0313
  C  C1027  1  0.945370  0.765630  0.837970  1.0  -0.0315
  C  C1028  1  0.000670  0.782130  0.845410  1.0  -0.0383
  C  C1029  1  0.929670  0.746930  0.817700  1.0  -0.0251
  C  C1030  1  0.904370  0.769530  0.850890  1.0  -0.0277
  C  C1031  1  0.808170  0.761830  0.854750  1.0  -0.0438
  C  C1032  1  0.016170  0.801330  0.865150  1.0  -0.115
  C  C1033  1  0.921270  0.787930  0.870640  1.0  -0.1137
  C  C1034  1  0.975770  0.803730  0.877190  1.0  0.0009
  C  C1035  1  0.754170  0.749330  0.847260  1.0  -0.1331
  C  C1036  1  0.736770  0.723330  0.828880  1.0  -0.0647
  C  C1037  1  0.773370  0.712730  0.817740  1.0  -0.0852
  C  C1038  1  0.882170  0.776030  0.695100  1.0  0.6783
  C  C1039  1  0.718070  0.767130  0.859060  1.0  0.7293
  C  C1040  1  0.076170  0.819830  0.872390  1.0  0.7226
  C  C1041  1  0.902070  0.839830  0.695880  1.0  0.0559
  C  C1042  1  0.980270  0.940130  0.697080  1.0  -0.0043
  C  C1043  1  0.940370  0.958930  0.697560  1.0  -0.0043
  C  C1044  1  0.959670  0.879330  0.696690  1.0  -0.052
  C  C1045  1  0.880970  0.918330  0.696230  1.0  -0.1344
  C  C1046  1  0.862570  0.858630  0.695530  1.0  -0.0749
  C  C1047  1  0.551230  0.027870  0.089760  1.0  0.718
  C  C1048  1  0.538930  0.060270  0.144320  1.0  -0.0277
  C  C1049  1  0.525630  0.042870  0.124570  1.0  -0.0423
  C  C1050  1  0.623430  0.065570  0.117700  1.0  -0.0406
  C  C1051  1  0.636830  0.081670  0.137510  1.0  -0.0711
  C  C1052  1  0.567630  0.045670  0.111340  1.0  -0.1148
  C  C1053  1  0.496630  0.062370  0.157400  1.0  -0.0724
  C  C1054  1  0.513130  0.085370  0.176330  1.0  -0.0316
  C  C1055  1  0.612030  0.098970  0.171310  1.0  -0.0315
  C  C1056  1  0.667330  0.115470  0.178750  1.0  -0.0383
  C  C1057  1  0.596330  0.080270  0.151040  1.0  -0.0251
  C  C1058  1  0.571030  0.102870  0.184230  1.0  -0.0275
  C  C1059  1  0.474830  0.095170  0.188090  1.0  -0.0439
  C  C1060  1  0.682830  0.134670  0.198490  1.0  -0.115
  C  C1061  1  0.587930  0.121270  0.203980  1.0  -0.1137
  C  C1062  1  0.642430  0.137070  0.210530  1.0  0.0009
  C  C1063  1  0.420830  0.082670  0.180600  1.0  -0.1331
  C  C1064  1  0.403430  0.056670  0.162220  1.0  -0.0647
  C  C1065  1  0.440030  0.046070  0.151080  1.0  -0.0853
  C  C1066  1  0.548830  0.109370  0.028440  1.0  0.6784
  C  C1067  1  0.384730  0.100470  0.192400  1.0  0.7288
  C  C1068  1  0.742830  0.153170  0.205730  1.0  0.7226
  C  C1069  1  0.568730  0.173170  0.029220  1.0  0.056
  C  C1070  1  0.646930  0.273470  0.030420  1.0  -0.0069
  C  C1071  1  0.607030  0.292270  0.030900  1.0  -0.0043
  C  C1072  1  0.626330  0.212670  0.030030  1.0  -0.052
  C  C1073  1  0.547630  0.251670  0.029570  1.0  -0.1344
  C  C1074  1  0.529230  0.191970  0.028870  1.0  -0.0749
  C  C1075  1  0.638800  0.856700  0.423090  1.0  0.7187
  C  C1076  1  0.606400  0.812000  0.477650  1.0  -0.0263
  C  C1077  1  0.623800  0.816100  0.457900  1.0  -0.0398
  C  C1078  1  0.601100  0.891200  0.451030  1.0  -0.0408
  C  C1079  1  0.585000  0.888500  0.470840  1.0  -0.0703
  C  C1080  1  0.621000  0.855300  0.444670  1.0  -0.1161
  C  C1081  1  0.604300  0.767600  0.490730  1.0  -0.0707
  C  C1082  1  0.581300  0.761100  0.509660  1.0  -0.0318
  C  C1083  1  0.567700  0.846400  0.504640  1.0  -0.0292
  C  C1084  1  0.551200  0.885200  0.512080  1.0  -0.0398
  C  C1085  1  0.586400  0.849400  0.484370  1.0  -0.0234
  C  C1086  1  0.563800  0.801500  0.517560  1.0  -0.0253
  C  C1087  1  0.571500  0.713000  0.521420  1.0  -0.0455
  C  C1088  1  0.532000  0.881500  0.531820  1.0  -0.114
  C  C1089  1  0.545400  0.800000  0.537310  1.0  -0.1141
  C  C1090  1  0.529600  0.838700  0.543860  1.0  -1e-04
  C  C1091  1  0.584000  0.671500  0.513930  1.0  -0.1349
  C  C1092  1  0.610000  0.680100  0.495550  1.0  -0.0611
  C  C1093  1  0.620600  0.727300  0.484410  1.0  -0.083
  C  C1094  1  0.557300  0.772800  0.361770  1.0  0.6793
  C  C1095  1  0.566200  0.617600  0.525730  1.0  0.7324
  C  C1096  1  0.513500  0.923000  0.539060  1.0  0.7236
  C  C1097  1  0.493500  0.728900  0.362550  1.0  0.0552
  C  C1098  1  0.393200  0.706800  0.363750  1.0  -0.0115
  C  C1099  1  0.374400  0.648100  0.364230  1.0  1e-04
  C  C1100  1  0.454000  0.747000  0.363360  1.0  -0.0495
  C  C1101  1  0.415000  0.629300  0.362900  1.0  -0.128
  C  C1102  1  0.474700  0.670600  0.362200  1.0  -0.0755
  C  C1103  1  0.305470  0.190030  0.756420  1.0  0.7187
  C  C1104  1  0.273070  0.145330  0.810980  1.0  -0.0263
  C  C1105  1  0.290470  0.149430  0.791230  1.0  -0.0398
  C  C1106  1  0.267770  0.224530  0.784360  1.0  -0.0409
  C  C1107  1  0.251670  0.221830  0.804170  1.0  -0.0702
  C  C1108  1  0.287670  0.188630  0.778000  1.0  -0.1163
  C  C1109  1  0.270970  0.100930  0.824060  1.0  -0.0707
  C  C1110  1  0.247970  0.094430  0.842990  1.0  -0.0316
  C  C1111  1  0.234370  0.179730  0.837970  1.0  -0.0292
  C  C1112  1  0.217870  0.218530  0.845410  1.0  -0.0398
  C  C1113  1  0.253070  0.182730  0.817700  1.0  -0.0234
  C  C1114  1  0.230470  0.134830  0.850890  1.0  -0.0253
  C  C1115  1  0.238170  0.046330  0.854750  1.0  -0.0454
  C  C1116  1  0.198670  0.214830  0.865150  1.0  -0.114
  C  C1117  1  0.212070  0.133330  0.870640  1.0  -0.1141
  C  C1118  1  0.196270  0.172030  0.877190  1.0  -1e-04
  C  C1119  1  0.250670  0.004830  0.847260  1.0  -0.135
  C  C1120  1  0.276670  0.013430  0.828880  1.0  -0.0611
  C  C1121  1  0.287270  0.060630  0.817740  1.0  -0.0831
  C  C1122  1  0.223970  0.106130  0.695100  1.0  0.6794
  C  C1123  1  0.232870  0.950930  0.859060  1.0  0.7329
  C  C1124  1  0.180170  0.256330  0.872390  1.0  0.7235
  C  C1125  1  0.160170  0.062230  0.695880  1.0  0.0552
  C  C1126  1  0.059870  0.040130  0.697080  1.0  -0.0023
  C  C1127  1  0.041070  0.981430  0.697560  1.0  -0.0016
  C  C1128  1  0.120670  0.080330  0.696690  1.0  -0.0495
  C  C1129  1  0.081670  0.962630  0.696230  1.0  -0.128
  C  C1130  1  0.141370  0.003930  0.695530  1.0  -0.0754
  C  C1131  1  0.972130  0.523370  0.089760  1.0  0.7189
  C  C1132  1  0.939730  0.478670  0.144320  1.0  -0.0263
  C  C1133  1  0.957130  0.482770  0.124570  1.0  -0.0398
  C  C1134  1  0.934430  0.557870  0.117700  1.0  -0.0408
  C  C1135  1  0.918330  0.555170  0.137510  1.0  -0.0703
  C  C1136  1  0.954330  0.521970  0.111340  1.0  -0.1161
  C  C1137  1  0.937630  0.434270  0.157400  1.0  -0.0707
  C  C1138  1  0.914630  0.427770  0.176330  1.0  -0.0318
  C  C1139  1  0.901030  0.513070  0.171310  1.0  -0.0292
  C  C1140  1  0.884530  0.551870  0.178750  1.0  -0.0398
  C  C1141  1  0.919730  0.516070  0.151040  1.0  -0.0234
  C  C1142  1  0.897130  0.468170  0.184230  1.0  -0.0252
  C  C1143  1  0.904830  0.379670  0.188090  1.0  -0.0455
  C  C1144  1  0.865330  0.548170  0.198490  1.0  -0.114
  C  C1145  1  0.878730  0.466670  0.203980  1.0  -0.1141
  C  C1146  1  0.862930  0.505370  0.210530  1.0  -1e-04
  C  C1147  1  0.917330  0.338170  0.180600  1.0  -0.1349
  C  C1148  1  0.943330  0.346770  0.162220  1.0  -0.0611
  C  C1149  1  0.953930  0.393970  0.151080  1.0  -0.0829
  C  C1150  1  0.890630  0.439470  0.028440  1.0  0.6793
  C  C1151  1  0.899530  0.284270  0.192400  1.0  0.7327
  C  C1152  1  0.846830  0.589670  0.205730  1.0  0.7236
  C  C1153  1  0.826830  0.395570  0.029220  1.0  0.0552
  C  C1154  1  0.726530  0.373470  0.030420  1.0  -0.0115
  C  C1155  1  0.707730  0.314770  0.030900  1.0  1e-04
  C  C1156  1  0.787330  0.413670  0.030030  1.0  -0.0495
  C  C1157  1  0.748330  0.295970  0.029570  1.0  -0.128
  C  C1158  1  0.808030  0.337270  0.028870  1.0  -0.0755
  C  C1159  1  0.143300  0.782100  0.423090  1.0  0.7187
  C  C1160  1  0.188000  0.794400  0.477650  1.0  -0.0281
  C  C1161  1  0.183900  0.807700  0.457900  1.0  -0.0419
  C  C1162  1  0.108800  0.709900  0.451030  1.0  -0.039
  C  C1163  1  0.111500  0.696500  0.470840  1.0  -0.0718
  C  C1164  1  0.144700  0.765700  0.444670  1.0  -0.1166
  C  C1165  1  0.232400  0.836700  0.490730  1.0  -0.0722
  C  C1166  1  0.238900  0.820200  0.509660  1.0  -0.0317
  C  C1167  1  0.153600  0.721300  0.504640  1.0  -0.0288
  C  C1168  1  0.114800  0.666000  0.512080  1.0  -0.0406
  C  C1169  1  0.150600  0.737000  0.484370  1.0  -0.0223
  C  C1170  1  0.198500  0.762300  0.517560  1.0  -0.0267
  C  C1171  1  0.287000  0.858500  0.521420  1.0  -0.045
  C  C1172  1  0.118500  0.650500  0.531820  1.0  -0.1124
  C  C1173  1  0.200000  0.745400  0.537310  1.0  -0.1131
  C  C1174  1  0.161300  0.690900  0.543860  1.0  -0.0004
  C  C1175  1  0.328500  0.912500  0.513930  1.0  -0.1358
  C  C1176  1  0.319900  0.929900  0.495550  1.0  -0.0632
  C  C1177  1  0.272700  0.893300  0.484410  1.0  -0.0832
  C  C1178  1  0.227200  0.784500  0.361770  1.0  0.6769
  C  C1179  1  0.382400  0.948600  0.525730  1.0  0.7318
  C  C1180  1  0.077000  0.590500  0.539060  1.0  0.7243
  C  C1181  1  0.271100  0.764600  0.362550  1.0  0.0553
  C  C1182  1  0.293200  0.686400  0.363750  1.0  -0.0051
  C  C1183  1  0.351900  0.726300  0.364230  1.0  -0.0029
  C  C1184  1  0.253000  0.707000  0.363360  1.0  -0.0522
  C  C1185  1  0.370700  0.785700  0.362900  1.0  -0.1268
  C  C1186  1  0.329400  0.804100  0.362200  1.0  -0.0761
  C  C1187  1  0.809970  0.115430  0.756420  1.0  0.7184
  C  C1188  1  0.854670  0.127730  0.810980  1.0  -0.0276
  C  C1189  1  0.850570  0.141030  0.791230  1.0  -0.0418
  C  C1190  1  0.775470  0.043230  0.784360  1.0  -0.0389
  C  C1191  1  0.778170  0.029830  0.804170  1.0  -0.0718
  C  C1192  1  0.811370  0.099030  0.778000  1.0  -0.1168
  C  C1193  1  0.899070  0.170030  0.824060  1.0  -0.0722
  C  C1194  1  0.905570  0.153530  0.842990  1.0  -0.0314
  C  C1195  1  0.820270  0.054630  0.837970  1.0  -0.0288
  C  C1196  1  0.781470  0.999330  0.845410  1.0  -0.0406
  C  C1197  1  0.817270  0.070330  0.817700  1.0  -0.0219
  C  C1198  1  0.865170  0.095630  0.850890  1.0  -0.0268
  C  C1199  1  0.953670  0.191830  0.854750  1.0  -0.045
  C  C1200  1  0.785170  0.983830  0.865150  1.0  -0.1124
  C  C1201  1  0.866670  0.078730  0.870640  1.0  -0.1131
  C  C1202  1  0.827970  0.024230  0.877190  1.0  -0.0003
  C  C1203  1  0.995170  0.245830  0.847260  1.0  -0.1359
  C  C1204  1  0.986570  0.263230  0.828880  1.0  -0.063
  C  C1205  1  0.939370  0.226630  0.817740  1.0  -0.083
  C  C1206  1  0.893870  0.117830  0.695100  1.0  0.677
  C  C1207  1  0.049070  0.281930  0.859060  1.0  0.7319
  C  C1208  1  0.743670  0.923830  0.872390  1.0  0.7243
  C  C1209  1  0.937770  0.097930  0.695880  1.0  0.0553
  C  C1210  1  0.959870  0.019730  0.697080  1.0  -0.0063
  C  C1211  1  0.018570  0.059630  0.697560  1.0  -0.0044
  C  C1212  1  0.919670  0.040330  0.696690  1.0  -0.0522
  C  C1213  1  0.037370  0.119030  0.696230  1.0  -0.1268
  C  C1214  1  0.996070  0.137430  0.695530  1.0  -0.0761
  C  C1215  1  0.476630  0.448770  0.089760  1.0  0.7188
  C  C1216  1  0.521330  0.461070  0.144320  1.0  -0.0281
  C  C1217  1  0.517230  0.474370  0.124570  1.0  -0.0419
  C  C1218  1  0.442130  0.376570  0.117700  1.0  -0.039
  C  C1219  1  0.444830  0.363170  0.137510  1.0  -0.0718
  C  C1220  1  0.478030  0.432370  0.111340  1.0  -0.1166
  C  C1221  1  0.565730  0.503370  0.157400  1.0  -0.0722
  C  C1222  1  0.572230  0.486870  0.176330  1.0  -0.0317
  C  C1223  1  0.486930  0.387970  0.171310  1.0  -0.0288
  C  C1224  1  0.448130  0.332670  0.178750  1.0  -0.0406
  C  C1225  1  0.483930  0.403670  0.151040  1.0  -0.0223
  C  C1226  1  0.531830  0.428970  0.184230  1.0  -0.0266
  C  C1227  1  0.620330  0.525170  0.188090  1.0  -0.045
  C  C1228  1  0.451830  0.317170  0.198490  1.0  -0.1124
  C  C1229  1  0.533330  0.412070  0.203980  1.0  -0.1131
  C  C1230  1  0.494630  0.357570  0.210530  1.0  -0.0004
  C  C1231  1  0.661830  0.579170  0.180600  1.0  -0.1358
  C  C1232  1  0.653230  0.596570  0.162220  1.0  -0.0632
  C  C1233  1  0.606030  0.559970  0.151080  1.0  -0.083
  C  C1234  1  0.560530  0.451170  0.028440  1.0  0.6769
  C  C1235  1  0.715730  0.615270  0.192400  1.0  0.732
  C  C1236  1  0.410330  0.257170  0.205730  1.0  0.7243
  C  C1237  1  0.604430  0.431270  0.029220  1.0  0.0553
  C  C1238  1  0.626530  0.353070  0.030420  1.0  -0.0051
  C  C1239  1  0.685230  0.392970  0.030900  1.0  -0.0029
  C  C1240  1  0.586330  0.373670  0.030030  1.0  -0.0522
  C  C1241  1  0.704030  0.452370  0.029570  1.0  -0.1268
  C  C1242  1  0.662730  0.470770  0.028870  1.0  -0.0761
  C  C1243  1  0.361200  0.217900  0.076910  1.0  0.7189
  C  C1244  1  0.393600  0.205600  0.022350  1.0  -0.0299
  C  C1245  1  0.376200  0.192300  0.042100  1.0  -0.0447
  C  C1246  1  0.398900  0.290100  0.048970  1.0  -0.04
  C  C1247  1  0.415000  0.303500  0.029160  1.0  -0.0728
  C  C1248  1  0.379000  0.234300  0.055330  1.0  -0.1181
  C  C1249  1  0.395700  0.163300  0.009270  1.0  -0.0731
  C  C1250  1  0.418700  0.179800  0.990340  1.0  -0.0328
  C  C1251  1  0.432300  0.278700  0.995360  1.0  -0.0291
  C  C1252  1  0.448800  0.334000  0.987920  1.0  -0.0394
  C  C1253  1  0.413600  0.263000  0.015630  1.0  -0.0224
  C  C1254  1  0.436200  0.237700  0.982440  1.0  -0.0305
  C  C1255  1  0.428500  0.141500  0.978580  1.0  -0.0473
  C  C1256  1  0.468000  0.349500  0.968180  1.0  -0.1161
  C  C1257  1  0.454600  0.254600  0.962690  1.0  -0.1149
  C  C1258  1  0.470400  0.309100  0.956140  1.0  -0.0027
  C  C1259  1  0.416000  0.087500  0.986070  1.0  -0.1364
  C  C1260  1  0.390000  0.070100  0.004450  1.0  -0.0642
  C  C1261  1  0.379400  0.106700  0.015590  1.0  -0.0822
  C  C1262  1  0.442700  0.215500  0.138230  1.0  0.678
  C  C1263  1  0.433800  0.051400  0.974270  1.0  0.731
  C  C1264  1  0.486500  0.409500  0.960940  1.0  0.7242
  C  C1265  1  0.506500  0.235400  0.137450  1.0  0.0545
  C  C1266  1  0.606800  0.313600  0.136250  1.0  -0.0086
  C  C1267  1  0.625600  0.273700  0.135770  1.0  -0.0029
  C  C1268  1  0.546000  0.293000  0.136640  1.0  -0.0508
  C  C1269  1  0.585000  0.214300  0.137100  1.0  -0.1323
  C  C1270  1  0.525300  0.195900  0.137800  1.0  -0.0763
  C  C1271  1  0.027870  0.551230  0.410240  1.0  0.719
  C  C1272  1  0.060270  0.538930  0.355680  1.0  -0.0299
  C  C1273  1  0.042870  0.525630  0.375430  1.0  -0.0447
  C  C1274  1  0.065570  0.623430  0.382300  1.0  -0.04
  C  C1275  1  0.081670  0.636830  0.362490  1.0  -0.0728
  C  C1276  1  0.045670  0.567630  0.388660  1.0  -0.1181
  C  C1277  1  0.062370  0.496630  0.342600  1.0  -0.0731
  C  C1278  1  0.085370  0.513130  0.323670  1.0  -0.0328
  C  C1279  1  0.098970  0.612030  0.328690  1.0  -0.0291
  C  C1280  1  0.115470  0.667330  0.321250  1.0  -0.0394
  C  C1281  1  0.080270  0.596330  0.348960  1.0  -0.0224
  C  C1282  1  0.102870  0.571030  0.315770  1.0  -0.0306
  C  C1283  1  0.095170  0.474830  0.311910  1.0  -0.0473
  C  C1284  1  0.134670  0.682830  0.301510  1.0  -0.1161
  C  C1285  1  0.121270  0.587930  0.296020  1.0  -0.1149
  C  C1286  1  0.137070  0.642430  0.289470  1.0  -0.0027
  C  C1287  1  0.082670  0.420830  0.319400  1.0  -0.1364
  C  C1288  1  0.056670  0.403430  0.337780  1.0  -0.0642
  C  C1289  1  0.046070  0.440030  0.348920  1.0  -0.0822
  C  C1290  1  0.109370  0.548830  0.471560  1.0  0.678
  C  C1291  1  0.100470  0.384730  0.307600  1.0  0.7308
  C  C1292  1  0.153170  0.742830  0.294270  1.0  0.7242
  C  C1293  1  0.173170  0.568730  0.470780  1.0  0.0546
  C  C1294  1  0.273470  0.646930  0.469580  1.0  -0.0086
  C  C1295  1  0.292270  0.607030  0.469100  1.0  -0.0029
  C  C1296  1  0.212670  0.626330  0.469970  1.0  -0.0508
  C  C1297  1  0.251670  0.547630  0.470430  1.0  -0.1323
  C  C1298  1  0.191970  0.529230  0.471130  1.0  -0.0763
  C  C1299  1  0.694530  0.884570  0.743580  1.0  0.7185
  C  C1300  1  0.726930  0.872270  0.689020  1.0  -0.0303
  C  C1301  1  0.709530  0.858970  0.708770  1.0  -0.0447
  C  C1302  1  0.732230  0.956770  0.715640  1.0  -0.04
  C  C1303  1  0.748330  0.970170  0.695830  1.0  -0.0729
  C  C1304  1  0.712330  0.900970  0.722000  1.0  -0.1181
  C  C1305  1  0.729030  0.829970  0.675940  1.0  -0.0731
  C  C1306  1  0.752030  0.846470  0.657010  1.0  -0.0325
  C  C1307  1  0.765630  0.945370  0.662030  1.0  -0.0291
  C  C1308  1  0.782130  0.000670  0.654590  1.0  -0.0394
  C  C1309  1  0.746930  0.929670  0.682300  1.0  -0.0224
  C  C1310  1  0.769530  0.904370  0.649110  1.0  -0.0305
  C  C1311  1  0.761830  0.808170  0.645250  1.0  -0.0472
  C  C1312  1  0.801330  0.016170  0.634850  1.0  -0.1161
  C  C1313  1  0.787930  0.921270  0.629360  1.0  -0.1149
  C  C1314  1  0.803730  0.975770  0.622810  1.0  -0.0027
  C  C1315  1  0.749330  0.754170  0.652740  1.0  -0.1365
  C  C1316  1  0.723330  0.736770  0.671120  1.0  -0.0642
  C  C1317  1  0.712730  0.773370  0.682260  1.0  -0.0822
  C  C1318  1  0.776030  0.882170  0.804900  1.0  0.678
  C  C1319  1  0.767130  0.718070  0.640940  1.0  0.7312
  C  C1320  1  0.819830  0.076170  0.627610  1.0  0.7242
  C  C1321  1  0.839830  0.902070  0.804120  1.0  0.0545
  C  C1322  1  0.940130  0.980270  0.802920  1.0  -0.0059
  C  C1323  1  0.958930  0.940370  0.802440  1.0  -0.0032
  C  C1324  1  0.879330  0.959670  0.803310  1.0  -0.0507
  C  C1325  1  0.918330  0.880970  0.803770  1.0  -0.1323
  C  C1326  1  0.858630  0.862570  0.804470  1.0  -0.0763
  C  C1327  1  0.856700  0.638800  0.076910  1.0  0.7185
  C  C1328  1  0.812000  0.606400  0.022350  1.0  -0.0289
  C  C1329  1  0.816100  0.623800  0.042100  1.0  -0.044
  C  C1330  1  0.891200  0.601100  0.048970  1.0  -0.0408
  C  C1331  1  0.888500  0.585000  0.029160  1.0  -0.0704
  C  C1332  1  0.855300  0.621000  0.055330  1.0  -0.1154
  C  C1333  1  0.767600  0.604300  0.009270  1.0  -0.0724
  C  C1334  1  0.761100  0.581300  0.990340  1.0  -0.0326
  C  C1335  1  0.846400  0.567700  0.995360  1.0  -0.0312
  C  C1336  1  0.885200  0.551200  0.987920  1.0  -0.0381
  C  C1337  1  0.849400  0.586400  0.015630  1.0  -0.024
  C  C1338  1  0.801500  0.563800  0.982440  1.0  -0.0314
  C  C1339  1  0.713000  0.571500  0.978580  1.0  -0.0452
  C  C1340  1  0.881500  0.532000  0.968180  1.0  -0.1178
  C  C1341  1  0.800000  0.545400  0.962690  1.0  -0.1137
  C  C1342  1  0.838700  0.529600  0.956140  1.0  -0.0003
  C  C1343  1  0.671500  0.584000  0.986070  1.0  -0.1331
  C  C1344  1  0.680100  0.610000  0.004450  1.0  -0.0646
  C  C1345  1  0.727300  0.620600  0.015590  1.0  -0.0857
  C  C1346  1  0.772800  0.557300  0.138230  1.0  0.6784
  C  C1347  1  0.617600  0.566200  0.974270  1.0  0.7281
  C  C1348  1  0.923000  0.513500  0.960940  1.0  0.7207
  C  C1349  1  0.728900  0.493500  0.137450  1.0  0.0558
  C  C1350  1  0.706800  0.393200  0.136250  1.0  -0.0128
  C  C1351  1  0.648100  0.374400  0.135770  1.0  -0.0024
  C  C1352  1  0.747000  0.454000  0.136640  1.0  -0.0518
  C  C1353  1  0.629300  0.415000  0.137100  1.0  -0.1279
  C  C1354  1  0.670600  0.474700  0.137800  1.0  -0.0745
  C  C1355  1  0.523370  0.972130  0.410240  1.0  0.7187
  C  C1356  1  0.478670  0.939730  0.355680  1.0  -0.0289
  C  C1357  1  0.482770  0.957130  0.375430  1.0  -0.044
  C  C1358  1  0.557870  0.934430  0.382300  1.0  -0.0408
  C  C1359  1  0.555170  0.918330  0.362490  1.0  -0.0704
  C  C1360  1  0.521970  0.954330  0.388660  1.0  -0.1154
  C  C1361  1  0.434270  0.937630  0.342600  1.0  -0.0724
  C  C1362  1  0.427770  0.914630  0.323670  1.0  -0.0326
  C  C1363  1  0.513070  0.901030  0.328690  1.0  -0.0312
  C  C1364  1  0.551870  0.884530  0.321250  1.0  -0.0381
  C  C1365  1  0.516070  0.919730  0.348960  1.0  -0.024
  C  C1366  1  0.468170  0.897130  0.315770  1.0  -0.0314
  C  C1367  1  0.379670  0.904830  0.311910  1.0  -0.0452
  C  C1368  1  0.548170  0.865330  0.301510  1.0  -0.1178
  C  C1369  1  0.466670  0.878730  0.296020  1.0  -0.1137
  C  C1370  1  0.505370  0.862930  0.289470  1.0  -0.0003
  C  C1371  1  0.338170  0.917330  0.319400  1.0  -0.1331
  C  C1372  1  0.346770  0.943330  0.337780  1.0  -0.0646
  C  C1373  1  0.393970  0.953930  0.348920  1.0  -0.0857
  C  C1374  1  0.439470  0.890630  0.471560  1.0  0.6784
  C  C1375  1  0.284270  0.899530  0.307600  1.0  0.7284
  C  C1376  1  0.589670  0.846830  0.294270  1.0  0.7208
  C  C1377  1  0.395570  0.826830  0.470780  1.0  0.0558
  C  C1378  1  0.373470  0.726530  0.469580  1.0  -0.0128
  C  C1379  1  0.314770  0.707730  0.469100  1.0  -0.0024
  C  C1380  1  0.413670  0.787330  0.469970  1.0  -0.0518
  C  C1381  1  0.295970  0.748330  0.470430  1.0  -0.1279
  C  C1382  1  0.337270  0.808030  0.471130  1.0  -0.0745
  C  C1383  1  0.190030  0.305470  0.743580  1.0  0.7185
  C  C1384  1  0.145330  0.273070  0.689020  1.0  -0.0289
  C  C1385  1  0.149430  0.290470  0.708770  1.0  -0.0441
  C  C1386  1  0.224530  0.267770  0.715640  1.0  -0.0409
  C  C1387  1  0.221830  0.251670  0.695830  1.0  -0.0704
  C  C1388  1  0.188630  0.287670  0.722000  1.0  -0.1156
  C  C1389  1  0.100930  0.270970  0.675940  1.0  -0.0724
  C  C1390  1  0.094430  0.247970  0.657010  1.0  -0.0325
  C  C1391  1  0.179730  0.234370  0.662030  1.0  -0.0312
  C  C1392  1  0.218530  0.217870  0.654590  1.0  -0.0381
  C  C1393  1  0.182730  0.253070  0.682300  1.0  -0.024
  C  C1394  1  0.134830  0.230470  0.649110  1.0  -0.0314
  C  C1395  1  0.046330  0.238170  0.645250  1.0  -0.0451
  C  C1396  1  0.214830  0.198670  0.634850  1.0  -0.1178
  C  C1397  1  0.133330  0.212070  0.629360  1.0  -0.1137
  C  C1398  1  0.172030  0.196270  0.622810  1.0  -0.0003
  C  C1399  1  0.004830  0.250670  0.652740  1.0  -0.1331
  C  C1400  1  0.013430  0.276670  0.671120  1.0  -0.0646
  C  C1401  1  0.060630  0.287270  0.682260  1.0  -0.0859
  C  C1402  1  0.106130  0.223970  0.804900  1.0  0.6785
  C  C1403  1  0.950930  0.232870  0.640940  1.0  0.7286
  C  C1404  1  0.256330  0.180170  0.627610  1.0  0.7207
  C  C1405  1  0.062230  0.160170  0.804120  1.0  0.0558
  C  C1406  1  0.040130  0.059870  0.802920  1.0  -0.0035
  C  C1407  1  0.981430  0.041070  0.802440  1.0  -0.0042
  C  C1408  1  0.080330  0.120670  0.803310  1.0  -0.0518
  C  C1409  1  0.962630  0.081670  0.803770  1.0  -0.1278
  C  C1410  1  0.003930  0.141370  0.804470  1.0  -0.0745
  C  C1411  1  0.782100  0.143300  0.076910  1.0  0.7201
  C  C1412  1  0.794400  0.188000  0.022350  1.0  -0.0276
  C  C1413  1  0.807700  0.183900  0.042100  1.0  -0.0412
  C  C1414  1  0.709900  0.108800  0.048970  1.0  -0.0401
  C  C1415  1  0.696500  0.111500  0.029160  1.0  -0.0689
  C  C1416  1  0.765700  0.144700  0.055330  1.0  -0.1184
  C  C1417  1  0.836700  0.232400  0.009270  1.0  -0.0714
  C  C1418  1  0.820200  0.238900  0.990340  1.0  -0.0331
  C  C1419  1  0.721300  0.153600  0.995360  1.0  -0.0298
  C  C1420  1  0.666000  0.114800  0.987920  1.0  -0.0381
  C  C1421  1  0.737000  0.150600  0.015630  1.0  -0.0243
  C  C1422  1  0.762300  0.198500  0.982440  1.0  -0.0304
  C  C1423  1  0.858500  0.287000  0.978580  1.0  -0.0468
  C  C1424  1  0.650500  0.118500  0.968180  1.0  -0.117
  C  C1425  1  0.745400  0.200000  0.962690  1.0  -0.1148
  C  C1426  1  0.690900  0.161300  0.956140  1.0  -0.0006
  C  C1427  1  0.912500  0.328500  0.986070  1.0  -0.1353
  C  C1428  1  0.929900  0.319900  0.004450  1.0  -0.0602
  C  C1429  1  0.893300  0.272700  0.015590  1.0  -0.0838
  C  C1430  1  0.784500  0.227200  0.138230  1.0  0.679
  C  C1431  1  0.948600  0.382400  0.974270  1.0  0.7319
  C  C1432  1  0.590500  0.077000  0.960940  1.0  0.7243
  C  C1433  1  0.764600  0.271100  0.137450  1.0  0.0551
  C  C1434  1  0.686400  0.293200  0.136250  1.0  -0.0048
  C  C1435  1  0.726300  0.351900  0.135770  1.0  -0.0018
  C  C1436  1  0.707000  0.253000  0.136640  1.0  -0.0504
  C  C1437  1  0.785700  0.370700  0.137100  1.0  -0.1294
  C  C1438  1  0.804100  0.329400  0.137800  1.0  -0.0753
  C  C1439  1  0.448770  0.476630  0.410240  1.0  0.7202
  C  C1440  1  0.461070  0.521330  0.355680  1.0  -0.0276
  C  C1441  1  0.474370  0.517230  0.375430  1.0  -0.0412
  C  C1442  1  0.376570  0.442130  0.382300  1.0  -0.0401
  C  C1443  1  0.363170  0.444830  0.362490  1.0  -0.0689
  C  C1444  1  0.432370  0.478030  0.388660  1.0  -0.1184
  C  C1445  1  0.503370  0.565730  0.342600  1.0  -0.0714
  C  C1446  1  0.486870  0.572230  0.323670  1.0  -0.0331
  C  C1447  1  0.387970  0.486930  0.328690  1.0  -0.0298
  C  C1448  1  0.332670  0.448130  0.321250  1.0  -0.0381
  C  C1449  1  0.403670  0.483930  0.348960  1.0  -0.0243
  C  C1450  1  0.428970  0.531830  0.315770  1.0  -0.0304
  C  C1451  1  0.525170  0.620330  0.311910  1.0  -0.0468
  C  C1452  1  0.317170  0.451830  0.301510  1.0  -0.117
  C  C1453  1  0.412070  0.533330  0.296020  1.0  -0.1148
  C  C1454  1  0.357570  0.494630  0.289470  1.0  -0.0006
  C  C1455  1  0.579170  0.661830  0.319400  1.0  -0.1353
  C  C1456  1  0.596570  0.653230  0.337780  1.0  -0.0602
  C  C1457  1  0.559970  0.606030  0.348920  1.0  -0.0837
  C  C1458  1  0.451170  0.560530  0.471560  1.0  0.6791
  C  C1459  1  0.615270  0.715730  0.307600  1.0  0.7322
  C  C1460  1  0.257170  0.410330  0.294270  1.0  0.7243
  C  C1461  1  0.431270  0.604430  0.470780  1.0  0.0551
  C  C1462  1  0.353070  0.626530  0.469580  1.0  -0.0048
  C  C1463  1  0.392970  0.685230  0.469100  1.0  -0.0018
  C  C1464  1  0.373670  0.586330  0.469970  1.0  -0.0504
  C  C1465  1  0.452370  0.704030  0.470430  1.0  -0.1294
  C  C1466  1  0.470770  0.662730  0.471130  1.0  -0.0753
  C  C1467  1  0.115430  0.809970  0.743580  1.0  0.7198
  C  C1468  1  0.127730  0.854670  0.689020  1.0  -0.0271
  C  C1469  1  0.141030  0.850570  0.708770  1.0  -0.0412
  C  C1470  1  0.043230  0.775470  0.715640  1.0  -0.0401
  C  C1471  1  0.029830  0.778170  0.695830  1.0  -0.0689
  C  C1472  1  0.099030  0.811370  0.722000  1.0  -0.1186
  C  C1473  1  0.170030  0.899070  0.675940  1.0  -0.0714
  C  C1474  1  0.153530  0.905570  0.657010  1.0  -0.0328
  C  C1475  1  0.054630  0.820270  0.662030  1.0  -0.0298
  C  C1476  1  0.999330  0.781470  0.654590  1.0  -0.0381
  C  C1477  1  0.070330  0.817270  0.682300  1.0  -0.0239
  C  C1478  1  0.095630  0.865170  0.649110  1.0  -0.0304
  C  C1479  1  0.191830  0.953670  0.645250  1.0  -0.0468
  C  C1480  1  0.983830  0.785170  0.634850  1.0  -0.117
  C  C1481  1  0.078730  0.866670  0.629360  1.0  -0.1148
  C  C1482  1  0.024230  0.827970  0.622810  1.0  -0.0006
  C  C1483  1  0.245830  0.995170  0.652740  1.0  -0.1354
  C  C1484  1  0.263230  0.986570  0.671120  1.0  -0.06
  C  C1485  1  0.226630  0.939370  0.682260  1.0  -0.0838
  C  C1486  1  0.117830  0.893870  0.804900  1.0  0.6792
  C  C1487  1  0.281930  0.049070  0.640940  1.0  0.732
  C  C1488  1  0.923830  0.743670  0.627610  1.0  0.7243
  C  C1489  1  0.097930  0.937770  0.804120  1.0  0.0551
  C  C1490  1  0.019730  0.959870  0.802920  1.0  -0.0059
  C  C1491  1  0.059630  0.018570  0.802440  1.0  -0.0037
  C  C1492  1  0.040330  0.919670  0.803310  1.0  -0.0504
  C  C1493  1  0.119030  0.037370  0.803770  1.0  -0.1294
  C  C1494  1  0.137430  0.996070  0.804470  1.0  -0.0753
  O  O1495  1  0.748200  0.644100  0.588100  1.0  -0.5423
  O  O1496  1  0.831000  0.648800  0.582330  1.0  -0.5858
  O  O1497  1  0.780100  0.580300  0.622590  1.0  -0.6117
  O  O1498  1  0.800500  0.578400  0.655070  1.0  -0.6214
  O  O1499  1  0.556300  0.521100  0.471820  1.0  -0.6276
  O  O1500  1  0.992980  0.569430  0.481750  1.0  -0.6425
  O  O1501  1  0.933500  0.549900  0.456270  1.0  -0.6263
  O  O1502  1  0.576400  0.490800  0.444030  1.0  -0.6053
  O  O1503  1  0.414870  0.977430  0.921430  1.0  -0.5423
  O  O1504  1  0.497670  0.982130  0.915660  1.0  -0.5858
  O  O1505  1  0.446770  0.913630  0.955920  1.0  -0.6117
  O  O1506  1  0.467170  0.911730  0.988400  1.0  -0.6214
  O  O1507  1  0.222970  0.854430  0.805150  1.0  -0.6283
  O  O1508  1  0.659650  0.902760  0.815080  1.0  -0.6424
  O  O1509  1  0.600170  0.883230  0.789600  1.0  -0.6264
  O  O1510  1  0.243070  0.824130  0.777360  1.0  -0.6054
  O  O1511  1  0.081530  0.310770  0.254770  1.0  -0.5423
  O  O1512  1  0.164330  0.315470  0.249000  1.0  -0.5858
  O  O1513  1  0.113430  0.246970  0.289260  1.0  -0.6117
  O  O1514  1  0.133830  0.245070  0.321740  1.0  -0.6254
  O  O1515  1  0.889630  0.187770  0.138490  1.0  -0.6333
  O  O1516  1  0.326310  0.236100  0.148420  1.0  -0.6425
  O  O1517  1  0.266830  0.216570  0.122940  1.0  -0.6263
  O  O1518  1  0.909730  0.157470  0.110700  1.0  -0.6053
  O  O1519  1  0.355900  0.104100  0.588100  1.0  -0.5461
  O  O1520  1  0.351200  0.182200  0.582330  1.0  -0.5861
  O  O1521  1  0.419700  0.199800  0.622590  1.0  -0.6105
  O  O1522  1  0.421600  0.222100  0.655070  1.0  -0.6233
  O  O1523  1  0.478900  0.035200  0.471820  1.0  -0.6284
  O  O1524  1  0.430570  0.423550  0.481750  1.0  -0.6418
  O  O1525  1  0.450100  0.383600  0.456270  1.0  -0.6262
  O  O1526  1  0.509200  0.085600  0.444030  1.0  -0.6032
  O  O1527  1  0.022570  0.437430  0.921430  1.0  -0.5461
  O  O1528  1  0.017870  0.515530  0.915660  1.0  -0.5861
  O  O1529  1  0.086370  0.533130  0.955920  1.0  -0.6105
  O  O1530  1  0.088270  0.555430  0.988400  1.0  -0.6233
  O  O1531  1  0.145570  0.368530  0.805150  1.0  -0.6291
  O  O1532  1  0.097240  0.756880  0.815080  1.0  -0.6417
  O  O1533  1  0.116770  0.716930  0.789600  1.0  -0.626
  O  O1534  1  0.175870  0.418930  0.777360  1.0  -0.6032
  O  O1535  1  0.689230  0.770770  0.254770  1.0  -0.5461
  O  O1536  1  0.684530  0.848870  0.249000  1.0  -0.5862
  O  O1537  1  0.753030  0.866470  0.289260  1.0  -0.6107
  O  O1538  1  0.754930  0.888770  0.321740  1.0  -0.6198
  O  O1539  1  0.812230  0.701870  0.138490  1.0  -0.6284
  O  O1540  1  0.763900  0.090220  0.148420  1.0  -0.6415
  O  O1541  1  0.783430  0.050270  0.122940  1.0  -0.6262
  O  O1542  1  0.842530  0.752270  0.110700  1.0  -0.6032
  O  O1543  1  0.895900  0.251800  0.588100  1.0  -0.5461
  O  O1544  1  0.817800  0.169000  0.582330  1.0  -0.5772
  O  O1545  1  0.800200  0.219900  0.622590  1.0  -0.6098
  O  O1546  1  0.777900  0.199500  0.655070  1.0  -0.6269
  O  O1547  1  0.964800  0.443700  0.471820  1.0  -0.6271
  O  O1548  1  0.576450  0.007020  0.481750  1.0  -0.6422
  O  O1549  1  0.616400  0.066500  0.456270  1.0  -0.627
  O  O1550  1  0.914400  0.423600  0.444030  1.0  -0.6064
  O  O1551  1  0.562570  0.585130  0.921430  1.0  -0.5461
  O  O1552  1  0.484470  0.502330  0.915660  1.0  -0.5772
  O  O1553  1  0.466870  0.553230  0.955920  1.0  -0.6098
  O  O1554  1  0.444570  0.532830  0.988400  1.0  -0.6269
  O  O1555  1  0.631470  0.777030  0.805150  1.0  -0.6264
  O  O1556  1  0.243120  0.340350  0.815080  1.0  -0.6422
  O  O1557  1  0.283070  0.399830  0.789600  1.0  -0.627
  O  O1558  1  0.581070  0.756930  0.777360  1.0  -0.6064
  O  O1559  1  0.229230  0.918470  0.254770  1.0  -0.5462
  O  O1560  1  0.151130  0.835670  0.249000  1.0  -0.5775
  O  O1561  1  0.133530  0.886570  0.289260  1.0  -0.6102
  O  O1562  1  0.111230  0.866170  0.321740  1.0  -0.6232
  O  O1563  1  0.298130  0.110370  0.138490  1.0  -0.6272
  O  O1564  1  0.909780  0.673690  0.148420  1.0  -0.6422
  O  O1565  1  0.949730  0.733170  0.122940  1.0  -0.627
  O  O1566  1  0.247730  0.090270  0.110700  1.0  -0.6064
  O  O1567  1  0.644100  0.748200  0.911900  1.0  -0.5455
  O  O1568  1  0.648800  0.831000  0.917670  1.0  -0.5777
  O  O1569  1  0.580300  0.780100  0.877410  1.0  -0.6097
  O  O1570  1  0.578400  0.800500  0.844930  1.0  -0.6229
  O  O1571  1  0.521100  0.556300  0.028180  1.0  -0.6272
  O  O1572  1  0.569430  0.992980  0.018250  1.0  -0.6429
  O  O1573  1  0.549900  0.933500  0.043730  1.0  -0.6266
  O  O1574  1  0.490800  0.576400  0.055970  1.0  -0.6081
  O  O1575  1  0.310770  0.081530  0.245230  1.0  -0.5455
  O  O1576  1  0.315470  0.164330  0.251000  1.0  -0.5778
  O  O1577  1  0.246970  0.113430  0.210740  1.0  -0.6098
  O  O1578  1  0.245070  0.133830  0.178260  1.0  -0.6272
  O  O1579  1  0.187770  0.889630  0.361510  1.0  -0.6272
  O  O1580  1  0.236100  0.326310  0.351580  1.0  -0.643
  O  O1581  1  0.216570  0.266830  0.377060  1.0  -0.6266
  O  O1582  1  0.157470  0.909730  0.389300  1.0  -0.6081
  O  O1583  1  0.977430  0.414870  0.578570  1.0  -0.5455
  O  O1584  1  0.982130  0.497670  0.584340  1.0  -0.5777
  O  O1585  1  0.913630  0.446770  0.544080  1.0  -0.6098
  O  O1586  1  0.911730  0.467170  0.511600  1.0  -0.6229
  O  O1587  1  0.854430  0.222970  0.694850  1.0  -0.628
  O  O1588  1  0.902760  0.659650  0.684920  1.0  -0.6428
  O  O1589  1  0.883230  0.600170  0.710400  1.0  -0.6267
  O  O1590  1  0.824130  0.243070  0.722640  1.0  -0.6081
  O  O1591  1  0.104100  0.355900  0.911900  1.0  -0.543
  O  O1592  1  0.182200  0.351200  0.917670  1.0  -0.5859
  O  O1593  1  0.199800  0.419700  0.877410  1.0  -0.6103
  O  O1594  1  0.222100  0.421600  0.844930  1.0  -0.6256
  O  O1595  1  0.035200  0.478900  0.028180  1.0  -0.6267
  O  O1596  1  0.423550  0.430570  0.018250  1.0  -0.643
  O  O1597  1  0.383600  0.450100  0.043730  1.0  -0.6265
  O  O1598  1  0.085600  0.509200  0.055970  1.0  -0.6068
  O  O1599  1  0.770770  0.689230  0.245230  1.0  -0.543
  O  O1600  1  0.848870  0.684530  0.251000  1.0  -0.5859
  O  O1601  1  0.866470  0.753030  0.210740  1.0  -0.6104
  O  O1602  1  0.888770  0.754930  0.178260  1.0  -0.6215
  O  O1603  1  0.701870  0.812230  0.361510  1.0  -0.6266
  O  O1604  1  0.090220  0.763900  0.351580  1.0  -0.6429
  O  O1605  1  0.050270  0.783430  0.377060  1.0  -0.6265
  O  O1606  1  0.752270  0.842530  0.389300  1.0  -0.6068
  O  O1607  1  0.437430  0.022570  0.578570  1.0  -0.543
  O  O1608  1  0.515530  0.017870  0.584340  1.0  -0.5859
  O  O1609  1  0.533130  0.086370  0.544080  1.0  -0.6103
  O  O1610  1  0.555430  0.088270  0.511600  1.0  -0.6256
  O  O1611  1  0.368530  0.145570  0.694850  1.0  -0.6273
  O  O1612  1  0.756880  0.097240  0.684920  1.0  -0.6429
  O  O1613  1  0.716930  0.116770  0.710400  1.0  -0.6265
  O  O1614  1  0.418930  0.175870  0.722640  1.0  -0.6069
  O  O1615  1  0.251800  0.895900  0.911900  1.0  -0.5463
  O  O1616  1  0.169000  0.817800  0.917670  1.0  -0.5872
  O  O1617  1  0.219900  0.800200  0.877410  1.0  -0.6102
  O  O1618  1  0.199500  0.777900  0.844930  1.0  -0.6233
  O  O1619  1  0.443700  0.964800  0.028180  1.0  -0.6307
  O  O1620  1  0.007020  0.576450  0.018250  1.0  -0.6417
  O  O1621  1  0.066500  0.616400  0.043730  1.0  -0.6232
  O  O1622  1  0.423600  0.914400  0.055970  1.0  -0.6025
  O  O1623  1  0.918470  0.229230  0.245230  1.0  -0.5464
  O  O1624  1  0.835670  0.151130  0.251000  1.0  -0.5874
  O  O1625  1  0.886570  0.133530  0.210740  1.0  -0.6097
  O  O1626  1  0.866170  0.111230  0.178260  1.0  -0.6192
  O  O1627  1  0.110370  0.298130  0.361510  1.0  -0.6307
  O  O1628  1  0.673690  0.909780  0.351580  1.0  -0.6417
  O  O1629  1  0.733170  0.949730  0.377060  1.0  -0.6232
  O  O1630  1  0.090270  0.247730  0.389300  1.0  -0.6025
  O  O1631  1  0.585130  0.562570  0.578570  1.0  -0.5463
  O  O1632  1  0.502330  0.484470  0.584340  1.0  -0.5872
  O  O1633  1  0.553230  0.466870  0.544080  1.0  -0.6094
  O  O1634  1  0.532830  0.444570  0.511600  1.0  -0.6233
  O  O1635  1  0.777030  0.631470  0.694850  1.0  -0.63
  O  O1636  1  0.340350  0.243120  0.684920  1.0  -0.6417
  O  O1637  1  0.399830  0.283070  0.710400  1.0  -0.6232
  O  O1638  1  0.756930  0.581070  0.722640  1.0  -0.6025
  O  O1639  1  0.251800  0.355900  0.411900  1.0  -0.544
  O  O1640  1  0.169000  0.351200  0.417670  1.0  -0.5865
  O  O1641  1  0.219900  0.419700  0.377410  1.0  -0.6106
  O  O1642  1  0.199500  0.421600  0.344930  1.0  -0.6213
  O  O1643  1  0.443700  0.478900  0.528180  1.0  -0.6261
  O  O1644  1  0.007020  0.430570  0.518250  1.0  -0.6418
  O  O1645  1  0.066500  0.450100  0.543730  1.0  -0.6243
  O  O1646  1  0.423600  0.509200  0.555970  1.0  -0.6086
  O  O1647  1  0.918470  0.689230  0.745230  1.0  -0.544
  O  O1648  1  0.835670  0.684530  0.751000  1.0  -0.5866
  O  O1649  1  0.886570  0.753030  0.710740  1.0  -0.6107
  O  O1650  1  0.866170  0.754930  0.678260  1.0  -0.6257
  O  O1651  1  0.110370  0.812230  0.861510  1.0  -0.6315
  O  O1652  1  0.673690  0.763900  0.851580  1.0  -0.6419
  O  O1653  1  0.733170  0.783430  0.877060  1.0  -0.6243
  O  O1654  1  0.090270  0.842530  0.889300  1.0  -0.6086
  O  O1655  1  0.585130  0.022570  0.078570  1.0  -0.544
  O  O1656  1  0.502330  0.017870  0.084340  1.0  -0.5865
  O  O1657  1  0.553230  0.086370  0.044080  1.0  -0.6106
  O  O1658  1  0.532830  0.088270  0.011600  1.0  -0.6213
  O  O1659  1  0.777030  0.145570  0.194850  1.0  -0.6268
  O  O1660  1  0.340350  0.097240  0.184920  1.0  -0.6417
  O  O1661  1  0.399830  0.116770  0.210400  1.0  -0.6245
  O  O1662  1  0.756930  0.175870  0.222640  1.0  -0.6086
  O  O1663  1  0.644100  0.895900  0.411900  1.0  -0.5456
  O  O1664  1  0.648800  0.817800  0.417670  1.0  -0.5872
  O  O1665  1  0.580300  0.800200  0.377410  1.0  -0.6089
  O  O1666  1  0.578400  0.777900  0.344930  1.0  -0.6238
  O  O1667  1  0.521100  0.964800  0.528180  1.0  -0.6291
  O  O1668  1  0.569430  0.576450  0.518250  1.0  -0.6417
  O  O1669  1  0.549900  0.616400  0.543730  1.0  -0.6252
  O  O1670  1  0.490800  0.914400  0.555970  1.0  -0.6035
  O  O1671  1  0.310770  0.229230  0.745230  1.0  -0.5457
  O  O1672  1  0.315470  0.151130  0.751000  1.0  -0.5872
  O  O1673  1  0.246970  0.133530  0.710740  1.0  -0.609
  O  O1674  1  0.245070  0.111230  0.678260  1.0  -0.6198
  O  O1675  1  0.187770  0.298130  0.861510  1.0  -0.6291
  O  O1676  1  0.236100  0.909780  0.851580  1.0  -0.6415
  O  O1677  1  0.216570  0.949730  0.877060  1.0  -0.6252
  O  O1678  1  0.157470  0.247730  0.889300  1.0  -0.6035
  O  O1679  1  0.977430  0.562570  0.078570  1.0  -0.5456
  O  O1680  1  0.982130  0.484470  0.084340  1.0  -0.5872
  O  O1681  1  0.913630  0.466870  0.044080  1.0  -0.6089
  O  O1682  1  0.911730  0.444570  0.011600  1.0  -0.6238
  O  O1683  1  0.854430  0.631470  0.194850  1.0  -0.6298
  O  O1684  1  0.902760  0.243120  0.184920  1.0  -0.6417
  O  O1685  1  0.883230  0.283070  0.210400  1.0  -0.6252
  O  O1686  1  0.824130  0.581070  0.222640  1.0  -0.6035
  O  O1687  1  0.104100  0.748200  0.411900  1.0  -0.5453
  O  O1688  1  0.182200  0.831000  0.417670  1.0  -0.5767
  O  O1689  1  0.199800  0.780100  0.377410  1.0  -0.6099
  O  O1690  1  0.222100  0.800500  0.344930  1.0  -0.6255
  O  O1691  1  0.035200  0.556300  0.528180  1.0  -0.628
  O  O1692  1  0.423550  0.992980  0.518250  1.0  -0.6426
  O  O1693  1  0.383600  0.933500  0.543730  1.0  -0.6263
  O  O1694  1  0.085600  0.576400  0.555970  1.0  -0.6065
  O  O1695  1  0.770770  0.081530  0.745230  1.0  -0.5454
  O  O1696  1  0.848870  0.164330  0.751000  1.0  -0.5769
  O  O1697  1  0.866470  0.113430  0.710740  1.0  -0.6102
  O  O1698  1  0.888770  0.133830  0.678260  1.0  -0.6214
  O  O1699  1  0.701870  0.889630  0.861510  1.0  -0.6279
  O  O1700  1  0.090220  0.326310  0.851580  1.0  -0.6426
  O  O1701  1  0.050270  0.266830  0.877060  1.0  -0.6263
  O  O1702  1  0.752270  0.909730  0.889300  1.0  -0.6065
  O  O1703  1  0.437430  0.414870  0.078570  1.0  -0.5453
  O  O1704  1  0.515530  0.497670  0.084340  1.0  -0.5767
  O  O1705  1  0.533130  0.446770  0.044080  1.0  -0.6099
  O  O1706  1  0.555430  0.467170  0.011600  1.0  -0.6255
  O  O1707  1  0.368530  0.222970  0.194850  1.0  -0.6273
  O  O1708  1  0.756880  0.659650  0.184920  1.0  -0.6427
  O  O1709  1  0.716930  0.600170  0.210400  1.0  -0.6263
  O  O1710  1  0.418930  0.243070  0.222640  1.0  -0.6065
  O  O1711  1  0.355900  0.251800  0.088100  1.0  -0.5451
  O  O1712  1  0.351200  0.169000  0.082330  1.0  -0.5758
  O  O1713  1  0.419700  0.219900  0.122590  1.0  -0.6104
  O  O1714  1  0.421600  0.199500  0.155070  1.0  -0.6218
  O  O1715  1  0.478900  0.443700  0.971820  1.0  -0.6269
  O  O1716  1  0.430570  0.007020  0.981750  1.0  -0.642
  O  O1717  1  0.450100  0.066500  0.956270  1.0  -0.6268
  O  O1718  1  0.509200  0.423600  0.944030  1.0  -0.6072
  O  O1719  1  0.022570  0.585130  0.421430  1.0  -0.5451
  O  O1720  1  0.017870  0.502330  0.415660  1.0  -0.5758
  O  O1721  1  0.086370  0.553230  0.455920  1.0  -0.6103
  O  O1722  1  0.088270  0.532830  0.488400  1.0  -0.6218
  O  O1723  1  0.145570  0.777030  0.305150  1.0  -0.6276
  O  O1724  1  0.097240  0.340350  0.315080  1.0  -0.642
  O  O1725  1  0.116770  0.399830  0.289600  1.0  -0.627
  O  O1726  1  0.175870  0.756930  0.277360  1.0  -0.6074
  O  O1727  1  0.689230  0.918470  0.754770  1.0  -0.5451
  O  O1728  1  0.684530  0.835670  0.749000  1.0  -0.5759
  O  O1729  1  0.753030  0.886570  0.789260  1.0  -0.6104
  O  O1730  1  0.754930  0.866170  0.821740  1.0  -0.6258
  O  O1731  1  0.812230  0.110370  0.638490  1.0  -0.6268
  O  O1732  1  0.763900  0.673690  0.648420  1.0  -0.642
  O  O1733  1  0.783430  0.733170  0.622940  1.0  -0.6268
  O  O1734  1  0.842530  0.090270  0.610700  1.0  -0.6072
  O  O1735  1  0.895900  0.644100  0.088100  1.0  -0.5436
  O  O1736  1  0.817800  0.648800  0.082330  1.0  -0.586
  O  O1737  1  0.800200  0.580300  0.122590  1.0  -0.6107
  O  O1738  1  0.777900  0.578400  0.155070  1.0  -0.6254
  O  O1739  1  0.964800  0.521100  0.971820  1.0  -0.6269
  O  O1740  1  0.576450  0.569430  0.981750  1.0  -0.6415
  O  O1741  1  0.616400  0.549900  0.956270  1.0  -0.6269
  O  O1742  1  0.914400  0.490800  0.944030  1.0  -0.6062
  O  O1743  1  0.562570  0.977430  0.421430  1.0  -0.5436
  O  O1744  1  0.484470  0.982130  0.415660  1.0  -0.586
  O  O1745  1  0.466870  0.913630  0.455920  1.0  -0.6107
  O  O1746  1  0.444570  0.911730  0.488400  1.0  -0.6254
  O  O1747  1  0.631470  0.854430  0.305150  1.0  -0.6276
  O  O1748  1  0.243120  0.902760  0.315080  1.0  -0.6415
  O  O1749  1  0.283070  0.883230  0.289600  1.0  -0.6269
  O  O1750  1  0.581070  0.824130  0.277360  1.0  -0.6063
  O  O1751  1  0.229230  0.310770  0.754770  1.0  -0.5436
  O  O1752  1  0.151130  0.315470  0.749000  1.0  -0.5861
  O  O1753  1  0.133530  0.246970  0.789260  1.0  -0.6109
  O  O1754  1  0.111230  0.245070  0.821740  1.0  -0.6218
  O  O1755  1  0.298130  0.187770  0.638490  1.0  -0.6269
  O  O1756  1  0.909780  0.236100  0.648420  1.0  -0.6415
  O  O1757  1  0.949730  0.216570  0.622940  1.0  -0.6269
  O  O1758  1  0.247730  0.157470  0.610700  1.0  -0.6062
  O  O1759  1  0.748200  0.104100  0.088100  1.0  -0.5453
  O  O1760  1  0.831000  0.182200  0.082330  1.0  -0.5867
  O  O1761  1  0.780100  0.199800  0.122590  1.0  -0.6115
  O  O1762  1  0.800500  0.222100  0.155070  1.0  -0.6237
  O  O1763  1  0.556300  0.035200  0.971820  1.0  -0.629
  O  O1764  1  0.992980  0.423550  0.981750  1.0  -0.642
  O  O1765  1  0.933500  0.383600  0.956270  1.0  -0.6248
  O  O1766  1  0.576400  0.085600  0.944030  1.0  -0.6035
  O  O1767  1  0.414870  0.437430  0.421430  1.0  -0.5454
  O  O1768  1  0.497670  0.515530  0.415660  1.0  -0.5867
  O  O1769  1  0.446770  0.533130  0.455920  1.0  -0.6102
  O  O1770  1  0.467170  0.555430  0.488400  1.0  -0.6237
  O  O1771  1  0.222970  0.368530  0.305150  1.0  -0.6283
  O  O1772  1  0.659650  0.756880  0.315080  1.0  -0.642
  O  O1773  1  0.600170  0.716930  0.289600  1.0  -0.6248
  O  O1774  1  0.243070  0.418930  0.277360  1.0  -0.6035
  O  O1775  1  0.081530  0.770770  0.754770  1.0  -0.5455
  O  O1776  1  0.164330  0.848870  0.749000  1.0  -0.5869
  O  O1777  1  0.113430  0.866470  0.789260  1.0  -0.6106
  O  O1778  1  0.133830  0.888770  0.821740  1.0  -0.62
  O  O1779  1  0.889630  0.701870  0.638490  1.0  -0.629
  O  O1780  1  0.326310  0.090220  0.648420  1.0  -0.642
  O  O1781  1  0.266830  0.050270  0.622940  1.0  -0.6248
  O  O1782  1  0.909730  0.752270  0.610700  1.0  -0.6035
