# generated using pymatgen
data_MnZn4H20C52N4(ClO8)2
_symmetry_space_group_name_H-M   'P 1'
_cell_length_a   30.45890000
_cell_length_b   30.45890000
_cell_length_c   44.28700000
_cell_angle_alpha   90.00000000
_cell_angle_beta   90.00000000
_cell_angle_gamma   90.00000000
_symmetry_Int_Tables_number   1
_chemical_formula_structural   MnZn4H20C52N4(ClO8)2
_chemical_formula_sum   'Mn16 Zn64 H320 C832 N64 Cl32 O256'
_cell_volume   41087.02462234
_cell_formula_units_Z   16
loop_
 _symmetry_equiv_pos_site_id
 _symmetry_equiv_pos_as_xyz
  1  'x, y, z'
loop_
 _atom_site_type_symbol
 _atom_site_label
 _atom_site_symmetry_multiplicity
 _atom_site_fract_x
 _atom_site_fract_y
 _atom_site_fract_z
 _atom_site_occupancy
 _atom_site_charge
  Mn  Mn1  1  0.767690  0.267690  0.000000  1.0  1.026
  Mn  Mn2  1  0.232310  0.732310  0.000000  1.0  1.0269
  Mn  Mn3  1  0.732310  0.767690  0.000000  1.0  1.0273
  Mn  Mn4  1  0.232310  0.267690  0.500000  1.0  1.0273
  Mn  Mn5  1  0.267690  0.232310  0.000000  1.0  1.0257
  Mn  Mn6  1  0.767690  0.732310  0.500000  1.0  1.0257
  Mn  Mn7  1  0.267690  0.767690  0.500000  1.0  1.026
  Mn  Mn8  1  0.732310  0.232310  0.500000  1.0  1.0269
  Mn  Mn9  1  0.000000  0.500000  0.000000  1.0  0.5355
  Mn  Mn10  1  0.500000  0.000000  0.500000  1.0  0.5355
  Mn  Mn11  1  0.500000  0.000000  0.000000  1.0  0.5355
  Mn  Mn12  1  0.000000  0.500000  0.500000  1.0  0.5355
  Mn  Mn13  1  0.000000  0.500000  0.250000  1.0  1.0143
  Mn  Mn14  1  0.500000  0.000000  0.250000  1.0  1.0143
  Mn  Mn15  1  0.000000  0.500000  0.750000  1.0  1.0143
  Mn  Mn16  1  0.500000  0.000000  0.750000  1.0  1.0143
  Zn  Zn17  1  0.021660  0.244790  0.130050  1.0  1.1597
  Zn  Zn18  1  0.012550  0.150810  0.173140  1.0  1.0843
  Zn  Zn19  1  0.521660  0.744790  0.630050  1.0  1.1597
  Zn  Zn20  1  0.512550  0.650810  0.673140  1.0  1.0843
  Zn  Zn21  1  0.978340  0.755210  0.130050  1.0  1.1599
  Zn  Zn22  1  0.987450  0.849190  0.173140  1.0  1.0867
  Zn  Zn23  1  0.478340  0.255210  0.630050  1.0  1.1599
  Zn  Zn24  1  0.487450  0.349190  0.673140  1.0  1.0867
  Zn  Zn25  1  0.755210  0.021660  0.130050  1.0  1.1596
  Zn  Zn26  1  0.849190  0.012550  0.173140  1.0  1.0837
  Zn  Zn27  1  0.255210  0.521660  0.630050  1.0  1.1596
  Zn  Zn28  1  0.349190  0.512550  0.673140  1.0  1.0837
  Zn  Zn29  1  0.244790  0.978340  0.130050  1.0  1.1598
  Zn  Zn30  1  0.150810  0.987450  0.173140  1.0  1.082
  Zn  Zn31  1  0.744790  0.478340  0.630050  1.0  1.1598
  Zn  Zn32  1  0.650810  0.487450  0.673140  1.0  1.082
  Zn  Zn33  1  0.978340  0.244790  0.369950  1.0  1.1605
  Zn  Zn34  1  0.987450  0.150810  0.326860  1.0  1.0872
  Zn  Zn35  1  0.478340  0.744790  0.869950  1.0  1.1605
  Zn  Zn36  1  0.487450  0.650810  0.826860  1.0  1.0872
  Zn  Zn37  1  0.021660  0.755210  0.369950  1.0  1.1611
  Zn  Zn38  1  0.012550  0.849190  0.326860  1.0  1.0871
  Zn  Zn39  1  0.521660  0.255210  0.869950  1.0  1.1611
  Zn  Zn40  1  0.512550  0.349190  0.826860  1.0  1.0871
  Zn  Zn41  1  0.244790  0.021660  0.369950  1.0  1.1609
  Zn  Zn42  1  0.150810  0.012550  0.326860  1.0  1.0828
  Zn  Zn43  1  0.744790  0.521660  0.869950  1.0  1.1609
  Zn  Zn44  1  0.650810  0.512550  0.826860  1.0  1.0828
  Zn  Zn45  1  0.755210  0.978340  0.369950  1.0  1.1603
  Zn  Zn46  1  0.849190  0.987450  0.326860  1.0  1.0854
  Zn  Zn47  1  0.255210  0.478340  0.869950  1.0  1.1603
  Zn  Zn48  1  0.349190  0.487450  0.826860  1.0  1.0854
  Zn  Zn49  1  0.978340  0.755210  0.869950  1.0  1.161
  Zn  Zn50  1  0.987450  0.849190  0.826860  1.0  1.0868
  Zn  Zn51  1  0.478340  0.255210  0.369950  1.0  1.161
  Zn  Zn52  1  0.487450  0.349190  0.326860  1.0  1.0868
  Zn  Zn53  1  0.021660  0.244790  0.869950  1.0  1.1606
  Zn  Zn54  1  0.012550  0.150810  0.826860  1.0  1.0876
  Zn  Zn55  1  0.521660  0.744790  0.369950  1.0  1.1606
  Zn  Zn56  1  0.512550  0.650810  0.326860  1.0  1.0876
  Zn  Zn57  1  0.244790  0.978340  0.869950  1.0  1.1605
  Zn  Zn58  1  0.150810  0.987450  0.826860  1.0  1.0832
  Zn  Zn59  1  0.744790  0.478340  0.369950  1.0  1.1605
  Zn  Zn60  1  0.650810  0.487450  0.326860  1.0  1.0832
  Zn  Zn61  1  0.755210  0.021660  0.869950  1.0  1.1608
  Zn  Zn62  1  0.849190  0.012550  0.826860  1.0  1.0852
  Zn  Zn63  1  0.255210  0.521660  0.369950  1.0  1.1608
  Zn  Zn64  1  0.349190  0.512550  0.326860  1.0  1.0852
  Zn  Zn65  1  0.021660  0.755210  0.630050  1.0  1.1598
  Zn  Zn66  1  0.012550  0.849190  0.673140  1.0  1.0869
  Zn  Zn67  1  0.521660  0.255210  0.130050  1.0  1.1598
  Zn  Zn68  1  0.512550  0.349190  0.173140  1.0  1.0869
  Zn  Zn69  1  0.978340  0.244790  0.630050  1.0  1.1598
  Zn  Zn70  1  0.987450  0.150810  0.673140  1.0  1.084
  Zn  Zn71  1  0.478340  0.744790  0.130050  1.0  1.1598
  Zn  Zn72  1  0.487450  0.650810  0.173140  1.0  1.084
  Zn  Zn73  1  0.755210  0.978340  0.630050  1.0  1.1594
  Zn  Zn74  1  0.849190  0.987450  0.673140  1.0  1.0839
  Zn  Zn75  1  0.255210  0.478340  0.130050  1.0  1.1594
  Zn  Zn76  1  0.349190  0.487450  0.173140  1.0  1.0839
  Zn  Zn77  1  0.244790  0.021660  0.630050  1.0  1.16
  Zn  Zn78  1  0.150810  0.012550  0.673140  1.0  1.0819
  Zn  Zn79  1  0.744790  0.521660  0.130050  1.0  1.16
  Zn  Zn80  1  0.650810  0.512550  0.173140  1.0  1.0819
  H  H81  1  0.793000  0.236600  0.112800  1.0  0.1406
  H  H82  1  0.878500  0.147400  0.028900  1.0  0.1587
  H  H83  1  0.902400  0.122100  0.138900  1.0  0.1072
  H  H84  1  0.797200  0.138700  0.087300  1.0  0.1341
  H  H85  1  0.897700  0.223000  0.082700  1.0  0.1318
  H  H86  1  0.039400  0.368900  0.085700  1.0  0.1237
  H  H87  1  0.086200  0.357200  0.253300  1.0  0.1396
  H  H88  1  0.003400  0.328600  0.208000  1.0  0.1162
  H  H89  1  0.293000  0.736600  0.612800  1.0  0.1406
  H  H90  1  0.378500  0.647400  0.528900  1.0  0.1587
  H  H91  1  0.402400  0.622100  0.638900  1.0  0.1072
  H  H92  1  0.297200  0.638700  0.587300  1.0  0.1341
  H  H93  1  0.397700  0.723000  0.582700  1.0  0.1318
  H  H94  1  0.539400  0.868900  0.585700  1.0  0.1237
  H  H95  1  0.586200  0.857200  0.753300  1.0  0.1396
  H  H96  1  0.503400  0.828600  0.708000  1.0  0.1162
  H  H97  1  0.207000  0.763400  0.112800  1.0  0.1403
  H  H98  1  0.121500  0.852600  0.028900  1.0  0.1584
  H  H99  1  0.097600  0.877900  0.138900  1.0  0.107
  H  H100  1  0.202800  0.861300  0.087300  1.0  0.1342
  H  H101  1  0.102300  0.777000  0.082700  1.0  0.1327
  H  H102  1  0.960600  0.631100  0.085700  1.0  0.1238
  H  H103  1  0.913800  0.642800  0.253300  1.0  0.1396
  H  H104  1  0.996600  0.671400  0.208000  1.0  0.1159
  H  H105  1  0.707000  0.263400  0.612800  1.0  0.1403
  H  H106  1  0.621500  0.352600  0.528900  1.0  0.1584
  H  H107  1  0.597600  0.377900  0.638900  1.0  0.107
  H  H108  1  0.702800  0.361300  0.587300  1.0  0.1342
  H  H109  1  0.602300  0.277000  0.582700  1.0  0.1327
  H  H110  1  0.460600  0.131100  0.585700  1.0  0.1238
  H  H111  1  0.413800  0.142800  0.753300  1.0  0.1396
  H  H112  1  0.496600  0.171400  0.708000  1.0  0.1159
  H  H113  1  0.763400  0.793000  0.112800  1.0  0.1412
  H  H114  1  0.852600  0.878500  0.028900  1.0  0.1585
  H  H115  1  0.877900  0.902400  0.138900  1.0  0.1069
  H  H116  1  0.861300  0.797200  0.087300  1.0  0.1362
  H  H117  1  0.777000  0.897700  0.082700  1.0  0.1331
  H  H118  1  0.631100  0.039400  0.085700  1.0  0.1236
  H  H119  1  0.642800  0.086200  0.253300  1.0  0.1396
  H  H120  1  0.671400  0.003400  0.208000  1.0  0.1165
  H  H121  1  0.263400  0.293000  0.612800  1.0  0.1412
  H  H122  1  0.352600  0.378500  0.528900  1.0  0.1585
  H  H123  1  0.377900  0.402400  0.638900  1.0  0.1069
  H  H124  1  0.361300  0.297200  0.587300  1.0  0.1362
  H  H125  1  0.277000  0.397700  0.582700  1.0  0.1331
  H  H126  1  0.131100  0.539400  0.585700  1.0  0.1236
  H  H127  1  0.142800  0.586200  0.753300  1.0  0.1396
  H  H128  1  0.171400  0.503400  0.708000  1.0  0.1165
  H  H129  1  0.236600  0.207000  0.112800  1.0  0.141
  H  H130  1  0.147400  0.121500  0.028900  1.0  0.1581
  H  H131  1  0.122100  0.097600  0.138900  1.0  0.1077
  H  H132  1  0.138700  0.202800  0.087300  1.0  0.1355
  H  H133  1  0.223000  0.102300  0.082700  1.0  0.1326
  H  H134  1  0.368900  0.960600  0.085700  1.0  0.1227
  H  H135  1  0.357200  0.913800  0.253300  1.0  0.1415
  H  H136  1  0.328600  0.996600  0.208000  1.0  0.1164
  H  H137  1  0.736600  0.707000  0.612800  1.0  0.141
  H  H138  1  0.647400  0.621500  0.528900  1.0  0.1581
  H  H139  1  0.622100  0.597600  0.638900  1.0  0.1077
  H  H140  1  0.638700  0.702800  0.587300  1.0  0.1355
  H  H141  1  0.723000  0.602300  0.582700  1.0  0.1326
  H  H142  1  0.868900  0.460600  0.585700  1.0  0.1227
  H  H143  1  0.857200  0.413800  0.753300  1.0  0.1415
  H  H144  1  0.828600  0.496600  0.708000  1.0  0.1164
  H  H145  1  0.207000  0.236600  0.387200  1.0  0.1392
  H  H146  1  0.121500  0.147400  0.471100  1.0  0.1582
  H  H147  1  0.097600  0.122100  0.361100  1.0  0.1075
  H  H148  1  0.202800  0.138700  0.412700  1.0  0.1331
  H  H149  1  0.102300  0.223000  0.417300  1.0  0.1319
  H  H150  1  0.960600  0.368900  0.414300  1.0  0.1235
  H  H151  1  0.913800  0.357200  0.246700  1.0  0.1392
  H  H152  1  0.996600  0.328600  0.292000  1.0  0.1163
  H  H153  1  0.707000  0.736600  0.887200  1.0  0.1392
  H  H154  1  0.621500  0.647400  0.971100  1.0  0.1582
  H  H155  1  0.597600  0.622100  0.861100  1.0  0.1075
  H  H156  1  0.702800  0.638700  0.912700  1.0  0.1331
  H  H157  1  0.602300  0.723000  0.917300  1.0  0.1319
  H  H158  1  0.460600  0.868900  0.914300  1.0  0.1235
  H  H159  1  0.413800  0.857200  0.746700  1.0  0.1392
  H  H160  1  0.496600  0.828600  0.792000  1.0  0.1163
  H  H161  1  0.793000  0.763400  0.387200  1.0  0.1395
  H  H162  1  0.878500  0.852600  0.471100  1.0  0.1585
  H  H163  1  0.902400  0.877900  0.361100  1.0  0.1072
  H  H164  1  0.797200  0.861300  0.412700  1.0  0.1335
  H  H165  1  0.897700  0.777000  0.417300  1.0  0.1327
  H  H166  1  0.039400  0.631100  0.414300  1.0  0.1231
  H  H167  1  0.086200  0.642800  0.246700  1.0  0.1396
  H  H168  1  0.003400  0.671400  0.292000  1.0  0.1159
  H  H169  1  0.293000  0.263400  0.887200  1.0  0.1395
  H  H170  1  0.378500  0.352600  0.971100  1.0  0.1585
  H  H171  1  0.402400  0.377900  0.861100  1.0  0.1072
  H  H172  1  0.297200  0.361300  0.912700  1.0  0.1335
  H  H173  1  0.397700  0.277000  0.917300  1.0  0.1327
  H  H174  1  0.539400  0.131100  0.914300  1.0  0.1231
  H  H175  1  0.586200  0.142800  0.746700  1.0  0.1396
  H  H176  1  0.503400  0.171400  0.792000  1.0  0.1159
  H  H177  1  0.236600  0.793000  0.387200  1.0  0.1402
  H  H178  1  0.147400  0.878500  0.471100  1.0  0.1585
  H  H179  1  0.122100  0.902400  0.361100  1.0  0.1071
  H  H180  1  0.138700  0.797200  0.412700  1.0  0.1356
  H  H181  1  0.223000  0.897700  0.417300  1.0  0.1323
  H  H182  1  0.368900  0.039400  0.414300  1.0  0.1231
  H  H183  1  0.357200  0.086200  0.246700  1.0  0.1405
  H  H184  1  0.328600  0.003400  0.292000  1.0  0.1171
  H  H185  1  0.736600  0.293000  0.887200  1.0  0.1402
  H  H186  1  0.647400  0.378500  0.971100  1.0  0.1585
  H  H187  1  0.622100  0.402400  0.861100  1.0  0.1071
  H  H188  1  0.638700  0.297200  0.912700  1.0  0.1356
  H  H189  1  0.723000  0.397700  0.917300  1.0  0.1323
  H  H190  1  0.868900  0.539400  0.914300  1.0  0.1231
  H  H191  1  0.857200  0.586200  0.746700  1.0  0.1405
  H  H192  1  0.828600  0.503400  0.792000  1.0  0.1171
  H  H193  1  0.763400  0.207000  0.387200  1.0  0.1404
  H  H194  1  0.852600  0.121500  0.471100  1.0  0.1585
  H  H195  1  0.877900  0.097600  0.361100  1.0  0.1077
  H  H196  1  0.861300  0.202800  0.412700  1.0  0.135
  H  H197  1  0.777000  0.102300  0.417300  1.0  0.1336
  H  H198  1  0.631100  0.960600  0.414300  1.0  0.1222
  H  H199  1  0.642800  0.913800  0.246700  1.0  0.1392
  H  H200  1  0.671400  0.996600  0.292000  1.0  0.1167
  H  H201  1  0.263400  0.707000  0.887200  1.0  0.1404
  H  H202  1  0.352600  0.621500  0.971100  1.0  0.1585
  H  H203  1  0.377900  0.597600  0.861100  1.0  0.1077
  H  H204  1  0.361300  0.702800  0.912700  1.0  0.135
  H  H205  1  0.277000  0.602300  0.917300  1.0  0.1336
  H  H206  1  0.131100  0.460600  0.914300  1.0  0.1222
  H  H207  1  0.142800  0.413800  0.746700  1.0  0.1392
  H  H208  1  0.171400  0.496600  0.792000  1.0  0.1167
  H  H209  1  0.207000  0.763400  0.887200  1.0  0.1392
  H  H210  1  0.121500  0.852600  0.971100  1.0  0.1587
  H  H211  1  0.097600  0.877900  0.861100  1.0  0.1071
  H  H212  1  0.202800  0.861300  0.912700  1.0  0.1332
  H  H213  1  0.102300  0.777000  0.917300  1.0  0.1327
  H  H214  1  0.960600  0.631100  0.914300  1.0  0.1234
  H  H215  1  0.913800  0.642800  0.746700  1.0  0.1392
  H  H216  1  0.996600  0.671400  0.792000  1.0  0.1159
  H  H217  1  0.707000  0.263400  0.387200  1.0  0.1392
  H  H218  1  0.621500  0.352600  0.471100  1.0  0.1587
  H  H219  1  0.597600  0.377900  0.361100  1.0  0.1071
  H  H220  1  0.702800  0.361300  0.412700  1.0  0.1332
  H  H221  1  0.602300  0.277000  0.417300  1.0  0.1327
  H  H222  1  0.460600  0.131100  0.414300  1.0  0.1234
  H  H223  1  0.413800  0.142800  0.246700  1.0  0.1392
  H  H224  1  0.496600  0.171400  0.292000  1.0  0.1159
  H  H225  1  0.793000  0.236600  0.887200  1.0  0.1395
  H  H226  1  0.878500  0.147400  0.971100  1.0  0.1585
  H  H227  1  0.902400  0.122100  0.861100  1.0  0.1076
  H  H228  1  0.797200  0.138700  0.912700  1.0  0.1339
  H  H229  1  0.897700  0.223000  0.917300  1.0  0.1314
  H  H230  1  0.039400  0.368900  0.914300  1.0  0.1237
  H  H231  1  0.086200  0.357200  0.746700  1.0  0.1395
  H  H232  1  0.003400  0.328600  0.792000  1.0  0.1164
  H  H233  1  0.293000  0.736600  0.387200  1.0  0.1395
  H  H234  1  0.378500  0.647400  0.471100  1.0  0.1585
  H  H235  1  0.402400  0.622100  0.361100  1.0  0.1076
  H  H236  1  0.297200  0.638700  0.412700  1.0  0.1339
  H  H237  1  0.397700  0.723000  0.417300  1.0  0.1314
  H  H238  1  0.539400  0.868900  0.414300  1.0  0.1237
  H  H239  1  0.586200  0.857200  0.246700  1.0  0.1395
  H  H240  1  0.503400  0.828600  0.292000  1.0  0.1164
  H  H241  1  0.236600  0.207000  0.887200  1.0  0.1402
  H  H242  1  0.147400  0.121500  0.971100  1.0  0.1581
  H  H243  1  0.122100  0.097600  0.861100  1.0  0.1077
  H  H244  1  0.138700  0.202800  0.912700  1.0  0.135
  H  H245  1  0.223000  0.102300  0.917300  1.0  0.1327
  H  H246  1  0.368900  0.960600  0.914300  1.0  0.1225
  H  H247  1  0.357200  0.913800  0.746700  1.0  0.1412
  H  H248  1  0.328600  0.996600  0.792000  1.0  0.1173
  H  H249  1  0.736600  0.707000  0.387200  1.0  0.1402
  H  H250  1  0.647400  0.621500  0.471100  1.0  0.1581
  H  H251  1  0.622100  0.597600  0.361100  1.0  0.1077
  H  H252  1  0.638700  0.702800  0.412700  1.0  0.135
  H  H253  1  0.723000  0.602300  0.417300  1.0  0.1327
  H  H254  1  0.868900  0.460600  0.414300  1.0  0.1225
  H  H255  1  0.857200  0.413800  0.246700  1.0  0.1412
  H  H256  1  0.828600  0.496600  0.292000  1.0  0.1173
  H  H257  1  0.763400  0.793000  0.887200  1.0  0.1401
  H  H258  1  0.852600  0.878500  0.971100  1.0  0.1585
  H  H259  1  0.877900  0.902400  0.861100  1.0  0.1074
  H  H260  1  0.861300  0.797200  0.912700  1.0  0.1356
  H  H261  1  0.777000  0.897700  0.917300  1.0  0.1329
  H  H262  1  0.631100  0.039400  0.914300  1.0  0.1231
  H  H263  1  0.642800  0.086200  0.746700  1.0  0.1394
  H  H264  1  0.671400  0.003400  0.792000  1.0  0.1165
  H  H265  1  0.263400  0.293000  0.387200  1.0  0.1401
  H  H266  1  0.352600  0.378500  0.471100  1.0  0.1585
  H  H267  1  0.377900  0.402400  0.361100  1.0  0.1074
  H  H268  1  0.361300  0.297200  0.412700  1.0  0.1356
  H  H269  1  0.277000  0.397700  0.417300  1.0  0.1329
  H  H270  1  0.131100  0.539400  0.414300  1.0  0.1231
  H  H271  1  0.142800  0.586200  0.246700  1.0  0.1394
  H  H272  1  0.171400  0.503400  0.292000  1.0  0.1165
  H  H273  1  0.793000  0.763400  0.612800  1.0  0.1405
  H  H274  1  0.878500  0.852600  0.528900  1.0  0.1586
  H  H275  1  0.902400  0.877900  0.638900  1.0  0.1069
  H  H276  1  0.797200  0.861300  0.587300  1.0  0.1342
  H  H277  1  0.897700  0.777000  0.582700  1.0  0.1331
  H  H278  1  0.039400  0.631100  0.585700  1.0  0.1235
  H  H279  1  0.086200  0.642800  0.753300  1.0  0.1396
  H  H280  1  0.003400  0.671400  0.708000  1.0  0.116
  H  H281  1  0.293000  0.263400  0.112800  1.0  0.1405
  H  H282  1  0.378500  0.352600  0.028900  1.0  0.1586
  H  H283  1  0.402400  0.377900  0.138900  1.0  0.1069
  H  H284  1  0.297200  0.361300  0.087300  1.0  0.1342
  H  H285  1  0.397700  0.277000  0.082700  1.0  0.1331
  H  H286  1  0.539400  0.131100  0.085700  1.0  0.1235
  H  H287  1  0.586200  0.142800  0.253300  1.0  0.1396
  H  H288  1  0.503400  0.171400  0.208000  1.0  0.116
  H  H289  1  0.207000  0.236600  0.612800  1.0  0.1403
  H  H290  1  0.121500  0.147400  0.528900  1.0  0.1582
  H  H291  1  0.097600  0.122100  0.638900  1.0  0.1073
  H  H292  1  0.202800  0.138700  0.587300  1.0  0.1337
  H  H293  1  0.102300  0.223000  0.582700  1.0  0.1318
  H  H294  1  0.960600  0.368900  0.585700  1.0  0.1235
  H  H295  1  0.913800  0.357200  0.753300  1.0  0.1396
  H  H296  1  0.996600  0.328600  0.708000  1.0  0.1162
  H  H297  1  0.707000  0.736600  0.112800  1.0  0.1403
  H  H298  1  0.621500  0.647400  0.028900  1.0  0.1582
  H  H299  1  0.597600  0.622100  0.138900  1.0  0.1073
  H  H300  1  0.702800  0.638700  0.087300  1.0  0.1337
  H  H301  1  0.602300  0.723000  0.082700  1.0  0.1318
  H  H302  1  0.460600  0.868900  0.085700  1.0  0.1235
  H  H303  1  0.413800  0.857200  0.253300  1.0  0.1396
  H  H304  1  0.496600  0.828600  0.208000  1.0  0.1162
  H  H305  1  0.763400  0.207000  0.612800  1.0  0.1414
  H  H306  1  0.852600  0.121500  0.528900  1.0  0.1587
  H  H307  1  0.877900  0.097600  0.638900  1.0  0.1073
  H  H308  1  0.861300  0.202800  0.587300  1.0  0.1355
  H  H309  1  0.777000  0.102300  0.582700  1.0  0.1333
  H  H310  1  0.631100  0.960600  0.585700  1.0  0.1224
  H  H311  1  0.642800  0.913800  0.753300  1.0  0.1394
  H  H312  1  0.671400  0.996600  0.708000  1.0  0.1166
  H  H313  1  0.263400  0.707000  0.112800  1.0  0.1414
  H  H314  1  0.352600  0.621500  0.028900  1.0  0.1587
  H  H315  1  0.377900  0.597600  0.138900  1.0  0.1073
  H  H316  1  0.361300  0.702800  0.087300  1.0  0.1355
  H  H317  1  0.277000  0.602300  0.082700  1.0  0.1333
  H  H318  1  0.131100  0.460600  0.085700  1.0  0.1224
  H  H319  1  0.142800  0.413800  0.253300  1.0  0.1394
  H  H320  1  0.171400  0.496600  0.208000  1.0  0.1166
  H  H321  1  0.236600  0.793000  0.612800  1.0  0.141
  H  H322  1  0.147400  0.878500  0.528900  1.0  0.1582
  H  H323  1  0.122100  0.902400  0.638900  1.0  0.1072
  H  H324  1  0.138700  0.797200  0.587300  1.0  0.136
  H  H325  1  0.223000  0.897700  0.582700  1.0  0.1326
  H  H326  1  0.368900  0.039400  0.585700  1.0  0.1234
  H  H327  1  0.357200  0.086200  0.753300  1.0  0.1407
  H  H328  1  0.328600  0.003400  0.708000  1.0  0.1163
  H  H329  1  0.736600  0.293000  0.112800  1.0  0.141
  H  H330  1  0.647400  0.378500  0.028900  1.0  0.1582
  H  H331  1  0.622100  0.402400  0.138900  1.0  0.1072
  H  H332  1  0.638700  0.297200  0.087300  1.0  0.136
  H  H333  1  0.723000  0.397700  0.082700  1.0  0.1326
  H  H334  1  0.868900  0.539400  0.085700  1.0  0.1234
  H  H335  1  0.857200  0.586200  0.253300  1.0  0.1407
  H  H336  1  0.828600  0.503400  0.208000  1.0  0.1163
  H  H337  1  0.115700  0.384300  0.026800  1.0  0.1305
  H  H338  1  0.028600  0.471400  0.109800  1.0  0.1356
  H  H339  1  0.137100  0.362900  0.142100  1.0  0.1033
  H  H340  1  0.884300  0.615700  0.026800  1.0  0.1306
  H  H341  1  0.971400  0.528600  0.109800  1.0  0.1353
  H  H342  1  0.862900  0.637100  0.142100  1.0  0.1036
  H  H343  1  0.384300  0.115700  0.526800  1.0  0.1306
  H  H344  1  0.471400  0.028600  0.609800  1.0  0.1353
  H  H345  1  0.362900  0.137100  0.642100  1.0  0.1036
  H  H346  1  0.615700  0.115700  0.026800  1.0  0.1305
  H  H347  1  0.528600  0.028600  0.109800  1.0  0.1354
  H  H348  1  0.637100  0.137100  0.142100  1.0  0.103
  H  H349  1  0.384300  0.884300  0.026800  1.0  0.1305
  H  H350  1  0.471400  0.971400  0.109800  1.0  0.1353
  H  H351  1  0.362900  0.862900  0.142100  1.0  0.104
  H  H352  1  0.884300  0.384300  0.473200  1.0  0.1306
  H  H353  1  0.971400  0.471400  0.390200  1.0  0.1346
  H  H354  1  0.862900  0.362900  0.357900  1.0  0.1037
  H  H355  1  0.115700  0.615700  0.473200  1.0  0.1306
  H  H356  1  0.028600  0.528600  0.390200  1.0  0.1347
  H  H357  1  0.137100  0.637100  0.357900  1.0  0.1032
  H  H358  1  0.384300  0.115700  0.473200  1.0  0.1312
  H  H359  1  0.471400  0.028600  0.390200  1.0  0.1345
  H  H360  1  0.362900  0.137100  0.357900  1.0  0.1032
  H  H361  1  0.615700  0.884300  0.473200  1.0  0.1305
  H  H362  1  0.528600  0.971400  0.390200  1.0  0.135
  H  H363  1  0.637100  0.862900  0.357900  1.0  0.1037
  H  H364  1  0.884300  0.615700  0.973200  1.0  0.1312
  H  H365  1  0.971400  0.528600  0.890200  1.0  0.1345
  H  H366  1  0.862900  0.637100  0.857900  1.0  0.1032
  H  H367  1  0.115700  0.384300  0.973200  1.0  0.1305
  H  H368  1  0.028600  0.471400  0.890200  1.0  0.135
  H  H369  1  0.137100  0.362900  0.857900  1.0  0.1037
  H  H370  1  0.384300  0.884300  0.973200  1.0  0.1306
  H  H371  1  0.471400  0.971400  0.890200  1.0  0.1346
  H  H372  1  0.362900  0.862900  0.857900  1.0  0.1037
  H  H373  1  0.615700  0.115700  0.973200  1.0  0.1306
  H  H374  1  0.528600  0.028600  0.890200  1.0  0.1347
  H  H375  1  0.637100  0.137100  0.857900  1.0  0.1032
  H  H376  1  0.115700  0.615700  0.526800  1.0  0.1305
  H  H377  1  0.028600  0.528600  0.609800  1.0  0.1354
  H  H378  1  0.137100  0.637100  0.642100  1.0  0.103
  H  H379  1  0.884300  0.384300  0.526800  1.0  0.1305
  H  H380  1  0.971400  0.471400  0.609800  1.0  0.1353
  H  H381  1  0.862900  0.362900  0.642100  1.0  0.104
  H  H382  1  0.615700  0.884300  0.526800  1.0  0.1305
  H  H383  1  0.528600  0.971400  0.609800  1.0  0.1356
  H  H384  1  0.637100  0.862900  0.642100  1.0  0.1033
  H  H385  1  0.000000  0.214700  0.250000  1.0  0.1195
  H  H386  1  0.500000  0.714700  0.750000  1.0  0.12
  H  H387  1  0.000000  0.785300  0.250000  1.0  0.117
  H  H388  1  0.500000  0.285300  0.750000  1.0  0.1176
  H  H389  1  0.785300  0.000000  0.250000  1.0  0.1182
  H  H390  1  0.285300  0.500000  0.750000  1.0  0.1187
  H  H391  1  0.214700  0.000000  0.250000  1.0  0.1182
  H  H392  1  0.714700  0.500000  0.750000  1.0  0.1183
  H  H393  1  0.000000  0.785300  0.750000  1.0  0.117
  H  H394  1  0.500000  0.285300  0.250000  1.0  0.1176
  H  H395  1  0.000000  0.214700  0.750000  1.0  0.1195
  H  H396  1  0.500000  0.714700  0.250000  1.0  0.12
  H  H397  1  0.214700  0.000000  0.750000  1.0  0.1182
  H  H398  1  0.714700  0.500000  0.250000  1.0  0.1183
  H  H399  1  0.785300  0.000000  0.750000  1.0  0.1182
  H  H400  1  0.285300  0.500000  0.250000  1.0  0.1187
  C  C401  1  0.780400  0.250000  0.096000  1.0  -0.0134
  C  C402  1  0.789500  0.242100  0.067600  1.0  0.0028
  C  C403  1  0.824300  0.208800  0.051600  1.0  -0.1142
  C  C404  1  0.832700  0.195400  0.019600  1.0  0.221
  C  C405  1  0.862500  0.164200  0.015200  1.0  -0.054
  C  C406  1  0.951500  0.193200  0.120600  1.0  0.4063
  C  C407  1  0.911100  0.172700  0.111700  1.0  -0.0636
  C  C408  1  0.889000  0.137500  0.123300  1.0  0.0147
  C  C409  1  0.849500  0.123300  0.113900  1.0  -0.0003
  C  C410  1  0.826900  0.088200  0.126600  1.0  0.5533
  C  C411  1  0.825800  0.146700  0.092100  1.0  -0.0544
  C  C412  1  0.845600  0.182000  0.077900  1.0  0.082
  C  C413  1  0.886400  0.196500  0.089700  1.0  -0.1094
  C  C414  1  0.070200  0.314200  0.121200  1.0  0.5724
  C  C415  1  0.089400  0.358300  0.112800  1.0  -0.0159
  C  C416  1  0.066100  0.380400  0.092100  1.0  -0.087
  C  C417  1  0.043100  0.410300  0.249500  1.0  0.2462
  C  C418  1  0.082300  0.387500  0.252000  1.0  -0.1451
  C  C419  1  0.004300  0.266500  0.223000  1.0  -0.0474
  C  C420  1  0.002600  0.312800  0.226000  1.0  0.0298
  C  C421  1  0.012400  0.242000  0.189800  1.0  0.3459
  C  C422  1  0.280400  0.750000  0.596000  1.0  -0.0134
  C  C423  1  0.289500  0.742100  0.567600  1.0  0.0028
  C  C424  1  0.324300  0.708800  0.551600  1.0  -0.1142
  C  C425  1  0.332700  0.695400  0.519600  1.0  0.221
  C  C426  1  0.362500  0.664200  0.515200  1.0  -0.054
  C  C427  1  0.451500  0.693200  0.620600  1.0  0.4063
  C  C428  1  0.411100  0.672700  0.611700  1.0  -0.0636
  C  C429  1  0.389000  0.637500  0.623300  1.0  0.0147
  C  C430  1  0.349500  0.623300  0.613900  1.0  -0.0003
  C  C431  1  0.326900  0.588200  0.626600  1.0  0.5533
  C  C432  1  0.325800  0.646700  0.592100  1.0  -0.0544
  C  C433  1  0.345600  0.682000  0.577900  1.0  0.082
  C  C434  1  0.386400  0.696500  0.589700  1.0  -0.1094
  C  C435  1  0.570200  0.814200  0.621200  1.0  0.5724
  C  C436  1  0.589400  0.858300  0.612800  1.0  -0.0159
  C  C437  1  0.566100  0.880400  0.592100  1.0  -0.087
  C  C438  1  0.543100  0.910300  0.749500  1.0  0.2462
  C  C439  1  0.582300  0.887500  0.752000  1.0  -0.1451
  C  C440  1  0.504300  0.766500  0.723000  1.0  -0.0474
  C  C441  1  0.502600  0.812800  0.726000  1.0  0.0298
  C  C442  1  0.512400  0.742000  0.689800  1.0  0.3459
  C  C443  1  0.219600  0.750000  0.096000  1.0  -0.0151
  C  C444  1  0.210500  0.757900  0.067600  1.0  0.0021
  C  C445  1  0.175700  0.791200  0.051600  1.0  -0.1137
  C  C446  1  0.167300  0.804600  0.019600  1.0  0.2211
  C  C447  1  0.137500  0.835800  0.015200  1.0  -0.055
  C  C448  1  0.048500  0.806800  0.120600  1.0  0.4064
  C  C449  1  0.088900  0.827300  0.111700  1.0  -0.0654
  C  C450  1  0.111000  0.862500  0.123300  1.0  0.0139
  C  C451  1  0.150500  0.876700  0.113900  1.0  -0.0007
  C  C452  1  0.173100  0.911800  0.126600  1.0  0.5533
  C  C453  1  0.174200  0.853300  0.092100  1.0  -0.053
  C  C454  1  0.154400  0.818000  0.077900  1.0  0.0822
  C  C455  1  0.113600  0.803500  0.089700  1.0  -0.1088
  C  C456  1  0.929800  0.685800  0.121200  1.0  0.5717
  C  C457  1  0.910600  0.641700  0.112800  1.0  -0.0176
  C  C458  1  0.933900  0.619600  0.092100  1.0  -0.0871
  C  C459  1  0.956900  0.589700  0.249500  1.0  0.2484
  C  C460  1  0.917700  0.612500  0.252000  1.0  -0.1433
  C  C461  1  0.995700  0.733500  0.223000  1.0  -0.0467
  C  C462  1  0.997400  0.687200  0.226000  1.0  0.0314
  C  C463  1  0.987600  0.758000  0.189800  1.0  0.3462
  C  C464  1  0.719600  0.250000  0.596000  1.0  -0.0151
  C  C465  1  0.710500  0.257900  0.567600  1.0  0.0021
  C  C466  1  0.675700  0.291200  0.551600  1.0  -0.1137
  C  C467  1  0.667300  0.304600  0.519600  1.0  0.2211
  C  C468  1  0.637500  0.335800  0.515200  1.0  -0.055
  C  C469  1  0.548500  0.306800  0.620600  1.0  0.4064
  C  C470  1  0.588900  0.327300  0.611700  1.0  -0.0654
  C  C471  1  0.611000  0.362500  0.623300  1.0  0.0139
  C  C472  1  0.650500  0.376700  0.613900  1.0  -0.0007
  C  C473  1  0.673100  0.411800  0.626600  1.0  0.5533
  C  C474  1  0.674200  0.353300  0.592100  1.0  -0.053
  C  C475  1  0.654400  0.318000  0.577900  1.0  0.0822
  C  C476  1  0.613600  0.303500  0.589700  1.0  -0.1088
  C  C477  1  0.429800  0.185800  0.621200  1.0  0.5717
  C  C478  1  0.410600  0.141700  0.612800  1.0  -0.0176
  C  C479  1  0.433900  0.119600  0.592100  1.0  -0.0871
  C  C480  1  0.456900  0.089700  0.749500  1.0  0.2484
  C  C481  1  0.417700  0.112500  0.752000  1.0  -0.1433
  C  C482  1  0.495700  0.233500  0.723000  1.0  -0.0467
  C  C483  1  0.497400  0.187200  0.726000  1.0  0.0314
  C  C484  1  0.487600  0.258000  0.689800  1.0  0.3462
  C  C485  1  0.750000  0.780400  0.096000  1.0  -0.0153
  C  C486  1  0.757900  0.789500  0.067600  1.0  0.0013
  C  C487  1  0.791200  0.824300  0.051600  1.0  -0.1138
  C  C488  1  0.804600  0.832700  0.019600  1.0  0.2195
  C  C489  1  0.835800  0.862500  0.015200  1.0  -0.0552
  C  C490  1  0.806800  0.951500  0.120600  1.0  0.4071
  C  C491  1  0.827300  0.911100  0.111700  1.0  -0.063
  C  C492  1  0.862500  0.889000  0.123300  1.0  0.0137
  C  C493  1  0.876700  0.849500  0.113900  1.0  -0.002
  C  C494  1  0.911800  0.826900  0.126600  1.0  0.5522
  C  C495  1  0.853300  0.825800  0.092100  1.0  -0.0539
  C  C496  1  0.818000  0.845600  0.077900  1.0  0.0821
  C  C497  1  0.803500  0.886400  0.089700  1.0  -0.1107
  C  C498  1  0.685800  0.070200  0.121200  1.0  0.5708
  C  C499  1  0.641700  0.089400  0.112800  1.0  -0.0195
  C  C500  1  0.619600  0.066100  0.092100  1.0  -0.0868
  C  C501  1  0.589700  0.043100  0.249500  1.0  0.2469
  C  C502  1  0.612500  0.082300  0.252000  1.0  -0.1419
  C  C503  1  0.733500  0.004300  0.223000  1.0  -0.0464
  C  C504  1  0.687200  0.002600  0.226000  1.0  0.0294
  C  C505  1  0.758000  0.012400  0.189800  1.0  0.346
  C  C506  1  0.250000  0.280400  0.596000  1.0  -0.0153
  C  C507  1  0.257900  0.289500  0.567600  1.0  0.0013
  C  C508  1  0.291200  0.324300  0.551600  1.0  -0.1138
  C  C509  1  0.304600  0.332700  0.519600  1.0  0.2195
  C  C510  1  0.335800  0.362500  0.515200  1.0  -0.0552
  C  C511  1  0.306800  0.451500  0.620600  1.0  0.4071
  C  C512  1  0.327300  0.411100  0.611700  1.0  -0.063
  C  C513  1  0.362500  0.389000  0.623300  1.0  0.0137
  C  C514  1  0.376700  0.349500  0.613900  1.0  -0.002
  C  C515  1  0.411800  0.326900  0.626600  1.0  0.5522
  C  C516  1  0.353300  0.325800  0.592100  1.0  -0.0539
  C  C517  1  0.318000  0.345600  0.577900  1.0  0.0821
  C  C518  1  0.303500  0.386400  0.589700  1.0  -0.1107
  C  C519  1  0.185800  0.570200  0.621200  1.0  0.5708
  C  C520  1  0.141700  0.589400  0.612800  1.0  -0.0195
  C  C521  1  0.119600  0.566100  0.592100  1.0  -0.0868
  C  C522  1  0.089700  0.543100  0.749500  1.0  0.2469
  C  C523  1  0.112500  0.582300  0.752000  1.0  -0.1419
  C  C524  1  0.233500  0.504300  0.723000  1.0  -0.0464
  C  C525  1  0.187200  0.502600  0.726000  1.0  0.0294
  C  C526  1  0.258000  0.512400  0.689800  1.0  0.346
  C  C527  1  0.250000  0.219600  0.096000  1.0  -0.0156
  C  C528  1  0.242100  0.210500  0.067600  1.0  0.0006
  C  C529  1  0.208800  0.175700  0.051600  1.0  -0.1134
  C  C530  1  0.195400  0.167300  0.019600  1.0  0.221
  C  C531  1  0.164200  0.137500  0.015200  1.0  -0.0539
  C  C532  1  0.193200  0.048500  0.120600  1.0  0.4078
  C  C533  1  0.172700  0.088900  0.111700  1.0  -0.0626
  C  C534  1  0.137500  0.111000  0.123300  1.0  0.0145
  C  C535  1  0.123300  0.150500  0.113900  1.0  -0.0036
  C  C536  1  0.088200  0.173100  0.126600  1.0  0.5532
  C  C537  1  0.146700  0.174200  0.092100  1.0  -0.0532
  C  C538  1  0.182000  0.154400  0.077900  1.0  0.082
  C  C539  1  0.196500  0.113600  0.089700  1.0  -0.1087
  C  C540  1  0.314200  0.929800  0.121200  1.0  0.5708
  C  C541  1  0.358300  0.910600  0.112800  1.0  -0.0214
  C  C542  1  0.380400  0.933900  0.092100  1.0  -0.0881
  C  C543  1  0.410300  0.956900  0.249500  1.0  0.2442
  C  C544  1  0.387500  0.917700  0.252000  1.0  -0.1426
  C  C545  1  0.266500  0.995700  0.223000  1.0  -0.0479
  C  C546  1  0.312800  0.997400  0.226000  1.0  0.029
  C  C547  1  0.242000  0.987600  0.189800  1.0  0.3451
  C  C548  1  0.750000  0.719600  0.596000  1.0  -0.0156
  C  C549  1  0.742100  0.710500  0.567600  1.0  0.0006
  C  C550  1  0.708800  0.675700  0.551600  1.0  -0.1134
  C  C551  1  0.695400  0.667300  0.519600  1.0  0.221
  C  C552  1  0.664200  0.637500  0.515200  1.0  -0.0539
  C  C553  1  0.693200  0.548500  0.620600  1.0  0.4078
  C  C554  1  0.672700  0.588900  0.611700  1.0  -0.0626
  C  C555  1  0.637500  0.611000  0.623300  1.0  0.0145
  C  C556  1  0.623300  0.650500  0.613900  1.0  -0.0036
  C  C557  1  0.588200  0.673100  0.626600  1.0  0.5532
  C  C558  1  0.646700  0.674200  0.592100  1.0  -0.0532
  C  C559  1  0.682000  0.654400  0.577900  1.0  0.082
  C  C560  1  0.696500  0.613600  0.589700  1.0  -0.1087
  C  C561  1  0.814200  0.429800  0.621200  1.0  0.5708
  C  C562  1  0.858300  0.410600  0.612800  1.0  -0.0214
  C  C563  1  0.880400  0.433900  0.592100  1.0  -0.0881
  C  C564  1  0.910300  0.456900  0.749500  1.0  0.2442
  C  C565  1  0.887500  0.417700  0.752000  1.0  -0.1426
  C  C566  1  0.766500  0.495700  0.723000  1.0  -0.0479
  C  C567  1  0.812800  0.497400  0.726000  1.0  0.029
  C  C568  1  0.742000  0.487600  0.689800  1.0  0.3451
  C  C569  1  0.219600  0.250000  0.404000  1.0  -0.0143
  C  C570  1  0.210500  0.242100  0.432400  1.0  0.0017
  C  C571  1  0.175700  0.208800  0.448400  1.0  -0.1137
  C  C572  1  0.167300  0.195400  0.480400  1.0  0.2231
  C  C573  1  0.137500  0.164200  0.484800  1.0  -0.0529
  C  C574  1  0.048500  0.193200  0.379400  1.0  0.4066
  C  C575  1  0.088900  0.172700  0.388300  1.0  -0.0651
  C  C576  1  0.111000  0.137500  0.376700  1.0  0.0144
  C  C577  1  0.150500  0.123300  0.386100  1.0  0.001
  C  C578  1  0.173100  0.088200  0.373400  1.0  0.5527
  C  C579  1  0.174200  0.146700  0.407900  1.0  -0.0527
  C  C580  1  0.154400  0.182000  0.422100  1.0  0.0824
  C  C581  1  0.113600  0.196500  0.410300  1.0  -0.1095
  C  C582  1  0.929800  0.314200  0.378800  1.0  0.5715
  C  C583  1  0.910600  0.358300  0.387200  1.0  -0.0146
  C  C584  1  0.933900  0.380400  0.407900  1.0  -0.0862
  C  C585  1  0.956900  0.410300  0.250500  1.0  0.248
  C  C586  1  0.917700  0.387500  0.248000  1.0  -0.1466
  C  C587  1  0.995700  0.266500  0.277000  1.0  -0.0484
  C  C588  1  0.997400  0.312800  0.274000  1.0  0.0302
  C  C589  1  0.987600  0.242000  0.310200  1.0  0.3458
  C  C590  1  0.719600  0.750000  0.904000  1.0  -0.0143
  C  C591  1  0.710500  0.742100  0.932400  1.0  0.0017
  C  C592  1  0.675700  0.708800  0.948400  1.0  -0.1137
  C  C593  1  0.667300  0.695400  0.980400  1.0  0.2231
  C  C594  1  0.637500  0.664200  0.984800  1.0  -0.0529
  C  C595  1  0.548500  0.693200  0.879400  1.0  0.4066
  C  C596  1  0.588900  0.672700  0.888300  1.0  -0.0651
  C  C597  1  0.611000  0.637500  0.876700  1.0  0.0144
  C  C598  1  0.650500  0.623300  0.886100  1.0  0.001
  C  C599  1  0.673100  0.588200  0.873400  1.0  0.5527
  C  C600  1  0.674200  0.646700  0.907900  1.0  -0.0527
  C  C601  1  0.654400  0.682000  0.922100  1.0  0.0824
  C  C602  1  0.613600  0.696500  0.910300  1.0  -0.1095
  C  C603  1  0.429800  0.814200  0.878800  1.0  0.5715
  C  C604  1  0.410600  0.858300  0.887200  1.0  -0.0146
  C  C605  1  0.433900  0.880400  0.907900  1.0  -0.0862
  C  C606  1  0.456900  0.910300  0.750500  1.0  0.248
  C  C607  1  0.417700  0.887500  0.748000  1.0  -0.1466
  C  C608  1  0.495700  0.766500  0.777000  1.0  -0.0484
  C  C609  1  0.497400  0.812800  0.774000  1.0  0.0302
  C  C610  1  0.487600  0.742000  0.810200  1.0  0.3458
  C  C611  1  0.780400  0.750000  0.404000  1.0  -0.0135
  C  C612  1  0.789500  0.757900  0.432400  1.0  0.0015
  C  C613  1  0.824300  0.791200  0.448400  1.0  -0.1146
  C  C614  1  0.832700  0.804600  0.480400  1.0  0.2195
  C  C615  1  0.862500  0.835800  0.484800  1.0  -0.0538
  C  C616  1  0.951500  0.806800  0.379400  1.0  0.4055
  C  C617  1  0.911100  0.827300  0.388300  1.0  -0.0635
  C  C618  1  0.889000  0.862500  0.376700  1.0  0.0137
  C  C619  1  0.849500  0.876700  0.386100  1.0  -0.0013
  C  C620  1  0.826900  0.911800  0.373400  1.0  0.5532
  C  C621  1  0.825800  0.853300  0.407900  1.0  -0.0545
  C  C622  1  0.845600  0.818000  0.422100  1.0  0.0819
  C  C623  1  0.886400  0.803500  0.410300  1.0  -0.1072
  C  C624  1  0.070200  0.685800  0.378800  1.0  0.5715
  C  C625  1  0.089400  0.641700  0.387200  1.0  -0.0166
  C  C626  1  0.066100  0.619600  0.407900  1.0  -0.0874
  C  C627  1  0.043100  0.589700  0.250500  1.0  0.2464
  C  C628  1  0.082300  0.612500  0.248000  1.0  -0.1422
  C  C629  1  0.004300  0.733500  0.277000  1.0  -0.0483
  C  C630  1  0.002600  0.687200  0.274000  1.0  0.0295
  C  C631  1  0.012400  0.758000  0.310200  1.0  0.3464
  C  C632  1  0.280400  0.250000  0.904000  1.0  -0.0135
  C  C633  1  0.289500  0.257900  0.932400  1.0  0.0015
  C  C634  1  0.324300  0.291200  0.948400  1.0  -0.1146
  C  C635  1  0.332700  0.304600  0.980400  1.0  0.2195
  C  C636  1  0.362500  0.335800  0.984800  1.0  -0.0538
  C  C637  1  0.451500  0.306800  0.879400  1.0  0.4055
  C  C638  1  0.411100  0.327300  0.888300  1.0  -0.0635
  C  C639  1  0.389000  0.362500  0.876700  1.0  0.0137
  C  C640  1  0.349500  0.376700  0.886100  1.0  -0.0013
  C  C641  1  0.326900  0.411800  0.873400  1.0  0.5532
  C  C642  1  0.325800  0.353300  0.907900  1.0  -0.0545
  C  C643  1  0.345600  0.318000  0.922100  1.0  0.0819
  C  C644  1  0.386400  0.303500  0.910300  1.0  -0.1072
  C  C645  1  0.570200  0.185800  0.878800  1.0  0.5715
  C  C646  1  0.589400  0.141700  0.887200  1.0  -0.0166
  C  C647  1  0.566100  0.119600  0.907900  1.0  -0.0874
  C  C648  1  0.543100  0.089700  0.750500  1.0  0.2464
  C  C649  1  0.582300  0.112500  0.748000  1.0  -0.1422
  C  C650  1  0.504300  0.233500  0.777000  1.0  -0.0483
  C  C651  1  0.502600  0.187200  0.774000  1.0  0.0295
  C  C652  1  0.512400  0.258000  0.810200  1.0  0.3464
  C  C653  1  0.250000  0.780400  0.404000  1.0  -0.0145
  C  C654  1  0.242100  0.789500  0.432400  1.0  -0.0006
  C  C655  1  0.208800  0.824300  0.448400  1.0  -0.1139
  C  C656  1  0.195400  0.832700  0.480400  1.0  0.221
  C  C657  1  0.164200  0.862500  0.484800  1.0  -0.0538
  C  C658  1  0.193200  0.951500  0.379400  1.0  0.4081
  C  C659  1  0.172700  0.911100  0.388300  1.0  -0.0629
  C  C660  1  0.137500  0.889000  0.376700  1.0  0.0145
  C  C661  1  0.123300  0.849500  0.386100  1.0  -0.0029
  C  C662  1  0.088200  0.826900  0.373400  1.0  0.5528
  C  C663  1  0.146700  0.825800  0.407900  1.0  -0.0549
  C  C664  1  0.182000  0.845600  0.422100  1.0  0.0823
  C  C665  1  0.196500  0.886400  0.410300  1.0  -0.1091
  C  C666  1  0.314200  0.070200  0.378800  1.0  0.5703
  C  C667  1  0.358300  0.089400  0.387200  1.0  -0.0223
  C  C668  1  0.380400  0.066100  0.407900  1.0  -0.0877
  C  C669  1  0.410300  0.043100  0.250500  1.0  0.2441
  C  C670  1  0.387500  0.082300  0.248000  1.0  -0.1431
  C  C671  1  0.266500  0.004300  0.277000  1.0  -0.0487
  C  C672  1  0.312800  0.002600  0.274000  1.0  0.0282
  C  C673  1  0.242000  0.012400  0.310200  1.0  0.3457
  C  C674  1  0.750000  0.280400  0.904000  1.0  -0.0145
  C  C675  1  0.742100  0.289500  0.932400  1.0  -0.0006
  C  C676  1  0.708800  0.324300  0.948400  1.0  -0.1139
  C  C677  1  0.695400  0.332700  0.980400  1.0  0.221
  C  C678  1  0.664200  0.362500  0.984800  1.0  -0.0538
  C  C679  1  0.693200  0.451500  0.879400  1.0  0.4081
  C  C680  1  0.672700  0.411100  0.888300  1.0  -0.0629
  C  C681  1  0.637500  0.389000  0.876700  1.0  0.0145
  C  C682  1  0.623300  0.349500  0.886100  1.0  -0.0029
  C  C683  1  0.588200  0.326900  0.873400  1.0  0.5528
  C  C684  1  0.646700  0.325800  0.907900  1.0  -0.0549
  C  C685  1  0.682000  0.345600  0.922100  1.0  0.0823
  C  C686  1  0.696500  0.386400  0.910300  1.0  -0.1091
  C  C687  1  0.814200  0.570200  0.878800  1.0  0.5703
  C  C688  1  0.858300  0.589400  0.887200  1.0  -0.0223
  C  C689  1  0.880400  0.566100  0.907900  1.0  -0.0877
  C  C690  1  0.910300  0.543100  0.750500  1.0  0.2441
  C  C691  1  0.887500  0.582300  0.748000  1.0  -0.1431
  C  C692  1  0.766500  0.504300  0.777000  1.0  -0.0487
  C  C693  1  0.812800  0.502600  0.774000  1.0  0.0282
  C  C694  1  0.742000  0.512400  0.810200  1.0  0.3457
  C  C695  1  0.750000  0.219600  0.404000  1.0  -0.0152
  C  C696  1  0.757900  0.210500  0.432400  1.0  0.0002
  C  C697  1  0.791200  0.175700  0.448400  1.0  -0.1137
  C  C698  1  0.804600  0.167300  0.480400  1.0  0.2197
  C  C699  1  0.835800  0.137500  0.484800  1.0  -0.054
  C  C700  1  0.806800  0.048500  0.379400  1.0  0.4065
  C  C701  1  0.827300  0.088900  0.388300  1.0  -0.0629
  C  C702  1  0.862500  0.111000  0.376700  1.0  0.0128
  C  C703  1  0.876700  0.150500  0.386100  1.0  -0.0017
  C  C704  1  0.911800  0.173100  0.373400  1.0  0.552
  C  C705  1  0.853300  0.174200  0.407900  1.0  -0.0533
  C  C706  1  0.818000  0.154400  0.422100  1.0  0.0821
  C  C707  1  0.803500  0.113600  0.410300  1.0  -0.1096
  C  C708  1  0.685800  0.929800  0.378800  1.0  0.5703
  C  C709  1  0.641700  0.910600  0.387200  1.0  -0.0178
  C  C710  1  0.619600  0.933900  0.407900  1.0  -0.0878
  C  C711  1  0.589700  0.956900  0.250500  1.0  0.2461
  C  C712  1  0.612500  0.917700  0.248000  1.0  -0.1422
  C  C713  1  0.733500  0.995700  0.277000  1.0  -0.0484
  C  C714  1  0.687200  0.997400  0.274000  1.0  0.0286
  C  C715  1  0.758000  0.987600  0.310200  1.0  0.3459
  C  C716  1  0.250000  0.719600  0.904000  1.0  -0.0152
  C  C717  1  0.257900  0.710500  0.932400  1.0  0.0002
  C  C718  1  0.291200  0.675700  0.948400  1.0  -0.1137
  C  C719  1  0.304600  0.667300  0.980400  1.0  0.2197
  C  C720  1  0.335800  0.637500  0.984800  1.0  -0.054
  C  C721  1  0.306800  0.548500  0.879400  1.0  0.4065
  C  C722  1  0.327300  0.588900  0.888300  1.0  -0.0629
  C  C723  1  0.362500  0.611000  0.876700  1.0  0.0128
  C  C724  1  0.376700  0.650500  0.886100  1.0  -0.0017
  C  C725  1  0.411800  0.673100  0.873400  1.0  0.552
  C  C726  1  0.353300  0.674200  0.907900  1.0  -0.0533
  C  C727  1  0.318000  0.654400  0.922100  1.0  0.0821
  C  C728  1  0.303500  0.613600  0.910300  1.0  -0.1096
  C  C729  1  0.185800  0.429800  0.878800  1.0  0.5703
  C  C730  1  0.141700  0.410600  0.887200  1.0  -0.0178
  C  C731  1  0.119600  0.433900  0.907900  1.0  -0.0878
  C  C732  1  0.089700  0.456900  0.750500  1.0  0.2461
  C  C733  1  0.112500  0.417700  0.748000  1.0  -0.1422
  C  C734  1  0.233500  0.495700  0.777000  1.0  -0.0484
  C  C735  1  0.187200  0.497400  0.774000  1.0  0.0286
  C  C736  1  0.258000  0.487600  0.810200  1.0  0.3459
  C  C737  1  0.219600  0.750000  0.904000  1.0  -0.0141
  C  C738  1  0.210500  0.757900  0.932400  1.0  0.0012
  C  C739  1  0.175700  0.791200  0.948400  1.0  -0.1138
  C  C740  1  0.167300  0.804600  0.980400  1.0  0.2214
  C  C741  1  0.137500  0.835800  0.984800  1.0  -0.0537
  C  C742  1  0.048500  0.806800  0.879400  1.0  0.406
  C  C743  1  0.088900  0.827300  0.888300  1.0  -0.0652
  C  C744  1  0.111000  0.862500  0.876700  1.0  0.0146
  C  C745  1  0.150500  0.876700  0.886100  1.0  -0.0002
  C  C746  1  0.173100  0.911800  0.873400  1.0  0.5533
  C  C747  1  0.174200  0.853300  0.907900  1.0  -0.0529
  C  C748  1  0.154400  0.818000  0.922100  1.0  0.0825
  C  C749  1  0.113600  0.803500  0.910300  1.0  -0.1086
  C  C750  1  0.929800  0.685800  0.878800  1.0  0.5713
  C  C751  1  0.910600  0.641700  0.887200  1.0  -0.0164
  C  C752  1  0.933900  0.619600  0.907900  1.0  -0.0882
  C  C753  1  0.956900  0.589700  0.750500  1.0  0.2467
  C  C754  1  0.917700  0.612500  0.748000  1.0  -0.1424
  C  C755  1  0.995700  0.733500  0.777000  1.0  -0.0483
  C  C756  1  0.997400  0.687200  0.774000  1.0  0.0297
  C  C757  1  0.987600  0.758000  0.810200  1.0  0.3462
  C  C758  1  0.719600  0.250000  0.404000  1.0  -0.0141
  C  C759  1  0.710500  0.257900  0.432400  1.0  0.0012
  C  C760  1  0.675700  0.291200  0.448400  1.0  -0.1138
  C  C761  1  0.667300  0.304600  0.480400  1.0  0.2214
  C  C762  1  0.637500  0.335800  0.484800  1.0  -0.0537
  C  C763  1  0.548500  0.306800  0.379400  1.0  0.406
  C  C764  1  0.588900  0.327300  0.388300  1.0  -0.0652
  C  C765  1  0.611000  0.362500  0.376700  1.0  0.0146
  C  C766  1  0.650500  0.376700  0.386100  1.0  -0.0002
  C  C767  1  0.673100  0.411800  0.373400  1.0  0.5533
  C  C768  1  0.674200  0.353300  0.407900  1.0  -0.0529
  C  C769  1  0.654400  0.318000  0.422100  1.0  0.0825
  C  C770  1  0.613600  0.303500  0.410300  1.0  -0.1086
  C  C771  1  0.429800  0.185800  0.378800  1.0  0.5713
  C  C772  1  0.410600  0.141700  0.387200  1.0  -0.0164
  C  C773  1  0.433900  0.119600  0.407900  1.0  -0.0882
  C  C774  1  0.456900  0.089700  0.250500  1.0  0.2467
  C  C775  1  0.417700  0.112500  0.248000  1.0  -0.1424
  C  C776  1  0.495700  0.233500  0.277000  1.0  -0.0483
  C  C777  1  0.497400  0.187200  0.274000  1.0  0.0297
  C  C778  1  0.487600  0.258000  0.310200  1.0  0.3462
  C  C779  1  0.780400  0.250000  0.904000  1.0  -0.014
  C  C780  1  0.789500  0.242100  0.932400  1.0  0.0022
  C  C781  1  0.824300  0.208800  0.948400  1.0  -0.1143
  C  C782  1  0.832700  0.195400  0.980400  1.0  0.221
  C  C783  1  0.862500  0.164200  0.984800  1.0  -0.0534
  C  C784  1  0.951500  0.193200  0.879400  1.0  0.4062
  C  C785  1  0.911100  0.172700  0.888300  1.0  -0.0635
  C  C786  1  0.889000  0.137500  0.876700  1.0  0.0134
  C  C787  1  0.849500  0.123300  0.886100  1.0  -1e-04
  C  C788  1  0.826900  0.088200  0.873400  1.0  0.5526
  C  C789  1  0.825800  0.146700  0.907900  1.0  -0.0545
  C  C790  1  0.845600  0.182000  0.922100  1.0  0.0817
  C  C791  1  0.886400  0.196500  0.910300  1.0  -0.1092
  C  C792  1  0.070200  0.314200  0.878800  1.0  0.5718
  C  C793  1  0.089400  0.358300  0.887200  1.0  -0.0147
  C  C794  1  0.066100  0.380400  0.907900  1.0  -0.0882
  C  C795  1  0.043100  0.410300  0.750500  1.0  0.2445
  C  C796  1  0.082300  0.387500  0.748000  1.0  -0.1441
  C  C797  1  0.004300  0.266500  0.777000  1.0  -0.0484
  C  C798  1  0.002600  0.312800  0.774000  1.0  0.0295
  C  C799  1  0.012400  0.242000  0.810200  1.0  0.3463
  C  C800  1  0.280400  0.750000  0.404000  1.0  -0.014
  C  C801  1  0.289500  0.742100  0.432400  1.0  0.0022
  C  C802  1  0.324300  0.708800  0.448400  1.0  -0.1143
  C  C803  1  0.332700  0.695400  0.480400  1.0  0.221
  C  C804  1  0.362500  0.664200  0.484800  1.0  -0.0534
  C  C805  1  0.451500  0.693200  0.379400  1.0  0.4062
  C  C806  1  0.411100  0.672700  0.388300  1.0  -0.0635
  C  C807  1  0.389000  0.637500  0.376700  1.0  0.0134
  C  C808  1  0.349500  0.623300  0.386100  1.0  -1e-04
  C  C809  1  0.326900  0.588200  0.373400  1.0  0.5526
  C  C810  1  0.325800  0.646700  0.407900  1.0  -0.0545
  C  C811  1  0.345600  0.682000  0.422100  1.0  0.0817
  C  C812  1  0.386400  0.696500  0.410300  1.0  -0.1092
  C  C813  1  0.570200  0.814200  0.378800  1.0  0.5718
  C  C814  1  0.589400  0.858300  0.387200  1.0  -0.0147
  C  C815  1  0.566100  0.880400  0.407900  1.0  -0.0882
  C  C816  1  0.543100  0.910300  0.250500  1.0  0.2445
  C  C817  1  0.582300  0.887500  0.248000  1.0  -0.1441
  C  C818  1  0.504300  0.766500  0.277000  1.0  -0.0484
  C  C819  1  0.502600  0.812800  0.274000  1.0  0.0295
  C  C820  1  0.512400  0.742000  0.310200  1.0  0.3463
  C  C821  1  0.250000  0.219600  0.904000  1.0  -0.0146
  C  C822  1  0.242100  0.210500  0.932400  1.0  -0.0002
  C  C823  1  0.208800  0.175700  0.948400  1.0  -0.1135
  C  C824  1  0.195400  0.167300  0.980400  1.0  0.2216
  C  C825  1  0.164200  0.137500  0.984800  1.0  -0.053
  C  C826  1  0.193200  0.048500  0.879400  1.0  0.4076
  C  C827  1  0.172700  0.088900  0.888300  1.0  -0.0627
  C  C828  1  0.137500  0.111000  0.876700  1.0  0.0142
  C  C829  1  0.123300  0.150500  0.886100  1.0  -0.003
  C  C830  1  0.088200  0.173100  0.873400  1.0  0.5533
  C  C831  1  0.146700  0.174200  0.907900  1.0  -0.053
  C  C832  1  0.182000  0.154400  0.922100  1.0  0.0822
  C  C833  1  0.196500  0.113600  0.910300  1.0  -0.1083
  C  C834  1  0.314200  0.929800  0.878800  1.0  0.5703
  C  C835  1  0.358300  0.910600  0.887200  1.0  -0.0204
  C  C836  1  0.380400  0.933900  0.907900  1.0  -0.0896
  C  C837  1  0.410300  0.956900  0.750500  1.0  0.2424
  C  C838  1  0.387500  0.917700  0.748000  1.0  -0.1419
  C  C839  1  0.266500  0.995700  0.777000  1.0  -0.0488
  C  C840  1  0.312800  0.997400  0.774000  1.0  0.028
  C  C841  1  0.242000  0.987600  0.810200  1.0  0.3454
  C  C842  1  0.750000  0.719600  0.404000  1.0  -0.0146
  C  C843  1  0.742100  0.710500  0.432400  1.0  -0.0002
  C  C844  1  0.708800  0.675700  0.448400  1.0  -0.1135
  C  C845  1  0.695400  0.667300  0.480400  1.0  0.2216
  C  C846  1  0.664200  0.637500  0.484800  1.0  -0.053
  C  C847  1  0.693200  0.548500  0.379400  1.0  0.4076
  C  C848  1  0.672700  0.588900  0.388300  1.0  -0.0627
  C  C849  1  0.637500  0.611000  0.376700  1.0  0.0142
  C  C850  1  0.623300  0.650500  0.386100  1.0  -0.003
  C  C851  1  0.588200  0.673100  0.373400  1.0  0.5533
  C  C852  1  0.646700  0.674200  0.407900  1.0  -0.053
  C  C853  1  0.682000  0.654400  0.422100  1.0  0.0822
  C  C854  1  0.696500  0.613600  0.410300  1.0  -0.1083
  C  C855  1  0.814200  0.429800  0.378800  1.0  0.5703
  C  C856  1  0.858300  0.410600  0.387200  1.0  -0.0204
  C  C857  1  0.880400  0.433900  0.407900  1.0  -0.0896
  C  C858  1  0.910300  0.456900  0.250500  1.0  0.2424
  C  C859  1  0.887500  0.417700  0.248000  1.0  -0.1419
  C  C860  1  0.766500  0.495700  0.277000  1.0  -0.0488
  C  C861  1  0.812800  0.497400  0.274000  1.0  0.028
  C  C862  1  0.742000  0.487600  0.310200  1.0  0.3454
  C  C863  1  0.750000  0.780400  0.904000  1.0  -0.0149
  C  C864  1  0.757900  0.789500  0.932400  1.0  0.0003
  C  C865  1  0.791200  0.824300  0.948400  1.0  -0.114
  C  C866  1  0.804600  0.832700  0.980400  1.0  0.2193
  C  C867  1  0.835800  0.862500  0.984800  1.0  -0.0542
  C  C868  1  0.806800  0.951500  0.879400  1.0  0.4067
  C  C869  1  0.827300  0.911100  0.888300  1.0  -0.0629
  C  C870  1  0.862500  0.889000  0.876700  1.0  0.0133
  C  C871  1  0.876700  0.849500  0.886100  1.0  -0.0014
  C  C872  1  0.911800  0.826900  0.873400  1.0  0.5513
  C  C873  1  0.853300  0.825800  0.907900  1.0  -0.054
  C  C874  1  0.818000  0.845600  0.922100  1.0  0.0822
  C  C875  1  0.803500  0.886400  0.910300  1.0  -0.1104
  C  C876  1  0.685800  0.070200  0.878800  1.0  0.5702
  C  C877  1  0.641700  0.089400  0.887200  1.0  -0.0181
  C  C878  1  0.619600  0.066100  0.907900  1.0  -0.0879
  C  C879  1  0.589700  0.043100  0.750500  1.0  0.2451
  C  C880  1  0.612500  0.082300  0.748000  1.0  -0.1409
  C  C881  1  0.733500  0.004300  0.777000  1.0  -0.0483
  C  C882  1  0.687200  0.002600  0.774000  1.0  0.0284
  C  C883  1  0.758000  0.012400  0.810200  1.0  0.3462
  C  C884  1  0.250000  0.280400  0.404000  1.0  -0.0149
  C  C885  1  0.257900  0.289500  0.432400  1.0  0.0003
  C  C886  1  0.291200  0.324300  0.448400  1.0  -0.114
  C  C887  1  0.304600  0.332700  0.480400  1.0  0.2193
  C  C888  1  0.335800  0.362500  0.484800  1.0  -0.0542
  C  C889  1  0.306800  0.451500  0.379400  1.0  0.4067
  C  C890  1  0.327300  0.411100  0.388300  1.0  -0.0629
  C  C891  1  0.362500  0.389000  0.376700  1.0  0.0133
  C  C892  1  0.376700  0.349500  0.386100  1.0  -0.0014
  C  C893  1  0.411800  0.326900  0.373400  1.0  0.5513
  C  C894  1  0.353300  0.325800  0.407900  1.0  -0.054
  C  C895  1  0.318000  0.345600  0.422100  1.0  0.0822
  C  C896  1  0.303500  0.386400  0.410300  1.0  -0.1104
  C  C897  1  0.185800  0.570200  0.378800  1.0  0.5702
  C  C898  1  0.141700  0.589400  0.387200  1.0  -0.0181
  C  C899  1  0.119600  0.566100  0.407900  1.0  -0.0879
  C  C900  1  0.089700  0.543100  0.250500  1.0  0.2451
  C  C901  1  0.112500  0.582300  0.248000  1.0  -0.1409
  C  C902  1  0.233500  0.504300  0.277000  1.0  -0.0483
  C  C903  1  0.187200  0.502600  0.274000  1.0  0.0284
  C  C904  1  0.258000  0.512400  0.310200  1.0  0.3462
  C  C905  1  0.780400  0.750000  0.596000  1.0  -0.0138
  C  C906  1  0.789500  0.757900  0.567600  1.0  0.0028
  C  C907  1  0.824300  0.791200  0.551600  1.0  -0.1145
  C  C908  1  0.832700  0.804600  0.519600  1.0  0.2197
  C  C909  1  0.862500  0.835800  0.515200  1.0  -0.055
  C  C910  1  0.951500  0.806800  0.620600  1.0  0.4058
  C  C911  1  0.911100  0.827300  0.611700  1.0  -0.0636
  C  C912  1  0.889000  0.862500  0.623300  1.0  0.014
  C  C913  1  0.849500  0.876700  0.613900  1.0  -0.0016
  C  C914  1  0.826900  0.911800  0.626600  1.0  0.5532
  C  C915  1  0.825800  0.853300  0.592100  1.0  -0.0543
  C  C916  1  0.845600  0.818000  0.577900  1.0  0.0816
  C  C917  1  0.886400  0.803500  0.589700  1.0  -0.1074
  C  C918  1  0.070200  0.685800  0.621200  1.0  0.572
  C  C919  1  0.089400  0.641700  0.612800  1.0  -0.0168
  C  C920  1  0.066100  0.619600  0.592100  1.0  -0.0879
  C  C921  1  0.043100  0.589700  0.749500  1.0  0.2449
  C  C922  1  0.082300  0.612500  0.752000  1.0  -0.1409
  C  C923  1  0.004300  0.733500  0.723000  1.0  -0.0467
  C  C924  1  0.002600  0.687200  0.726000  1.0  0.0309
  C  C925  1  0.012400  0.758000  0.689800  1.0  0.3462
  C  C926  1  0.280400  0.250000  0.096000  1.0  -0.0138
  C  C927  1  0.289500  0.257900  0.067600  1.0  0.0028
  C  C928  1  0.324300  0.291200  0.051600  1.0  -0.1145
  C  C929  1  0.332700  0.304600  0.019600  1.0  0.2197
  C  C930  1  0.362500  0.335800  0.015200  1.0  -0.055
  C  C931  1  0.451500  0.306800  0.120600  1.0  0.4058
  C  C932  1  0.411100  0.327300  0.111700  1.0  -0.0636
  C  C933  1  0.389000  0.362500  0.123300  1.0  0.014
  C  C934  1  0.349500  0.376700  0.113900  1.0  -0.0016
  C  C935  1  0.326900  0.411800  0.126600  1.0  0.5532
  C  C936  1  0.325800  0.353300  0.092100  1.0  -0.0543
  C  C937  1  0.345600  0.318000  0.077900  1.0  0.0816
  C  C938  1  0.386400  0.303500  0.089700  1.0  -0.1074
  C  C939  1  0.570200  0.185800  0.121200  1.0  0.572
  C  C940  1  0.589400  0.141700  0.112800  1.0  -0.0168
  C  C941  1  0.566100  0.119600  0.092100  1.0  -0.0879
  C  C942  1  0.543100  0.089700  0.249500  1.0  0.2449
  C  C943  1  0.582300  0.112500  0.252000  1.0  -0.1409
  C  C944  1  0.504300  0.233500  0.223000  1.0  -0.0467
  C  C945  1  0.502600  0.187200  0.226000  1.0  0.0309
  C  C946  1  0.512400  0.258000  0.189800  1.0  0.3462
  C  C947  1  0.219600  0.250000  0.596000  1.0  -0.0148
  C  C948  1  0.210500  0.242100  0.567600  1.0  0.0028
  C  C949  1  0.175700  0.208800  0.551600  1.0  -0.1135
  C  C950  1  0.167300  0.195400  0.519600  1.0  0.2225
  C  C951  1  0.137500  0.164200  0.515200  1.0  -0.0542
  C  C952  1  0.048500  0.193200  0.620600  1.0  0.4068
  C  C953  1  0.088900  0.172700  0.611700  1.0  -0.0654
  C  C954  1  0.111000  0.137500  0.623300  1.0  0.0146
  C  C955  1  0.150500  0.123300  0.613900  1.0  0.0007
  C  C956  1  0.173100  0.088200  0.626600  1.0  0.5534
  C  C957  1  0.174200  0.146700  0.592100  1.0  -0.053
  C  C958  1  0.154400  0.182000  0.577900  1.0  0.0826
  C  C959  1  0.113600  0.196500  0.589700  1.0  -0.1099
  C  C960  1  0.929800  0.314200  0.621200  1.0  0.5721
  C  C961  1  0.910600  0.358300  0.612800  1.0  -0.0149
  C  C962  1  0.933900  0.380400  0.592100  1.0  -0.0873
  C  C963  1  0.956900  0.410300  0.749500  1.0  0.2467
  C  C964  1  0.917700  0.387500  0.752000  1.0  -0.1452
  C  C965  1  0.995700  0.266500  0.723000  1.0  -0.0476
  C  C966  1  0.997400  0.312800  0.726000  1.0  0.0307
  C  C967  1  0.987600  0.242000  0.689800  1.0  0.3457
  C  C968  1  0.719600  0.750000  0.096000  1.0  -0.0148
  C  C969  1  0.710500  0.742100  0.067600  1.0  0.0028
  C  C970  1  0.675700  0.708800  0.051600  1.0  -0.1135
  C  C971  1  0.667300  0.695400  0.019600  1.0  0.2225
  C  C972  1  0.637500  0.664200  0.015200  1.0  -0.0542
  C  C973  1  0.548500  0.693200  0.120600  1.0  0.4068
  C  C974  1  0.588900  0.672700  0.111700  1.0  -0.0654
  C  C975  1  0.611000  0.637500  0.123300  1.0  0.0146
  C  C976  1  0.650500  0.623300  0.113900  1.0  0.0007
  C  C977  1  0.673100  0.588200  0.126600  1.0  0.5534
  C  C978  1  0.674200  0.646700  0.092100  1.0  -0.053
  C  C979  1  0.654400  0.682000  0.077900  1.0  0.0826
  C  C980  1  0.613600  0.696500  0.089700  1.0  -0.1099
  C  C981  1  0.429800  0.814200  0.121200  1.0  0.5721
  C  C982  1  0.410600  0.858300  0.112800  1.0  -0.0149
  C  C983  1  0.433900  0.880400  0.092100  1.0  -0.0873
  C  C984  1  0.456900  0.910300  0.249500  1.0  0.2467
  C  C985  1  0.417700  0.887500  0.252000  1.0  -0.1452
  C  C986  1  0.495700  0.766500  0.223000  1.0  -0.0476
  C  C987  1  0.497400  0.812800  0.226000  1.0  0.0307
  C  C988  1  0.487600  0.742000  0.189800  1.0  0.3457
  C  C989  1  0.750000  0.219600  0.596000  1.0  -0.0145
  C  C990  1  0.757900  0.210500  0.567600  1.0  0.0012
  C  C991  1  0.791200  0.175700  0.551600  1.0  -0.1135
  C  C992  1  0.804600  0.167300  0.519600  1.0  0.2198
  C  C993  1  0.835800  0.137500  0.515200  1.0  -0.0548
  C  C994  1  0.806800  0.048500  0.620600  1.0  0.4068
  C  C995  1  0.827300  0.088900  0.611700  1.0  -0.0628
  C  C996  1  0.862500  0.111000  0.623300  1.0  0.0139
  C  C997  1  0.876700  0.150500  0.613900  1.0  -0.0022
  C  C998  1  0.911800  0.173100  0.626600  1.0  0.5522
  C  C999  1  0.853300  0.174200  0.592100  1.0  -0.0535
  C  C1000  1  0.818000  0.154400  0.577900  1.0  0.0822
  C  C1001  1  0.803500  0.113600  0.589700  1.0  -0.1101
  C  C1002  1  0.685800  0.929800  0.621200  1.0  0.5709
  C  C1003  1  0.641700  0.910600  0.612800  1.0  -0.0182
  C  C1004  1  0.619600  0.933900  0.592100  1.0  -0.0883
  C  C1005  1  0.589700  0.956900  0.749500  1.0  0.2447
  C  C1006  1  0.612500  0.917700  0.752000  1.0  -0.1411
  C  C1007  1  0.733500  0.995700  0.723000  1.0  -0.0464
  C  C1008  1  0.687200  0.997400  0.726000  1.0  0.0296
  C  C1009  1  0.758000  0.987600  0.689800  1.0  0.3457
  C  C1010  1  0.250000  0.719600  0.096000  1.0  -0.0145
  C  C1011  1  0.257900  0.710500  0.067600  1.0  0.0012
  C  C1012  1  0.291200  0.675700  0.051600  1.0  -0.1135
  C  C1013  1  0.304600  0.667300  0.019600  1.0  0.2198
  C  C1014  1  0.335800  0.637500  0.015200  1.0  -0.0548
  C  C1015  1  0.306800  0.548500  0.120600  1.0  0.4068
  C  C1016  1  0.327300  0.588900  0.111700  1.0  -0.0628
  C  C1017  1  0.362500  0.611000  0.123300  1.0  0.0139
  C  C1018  1  0.376700  0.650500  0.113900  1.0  -0.0022
  C  C1019  1  0.411800  0.673100  0.126600  1.0  0.5522
  C  C1020  1  0.353300  0.674200  0.092100  1.0  -0.0535
  C  C1021  1  0.318000  0.654400  0.077900  1.0  0.0822
  C  C1022  1  0.303500  0.613600  0.089700  1.0  -0.1101
  C  C1023  1  0.185800  0.429800  0.121200  1.0  0.5709
  C  C1024  1  0.141700  0.410600  0.112800  1.0  -0.0182
  C  C1025  1  0.119600  0.433900  0.092100  1.0  -0.0883
  C  C1026  1  0.089700  0.456900  0.249500  1.0  0.2447
  C  C1027  1  0.112500  0.417700  0.252000  1.0  -0.1411
  C  C1028  1  0.233500  0.495700  0.223000  1.0  -0.0464
  C  C1029  1  0.187200  0.497400  0.226000  1.0  0.0296
  C  C1030  1  0.258000  0.487600  0.189800  1.0  0.3457
  C  C1031  1  0.250000  0.780400  0.596000  1.0  -0.0164
  C  C1032  1  0.242100  0.789500  0.567600  1.0  0.0008
  C  C1033  1  0.208800  0.824300  0.551600  1.0  -0.1136
  C  C1034  1  0.195400  0.832700  0.519600  1.0  0.2207
  C  C1035  1  0.164200  0.862500  0.515200  1.0  -0.0552
  C  C1036  1  0.193200  0.951500  0.620600  1.0  0.4081
  C  C1037  1  0.172700  0.911100  0.611700  1.0  -0.063
  C  C1038  1  0.137500  0.889000  0.623300  1.0  0.0142
  C  C1039  1  0.123300  0.849500  0.613900  1.0  -0.0034
  C  C1040  1  0.088200  0.826900  0.626600  1.0  0.5531
  C  C1041  1  0.146700  0.825800  0.592100  1.0  -0.0548
  C  C1042  1  0.182000  0.845600  0.577900  1.0  0.0819
  C  C1043  1  0.196500  0.886400  0.589700  1.0  -0.1093
  C  C1044  1  0.314200  0.070200  0.621200  1.0  0.5707
  C  C1045  1  0.358300  0.089400  0.612800  1.0  -0.0217
  C  C1046  1  0.380400  0.066100  0.592100  1.0  -0.0886
  C  C1047  1  0.410300  0.043100  0.749500  1.0  0.2428
  C  C1048  1  0.387500  0.082300  0.752000  1.0  -0.1418
  C  C1049  1  0.266500  0.004300  0.723000  1.0  -0.0478
  C  C1050  1  0.312800  0.002600  0.726000  1.0  0.0292
  C  C1051  1  0.242000  0.012400  0.689800  1.0  0.3455
  C  C1052  1  0.750000  0.280400  0.096000  1.0  -0.0164
  C  C1053  1  0.742100  0.289500  0.067600  1.0  0.0008
  C  C1054  1  0.708800  0.324300  0.051600  1.0  -0.1136
  C  C1055  1  0.695400  0.332700  0.019600  1.0  0.2207
  C  C1056  1  0.664200  0.362500  0.015200  1.0  -0.0552
  C  C1057  1  0.693200  0.451500  0.120600  1.0  0.4081
  C  C1058  1  0.672700  0.411100  0.111700  1.0  -0.063
  C  C1059  1  0.637500  0.389000  0.123300  1.0  0.0142
  C  C1060  1  0.623300  0.349500  0.113900  1.0  -0.0034
  C  C1061  1  0.588200  0.326900  0.126600  1.0  0.5531
  C  C1062  1  0.646700  0.325800  0.092100  1.0  -0.0548
  C  C1063  1  0.682000  0.345600  0.077900  1.0  0.0819
  C  C1064  1  0.696500  0.386400  0.089700  1.0  -0.1093
  C  C1065  1  0.814200  0.570200  0.121200  1.0  0.5707
  C  C1066  1  0.858300  0.589400  0.112800  1.0  -0.0217
  C  C1067  1  0.880400  0.566100  0.092100  1.0  -0.0886
  C  C1068  1  0.910300  0.543100  0.249500  1.0  0.2428
  C  C1069  1  0.887500  0.582300  0.252000  1.0  -0.1418
  C  C1070  1  0.766500  0.504300  0.223000  1.0  -0.0478
  C  C1071  1  0.812800  0.502600  0.226000  1.0  0.0292
  C  C1072  1  0.742000  0.512400  0.189800  1.0  0.3455
  C  C1073  1  0.098300  0.401700  0.014300  1.0  -0.1259
  C  C1074  1  0.065300  0.434700  0.024200  1.0  0.1151
  C  C1075  1  0.054400  0.445600  0.055100  1.0  -0.091
  C  C1076  1  0.021200  0.478800  0.061600  1.0  -0.0583
  C  C1077  1  0.014800  0.485200  0.093600  1.0  -0.1059
  C  C1078  1  0.124600  0.375400  0.125100  1.0  -0.0218
  C  C1079  1  0.080500  0.419500  0.080100  1.0  0.0807
  C  C1080  1  0.901700  0.598300  0.014300  1.0  -0.1267
  C  C1081  1  0.934700  0.565300  0.024200  1.0  0.1146
  C  C1082  1  0.945600  0.554400  0.055100  1.0  -0.0908
  C  C1083  1  0.978800  0.521200  0.061600  1.0  -0.0498
  C  C1084  1  0.985200  0.514800  0.093600  1.0  -0.1036
  C  C1085  1  0.875400  0.624600  0.125100  1.0  -0.0232
  C  C1086  1  0.919500  0.580500  0.080100  1.0  0.0808
  C  C1087  1  0.401700  0.098300  0.514300  1.0  -0.1267
  C  C1088  1  0.434700  0.065300  0.524200  1.0  0.1146
  C  C1089  1  0.445600  0.054400  0.555100  1.0  -0.0908
  C  C1090  1  0.478800  0.021200  0.561600  1.0  -0.0582
  C  C1091  1  0.485200  0.014800  0.593600  1.0  -0.1039
  C  C1092  1  0.375400  0.124600  0.625100  1.0  -0.0232
  C  C1093  1  0.419500  0.080500  0.580100  1.0  0.0808
  C  C1094  1  0.598300  0.098300  0.014300  1.0  -0.1262
  C  C1095  1  0.565300  0.065300  0.024200  1.0  0.1148
  C  C1096  1  0.554400  0.054400  0.055100  1.0  -0.0909
  C  C1097  1  0.521200  0.021200  0.061600  1.0  -0.0581
  C  C1098  1  0.514800  0.014800  0.093600  1.0  -0.1037
  C  C1099  1  0.624600  0.124600  0.125100  1.0  -0.0225
  C  C1100  1  0.580500  0.080500  0.080100  1.0  0.0805
  C  C1101  1  0.401700  0.901700  0.014300  1.0  -0.1268
  C  C1102  1  0.434700  0.934700  0.024200  1.0  0.1151
  C  C1103  1  0.445600  0.945600  0.055100  1.0  -0.0909
  C  C1104  1  0.478800  0.978800  0.061600  1.0  -0.0501
  C  C1105  1  0.485200  0.985200  0.093600  1.0  -0.1056
  C  C1106  1  0.375400  0.875400  0.125100  1.0  -0.0223
  C  C1107  1  0.419500  0.919500  0.080100  1.0  0.081
  C  C1108  1  0.901700  0.401700  0.485700  1.0  -0.1271
  C  C1109  1  0.934700  0.434700  0.475800  1.0  0.1155
  C  C1110  1  0.945600  0.445600  0.444900  1.0  -0.0909
  C  C1111  1  0.978800  0.478800  0.438400  1.0  -0.0604
  C  C1112  1  0.985200  0.485200  0.406400  1.0  -0.105
  C  C1113  1  0.875400  0.375400  0.374900  1.0  -0.0217
  C  C1114  1  0.919500  0.419500  0.419900  1.0  0.0798
  C  C1115  1  0.098300  0.598300  0.485700  1.0  -0.1261
  C  C1116  1  0.065300  0.565300  0.475800  1.0  0.1151
  C  C1117  1  0.054400  0.554400  0.444900  1.0  -0.0909
  C  C1118  1  0.021200  0.521200  0.438400  1.0  -0.0511
  C  C1119  1  0.014800  0.514800  0.406400  1.0  -0.1036
  C  C1120  1  0.124600  0.624600  0.374900  1.0  -0.0219
  C  C1121  1  0.080500  0.580500  0.419900  1.0  0.0798
  C  C1122  1  0.401700  0.098300  0.485700  1.0  -0.1273
  C  C1123  1  0.434700  0.065300  0.475800  1.0  0.1155
  C  C1124  1  0.445600  0.054400  0.444900  1.0  -0.0908
  C  C1125  1  0.478800  0.021200  0.438400  1.0  -0.06
  C  C1126  1  0.485200  0.014800  0.406400  1.0  -0.1028
  C  C1127  1  0.375400  0.124600  0.374900  1.0  -0.0212
  C  C1128  1  0.419500  0.080500  0.419900  1.0  0.0803
  C  C1129  1  0.598300  0.901700  0.485700  1.0  -0.1259
  C  C1130  1  0.565300  0.934700  0.475800  1.0  0.1155
  C  C1131  1  0.554400  0.945600  0.444900  1.0  -0.0909
  C  C1132  1  0.521200  0.978800  0.438400  1.0  -0.0514
  C  C1133  1  0.514800  0.985200  0.406400  1.0  -0.1057
  C  C1134  1  0.624600  0.875400  0.374900  1.0  -0.0218
  C  C1135  1  0.580500  0.919500  0.419900  1.0  0.0793
  C  C1136  1  0.901700  0.598300  0.985700  1.0  -0.1273
  C  C1137  1  0.934700  0.565300  0.975800  1.0  0.1155
  C  C1138  1  0.945600  0.554400  0.944900  1.0  -0.0908
  C  C1139  1  0.978800  0.521200  0.938400  1.0  -0.06
  C  C1140  1  0.985200  0.514800  0.906400  1.0  -0.1028
  C  C1141  1  0.875400  0.624600  0.874900  1.0  -0.0212
  C  C1142  1  0.919500  0.580500  0.919900  1.0  0.0803
  C  C1143  1  0.098300  0.401700  0.985700  1.0  -0.1267
  C  C1144  1  0.065300  0.434700  0.975800  1.0  0.1159
  C  C1145  1  0.054400  0.445600  0.944900  1.0  -0.0909
  C  C1146  1  0.021200  0.478800  0.938400  1.0  -0.0514
  C  C1147  1  0.014800  0.485200  0.906400  1.0  -0.1057
  C  C1148  1  0.124600  0.375400  0.874900  1.0  -0.0218
  C  C1149  1  0.080500  0.419500  0.919900  1.0  0.0793
  C  C1150  1  0.401700  0.901700  0.985700  1.0  -0.1279
  C  C1151  1  0.434700  0.934700  0.975800  1.0  0.116
  C  C1152  1  0.445600  0.945600  0.944900  1.0  -0.0909
  C  C1153  1  0.478800  0.978800  0.938400  1.0  -0.0604
  C  C1154  1  0.485200  0.985200  0.906400  1.0  -0.105
  C  C1155  1  0.375400  0.875400  0.874900  1.0  -0.0217
  C  C1156  1  0.419500  0.919500  0.919900  1.0  0.0798
  C  C1157  1  0.598300  0.098300  0.985700  1.0  -0.1268
  C  C1158  1  0.565300  0.065300  0.975800  1.0  0.1155
  C  C1159  1  0.554400  0.054400  0.944900  1.0  -0.0909
  C  C1160  1  0.521200  0.021200  0.938400  1.0  -0.0511
  C  C1161  1  0.514800  0.014800  0.906400  1.0  -0.1036
  C  C1162  1  0.624600  0.124600  0.874900  1.0  -0.0219
  C  C1163  1  0.580500  0.080500  0.919900  1.0  0.0798
  C  C1164  1  0.098300  0.598300  0.514300  1.0  -0.1269
  C  C1165  1  0.065300  0.565300  0.524200  1.0  0.1152
  C  C1166  1  0.054400  0.554400  0.555100  1.0  -0.0909
  C  C1167  1  0.021200  0.521200  0.561600  1.0  -0.0581
  C  C1168  1  0.014800  0.514800  0.593600  1.0  -0.1037
  C  C1169  1  0.124600  0.624600  0.625100  1.0  -0.0225
  C  C1170  1  0.080500  0.580500  0.580100  1.0  0.0805
  C  C1171  1  0.901700  0.401700  0.514300  1.0  -0.1276
  C  C1172  1  0.934700  0.434700  0.524200  1.0  0.1156
  C  C1173  1  0.945600  0.445600  0.555100  1.0  -0.0909
  C  C1174  1  0.978800  0.478800  0.561600  1.0  -0.0501
  C  C1175  1  0.985200  0.485200  0.593600  1.0  -0.1056
  C  C1176  1  0.875400  0.375400  0.625100  1.0  -0.0223
  C  C1177  1  0.919500  0.419500  0.580100  1.0  0.081
  C  C1178  1  0.598300  0.901700  0.514300  1.0  -0.1267
  C  C1179  1  0.565300  0.934700  0.524200  1.0  0.1155
  C  C1180  1  0.554400  0.945600  0.555100  1.0  -0.091
  C  C1181  1  0.521200  0.978800  0.561600  1.0  -0.0497
  C  C1182  1  0.514800  0.985200  0.593600  1.0  -0.1057
  C  C1183  1  0.624600  0.875400  0.625100  1.0  -0.0218
  C  C1184  1  0.580500  0.919500  0.580100  1.0  0.0807
  C  C1185  1  0.000000  0.387200  0.250000  1.0  -0.1765
  C  C1186  1  0.000000  0.245200  0.250000  1.0  0.0872
  C  C1187  1  0.000000  0.335800  0.250000  1.0  0.3087
  C  C1188  1  0.500000  0.887200  0.750000  1.0  -0.1765
  C  C1189  1  0.500000  0.745200  0.750000  1.0  0.0872
  C  C1190  1  0.500000  0.835800  0.750000  1.0  0.3087
  C  C1191  1  0.000000  0.612800  0.250000  1.0  -0.1768
  C  C1192  1  0.000000  0.754800  0.250000  1.0  0.087
  C  C1193  1  0.000000  0.664200  0.250000  1.0  0.309
  C  C1194  1  0.500000  0.112800  0.750000  1.0  -0.1768
  C  C1195  1  0.500000  0.254800  0.750000  1.0  0.087
  C  C1196  1  0.500000  0.164200  0.750000  1.0  0.309
  C  C1197  1  0.612800  0.000000  0.250000  1.0  -0.1762
  C  C1198  1  0.754800  0.000000  0.250000  1.0  0.0864
  C  C1199  1  0.664200  0.000000  0.250000  1.0  0.3068
  C  C1200  1  0.112800  0.500000  0.750000  1.0  -0.1762
  C  C1201  1  0.254800  0.500000  0.750000  1.0  0.0864
  C  C1202  1  0.164200  0.500000  0.750000  1.0  0.3068
  C  C1203  1  0.387200  0.000000  0.250000  1.0  -0.1756
  C  C1204  1  0.245200  0.000000  0.250000  1.0  0.0855
  C  C1205  1  0.335800  0.000000  0.250000  1.0  0.3098
  C  C1206  1  0.887200  0.500000  0.750000  1.0  -0.1756
  C  C1207  1  0.745200  0.500000  0.750000  1.0  0.0855
  C  C1208  1  0.835800  0.500000  0.750000  1.0  0.3098
  C  C1209  1  0.000000  0.612800  0.750000  1.0  -0.1768
  C  C1210  1  0.000000  0.754800  0.750000  1.0  0.087
  C  C1211  1  0.000000  0.664200  0.750000  1.0  0.309
  C  C1212  1  0.500000  0.112800  0.250000  1.0  -0.1768
  C  C1213  1  0.500000  0.254800  0.250000  1.0  0.087
  C  C1214  1  0.500000  0.164200  0.250000  1.0  0.309
  C  C1215  1  0.000000  0.387200  0.750000  1.0  -0.1765
  C  C1216  1  0.000000  0.245200  0.750000  1.0  0.0872
  C  C1217  1  0.000000  0.335800  0.750000  1.0  0.3087
  C  C1218  1  0.500000  0.887200  0.250000  1.0  -0.1765
  C  C1219  1  0.500000  0.745200  0.250000  1.0  0.0872
  C  C1220  1  0.500000  0.835800  0.250000  1.0  0.3087
  C  C1221  1  0.387200  0.000000  0.750000  1.0  -0.1756
  C  C1222  1  0.245200  0.000000  0.750000  1.0  0.0855
  C  C1223  1  0.335800  0.000000  0.750000  1.0  0.3098
  C  C1224  1  0.887200  0.500000  0.250000  1.0  -0.1756
  C  C1225  1  0.745200  0.500000  0.250000  1.0  0.0855
  C  C1226  1  0.835800  0.500000  0.250000  1.0  0.3098
  C  C1227  1  0.612800  0.000000  0.750000  1.0  -0.1762
  C  C1228  1  0.754800  0.000000  0.750000  1.0  0.0864
  C  C1229  1  0.664200  0.000000  0.750000  1.0  0.3068
  C  C1230  1  0.112800  0.500000  0.250000  1.0  -0.1762
  C  C1231  1  0.254800  0.500000  0.250000  1.0  0.0864
  C  C1232  1  0.164200  0.500000  0.250000  1.0  0.3068
  N  N1233  1  0.812000  0.217300  0.000000  1.0  -0.3048
  N  N1234  1  0.312000  0.717300  0.500000  1.0  -0.3048
  N  N1235  1  0.188000  0.782700  0.000000  1.0  -0.3026
  N  N1236  1  0.688000  0.282700  0.500000  1.0  -0.3026
  N  N1237  1  0.782700  0.812000  0.000000  1.0  -0.3041
  N  N1238  1  0.282700  0.312000  0.500000  1.0  -0.3041
  N  N1239  1  0.217300  0.188000  0.000000  1.0  -0.3027
  N  N1240  1  0.717300  0.688000  0.500000  1.0  -0.3027
  N  N1241  1  0.188000  0.217300  0.500000  1.0  -0.3036
  N  N1242  1  0.688000  0.717300  0.000000  1.0  -0.3036
  N  N1243  1  0.812000  0.782700  0.500000  1.0  -0.3042
  N  N1244  1  0.312000  0.282700  0.000000  1.0  -0.3042
  N  N1245  1  0.217300  0.812000  0.500000  1.0  -0.3026
  N  N1246  1  0.717300  0.312000  0.000000  1.0  -0.3026
  N  N1247  1  0.782700  0.188000  0.500000  1.0  -0.3037
  N  N1248  1  0.282700  0.688000  0.000000  1.0  -0.3037
  N  N1249  1  0.765600  0.265600  0.043900  1.0  -0.3238
  N  N1250  1  0.234400  0.734400  0.043900  1.0  -0.3234
  N  N1251  1  0.734400  0.765600  0.043900  1.0  -0.3237
  N  N1252  1  0.234400  0.265600  0.543900  1.0  -0.3237
  N  N1253  1  0.265600  0.234400  0.043900  1.0  -0.3234
  N  N1254  1  0.234400  0.265600  0.456100  1.0  -0.3228
  N  N1255  1  0.765600  0.734400  0.456100  1.0  -0.3225
  N  N1256  1  0.265600  0.765600  0.456100  1.0  -0.3229
  N  N1257  1  0.734400  0.234400  0.456100  1.0  -0.3224
  N  N1258  1  0.234400  0.734400  0.956100  1.0  -0.3224
  N  N1259  1  0.765600  0.265600  0.956100  1.0  -0.3229
  N  N1260  1  0.265600  0.234400  0.956100  1.0  -0.3225
  N  N1261  1  0.734400  0.765600  0.956100  1.0  -0.3228
  N  N1262  1  0.765600  0.734400  0.543900  1.0  -0.3234
  N  N1263  1  0.734400  0.234400  0.543900  1.0  -0.3234
  N  N1264  1  0.265600  0.765600  0.543900  1.0  -0.3238
  N  N1265  1  0.046700  0.453300  0.000000  1.0  -0.3122
  N  N1266  1  0.953300  0.546700  0.000000  1.0  -0.3134
  N  N1267  1  0.453300  0.046700  0.500000  1.0  -0.3134
  N  N1268  1  0.546700  0.046700  0.000000  1.0  -0.3127
  N  N1269  1  0.453300  0.953300  0.000000  1.0  -0.3133
  N  N1270  1  0.953300  0.453300  0.500000  1.0  -0.3133
  N  N1271  1  0.046700  0.546700  0.500000  1.0  -0.3127
  N  N1272  1  0.546700  0.953300  0.500000  1.0  -0.3122
  N  N1273  1  0.000000  0.500000  0.032700  1.0  -0.2767
  N  N1274  1  0.500000  0.000000  0.032700  1.0  -0.2767
  N  N1275  1  0.000000  0.500000  0.467300  1.0  -0.2763
  N  N1276  1  0.500000  0.000000  0.467300  1.0  -0.2763
  N  N1277  1  0.000000  0.500000  0.967300  1.0  -0.2763
  N  N1278  1  0.500000  0.000000  0.967300  1.0  -0.2763
  N  N1279  1  0.000000  0.500000  0.532700  1.0  -0.2767
  N  N1280  1  0.500000  0.000000  0.532700  1.0  -0.2767
  N  N1281  1  0.047300  0.452700  0.250900  1.0  -0.3591
  N  N1282  1  0.952700  0.547300  0.250900  1.0  -0.3586
  N  N1283  1  0.452700  0.047300  0.750900  1.0  -0.3586
  N  N1284  1  0.547300  0.047300  0.250900  1.0  -0.3602
  N  N1285  1  0.452700  0.952700  0.250900  1.0  -0.3575
  N  N1286  1  0.952700  0.452700  0.249100  1.0  -0.3573
  N  N1287  1  0.047300  0.547300  0.249100  1.0  -0.3604
  N  N1288  1  0.452700  0.047300  0.249100  1.0  -0.3586
  N  N1289  1  0.547300  0.952700  0.249100  1.0  -0.3589
  N  N1290  1  0.952700  0.547300  0.749100  1.0  -0.3586
  N  N1291  1  0.047300  0.452700  0.749100  1.0  -0.3589
  N  N1292  1  0.452700  0.952700  0.749100  1.0  -0.3573
  N  N1293  1  0.547300  0.047300  0.749100  1.0  -0.3604
  N  N1294  1  0.047300  0.547300  0.750900  1.0  -0.3602
  N  N1295  1  0.952700  0.452700  0.750900  1.0  -0.3575
  N  N1296  1  0.547300  0.952700  0.750900  1.0  -0.3591
  Cl  Cl1297  1  0.710100  0.210100  0.000000  1.0  -0.4479
  Cl  Cl1298  1  0.820300  0.320300  0.000000  1.0  -0.3966
  Cl  Cl1299  1  0.946900  0.446900  0.000000  1.0  -0.4191
  Cl  Cl1300  1  0.289900  0.789900  0.000000  1.0  -0.4455
  Cl  Cl1301  1  0.179700  0.679700  0.000000  1.0  -0.3981
  Cl  Cl1302  1  0.053100  0.553100  0.000000  1.0  -0.4201
  Cl  Cl1303  1  0.789900  0.710100  0.000000  1.0  -0.4468
  Cl  Cl1304  1  0.679700  0.820300  0.000000  1.0  -0.398
  Cl  Cl1305  1  0.553100  0.946900  0.000000  1.0  -0.4191
  Cl  Cl1306  1  0.289900  0.210100  0.500000  1.0  -0.4468
  Cl  Cl1307  1  0.179700  0.320300  0.500000  1.0  -0.398
  Cl  Cl1308  1  0.053100  0.446900  0.500000  1.0  -0.4191
  Cl  Cl1309  1  0.210100  0.289900  0.000000  1.0  -0.4463
  Cl  Cl1310  1  0.320300  0.179700  0.000000  1.0  -0.3972
  Cl  Cl1311  1  0.446900  0.053100  0.000000  1.0  -0.4206
  Cl  Cl1312  1  0.710100  0.789900  0.500000  1.0  -0.4463
  Cl  Cl1313  1  0.820300  0.679700  0.500000  1.0  -0.3972
  Cl  Cl1314  1  0.946900  0.553100  0.500000  1.0  -0.4206
  Cl  Cl1315  1  0.210100  0.710100  0.500000  1.0  -0.4479
  Cl  Cl1316  1  0.320300  0.820300  0.500000  1.0  -0.3966
  Cl  Cl1317  1  0.446900  0.946900  0.500000  1.0  -0.4191
  Cl  Cl1318  1  0.789900  0.289900  0.500000  1.0  -0.4455
  Cl  Cl1319  1  0.679700  0.179700  0.500000  1.0  -0.3981
  Cl  Cl1320  1  0.553100  0.053100  0.500000  1.0  -0.4201
  Cl  Cl1321  1  0.000000  0.500000  0.198500  1.0  -0.4648
  Cl  Cl1322  1  0.500000  0.000000  0.198500  1.0  -0.4648
  Cl  Cl1323  1  0.000000  0.500000  0.301500  1.0  -0.4636
  Cl  Cl1324  1  0.500000  0.000000  0.301500  1.0  -0.4636
  Cl  Cl1325  1  0.000000  0.500000  0.801500  1.0  -0.4636
  Cl  Cl1326  1  0.500000  0.000000  0.801500  1.0  -0.4636
  Cl  Cl1327  1  0.000000  0.500000  0.698500  1.0  -0.4648
  Cl  Cl1328  1  0.500000  0.000000  0.698500  1.0  -0.4648
  O  O1329  1  0.794000  0.066400  0.116000  1.0  -0.5979
  O  O1330  1  0.846500  0.064500  0.148900  1.0  -0.6848
  O  O1331  1  0.968700  0.167100  0.144000  1.0  -0.6971
  O  O1332  1  0.973500  0.222600  0.112300  1.0  -0.5333
  O  O1333  1  0.032800  0.298200  0.110600  1.0  -0.5466
  O  O1334  1  0.093700  0.292300  0.140900  1.0  -0.506
  O  O1335  1  0.005200  0.266900  0.167300  1.0  -0.5324
  O  O1336  1  0.013800  0.196800  0.197200  1.0  -0.5895
  O  O1337  1  0.294000  0.566400  0.616000  1.0  -0.5979
  O  O1338  1  0.346500  0.564500  0.648900  1.0  -0.6848
  O  O1339  1  0.468700  0.667100  0.644000  1.0  -0.6971
  O  O1340  1  0.473500  0.722600  0.612300  1.0  -0.5333
  O  O1341  1  0.532800  0.798200  0.610600  1.0  -0.5466
  O  O1342  1  0.593700  0.792300  0.640900  1.0  -0.506
  O  O1343  1  0.505200  0.766900  0.667300  1.0  -0.5324
  O  O1344  1  0.513800  0.696800  0.697200  1.0  -0.5895
  O  O1345  1  0.206000  0.933600  0.116000  1.0  -0.5971
  O  O1346  1  0.153500  0.935500  0.148900  1.0  -0.6858
  O  O1347  1  0.031300  0.832900  0.144000  1.0  -0.6987
  O  O1348  1  0.026500  0.777400  0.112300  1.0  -0.533
  O  O1349  1  0.967200  0.701800  0.110600  1.0  -0.5456
  O  O1350  1  0.906300  0.707700  0.140900  1.0  -0.5057
  O  O1351  1  0.994800  0.733100  0.167300  1.0  -0.5333
  O  O1352  1  0.986200  0.803200  0.197200  1.0  -0.5904
  O  O1353  1  0.706000  0.433600  0.616000  1.0  -0.5971
  O  O1354  1  0.653500  0.435500  0.648900  1.0  -0.6858
  O  O1355  1  0.531300  0.332900  0.644000  1.0  -0.6987
  O  O1356  1  0.526500  0.277400  0.612300  1.0  -0.533
  O  O1357  1  0.467200  0.201800  0.610600  1.0  -0.5456
  O  O1358  1  0.406300  0.207700  0.640900  1.0  -0.5057
  O  O1359  1  0.494800  0.233100  0.667300  1.0  -0.5333
  O  O1360  1  0.486200  0.303200  0.697200  1.0  -0.5904
  O  O1361  1  0.933600  0.794000  0.116000  1.0  -0.599
  O  O1362  1  0.935500  0.846500  0.148900  1.0  -0.6881
  O  O1363  1  0.832900  0.968700  0.144000  1.0  -0.6947
  O  O1364  1  0.777400  0.973500  0.112300  1.0  -0.5307
  O  O1365  1  0.701800  0.032800  0.110600  1.0  -0.5476
  O  O1366  1  0.707700  0.093700  0.140900  1.0  -0.5062
  O  O1367  1  0.733100  0.005200  0.167300  1.0  -0.533
  O  O1368  1  0.803200  0.013800  0.197200  1.0  -0.5894
  O  O1369  1  0.433600  0.294000  0.616000  1.0  -0.599
  O  O1370  1  0.435500  0.346500  0.648900  1.0  -0.6881
  O  O1371  1  0.332900  0.468700  0.644000  1.0  -0.6947
  O  O1372  1  0.277400  0.473500  0.612300  1.0  -0.5307
  O  O1373  1  0.201800  0.532800  0.610600  1.0  -0.5476
  O  O1374  1  0.207700  0.593700  0.640900  1.0  -0.5062
  O  O1375  1  0.233100  0.505200  0.667300  1.0  -0.533
  O  O1376  1  0.303200  0.513800  0.697200  1.0  -0.5894
  O  O1377  1  0.066400  0.206000  0.116000  1.0  -0.5983
  O  O1378  1  0.064500  0.153500  0.148900  1.0  -0.6866
  O  O1379  1  0.167100  0.031300  0.144000  1.0  -0.6956
  O  O1380  1  0.222600  0.026500  0.112300  1.0  -0.5316
  O  O1381  1  0.298200  0.967200  0.110600  1.0  -0.5478
  O  O1382  1  0.292300  0.906300  0.140900  1.0  -0.5054
  O  O1383  1  0.266900  0.994800  0.167300  1.0  -0.5325
  O  O1384  1  0.196800  0.986200  0.197200  1.0  -0.5907
  O  O1385  1  0.566400  0.706000  0.616000  1.0  -0.5983
  O  O1386  1  0.564500  0.653500  0.648900  1.0  -0.6866
  O  O1387  1  0.667100  0.531300  0.644000  1.0  -0.6956
  O  O1388  1  0.722600  0.526500  0.612300  1.0  -0.5316
  O  O1389  1  0.798200  0.467200  0.610600  1.0  -0.5478
  O  O1390  1  0.792300  0.406300  0.640900  1.0  -0.5054
  O  O1391  1  0.766900  0.494800  0.667300  1.0  -0.5325
  O  O1392  1  0.696800  0.486200  0.697200  1.0  -0.5907
  O  O1393  1  0.206000  0.066400  0.384000  1.0  -0.5991
  O  O1394  1  0.153500  0.064500  0.351100  1.0  -0.6878
  O  O1395  1  0.031300  0.167100  0.356000  1.0  -0.697
  O  O1396  1  0.026500  0.222600  0.387700  1.0  -0.5336
  O  O1397  1  0.967200  0.298200  0.389400  1.0  -0.5464
  O  O1398  1  0.906300  0.292300  0.359100  1.0  -0.5059
  O  O1399  1  0.994800  0.266900  0.332700  1.0  -0.5325
  O  O1400  1  0.986200  0.196800  0.302800  1.0  -0.5905
  O  O1401  1  0.706000  0.566400  0.884000  1.0  -0.5991
  O  O1402  1  0.653500  0.564500  0.851100  1.0  -0.6878
  O  O1403  1  0.531300  0.667100  0.856000  1.0  -0.697
  O  O1404  1  0.526500  0.722600  0.887700  1.0  -0.5336
  O  O1405  1  0.467200  0.798200  0.889400  1.0  -0.5464
  O  O1406  1  0.406300  0.792300  0.859100  1.0  -0.5059
  O  O1407  1  0.494800  0.766900  0.832700  1.0  -0.5325
  O  O1408  1  0.486200  0.696800  0.802800  1.0  -0.5905
  O  O1409  1  0.794000  0.933600  0.384000  1.0  -0.5987
  O  O1410  1  0.846500  0.935500  0.351100  1.0  -0.6861
  O  O1411  1  0.968700  0.832900  0.356000  1.0  -0.6977
  O  O1412  1  0.973500  0.777400  0.387700  1.0  -0.5332
  O  O1413  1  0.032800  0.701800  0.389400  1.0  -0.5474
  O  O1414  1  0.093700  0.707700  0.359100  1.0  -0.5056
  O  O1415  1  0.005200  0.733100  0.332700  1.0  -0.5332
  O  O1416  1  0.013800  0.803200  0.302800  1.0  -0.5902
  O  O1417  1  0.294000  0.433600  0.884000  1.0  -0.5987
  O  O1418  1  0.346500  0.435500  0.851100  1.0  -0.6861
  O  O1419  1  0.468700  0.332900  0.856000  1.0  -0.6977
  O  O1420  1  0.473500  0.277400  0.887700  1.0  -0.5332
  O  O1421  1  0.532800  0.201800  0.889400  1.0  -0.5474
  O  O1422  1  0.593700  0.207700  0.859100  1.0  -0.5056
  O  O1423  1  0.505200  0.233100  0.832700  1.0  -0.5332
  O  O1424  1  0.513800  0.303200  0.802800  1.0  -0.5902
  O  O1425  1  0.066400  0.794000  0.384000  1.0  -0.6004
  O  O1426  1  0.064500  0.846500  0.351100  1.0  -0.6896
  O  O1427  1  0.167100  0.968700  0.356000  1.0  -0.6946
  O  O1428  1  0.222600  0.973500  0.387700  1.0  -0.5318
  O  O1429  1  0.298200  0.032800  0.389400  1.0  -0.5486
  O  O1430  1  0.292300  0.093700  0.359100  1.0  -0.5052
  O  O1431  1  0.266900  0.005200  0.332700  1.0  -0.5329
  O  O1432  1  0.196800  0.013800  0.302800  1.0  -0.589
  O  O1433  1  0.566400  0.294000  0.884000  1.0  -0.6004
  O  O1434  1  0.564500  0.346500  0.851100  1.0  -0.6896
  O  O1435  1  0.667100  0.468700  0.856000  1.0  -0.6946
  O  O1436  1  0.722600  0.473500  0.887700  1.0  -0.5318
  O  O1437  1  0.798200  0.532800  0.889400  1.0  -0.5486
  O  O1438  1  0.792300  0.593700  0.859100  1.0  -0.5052
  O  O1439  1  0.766900  0.505200  0.832700  1.0  -0.5329
  O  O1440  1  0.696800  0.513800  0.802800  1.0  -0.589
  O  O1441  1  0.933600  0.206000  0.384000  1.0  -0.6
  O  O1442  1  0.935500  0.153500  0.351100  1.0  -0.6883
  O  O1443  1  0.832900  0.031300  0.356000  1.0  -0.6938
  O  O1444  1  0.777400  0.026500  0.387700  1.0  -0.5323
  O  O1445  1  0.701800  0.967200  0.389400  1.0  -0.5488
  O  O1446  1  0.707700  0.906300  0.359100  1.0  -0.5065
  O  O1447  1  0.733100  0.994800  0.332700  1.0  -0.533
  O  O1448  1  0.803200  0.986200  0.302800  1.0  -0.5888
  O  O1449  1  0.433600  0.706000  0.884000  1.0  -0.6
  O  O1450  1  0.435500  0.653500  0.851100  1.0  -0.6883
  O  O1451  1  0.332900  0.531300  0.856000  1.0  -0.6938
  O  O1452  1  0.277400  0.526500  0.887700  1.0  -0.5323
  O  O1453  1  0.201800  0.467200  0.889400  1.0  -0.5488
  O  O1454  1  0.207700  0.406300  0.859100  1.0  -0.5065
  O  O1455  1  0.233100  0.494800  0.832700  1.0  -0.533
  O  O1456  1  0.303200  0.486200  0.802800  1.0  -0.5888
  O  O1457  1  0.206000  0.933600  0.884000  1.0  -0.5987
  O  O1458  1  0.153500  0.935500  0.851100  1.0  -0.6872
  O  O1459  1  0.031300  0.832900  0.856000  1.0  -0.6983
  O  O1460  1  0.026500  0.777400  0.887700  1.0  -0.5338
  O  O1461  1  0.967200  0.701800  0.889400  1.0  -0.5465
  O  O1462  1  0.906300  0.707700  0.859100  1.0  -0.5063
  O  O1463  1  0.994800  0.733100  0.832700  1.0  -0.5333
  O  O1464  1  0.986200  0.803200  0.802800  1.0  -0.5906
  O  O1465  1  0.706000  0.433600  0.384000  1.0  -0.5987
  O  O1466  1  0.653500  0.435500  0.351100  1.0  -0.6872
  O  O1467  1  0.531300  0.332900  0.356000  1.0  -0.6983
  O  O1468  1  0.526500  0.277400  0.387700  1.0  -0.5338
  O  O1469  1  0.467200  0.201800  0.389400  1.0  -0.5465
  O  O1470  1  0.406300  0.207700  0.359100  1.0  -0.5063
  O  O1471  1  0.494800  0.233100  0.332700  1.0  -0.5333
  O  O1472  1  0.486200  0.303200  0.302800  1.0  -0.5906
  O  O1473  1  0.794000  0.066400  0.884000  1.0  -0.5991
  O  O1474  1  0.846500  0.064500  0.851100  1.0  -0.6868
  O  O1475  1  0.968700  0.167100  0.856000  1.0  -0.6962
  O  O1476  1  0.973500  0.222600  0.887700  1.0  -0.5333
  O  O1477  1  0.032800  0.298200  0.889400  1.0  -0.5472
  O  O1478  1  0.093700  0.292300  0.859100  1.0  -0.5058
  O  O1479  1  0.005200  0.266900  0.832700  1.0  -0.5325
  O  O1480  1  0.013800  0.196800  0.802800  1.0  -0.5899
  O  O1481  1  0.294000  0.566400  0.384000  1.0  -0.5991
  O  O1482  1  0.346500  0.564500  0.351100  1.0  -0.6868
  O  O1483  1  0.468700  0.667100  0.356000  1.0  -0.6962
  O  O1484  1  0.473500  0.722600  0.387700  1.0  -0.5333
  O  O1485  1  0.532800  0.798200  0.389400  1.0  -0.5472
  O  O1486  1  0.593700  0.792300  0.359100  1.0  -0.5058
  O  O1487  1  0.505200  0.766900  0.332700  1.0  -0.5325
  O  O1488  1  0.513800  0.696800  0.302800  1.0  -0.5899
  O  O1489  1  0.066400  0.206000  0.884000  1.0  -0.5997
  O  O1490  1  0.064500  0.153500  0.851100  1.0  -0.688
  O  O1491  1  0.167100  0.031300  0.856000  1.0  -0.6948
  O  O1492  1  0.222600  0.026500  0.887700  1.0  -0.5321
  O  O1493  1  0.298200  0.967200  0.889400  1.0  -0.5483
  O  O1494  1  0.292300  0.906300  0.859100  1.0  -0.5062
  O  O1495  1  0.266900  0.994800  0.832700  1.0  -0.5326
  O  O1496  1  0.196800  0.986200  0.802800  1.0  -0.5897
  O  O1497  1  0.566400  0.706000  0.384000  1.0  -0.5997
  O  O1498  1  0.564500  0.653500  0.351100  1.0  -0.688
  O  O1499  1  0.667100  0.531300  0.356000  1.0  -0.6948
  O  O1500  1  0.722600  0.526500  0.387700  1.0  -0.5321
  O  O1501  1  0.798200  0.467200  0.389400  1.0  -0.5483
  O  O1502  1  0.792300  0.406300  0.359100  1.0  -0.5062
  O  O1503  1  0.766900  0.494800  0.332700  1.0  -0.5326
  O  O1504  1  0.696800  0.486200  0.302800  1.0  -0.5897
  O  O1505  1  0.933600  0.794000  0.884000  1.0  -0.6007
  O  O1506  1  0.935500  0.846500  0.851100  1.0  -0.6897
  O  O1507  1  0.832900  0.968700  0.856000  1.0  -0.6935
  O  O1508  1  0.777400  0.973500  0.887700  1.0  -0.5318
  O  O1509  1  0.701800  0.032800  0.889400  1.0  -0.5492
  O  O1510  1  0.707700  0.093700  0.859100  1.0  -0.5056
  O  O1511  1  0.733100  0.005200  0.832700  1.0  -0.5332
  O  O1512  1  0.803200  0.013800  0.802800  1.0  -0.5887
  O  O1513  1  0.433600  0.294000  0.384000  1.0  -0.6007
  O  O1514  1  0.435500  0.346500  0.351100  1.0  -0.6897
  O  O1515  1  0.332900  0.468700  0.356000  1.0  -0.6935
  O  O1516  1  0.277400  0.473500  0.387700  1.0  -0.5318
  O  O1517  1  0.201800  0.532800  0.389400  1.0  -0.5492
  O  O1518  1  0.207700  0.593700  0.359100  1.0  -0.5056
  O  O1519  1  0.233100  0.505200  0.332700  1.0  -0.5332
  O  O1520  1  0.303200  0.513800  0.302800  1.0  -0.5887
  O  O1521  1  0.794000  0.933600  0.616000  1.0  -0.5974
  O  O1522  1  0.846500  0.935500  0.648900  1.0  -0.6846
  O  O1523  1  0.968700  0.832900  0.644000  1.0  -0.6984
  O  O1524  1  0.973500  0.777400  0.612300  1.0  -0.532
  O  O1525  1  0.032800  0.701800  0.610600  1.0  -0.5464
  O  O1526  1  0.093700  0.707700  0.640900  1.0  -0.5064
  O  O1527  1  0.005200  0.733100  0.667300  1.0  -0.5332
  O  O1528  1  0.013800  0.803200  0.697200  1.0  -0.5899
  O  O1529  1  0.294000  0.433600  0.116000  1.0  -0.5974
  O  O1530  1  0.346500  0.435500  0.148900  1.0  -0.6846
  O  O1531  1  0.468700  0.332900  0.144000  1.0  -0.6984
  O  O1532  1  0.473500  0.277400  0.112300  1.0  -0.532
  O  O1533  1  0.532800  0.201800  0.110600  1.0  -0.5464
  O  O1534  1  0.593700  0.207700  0.140900  1.0  -0.5064
  O  O1535  1  0.505200  0.233100  0.167300  1.0  -0.5332
  O  O1536  1  0.513800  0.303200  0.197200  1.0  -0.5899
  O  O1537  1  0.206000  0.066400  0.616000  1.0  -0.5975
  O  O1538  1  0.153500  0.064500  0.648900  1.0  -0.6859
  O  O1539  1  0.031300  0.167100  0.644000  1.0  -0.6975
  O  O1540  1  0.026500  0.222600  0.612300  1.0  -0.5336
  O  O1541  1  0.967200  0.298200  0.610600  1.0  -0.5459
  O  O1542  1  0.906300  0.292300  0.640900  1.0  -0.5053
  O  O1543  1  0.994800  0.266900  0.667300  1.0  -0.5325
  O  O1544  1  0.986200  0.196800  0.697200  1.0  -0.59
  O  O1545  1  0.706000  0.566400  0.116000  1.0  -0.5975
  O  O1546  1  0.653500  0.564500  0.148900  1.0  -0.6859
  O  O1547  1  0.531300  0.667100  0.144000  1.0  -0.6975
  O  O1548  1  0.526500  0.722600  0.112300  1.0  -0.5336
  O  O1549  1  0.467200  0.798200  0.110600  1.0  -0.5459
  O  O1550  1  0.406300  0.792300  0.140900  1.0  -0.5053
  O  O1551  1  0.494800  0.766900  0.167300  1.0  -0.5325
  O  O1552  1  0.486200  0.696800  0.197200  1.0  -0.59
  O  O1553  1  0.933600  0.206000  0.616000  1.0  -0.5984
  O  O1554  1  0.935500  0.153500  0.648900  1.0  -0.6869
  O  O1555  1  0.832900  0.031300  0.644000  1.0  -0.695
  O  O1556  1  0.777400  0.026500  0.612300  1.0  -0.5309
  O  O1557  1  0.701800  0.967200  0.610600  1.0  -0.5488
  O  O1558  1  0.707700  0.906300  0.640900  1.0  -0.5062
  O  O1559  1  0.733100  0.994800  0.667300  1.0  -0.5327
  O  O1560  1  0.803200  0.986200  0.697200  1.0  -0.5895
  O  O1561  1  0.433600  0.706000  0.116000  1.0  -0.5984
  O  O1562  1  0.435500  0.653500  0.148900  1.0  -0.6869
  O  O1563  1  0.332900  0.531300  0.144000  1.0  -0.695
  O  O1564  1  0.277400  0.526500  0.112300  1.0  -0.5309
  O  O1565  1  0.201800  0.467200  0.110600  1.0  -0.5488
  O  O1566  1  0.207700  0.406300  0.140900  1.0  -0.5062
  O  O1567  1  0.233100  0.494800  0.167300  1.0  -0.5327
  O  O1568  1  0.303200  0.486200  0.197200  1.0  -0.5895
  O  O1569  1  0.066400  0.794000  0.616000  1.0  -0.5989
  O  O1570  1  0.064500  0.846500  0.648900  1.0  -0.6884
  O  O1571  1  0.167100  0.968700  0.644000  1.0  -0.6957
  O  O1572  1  0.222600  0.973500  0.612300  1.0  -0.5315
  O  O1573  1  0.298200  0.032800  0.610600  1.0  -0.5471
  O  O1574  1  0.292300  0.093700  0.640900  1.0  -0.5052
  O  O1575  1  0.266900  0.005200  0.667300  1.0  -0.5332
  O  O1576  1  0.196800  0.013800  0.697200  1.0  -0.59
  O  O1577  1  0.566400  0.294000  0.116000  1.0  -0.5989
  O  O1578  1  0.564500  0.346500  0.148900  1.0  -0.6884
  O  O1579  1  0.667100  0.468700  0.144000  1.0  -0.6957
  O  O1580  1  0.722600  0.473500  0.112300  1.0  -0.5315
  O  O1581  1  0.798200  0.532800  0.110600  1.0  -0.5471
  O  O1582  1  0.792300  0.593700  0.140900  1.0  -0.5052
  O  O1583  1  0.766900  0.505200  0.167300  1.0  -0.5332
  O  O1584  1  0.696800  0.513800  0.197200  1.0  -0.59
