# generated using pymatgen
data_Cu3H24C48(N5O6)2
_symmetry_space_group_name_H-M   'P 1'
_cell_length_a   34.68530000
_cell_length_b   34.68530000
_cell_length_c   35.26960000
_cell_angle_alpha   119.45300000
_cell_angle_beta   119.45300000
_cell_angle_gamma   90.00000000
_symmetry_Int_Tables_number   1
_chemical_formula_structural   Cu3H24C48(N5O6)2
_chemical_formula_sum   'Cu24 H192 C384 N80 O96'
_cell_volume   30493.19414487
_cell_formula_units_Z   8
loop_
 _symmetry_equiv_pos_site_id
 _symmetry_equiv_pos_as_xyz
  1  'x, y, z'
loop_
 _atom_site_type_symbol
 _atom_site_label
 _atom_site_symmetry_multiplicity
 _atom_site_fract_x
 _atom_site_fract_y
 _atom_site_fract_z
 _atom_site_occupancy
 _atom_site_charge
  Cu  Cu1  1  0.933390  0.216730  0.000000  1.0  0.8858
  Cu  Cu2  1  0.743470  0.960420  0.774380  1.0  0.9067
  Cu  Cu3  1  0.088620  0.709790  0.000000  1.0  0.8914
  Cu  Cu4  1  0.911380  0.290210  0.000000  1.0  0.8916
  Cu  Cu5  1  0.030910  0.813960  0.774380  1.0  0.9118
  Cu  Cu6  1  0.216730  0.066610  0.000000  1.0  0.8876
  Cu  Cu7  1  0.751840  0.658230  0.701040  1.0  0.8961
  Cu  Cu8  1  0.813960  0.743470  0.774380  1.0  0.9116
  Cu  Cu9  1  0.050800  0.957190  0.298960  1.0  0.8935
  Cu  Cu10  1  0.290210  0.088620  0.000000  1.0  0.8892
  Cu  Cu11  1  0.709790  0.911380  0.000000  1.0  0.889
  Cu  Cu12  1  0.066610  0.783270  0.000000  1.0  0.8775
  Cu  Cu13  1  0.039580  0.969090  0.225620  1.0  0.9128
  Cu  Cu14  1  0.658230  0.949200  0.701040  1.0  0.892
  Cu  Cu15  1  0.960420  0.030910  0.774380  1.0  0.9131
  Cu  Cu16  1  0.783270  0.933390  0.000000  1.0  0.8796
  Cu  Cu17  1  0.957190  0.248160  0.298960  1.0  0.8958
  Cu  Cu18  1  0.248160  0.341770  0.298960  1.0  0.8934
  Cu  Cu19  1  0.186040  0.256530  0.225620  1.0  0.9122
  Cu  Cu20  1  0.969090  0.186040  0.225620  1.0  0.9099
  Cu  Cu21  1  0.949200  0.042810  0.701040  1.0  0.8928
  Cu  Cu22  1  0.341770  0.050800  0.298960  1.0  0.8931
  Cu  Cu23  1  0.042810  0.751840  0.701040  1.0  0.8937
  Cu  Cu24  1  0.256530  0.039580  0.225620  1.0  0.906
  H  H25  1  0.290300  0.667800  0.246200  1.0  0.0853
  H  H26  1  0.791200  0.537000  0.782400  1.0  0.1065
  H  H27  1  0.720500  0.943200  0.225600  1.0  0.1084
  H  H28  1  0.388600  0.201600  0.406400  1.0  0.1156
  H  H29  1  0.818500  0.984400  0.718000  1.0  0.1077
  H  H30  1  0.402800  0.030100  0.212800  1.0  0.1157
  H  H31  1  0.904800  0.774700  0.367800  1.0  0.1032
  H  H32  1  0.225300  0.537000  0.632200  1.0  0.1046
  H  H33  1  0.332200  0.044100  0.753800  1.0  0.0836
  H  H34  1  0.406900  0.095200  0.632200  1.0  0.104
  H  H35  1  0.033900  0.231200  0.487800  1.0  0.103
  H  H36  1  0.709700  0.332200  0.753800  1.0  0.0848
  H  H37  1  0.413300  0.677300  0.270600  1.0  0.1086
  H  H38  1  0.406900  0.021700  0.693200  1.0  0.0848
  H  H39  1  0.156200  0.925600  0.865800  1.0  0.1063
  H  H40  1  0.469300  0.073700  0.861400  1.0  0.1116
  H  H41  1  0.955900  0.578400  0.246200  1.0  0.0827
  H  H42  1  0.591100  0.289000  0.635000  1.0  0.1079
  H  H43  1  0.201600  0.017800  0.406400  1.0  0.1161
  H  H44  1  0.473000  0.724600  0.443000  1.0  0.112
  H  H45  1  0.256600  0.033900  0.487800  1.0  0.1037
  H  H46  1  0.589100  0.280900  0.177400  1.0  0.116
  H  H47  1  0.279500  0.056800  0.774400  1.0  0.1091
  H  H48  1  0.598100  0.420700  0.710600  1.0  0.1103
  H  H49  1  0.671500  0.406900  0.693200  1.0  0.0851
  H  H50  1  0.190000  0.817300  0.787200  1.0  0.1137
  H  H51  1  0.052300  0.386600  0.099600  1.0  0.1118
  H  H52  1  0.887500  0.710100  0.289400  1.0  0.1124
  H  H53  1  0.328100  0.907400  0.238800  1.0  0.1151
  H  H54  1  0.112500  0.289900  0.710600  1.0  0.1115
  H  H55  1  0.331400  0.328100  0.238800  1.0  0.1135
  H  H56  1  0.092600  0.089300  0.761200  1.0  0.1152
  H  H57  1  0.956100  0.654000  0.365000  1.0  0.1089
  H  H58  1  0.711000  0.956100  0.365000  1.0  0.1087
  H  H59  1  0.322700  0.142700  0.729400  1.0  0.109
  H  H60  1  0.969900  0.190000  0.787200  1.0  0.1147
  H  H61  1  0.100500  0.266400  0.282000  1.0  0.1081
  H  H62  1  0.546100  0.743400  0.512200  1.0  0.1024
  H  H63  1  0.505100  0.282400  0.225600  1.0  0.1082
  H  H64  1  0.588300  0.896500  0.177400  1.0  0.1155
  H  H65  1  0.593300  0.413300  0.270600  1.0  0.107
  H  H66  1  0.597200  0.969900  0.787200  1.0  0.1144
  H  H67  1  0.286300  0.671500  0.693200  1.0  0.0846
  H  H68  1  0.386600  0.047300  0.099600  1.0  0.1127
  H  H69  1  0.047300  0.713000  0.099600  1.0  0.1154
  H  H70  1  0.586700  0.322700  0.729400  1.0  0.1111
  H  H71  1  0.073700  0.392100  0.861400  1.0  0.112
  H  H72  1  0.008400  0.729300  0.270600  1.0  0.1072
  H  H73  1  0.091800  0.350100  0.404200  1.0  0.1087
  H  H74  1  0.030100  0.810000  0.212800  1.0  0.1146
  H  H75  1  0.654000  0.408900  0.365000  1.0  0.1061
  H  H76  1  0.463000  0.593100  0.367800  1.0  0.1011
  H  H77  1  0.894200  0.345900  0.124200  1.0  0.1169
  H  H78  1  0.717600  0.279500  0.774400  1.0  0.1064
  H  H79  1  0.280900  0.588300  0.177400  1.0  0.1165
  H  H80  1  0.768800  0.546100  0.512200  1.0  0.1048
  H  H81  1  0.181500  0.015600  0.282000  1.0  0.1074
  H  H82  1  0.668600  0.671900  0.761200  1.0  0.114
  H  H83  1  0.406700  0.586700  0.729400  1.0  0.1068
  H  H84  1  0.724600  0.970000  0.443000  1.0  0.1112
  H  H85  1  0.943200  0.505100  0.225600  1.0  0.1066
  H  H86  1  0.287000  0.947700  0.900400  1.0  0.1128
  H  H87  1  0.212300  0.530700  0.138600  1.0  0.1119
  H  H88  1  0.907400  0.910700  0.238800  1.0  0.1155
  H  H89  1  0.734200  0.843900  0.249600  1.0  0.1156
  H  H90  1  0.245400  0.791200  0.782400  1.0  0.1058
  H  H91  1  0.737800  0.458700  0.729400  1.0  0.1084
  H  H92  1  0.458700  0.991600  0.729400  1.0  0.107
  H  H93  1  0.537000  0.406900  0.632200  1.0  0.1021
  H  H94  1  0.817300  0.597200  0.787200  1.0  0.1142
  H  H95  1  0.262200  0.541300  0.270600  1.0  0.1096
  H  H96  1  0.008800  0.754600  0.217600  1.0  0.1056
  H  H97  1  0.978300  0.713700  0.306800  1.0  0.0844
  H  H98  1  0.915800  0.424800  0.187400  1.0  0.1173
  H  H99  1  0.795200  0.611400  0.593600  1.0  0.1154
  H  H100  1  0.054100  0.091800  0.404200  1.0  0.1085
  H  H101  1  0.312400  0.054100  0.404200  1.0  0.1085
  H  H102  1  0.044100  0.421600  0.753800  1.0  0.0838
  H  H103  1  0.729300  0.262200  0.270600  1.0  0.1079
  H  H104  1  0.982200  0.795200  0.593600  1.0  0.116
  H  H105  1  0.593100  0.978300  0.306800  1.0  0.0851
  H  H106  1  0.270700  0.737800  0.729400  1.0  0.1082
  H  H107  1  0.515400  0.405700  0.249600  1.0  0.1166
  H  H108  1  0.421600  0.709700  0.753800  1.0  0.0867
  H  H109  1  0.230000  0.778300  0.124200  1.0  0.1154
  H  H110  1  0.105800  0.654100  0.875800  1.0  0.1168
  H  H111  1  0.713000  0.052300  0.099600  1.0  0.1129
  H  H112  1  0.593100  0.904800  0.367800  1.0  0.1037
  H  H113  1  0.810000  0.182700  0.212800  1.0  0.1143
  H  H114  1  0.089300  0.668600  0.761200  1.0  0.1145
  H  H115  1  0.952700  0.287000  0.900400  1.0  0.115
  H  H116  1  0.947700  0.613400  0.900400  1.0  0.1114
  H  H117  1  0.401900  0.579300  0.289400  1.0  0.1094
  H  H118  1  0.743400  0.966100  0.512200  1.0  0.1036
  H  H119  1  0.345900  0.230000  0.124200  1.0  0.1164
  H  H120  1  0.890800  0.923800  0.125000  1.0  0.116
  H  H121  1  0.910700  0.331400  0.238800  1.0  0.1134
  H  H122  1  0.578400  0.290300  0.246200  1.0  0.0866
  H  H123  1  0.346000  0.591100  0.635000  1.0  0.1057
  H  H124  1  0.237400  0.084200  0.812600  1.0  0.1172
  H  H125  1  0.925600  0.709600  0.865800  1.0  0.1064
  H  H126  1  0.945900  0.908200  0.595800  1.0  0.1088
  H  H127  1  0.770000  0.221700  0.875800  1.0  0.1148
  H  H128  1  0.021700  0.286300  0.693200  1.0  0.084
  H  H129  1  0.966100  0.768800  0.512200  1.0  0.1035
  H  H130  1  0.017800  0.204800  0.406400  1.0  0.1163
  H  H131  1  0.420700  0.112500  0.710600  1.0  0.1116
  H  H132  1  0.677300  0.857300  0.270600  1.0  0.1087
  H  H133  1  0.076200  0.765800  0.875000  1.0  0.1166
  H  H134  1  0.103500  0.410900  0.822600  1.0  0.115
  H  H135  1  0.059800  0.843800  0.134200  1.0  0.1073
  H  H136  1  0.649900  0.687600  0.595800  1.0  0.1087
  H  H137  1  0.074400  0.290400  0.134200  1.0  0.1069
  H  H138  1  0.613400  0.952700  0.900400  1.0  0.1133
  H  H139  1  0.142700  0.406700  0.729400  1.0  0.1084
  H  H140  1  0.896500  0.589100  0.177400  1.0  0.115
  H  H141  1  0.718400  0.473000  0.443000  1.0  0.1121
  H  H142  1  0.084200  0.575200  0.812600  1.0  0.1167
  H  H143  1  0.015600  0.100500  0.282000  1.0  0.1068
  H  H144  1  0.984400  0.899500  0.718000  1.0  0.1065
  H  H145  1  0.484600  0.594300  0.750400  1.0  0.1152
  H  H146  1  0.774700  0.463000  0.367800  1.0  0.1043
  H  H147  1  0.234200  0.201200  0.125000  1.0  0.1168
  H  H148  1  0.579300  0.887500  0.289400  1.0  0.1115
  H  H149  1  0.728400  0.237400  0.812600  1.0  0.117
  H  H150  1  0.043900  0.346000  0.635000  1.0  0.1085
  H  H151  1  0.607900  0.212300  0.138600  1.0  0.1108
  H  H152  1  0.156100  0.484600  0.750400  1.0  0.1149
  H  H153  1  0.282400  0.720500  0.225600  1.0  0.107
  H  H154  1  0.231200  0.453900  0.487800  1.0  0.1043
  H  H155  1  0.710100  0.401900  0.289400  1.0  0.1114
  H  H156  1  0.527000  0.275400  0.557000  1.0  0.1121
  H  H157  1  0.221700  0.105800  0.875800  1.0  0.1178
  H  H158  1  0.798400  0.982200  0.593600  1.0  0.1169
  H  H159  1  0.719100  0.411700  0.822600  1.0  0.1156
  H  H160  1  0.733600  0.818500  0.718000  1.0  0.107
  H  H161  1  0.289900  0.598100  0.710600  1.0  0.1115
  H  H162  1  0.410900  0.719100  0.822600  1.0  0.1152
  H  H163  1  0.798800  0.109200  0.875000  1.0  0.1153
  H  H164  1  0.940200  0.156200  0.865800  1.0  0.1076
  H  H165  1  0.266400  0.181500  0.282000  1.0  0.1067
  H  H166  1  0.671900  0.092600  0.761200  1.0  0.1157
  H  H167  1  0.923800  0.234200  0.125000  1.0  0.1167
  H  H168  1  0.265800  0.156100  0.750400  1.0  0.1157
  H  H169  1  0.667800  0.955900  0.246200  1.0  0.084
  H  H170  1  0.843900  0.515400  0.249600  1.0  0.1158
  H  H171  1  0.405700  0.734200  0.249600  1.0  0.1137
  H  H172  1  0.713700  0.328500  0.306800  1.0  0.0837
  H  H173  1  0.463000  0.008800  0.217600  1.0  0.1071
  H  H174  1  0.926300  0.607900  0.138600  1.0  0.1115
  H  H175  1  0.408900  0.711000  0.365000  1.0  0.1079
  H  H176  1  0.857300  0.593300  0.270600  1.0  0.1084
  H  H177  1  0.109200  0.076200  0.875000  1.0  0.1157
  H  H178  1  0.182700  0.402800  0.212800  1.0  0.1146
  H  H179  1  0.424800  0.271600  0.187400  1.0  0.1197
  H  H180  1  0.275400  0.030000  0.557000  1.0  0.1107
  H  H181  1  0.575200  0.728400  0.812600  1.0  0.118
  H  H182  1  0.843800  0.074400  0.134200  1.0  0.1063
  H  H183  1  0.537000  0.991200  0.782400  1.0  0.1067
  H  H184  1  0.056800  0.494900  0.774400  1.0  0.1072
  H  H185  1  0.594300  0.265800  0.750400  1.0  0.1135
  H  H186  1  0.970000  0.718400  0.443000  1.0  0.1106
  H  H187  1  0.687600  0.945900  0.595800  1.0  0.1083
  H  H188  1  0.778300  0.894200  0.124200  1.0  0.1175
  H  H189  1  0.611400  0.798400  0.593600  1.0  0.1165
  H  H190  1  0.030000  0.281600  0.557000  1.0  0.1107
  H  H191  1  0.541300  0.008400  0.270600  1.0  0.1079
  H  H192  1  0.290400  0.059800  0.134200  1.0  0.1057
  H  H193  1  0.530700  0.926300  0.138600  1.0  0.1113
  H  H194  1  0.908200  0.649900  0.595800  1.0  0.1082
  H  H195  1  0.899500  0.733600  0.718000  1.0  0.1084
  H  H196  1  0.494900  0.717600  0.774400  1.0  0.108
  H  H197  1  0.208800  0.463000  0.217600  1.0  0.1068
  H  H198  1  0.762600  0.915800  0.187400  1.0  0.1162
  H  H199  1  0.787700  0.469300  0.861400  1.0  0.1123
  H  H200  1  0.765800  0.798800  0.875000  1.0  0.1175
  H  H201  1  0.991200  0.245400  0.782400  1.0  0.1058
  H  H202  1  0.350100  0.312400  0.404200  1.0  0.1085
  H  H203  1  0.095200  0.225300  0.632200  1.0  0.1026
  H  H204  1  0.411700  0.103500  0.822600  1.0  0.1145
  H  H205  1  0.392100  0.787700  0.861400  1.0  0.111
  H  H206  1  0.281600  0.527000  0.557000  1.0  0.112
  H  H207  1  0.289000  0.043900  0.635000  1.0  0.1079
  H  H208  1  0.991600  0.270700  0.729400  1.0  0.1072
  H  H209  1  0.201200  0.890800  0.125000  1.0  0.1153
  H  H210  1  0.709600  0.940200  0.865800  1.0  0.1065
  H  H211  1  0.754600  0.208800  0.217600  1.0  0.1061
  H  H212  1  0.654100  0.770000  0.875800  1.0  0.1172
  H  H213  1  0.271600  0.762600  0.187400  1.0  0.1177
  H  H214  1  0.453900  0.256600  0.487800  1.0  0.1064
  H  H215  1  0.328500  0.593100  0.306800  1.0  0.0847
  H  H216  1  0.204800  0.388600  0.406400  1.0  0.1166
  C  C217  1  0.797930  0.979770  0.684800  1.0  0.0392
  C  C218  1  0.165860  0.867560  0.820000  1.0  -0.1342
  C  C219  1  0.039420  0.041900  0.310540  1.0  0.6918
  C  C220  1  0.813800  0.500500  0.817000  1.0  -0.051
  C  C221  1  0.542600  0.656000  0.768400  1.0  0.138
  C  C222  1  0.418800  0.032600  0.728600  1.0  -0.0763
  C  C223  1  0.913100  0.748200  0.366600  1.0  -0.0917
  C  C224  1  0.225800  0.112400  0.768400  1.0  0.1407
  C  C225  1  0.480870  0.327170  0.539740  1.0  0.0886
  C  C226  1  0.333600  0.093300  0.741200  1.0  0.2904
  C  C227  1  0.328900  0.765800  0.797200  1.0  0.1254
  C  C228  1  0.112320  0.090650  0.792680  1.0  0.0175
  C  C229  1  0.163010  0.328820  0.213040  1.0  0.686
  C  C230  1  0.632490  0.786340  0.611100  1.0  -0.0757
  C  C231  1  0.130090  0.993100  0.309640  1.0  0.67
  C  C232  1  0.471000  0.617900  0.749600  1.0  -0.0975
  C  C233  1  0.097690  0.576390  0.795180  1.0  -0.0607
  C  C234  1  0.250260  0.034750  0.339400  1.0  -0.1376
  C  C235  1  0.466100  0.008900  0.192400  1.0  0.0086
  C  C236  1  0.544500  0.937000  0.174200  1.0  -0.0808
  C  C237  1  0.892530  0.656120  0.612900  1.0  -0.0762
  C  C238  1  0.932200  0.747800  0.408800  1.0  0.2215
  C  C239  1  0.381600  0.086900  0.633400  1.0  -0.089
  C  C240  1  0.328820  0.050030  0.213040  1.0  0.6853
  C  C241  1  0.113130  0.294970  0.315200  1.0  0.0359
  C  C242  1  0.034750  0.089140  0.339400  1.0  -0.1362
  C  C243  1  0.067800  0.252200  0.591200  1.0  0.2277
  C  C244  1  0.286380  0.043060  0.494720  1.0  -0.0529
  C  C245  1  0.333940  0.054890  0.110120  1.0  -0.12
  C  C246  1  0.875500  0.575200  0.261400  1.0  -0.1295
  C  C247  1  0.902310  0.423610  0.204820  1.0  -0.0601
  C  C248  1  0.004050  0.304880  0.069840  1.0  0.6521
  C  C249  1  0.617900  0.278600  0.749600  1.0  -0.0976
  C  C250  1  0.735200  0.896400  0.241400  1.0  0.011
  C  C251  1  0.175240  0.367510  0.388900  1.0  -0.075
  C  C252  1  0.584200  0.390200  0.679400  1.0  -0.1505
  C  C253  1  0.055900  0.321500  0.635400  1.0  -0.1497
  C  C254  1  0.798640  0.913710  0.072000  1.0  0.6527
  C  C255  1  0.949970  0.115780  0.786960  1.0  0.6844
  C  C256  1  0.951400  0.715900  0.410600  1.0  -0.1332
  C  C257  1  0.184010  0.012510  0.339060  1.0  -0.153
  C  C258  1  0.777370  0.122320  0.859540  1.0  0.0285
  C  C259  1  0.319640  0.297970  0.207320  1.0  0.0177
  C  C260  1  0.765800  0.468300  0.797200  1.0  0.1215
  C  C261  1  0.743360  0.072560  0.118320  1.0  -0.0564
  C  C262  1  0.762800  0.455500  0.825800  1.0  -0.082
  C  C263  1  0.680360  0.702030  0.792680  1.0  0.0179
  C  C264  1  0.252200  0.523400  0.591200  1.0  0.2211
  C  C265  1  0.251800  0.546500  0.633400  1.0  -0.0885
  C  C266  1  0.965250  0.910860  0.660600  1.0  -0.137
  C  C267  1  0.713400  0.926000  0.236800  1.0  -0.1322
  C  C268  1  0.074000  0.476600  0.763200  1.0  -0.1312
  C  C269  1  0.453500  0.618400  0.366600  1.0  -0.0886
  C  C270  1  0.089140  0.304650  0.339400  1.0  -0.1361
  C  C271  1  0.810920  0.899950  0.139700  1.0  -0.0899
  C  C272  1  0.776180  0.055230  0.110120  1.0  -0.1214
  C  C273  1  0.540800  0.305300  0.589400  1.0  -0.1338
  C  C274  1  0.264800  0.103600  0.758600  1.0  0.0121
  C  C275  1  0.067900  0.434000  0.753000  1.0  -0.1512
  C  C276  1  0.033840  0.755500  0.155480  1.0  0.0179
  C  C277  1  0.457400  0.344000  0.231600  1.0  0.1418
  C  C278  1  0.702030  0.112320  0.792680  1.0  0.0176
  C  C279  1  0.328780  0.239750  0.139700  1.0  -0.0945
  C  C280  1  0.031400  0.328900  0.797200  1.0  0.1292
  C  C281  1  0.012510  0.155050  0.339060  1.0  -0.1535
  C  C282  1  0.327170  0.058870  0.539740  1.0  0.0955
  C  C283  1  0.914160  0.680700  0.859360  1.0  0.018
  C  C284  1  0.289200  0.584200  0.679400  1.0  -0.1479
  C  C285  1  0.423610  0.302510  0.204820  1.0  -0.0574
  C  C286  1  0.399980  0.033840  0.155480  1.0  0.0171
  C  C287  1  0.280550  0.959220  0.214240  1.0  0.6466
  C  C288  1  0.700600  0.265700  0.250400  1.0  -0.1544
  C  C289  1  0.150480  0.385310  0.186760  1.0  -0.0913
  C  C290  1  0.661000  0.932200  0.408800  1.0  0.2266
  C  C291  1  0.008900  0.726300  0.192400  1.0  0.0086
  C  C292  1  0.161220  0.101260  0.816320  1.0  0.0979
  C  C293  1  0.687800  0.401500  0.752400  1.0  0.1102
  C  C294  1  0.898740  0.344900  0.183680  1.0  0.0995
  C  C295  1  0.878360  0.600020  0.844520  1.0  0.0171
  C  C296  1  0.618300  0.278000  0.197400  1.0  -0.1603
  C  C297  1  0.260930  0.035530  0.412060  1.0  0.0472
  C  C298  1  0.944100  0.678500  0.364600  1.0  -0.1471
  C  C299  1  0.072560  0.374960  0.118320  1.0  -0.0588
  C  C300  1  0.719450  0.040780  0.785760  1.0  0.6458
  C  C301  1  0.739070  0.964470  0.587940  1.0  0.0463
  C  C302  1  0.305300  0.048600  0.589400  1.0  -0.1312
  C  C303  1  0.673450  0.815990  0.660940  1.0  -0.1521
  C  C304  1  0.015300  0.299400  0.749600  1.0  -0.1528
  C  C305  1  0.996800  0.683500  0.183000  1.0  -0.0518
  C  C306  1  0.065790  0.764960  0.069840  1.0  0.6654
  C  C307  1  0.899950  0.328780  0.139700  1.0  -0.0975
  C  C308  1  0.041900  0.271120  0.310540  1.0  0.691
  C  C309  1  0.722000  0.420900  0.802600  1.0  -0.1556
  C  C310  1  0.424800  0.614100  0.738600  1.0  -0.1339
  C  C311  1  0.237200  0.544500  0.174200  1.0  -0.08
  C  C312  1  0.344000  0.774200  0.231600  1.0  0.1437
  C  C313  1  0.732360  0.093910  0.814880  1.0  -0.1329
  C  C314  1  0.155050  0.326550  0.339060  1.0  -0.1535
  C  C315  1  0.726300  0.183500  0.192400  1.0  0.0091
  C  C316  1  0.671100  0.234200  0.202800  1.0  0.1263
  C  C317  1  0.208340  0.451660  0.494720  1.0  -0.0493
  C  C318  1  0.085840  0.319300  0.140640  1.0  0.0189
  C  C319  1  0.239750  0.810920  0.139700  1.0  -0.0937
  C  C320  1  0.343880  0.279630  0.387100  1.0  -0.0772
  C  C321  1  0.695120  0.934210  0.930160  1.0  0.6515
  C  C322  1  0.198550  0.849520  0.813240  1.0  -0.0923
  C  C323  1  0.350900  0.687800  0.752400  1.0  0.1099
  C  C324  1  0.407600  0.647900  0.741200  1.0  0.2887
  C  C325  1  0.319000  0.067900  0.753000  1.0  -0.154
  C  C326  1  0.279630  0.043220  0.387100  1.0  -0.0716
  C  C327  1  0.849520  0.614690  0.813240  1.0  -0.091
  C  C328  1  0.302510  0.781210  0.204820  1.0  -0.0579
  C  C329  1  0.786340  0.978610  0.611100  1.0  -0.075
  C  C330  1  0.183500  0.466100  0.192400  1.0  0.009
  C  C331  1  0.055230  0.333940  0.110120  1.0  -0.1235
  C  C332  1  0.978610  0.824760  0.611100  1.0  -0.0759
  C  C333  1  0.304880  0.065790  0.069840  1.0  0.6524
  C  C334  1  0.316500  0.813800  0.817000  1.0  -0.0569
  C  C335  1  0.054890  0.776180  0.110120  1.0  -0.1214
  C  C336  1  0.468300  0.031400  0.797200  1.0  0.1227
  C  C337  1  0.715060  0.161220  0.816320  1.0  0.0978
  C  C338  1  0.519130  0.672830  0.460260  1.0  0.0886
  C  C339  1  0.737220  0.777370  0.859540  1.0  0.0333
  C  C340  1  0.671220  0.760250  0.860300  1.0  -0.0955
  C  C341  1  0.500500  0.003200  0.817000  1.0  -0.0494
  C  C342  1  0.576390  0.697490  0.795180  1.0  -0.0598
  C  C343  1  0.222630  0.877680  0.140460  1.0  0.0283
  C  C344  1  0.697490  0.218790  0.795180  1.0  -0.0578
  C  C345  1  0.324000  0.601200  0.680800  1.0  0.19
  C  C346  1  0.523400  0.310800  0.236800  1.0  -0.1324
  C  C347  1  0.189080  0.100050  0.860300  1.0  -0.0898
  C  C348  1  0.279030  0.267640  0.185120  1.0  -0.1338
  C  C349  1  0.297970  0.887680  0.207320  1.0  0.0184
  C  C350  1  0.958100  0.728880  0.689460  1.0  0.6903
  C  C351  1  0.267640  0.906090  0.185120  1.0  -0.1332
  C  C352  1  0.278600  0.131700  0.749600  1.0  -0.0958
  C  C353  1  0.987490  0.844950  0.660940  1.0  -0.153
  C  C354  1  0.265700  0.549800  0.250400  1.0  -0.1455
  C  C355  1  0.959220  0.933690  0.214240  1.0  0.6447
  C  C356  1  0.820450  0.683460  0.690360  1.0  0.6714
  C  C357  1  0.021390  0.175240  0.388900  1.0  -0.0765
  C  C358  1  0.816500  0.533900  0.807600  1.0  0.0094
  C  C359  1  0.654140  0.952440  0.820000  1.0  -0.1345
  C  C360  1  0.506200  0.345000  0.241400  1.0  0.0128
  C  C361  1  0.944770  0.666060  0.889880  1.0  -0.1243
  C  C362  1  0.048600  0.284100  0.589400  1.0  -0.1312
  C  C363  1  0.079600  0.324000  0.680800  1.0  0.191
  C  C364  1  0.036280  0.801450  0.186760  1.0  -0.0926
  C  C365  1  0.960580  0.958100  0.689460  1.0  0.6919
  C  C366  1  0.731360  0.960580  0.689460  1.0  0.6921
  C  C367  1  0.705030  0.797930  0.684800  1.0  0.0397
  C  C368  1  0.618400  0.913100  0.366600  1.0  -0.089
  C  C369  1  0.566000  0.314900  0.247000  1.0  -0.1553
  C  C370  1  0.598500  0.935400  0.247600  1.0  0.1107
  C  C371  1  0.115780  0.836990  0.786960  1.0  0.685
  C  C372  1  0.601200  0.356800  0.680800  1.0  0.1893
  C  C373  1  0.575200  0.385900  0.261400  1.0  -0.1325
  C  C374  1  0.666400  0.906700  0.258800  1.0  0.2895
  C  C375  1  0.896400  0.506200  0.241400  1.0  0.0199
  C  C376  1  0.690200  0.304000  0.271400  1.0  -0.0725
  C  C377  1  0.186200  0.499500  0.183000  1.0  -0.0555
  C  C378  1  0.848870  0.623470  0.587940  1.0  0.0481
  C  C379  1  0.376530  0.260930  0.412060  1.0  0.0499
  C  C380  1  0.625040  0.954240  0.881680  1.0  -0.0595
  C  C381  1  0.991100  0.273700  0.807600  1.0  0.0113
  C  C382  1  0.656000  0.225800  0.768400  1.0  0.1434
  C  C383  1  0.649100  0.312200  0.247600  1.0  0.1103
  C  C384  1  0.695350  0.749740  0.660600  1.0  -0.1368
  C  C385  1  0.877680  0.917830  0.140460  1.0  0.0303
  C  C386  1  0.374960  0.045760  0.118320  1.0  -0.0591
  C  C387  1  0.884220  0.163010  0.213040  1.0  0.6847
  C  C388  1  0.095200  0.289200  0.679400  1.0  -0.1484
  C  C389  1  0.913710  0.273360  0.072000  1.0  0.6466
  C  C390  1  0.546500  0.381600  0.633400  1.0  -0.0892
  C  C391  1  0.370300  0.762800  0.825800  1.0  -0.0849
  C  C392  1  0.345860  0.047560  0.180000  1.0  -0.1341
  C  C393  1  0.614690  0.963720  0.813240  1.0  -0.0921
  C  C394  1  0.926000  0.523400  0.236800  1.0  -0.1311
  C  C395  1  0.815990  0.987490  0.660940  1.0  -0.1519
  C  C396  1  0.963720  0.198550  0.813240  1.0  -0.0918
  C  C397  1  0.781210  0.902310  0.204820  1.0  -0.0597
  C  C398  1  0.964470  0.848870  0.587940  1.0  0.0495
  C  C399  1  0.945110  0.223820  0.889880  1.0  -0.1204
  C  C400  1  0.278000  0.579100  0.197400  1.0  -0.156
  C  C401  1  0.694700  0.951400  0.410600  1.0  -0.1335
  C  C402  1  0.523400  0.339000  0.591200  1.0  0.2145
  C  C403  1  0.755500  0.121640  0.155480  1.0  0.015
  C  C404  1  0.313800  0.124500  0.738600  1.0  -0.1322
  C  C405  1  0.271120  0.268640  0.310540  1.0  0.6902
  C  C406  1  0.086290  0.726640  0.928000  1.0  0.6492
  C  C407  1  0.103600  0.493800  0.758600  1.0  0.0167
  C  C408  1  0.906090  0.917480  0.185120  1.0  -0.1333
  C  C409  1  0.352100  0.666400  0.258800  1.0  0.2905
  C  C410  1  0.748200  0.453500  0.366600  1.0  -0.0887
  C  C411  1  0.381700  0.722000  0.802600  1.0  -0.1571
  C  C412  1  0.993100  0.179550  0.309640  1.0  0.6714
  C  C413  1  0.054800  0.821340  0.140640  1.0  0.0156
  C  C414  1  0.954240  0.256640  0.881680  1.0  -0.053
  C  C415  1  0.747800  0.476600  0.408800  1.0  0.2185
  C  C416  1  0.299400  0.734300  0.749600  1.0  -0.1496
  C  C417  1  0.003200  0.316500  0.817000  1.0  -0.0558
  C  C418  1  0.968600  0.671100  0.202800  1.0  0.1298
  C  C419  1  0.681000  0.932100  0.247000  1.0  -0.1539
  C  C420  1  0.841710  0.201360  0.928000  1.0  0.6517
  C  C421  1  0.476600  0.661000  0.408800  1.0  0.2142
  C  C422  1  0.451660  0.286380  0.494720  1.0  -0.0585
  C  C423  1  0.316540  0.130090  0.309640  1.0  0.671
  C  C424  1  0.310800  0.713400  0.236800  1.0  -0.1294
  C  C425  1  0.904800  0.710800  0.320600  1.0  -0.1528
  C  C426  1  0.984700  0.700600  0.250400  1.0  -0.1534
  C  C427  1  0.721400  0.868300  0.250400  1.0  -0.0982
  C  C428  1  0.592400  0.352100  0.258800  1.0  0.2902
  C  C429  1  0.945200  0.178660  0.859360  1.0  0.0161
  C  C430  1  0.886870  0.705030  0.684800  1.0  0.0357
  C  C431  1  0.043060  0.208340  0.494720  1.0  -0.061
  C  C432  1  0.304650  0.250260  0.339400  1.0  -0.1377
  C  C433  1  0.082520  0.720970  0.814880  1.0  -0.1346
  C  C434  1  0.401500  0.064600  0.752400  1.0  0.1086
  C  C435  1  0.764960  0.004050  0.069840  1.0  0.6532
  C  C436  1  0.066310  0.744980  0.785760  1.0  0.6465
  C  C437  1  0.906700  0.592400  0.258800  1.0  0.2907
  C  C438  1  0.286600  0.074000  0.763200  1.0  -0.131
  C  C439  1  0.213660  0.021390  0.388900  1.0  -0.0752
  C  C440  1  0.933690  0.255020  0.214240  1.0  0.6444
  C  C441  1  0.867560  0.654140  0.820000  1.0  -0.1342
  C  C442  1  0.420500  0.686100  0.364600  1.0  -0.1471
  C  C443  1  0.043220  0.107470  0.387100  1.0  -0.073
  C  C444  1  0.967400  0.690200  0.271400  1.0  -0.0747
  C  C445  1  0.689200  0.286600  0.763200  1.0  -0.13
  C  C446  1  0.050030  0.884220  0.213040  1.0  0.6846
  C  C447  1  0.838780  0.898740  0.183680  1.0  0.0978
  C  C448  1  0.273700  0.816500  0.807600  1.0  0.0079
  C  C449  1  0.952440  0.165860  0.820000  1.0  -0.1331
  C  C450  1  0.090650  0.680360  0.792680  1.0  0.0143
  C  C451  1  0.774200  0.887600  0.231600  1.0  0.1384
  C  C452  1  0.080600  0.381700  0.802600  1.0  -0.161
  C  C453  1  0.385310  0.036280  0.186760  1.0  -0.0927
  C  C454  1  0.966160  0.244500  0.844520  1.0  0.0186
  C  C455  1  0.531700  0.968600  0.202800  1.0  0.1228
  C  C456  1  0.910860  0.695350  0.660600  1.0  -0.1358
  C  C457  1  0.934210  0.235040  0.930160  1.0  0.6662
  C  C458  1  0.356800  0.079600  0.680800  1.0  0.1909
  C  C459  1  0.398800  0.643200  0.319200  1.0  0.1871
  C  C460  1  0.666060  0.945110  0.889880  1.0  -0.1201
  C  C461  1  0.920400  0.676000  0.319200  1.0  0.1923
  C  C462  1  0.726640  0.841710  0.928000  1.0  0.6536
  C  C463  1  0.760250  0.189080  0.860300  1.0  -0.0942
  C  C464  1  0.917830  0.262780  0.140460  1.0  0.0292
  C  C465  1  0.326550  0.184010  0.339060  1.0  -0.1516
  C  C466  1  0.836990  0.671180  0.786960  1.0  0.6859
  C  C467  1  0.869910  0.006900  0.690360  1.0  0.6697
  C  C468  1  0.124500  0.424800  0.738600  1.0  -0.1301
  C  C469  1  0.234200  0.531700  0.202800  1.0  0.1213
  C  C470  1  0.979770  0.886870  0.684800  1.0  0.0376
  C  C471  1  0.715900  0.459200  0.410600  1.0  -0.1283
  C  C472  1  0.201360  0.086290  0.928000  1.0  0.652
  C  C473  1  0.533900  0.991100  0.807600  1.0  0.0103
  C  C474  1  0.100050  0.671220  0.860300  1.0  -0.0985
  C  C475  1  0.294970  0.202070  0.315200  1.0  0.04
  C  C476  1  0.696000  0.418800  0.728600  1.0  -0.0773
  C  C477  1  0.309800  0.696000  0.728600  1.0  -0.0772
  C  C478  1  0.202070  0.020230  0.315200  1.0  0.0392
  C  C479  1  0.720970  0.732360  0.814880  1.0  -0.1337
  C  C480  1  0.548340  0.713620  0.505280  1.0  -0.0581
  C  C481  1  0.824760  0.632490  0.611100  1.0  -0.0741
  C  C482  1  0.935400  0.649100  0.247600  1.0  0.1104
  C  C483  1  0.834140  0.132440  0.180000  1.0  -0.134
  C  C484  1  0.382100  0.721400  0.250400  1.0  -0.0965
  C  C485  1  0.131700  0.471000  0.749600  1.0  -0.096
  C  C486  1  0.493800  0.655000  0.758600  1.0  0.01
  C  C487  1  0.151130  0.376530  0.412060  1.0  0.0483
  C  C488  1  0.579100  0.919400  0.197400  1.0  -0.1607
  C  C489  1  0.268640  0.039420  0.310540  1.0  0.6917
  C  C490  1  0.459200  0.694700  0.410600  1.0  -0.13
  C  C491  1  0.063000  0.370300  0.825800  1.0  -0.084
  C  C492  1  0.169070  0.090470  0.880840  1.0  -0.1349
  C  C493  1  0.672830  0.941130  0.460260  1.0  0.0938
  C  C494  1  0.032600  0.309800  0.728600  1.0  -0.0762
  C  C495  1  0.158290  0.798640  0.072000  1.0  0.6534
  C  C496  1  0.609800  0.904800  0.320600  1.0  -0.1553
  C  C497  1  0.218790  0.097690  0.795180  1.0  -0.0578
  C  C498  1  0.676000  0.398800  0.319200  1.0  0.1907
  C  C499  1  0.686200  0.875500  0.261400  1.0  -0.1337
  C  C500  1  0.656120  0.720370  0.612900  1.0  -0.0698
  C  C501  1  0.623470  0.739070  0.587940  1.0  0.0501
  C  C502  1  0.549800  0.984700  0.250400  1.0  -0.1564
  C  C503  1  0.734300  0.450200  0.749600  1.0  -0.1444
  C  C504  1  0.728880  0.731360  0.689460  1.0  0.6907
  C  C505  1  0.262780  0.222630  0.140460  1.0  0.0334
  C  C506  1  0.937000  0.629700  0.174200  1.0  -0.0812
  C  C507  1  0.801450  0.150480  0.186760  1.0  -0.0923
  C  C508  1  0.284100  0.540800  0.589400  1.0  -0.1267
  C  C509  1  0.917480  0.279030  0.185120  1.0  -0.135
  C  C510  1  0.058870  0.212570  0.539740  1.0  0.0923
  C  C511  1  0.321500  0.579500  0.635400  1.0  -0.1459
  C  C512  1  0.932100  0.566000  0.247000  1.0  -0.1493
  C  C513  1  0.101260  0.655100  0.816320  1.0  0.098
  C  C514  1  0.244500  0.878360  0.844520  1.0  0.0164
  C  C515  1  0.273360  0.158290  0.072000  1.0  0.6508
  C  C516  1  0.284940  0.838780  0.183680  1.0  0.0977
  C  C517  1  0.035530  0.151130  0.412060  1.0  0.049
  C  C518  1  0.791660  0.548340  0.505280  1.0  -0.0532
  C  C519  1  0.064600  0.350900  0.752400  1.0  0.1109
  C  C520  1  0.020230  0.113130  0.315200  1.0  0.0387
  C  C521  1  0.749740  0.965250  0.660600  1.0  -0.1378
  C  C522  1  0.711770  0.790370  0.880840  1.0  -0.1314
  C  C523  1  0.455500  0.063000  0.825800  1.0  -0.0826
  C  C524  1  0.720370  0.956780  0.612900  1.0  -0.0732
  C  C525  1  0.339000  0.067800  0.591200  1.0  0.2258
  C  C526  1  0.093910  0.082520  0.814880  1.0  -0.1332
  C  C527  1  0.122320  0.082170  0.859540  1.0  0.0307
  C  C528  1  0.345000  0.735200  0.241400  1.0  0.0158
  C  C529  1  0.830930  0.909530  0.119160  1.0  -0.1342
  C  C530  1  0.821340  0.085840  0.140640  1.0  0.0168
  C  C531  1  0.909530  0.288230  0.119160  1.0  -0.1333
  C  C532  1  0.121640  0.399980  0.155480  1.0  0.017
  C  C533  1  0.047560  0.834140  0.180000  1.0  -0.1324
  C  C534  1  0.112400  0.542600  0.768400  1.0  0.1426
  C  C535  1  0.844950  0.673450  0.660940  1.0  -0.1532
  C  C536  1  0.256640  0.927440  0.881680  1.0  -0.0585
  C  C537  1  0.006900  0.820450  0.690360  1.0  0.6711
  C  C538  1  0.255020  0.280550  0.214240  1.0  0.6461
  C  C539  1  0.045760  0.743360  0.118320  1.0  -0.0558
  C  C540  1  0.710800  0.415800  0.320600  1.0  -0.1473
  C  C541  1  0.107470  0.343880  0.387100  1.0  -0.0749
  C  C542  1  0.529000  0.382100  0.250400  1.0  -0.0957
  C  C543  1  0.678500  0.420500  0.364600  1.0  -0.1458
  C  C544  1  0.713620  0.956940  0.505280  1.0  -0.0509
  C  C545  1  0.304000  0.581200  0.271400  1.0  -0.0749
  C  C546  1  0.178660  0.914160  0.859360  1.0  0.0174
  C  C547  1  0.671180  0.949970  0.786960  1.0  0.6841
  C  C548  1  0.312200  0.598500  0.247600  1.0  0.1107
  C  C549  1  0.450200  0.015300  0.749600  1.0  -0.1543
  C  C550  1  0.868300  0.529000  0.250400  1.0  -0.096
  C  C551  1  0.476600  0.689200  0.763200  1.0  -0.1323
  C  C552  1  0.629700  0.237200  0.174200  1.0  -0.0826
  C  C553  1  0.686100  0.944100  0.364600  1.0  -0.1482
  C  C554  1  0.179550  0.316540  0.309640  1.0  0.6705
  C  C555  1  0.314900  0.681000  0.247000  1.0  -0.1492
  C  C556  1  0.790370  0.169070  0.880840  1.0  -0.1314
  C  C557  1  0.223820  0.944770  0.889880  1.0  -0.1219
  C  C558  1  0.093300  0.407600  0.741200  1.0  0.2905
  C  C559  1  0.927440  0.625040  0.881680  1.0  -0.0592
  C  C560  1  0.434000  0.685100  0.753000  1.0  -0.1557
  C  C561  1  0.655000  0.264800  0.758600  1.0  0.0169
  C  C562  1  0.420900  0.080600  0.802600  1.0  -0.1608
  C  C563  1  0.600020  0.966160  0.844520  1.0  0.0165
  C  C564  1  0.288230  0.209630  0.119160  1.0  -0.1312
  C  C565  1  0.887600  0.457400  0.231600  1.0  0.1443
  C  C566  1  0.680700  0.945200  0.859360  1.0  0.0121
  C  C567  1  0.887680  0.909350  0.207320  1.0  0.0173
  C  C568  1  0.683500  0.186200  0.183000  1.0  -0.0592
  C  C569  1  0.040780  0.066310  0.785760  1.0  0.6445
  C  C570  1  0.683460  0.869910  0.690360  1.0  0.6712
  C  C571  1  0.579500  0.313900  0.635400  1.0  -0.1493
  C  C572  1  0.209630  0.830930  0.119160  1.0  -0.1319
  C  C573  1  0.581200  0.967400  0.271400  1.0  -0.0771
  C  C574  1  0.090470  0.711770  0.880840  1.0  -0.1315
  C  C575  1  0.082170  0.737220  0.859540  1.0  0.0287
  C  C576  1  0.367510  0.213660  0.388900  1.0  -0.0767
  C  C577  1  0.941130  0.787430  0.460260  1.0  0.0917
  C  C578  1  0.643200  0.920400  0.319200  1.0  0.1917
  C  C579  1  0.212570  0.480870  0.539740  1.0  0.0859
  C  C580  1  0.995950  0.695120  0.930160  1.0  0.654
  C  C581  1  0.319300  0.054800  0.140640  1.0  0.0108
  C  C582  1  0.313900  0.055900  0.635400  1.0  -0.1506
  C  C583  1  0.385900  0.686200  0.261400  1.0  -0.1306
  C  C584  1  0.390200  0.095200  0.679400  1.0  -0.1511
  C  C585  1  0.614100  0.313800  0.738600  1.0  -0.1356
  C  C586  1  0.132440  0.345860  0.180000  1.0  -0.1343
  C  C587  1  0.685100  0.319000  0.753000  1.0  -0.1462
  C  C588  1  0.956780  0.892530  0.612900  1.0  -0.0712
  C  C589  1  0.744980  0.719450  0.785760  1.0  0.6443
  C  C590  1  0.415800  0.609800  0.320600  1.0  -0.1521
  C  C591  1  0.235040  0.995950  0.930160  1.0  0.6533
  C  C592  1  0.909350  0.319640  0.207320  1.0  0.0112
  C  C593  1  0.956940  0.791660  0.505280  1.0  -0.0585
  C  C594  1  0.919400  0.618300  0.197400  1.0  -0.1631
  C  C595  1  0.086900  0.251800  0.633400  1.0  -0.0906
  C  C596  1  0.647900  0.333600  0.741200  1.0  0.2905
  C  C597  1  0.344900  0.284940  0.183680  1.0  0.0984
  C  C598  1  0.499500  0.996800  0.183000  1.0  -0.0498
  C  C599  1  0.655100  0.715060  0.816320  1.0  0.0979
  C  C600  1  0.787430  0.519130  0.460260  1.0  0.0883
  N  N601  1  0.639800  0.168990  0.768600  1.0  -0.221
  N  N602  1  0.635930  0.357200  0.265000  1.0  -0.2218
  N  N603  1  0.721500  0.140520  0.161040  1.0  0.0842
  N  N604  1  0.558300  0.623900  0.756400  1.0  -0.152
  N  N605  1  0.149030  0.429530  0.487060  1.0  -0.1817
  N  N606  1  0.560460  0.979480  0.838960  1.0  0.0946
  N  N607  1  0.168990  0.128800  0.768600  1.0  -0.2204
  N  N608  1  0.685030  0.182140  0.791260  1.0  0.0953
  N  N609  1  0.655100  0.143400  0.142400  1.0  -0.1531
  N  N610  1  0.871200  0.400390  0.231400  1.0  -0.224
  N  N611  1  0.357200  0.629070  0.265000  1.0  -0.224
  N  N612  1  0.429530  0.338030  0.487060  1.0  -0.1829
  N  N613  1  0.609120  0.685030  0.791260  1.0  0.0953
  N  N614  1  0.344900  0.856600  0.857600  1.0  -0.1561
  N  N615  1  0.856600  0.512700  0.857600  1.0  -0.1455
  N  N616  1  0.439540  0.020520  0.161040  1.0  0.0968
  N  N617  1  0.893770  0.390880  0.208740  1.0  0.0978
  N  N618  1  0.629070  0.907800  0.265000  1.0  -0.2273
  N  N619  1  0.420240  0.293630  0.462480  1.0  0.0249
  N  N620  1  0.859480  0.560460  0.838960  1.0  0.0938
  N  N621  1  0.140520  0.439540  0.161040  1.0  0.0972
  N  N622  1  0.106230  0.609120  0.791260  1.0  0.097
  N  N623  1  0.882600  0.548500  0.870600  1.0  -0.1529
  N  N624  1  0.182140  0.106230  0.791260  1.0  0.0957
  N  N625  1  0.173780  0.467580  0.531760  1.0  -0.1693
  N  N626  1  0.532420  0.642020  0.468240  1.0  -0.1703
  N  N627  1  0.942470  0.850970  0.512940  1.0  -0.1849
  N  N628  1  0.338030  0.057530  0.487060  1.0  -0.1906
  N  N629  1  0.020520  0.721500  0.161040  1.0  0.0897
  N  N630  1  0.128800  0.599610  0.768600  1.0  -0.226
  N  N631  1  0.907800  0.635930  0.265000  1.0  -0.226
  N  N632  1  0.826220  0.532420  0.468240  1.0  -0.1734
  N  N633  1  0.168850  0.420240  0.462480  1.0  0.0266
  N  N634  1  0.487300  0.999000  0.142400  1.0  -0.1466
  N  N635  1  0.677900  0.117400  0.129400  1.0  -0.1482
  N  N636  1  0.441700  0.376100  0.243600  1.0  -0.1516
  N  N637  1  0.467580  0.357980  0.531760  1.0  -0.1713
  N  N638  1  0.817860  0.893770  0.208740  1.0  0.0957
  N  N639  1  0.999000  0.655100  0.142400  1.0  -0.15
  N  N640  1  0.623900  0.198100  0.756400  1.0  -0.1562
  N  N641  1  0.988000  0.322100  0.870600  1.0  -0.1494
  N  N642  1  0.357980  0.064180  0.531760  1.0  -0.1835
  N  N643  1  0.831150  0.579760  0.537520  1.0  0.0279
  N  N644  1  0.322100  0.882600  0.870600  1.0  -0.1465
  N  N645  1  0.012000  0.677900  0.129400  1.0  -0.1518
  N  N646  1  0.370930  0.092200  0.735000  1.0  -0.2236
  N  N647  1  0.570470  0.661970  0.512940  1.0  -0.1875
  N  N648  1  0.867500  0.441700  0.243600  1.0  -0.1554
  N  N649  1  0.512700  0.001000  0.857600  1.0  -0.1438
  N  N650  1  0.957760  0.831150  0.537520  1.0  0.0334
  N  N651  1  0.831010  0.871200  0.231400  1.0  -0.2239
  N  N652  1  0.001000  0.344900  0.857600  1.0  -0.1483
  N  N653  1  0.132500  0.558300  0.756400  1.0  -0.1579
  N  N654  1  0.064180  0.173780  0.531760  1.0  -0.171
  N  N655  1  0.642020  0.935820  0.468240  1.0  -0.1764
  N  N656  1  0.400390  0.360200  0.231400  1.0  -0.219
  N  N657  1  0.801900  0.867500  0.243600  1.0  -0.156
  N  N658  1  0.278500  0.859480  0.838960  1.0  0.0852
  N  N659  1  0.314970  0.817860  0.208740  1.0  0.0955
  N  N660  1  0.360200  0.831010  0.231400  1.0  -0.2232
  N  N661  1  0.092200  0.364070  0.735000  1.0  -0.223
  N  N662  1  0.042240  0.168850  0.462480  1.0  0.0331
  N  N663  1  0.376100  0.801900  0.243600  1.0  -0.1626
  N  N664  1  0.390880  0.314970  0.208740  1.0  0.0964
  N  N665  1  0.706370  0.957760  0.537520  1.0  0.0317
  N  N666  1  0.850970  0.570470  0.512940  1.0  -0.192
  N  N667  1  0.599610  0.639800  0.768600  1.0  -0.2215
  N  N668  1  0.198100  0.132500  0.756400  1.0  -0.1531
  N  N669  1  0.642800  0.370930  0.735000  1.0  -0.2259
  N  N670  1  0.548500  0.988000  0.870600  1.0  -0.1475
  N  N671  1  0.364070  0.642800  0.735000  1.0  -0.2241
  N  N672  1  0.661970  0.942470  0.512940  1.0  -0.1853
  N  N673  1  0.979480  0.278500  0.838960  1.0  0.0947
  N  N674  1  0.057530  0.149030  0.487060  1.0  -0.185
  N  N675  1  0.293630  0.042240  0.462480  1.0  0.0324
  N  N676  1  0.451500  0.012000  0.129400  1.0  -0.1472
  N  N677  1  0.935820  0.826220  0.468240  1.0  -0.1778
  N  N678  1  0.117400  0.451500  0.129400  1.0  -0.1478
  N  N679  1  0.143400  0.487300  0.142400  1.0  -0.1439
  N  N680  1  0.579760  0.706370  0.537520  1.0  0.0288
  O  O681  1  0.251290  0.973690  0.190620  1.0  -0.569
  O  O682  1  0.107560  0.996850  0.271900  1.0  -0.5748
  O  O683  1  0.312620  0.051040  0.334380  1.0  -0.5681
  O  O684  1  0.132760  0.818970  0.054920  1.0  -0.5639
  O  O685  1  0.077840  0.764050  0.945080  1.0  -0.5634
  O  O686  1  0.996850  0.164340  0.271900  1.0  -0.5762
  O  O687  1  0.936370  0.274590  0.257080  1.0  -0.5774
  O  O688  1  0.835660  0.724950  0.728100  1.0  -0.5748
  O  O689  1  0.727920  0.978390  0.053560  1.0  -0.5723
  O  O690  1  0.818970  0.922160  0.054920  1.0  -0.5641
  O  O691  1  0.208690  0.004040  0.945200  1.0  -0.572
  O  O692  1  0.756750  0.904400  0.055200  1.0  -0.5782
  O  O693  1  0.642660  0.951860  0.748480  1.0  -0.5793
  O  O694  1  0.882350  0.019370  0.669440  1.0  -0.5629
  O  O695  1  0.239240  0.033440  0.268120  1.0  -0.5557
  O  O696  1  0.325640  0.075170  0.053560  1.0  -0.5743
  O  O697  1  0.907510  0.148510  0.194740  1.0  -0.5629
  O  O698  1  0.783070  0.748710  0.809380  1.0  -0.5705
  O  O699  1  0.048140  0.894180  0.251520  1.0  -0.5778
  O  O700  1  0.736510  0.941160  0.945200  1.0  -0.5747
  O  O701  1  0.904400  0.298450  0.055200  1.0  -0.5802
  O  O702  1  0.283340  0.312620  0.334380  1.0  -0.5669
  O  O703  1  0.953770  0.092490  0.805260  1.0  -0.5613
  O  O704  1  0.948960  0.978240  0.665620  1.0  -0.5684
  O  O705  1  0.924830  0.272080  0.946440  1.0  -0.5743
  O  O706  1  0.674360  0.924830  0.946440  1.0  -0.5744
  O  O707  1  0.349930  0.117650  0.330560  1.0  -0.5639
  O  O708  1  0.051040  0.021760  0.334380  1.0  -0.5685
  O  O709  1  0.263490  0.058840  0.054800  1.0  -0.5747
  O  O710  1  0.995960  0.263490  0.054800  1.0  -0.5763
  O  O711  1  0.095600  0.701550  0.944800  1.0  -0.5812
  O  O712  1  0.764050  0.867240  0.945080  1.0  -0.5629
  O  O713  1  0.922160  0.235950  0.054920  1.0  -0.5636
  O  O714  1  0.791310  0.995960  0.054800  1.0  -0.5721
  O  O715  1  0.978390  0.325640  0.053560  1.0  -0.5738
  O  O716  1  0.357340  0.048140  0.251520  1.0  -0.5794
  O  O717  1  0.203380  0.357340  0.251520  1.0  -0.5802
  O  O718  1  0.725410  0.679290  0.742920  1.0  -0.5763
  O  O719  1  0.004040  0.736510  0.945200  1.0  -0.5777
  O  O720  1  0.892440  0.003150  0.728100  1.0  -0.5744
  O  O721  1  0.243250  0.095600  0.944800  1.0  -0.5803
  O  O722  1  0.021760  0.283340  0.334380  1.0  -0.5696
  O  O723  1  0.216930  0.251290  0.190620  1.0  -0.5704
  O  O724  1  0.712770  0.953770  0.805260  1.0  -0.5625
  O  O725  1  0.058840  0.791310  0.054800  1.0  -0.5808
  O  O726  1  0.017510  0.063630  0.742920  1.0  -0.5746
  O  O727  1  0.287230  0.046230  0.194740  1.0  -0.5624
  O  O728  1  0.298450  0.150800  0.055200  1.0  -0.583
  O  O729  1  0.978240  0.716660  0.665620  1.0  -0.5692
  O  O730  1  0.117650  0.980630  0.330560  1.0  -0.5641
  O  O731  1  0.212910  0.349930  0.330560  1.0  -0.5639
  O  O732  1  0.026310  0.060670  0.809380  1.0  -0.5703
  O  O733  1  0.234680  0.239240  0.268120  1.0  -0.5565
  O  O734  1  0.941160  0.208690  0.945200  1.0  -0.5799
  O  O735  1  0.966560  0.971120  0.731880  1.0  -0.5548
  O  O736  1  0.687380  0.948960  0.665620  1.0  -0.5674
  O  O737  1  0.951860  0.105820  0.748480  1.0  -0.5784
  O  O738  1  0.150800  0.756750  0.055200  1.0  -0.5795
  O  O739  1  0.181030  0.077840  0.945080  1.0  -0.5636
  O  O740  1  0.971120  0.765320  0.731880  1.0  -0.5553
  O  O741  1  0.982490  0.936370  0.257080  1.0  -0.5738
  O  O742  1  0.765320  0.760760  0.731880  1.0  -0.5555
  O  O743  1  0.701550  0.849200  0.944800  1.0  -0.5807
  O  O744  1  0.272080  0.021610  0.946440  1.0  -0.5708
  O  O745  1  0.849200  0.243250  0.944800  1.0  -0.5792
  O  O746  1  0.679290  0.017510  0.742920  1.0  -0.576
  O  O747  1  0.787090  0.650070  0.669440  1.0  -0.5654
  O  O748  1  0.894180  0.203380  0.251520  1.0  -0.5801
  O  O749  1  0.973690  0.939330  0.190620  1.0  -0.57
  O  O750  1  0.060670  0.783070  0.809380  1.0  -0.5694
  O  O751  1  0.716660  0.687380  0.665620  1.0  -0.5686
  O  O752  1  0.021610  0.674360  0.946440  1.0  -0.5741
  O  O753  1  0.148510  0.287230  0.194740  1.0  -0.5626
  O  O754  1  0.760760  0.966560  0.731880  1.0  -0.5562
  O  O755  1  0.724950  0.892440  0.728100  1.0  -0.5761
  O  O756  1  0.939330  0.216930  0.190620  1.0  -0.568
  O  O757  1  0.320710  0.982490  0.257080  1.0  -0.5765
  O  O758  1  0.019370  0.787090  0.669440  1.0  -0.5647
  O  O759  1  0.028880  0.234680  0.268120  1.0  -0.5556
  O  O760  1  0.748710  0.026310  0.809380  1.0  -0.57
  O  O761  1  0.003150  0.835660  0.728100  1.0  -0.5766
  O  O762  1  0.075170  0.727920  0.053560  1.0  -0.5731
  O  O763  1  0.275050  0.107560  0.271900  1.0  -0.576
  O  O764  1  0.851490  0.712770  0.805260  1.0  -0.562
  O  O765  1  0.980630  0.212910  0.330560  1.0  -0.5653
  O  O766  1  0.164340  0.275050  0.271900  1.0  -0.5767
  O  O767  1  0.105820  0.796620  0.748480  1.0  -0.5792
  O  O768  1  0.274590  0.320710  0.257080  1.0  -0.5758
  O  O769  1  0.092490  0.851490  0.805260  1.0  -0.5629
  O  O770  1  0.235950  0.132760  0.054920  1.0  -0.563
  O  O771  1  0.650070  0.882350  0.669440  1.0  -0.5638
  O  O772  1  0.867240  0.181030  0.945080  1.0  -0.5642
  O  O773  1  0.046230  0.907510  0.194740  1.0  -0.561
  O  O774  1  0.796620  0.642660  0.748480  1.0  -0.5799
  O  O775  1  0.063630  0.725410  0.742920  1.0  -0.5771
  O  O776  1  0.033440  0.028880  0.268120  1.0  -0.5539
