# generated using pymatgen
data_CuH9C18N3O4
_symmetry_space_group_name_H-M   'P 1'
_cell_length_a   36.78760000
_cell_length_b   36.78760000
_cell_length_c   37.71530000
_cell_angle_alpha   119.19000000
_cell_angle_beta   119.19000000
_cell_angle_gamma   90.00000000
_symmetry_Int_Tables_number   1
_chemical_formula_structural   CuH9C18N3O4
_chemical_formula_sum   'Cu24 H216 C432 N72 O96'
_cell_volume   36957.57284098
_cell_formula_units_Z   24
loop_
 _symmetry_equiv_pos_site_id
 _symmetry_equiv_pos_as_xyz
  1  'x, y, z'
loop_
 _atom_site_type_symbol
 _atom_site_label
 _atom_site_symmetry_multiplicity
 _atom_site_fract_x
 _atom_site_fract_y
 _atom_site_fract_z
 _atom_site_occupancy
 _atom_site_charge
  Cu  Cu1  1  0.333720  0.535180  0.792060  1.0  0.9088
  Cu  Cu2  1  0.452040  0.554430  0.276220  1.0  0.897
  Cu  Cu3  1  0.702380  0.424990  0.000000  1.0  0.9007
  Cu  Cu4  1  0.743120  0.666280  0.207940  1.0  0.909
  Cu  Cu5  1  0.464820  0.541660  0.207940  1.0  0.9063
  Cu  Cu6  1  0.535180  0.458340  0.792060  1.0  0.9066
  Cu  Cu7  1  0.458340  0.256880  0.792060  1.0  0.9095
  Cu  Cu8  1  0.256880  0.333720  0.792060  1.0  0.9101
  Cu  Cu9  1  0.541660  0.743120  0.207940  1.0  0.9094
  Cu  Cu10  1  0.770390  0.400570  0.000000  1.0  0.8955
  Cu  Cu11  1  0.666280  0.464820  0.207940  1.0  0.9082
  Cu  Cu12  1  0.400570  0.229610  0.000000  1.0  0.894
  Cu  Cu13  1  0.547960  0.445570  0.723780  1.0  0.8971
  Cu  Cu14  1  0.445570  0.175820  0.723780  1.0  0.9
  Cu  Cu15  1  0.229610  0.599430  0.000000  1.0  0.8936
  Cu  Cu16  1  0.278210  0.547960  0.723780  1.0  0.8994
  Cu  Cu17  1  0.824180  0.721790  0.276220  1.0  0.9015
  Cu  Cu18  1  0.575010  0.702380  0.000000  1.0  0.9042
  Cu  Cu19  1  0.424990  0.297620  0.000000  1.0  0.9033
  Cu  Cu20  1  0.554430  0.824180  0.276220  1.0  0.8984
  Cu  Cu21  1  0.721790  0.452040  0.276220  1.0  0.8993
  Cu  Cu22  1  0.297620  0.575010  0.000000  1.0  0.9023
  Cu  Cu23  1  0.599430  0.770390  0.000000  1.0  0.8931
  Cu  Cu24  1  0.175820  0.278210  0.723780  1.0  0.9004
  H  H25  1  0.096300  0.004000  0.723800  1.0  0.1119
  H  H26  1  0.104600  0.723400  0.218000  1.0  0.1
  H  H27  1  0.777700  0.540100  0.740600  1.0  0.1191
  H  H28  1  0.469000  0.771500  0.907000  1.0  0.1112
  H  H29  1  0.799000  0.826000  0.373000  1.0  0.1125
  H  H30  1  0.555900  0.348400  0.120000  1.0  0.1017
  H  H31  1  0.326000  0.254700  0.739200  1.0  0.1101
  H  H32  1  0.600300  0.759300  0.693000  1.0  0.0956
  H  H33  1  0.909800  0.560100  0.775000  1.0  0.1135
  H  H34  1  0.886600  0.505400  0.782000  1.0  0.0994
  H  H35  1  0.922700  0.704300  0.449600  1.0  0.0967
  H  H36  1  0.177900  0.784400  0.209000  1.0  0.1402
  H  H37  1  0.090200  0.439900  0.225000  1.0  0.1141
  H  H38  1  0.064100  0.323800  0.800000  1.0  0.1026
  H  H39  1  0.985200  0.760100  0.519400  1.0  0.0979
  H  H40  1  0.228500  0.562000  0.093000  1.0  0.1118
  H  H41  1  0.200500  0.777700  0.740600  1.0  0.1194
  H  H42  1  0.323800  0.735900  0.800000  1.0  0.0975
  H  H43  1  0.771500  0.438000  0.907000  1.0  0.1111
  H  H44  1  0.276600  0.886600  0.782000  1.0  0.0996
  H  H45  1  0.459900  0.037100  0.259400  1.0  0.1196
  H  H46  1  0.222200  0.037300  0.801000  1.0  0.0775
  H  H47  1  0.564100  0.771600  0.120000  1.0  0.1028
  H  H48  1  0.702500  0.268200  0.883600  1.0  0.1139
  H  H49  1  0.236300  0.777800  0.199000  1.0  0.0775
  H  H50  1  0.031100  0.424600  0.209000  1.0  0.137
  H  H51  1  0.264300  0.761300  0.777200  1.0  0.0965
  H  H52  1  0.663500  0.131600  0.180200  1.0  0.0784
  H  H53  1  0.093200  0.866300  0.657000  1.0  0.0974
  H  H54  1  0.015900  0.264300  0.777200  1.0  0.0962
  H  H55  1  0.304400  0.134500  0.627600  1.0  0.1107
  H  H56  1  0.323200  0.493100  0.627600  1.0  0.1103
  H  H57  1  0.742400  0.564300  0.644000  1.0  0.1166
  H  H58  1  0.228500  0.947000  0.415400  1.0  0.1143
  H  H59  1  0.984100  0.735700  0.222800  1.0  0.0967
  H  H60  1  0.254700  0.413200  0.739200  1.0  0.1107
  H  H61  1  0.759300  0.985200  0.519400  1.0  0.0989
  H  H62  1  0.901600  0.079700  0.644000  1.0  0.1168
  H  H63  1  0.468400  0.228500  0.415400  1.0  0.1145
  H  H64  1  0.186900  0.468400  0.415400  1.0  0.1141
  H  H65  1  0.822100  0.215600  0.791000  1.0  0.1408
  H  H66  1  0.526900  0.745300  0.449600  1.0  0.0987
  H  H67  1  0.584100  0.598900  0.885200  1.0  0.1073
  H  H68  1  0.419400  0.818300  0.223800  1.0  0.1099
  H  H69  1  0.933700  0.600300  0.693000  1.0  0.0961
  H  H70  1  0.313400  0.436800  0.425400  1.0  0.1104
  H  H71  1  0.683300  0.452300  0.798800  1.0  0.1158
  H  H72  1  0.336500  0.868400  0.819800  1.0  0.0783
  H  H73  1  0.580600  0.181700  0.776200  1.0  0.1107
  H  H74  1  0.563800  0.790700  0.657000  1.0  0.097
  H  H75  1  0.564300  0.901600  0.644000  1.0  0.1176
  H  H76  1  0.476200  0.064100  0.800000  1.0  0.0984
  H  H77  1  0.594500  0.580600  0.776200  1.0  0.1092
  H  H78  1  0.531600  0.771500  0.584600  1.0  0.1141
  H  H79  1  0.103400  0.847000  0.323200  1.0  0.1089
  H  H80  1  0.759300  0.092700  0.693000  1.0  0.0918
  H  H81  1  0.574000  0.547000  0.373000  1.0  0.111
  H  H82  1  0.534200  0.759300  0.519400  1.0  0.0999
  H  H83  1  0.547700  0.884500  0.201200  1.0  0.1157
  H  H84  1  0.826000  0.574000  0.373000  1.0  0.1117
  H  H85  1  0.201000  0.174000  0.627000  1.0  0.1114
  H  H86  1  0.686600  0.563200  0.574600  1.0  0.1101
  H  H87  1  0.415900  0.401100  0.114800  1.0  0.1066
  H  H88  1  0.847000  0.219800  0.323200  1.0  0.1092
  H  H89  1  0.731800  0.818900  0.116400  1.0  0.1144
  H  H90  1  0.228400  0.444100  0.880000  1.0  0.1024
  H  H91  1  0.219800  0.476200  0.323200  1.0  0.1083
  H  H92  1  0.444100  0.651600  0.880000  1.0  0.1018
  H  H93  1  0.348400  0.564100  0.120000  1.0  0.1036
  H  H94  1  0.435700  0.098400  0.356000  1.0  0.1175
  H  H95  1  0.907300  0.066300  0.307000  1.0  0.0928
  H  H96  1  0.133700  0.436200  0.343000  1.0  0.0968
  H  H97  1  0.540100  0.962900  0.740600  1.0  0.1194
  H  H98  1  0.066300  0.399700  0.307000  1.0  0.0963
  H  H99  1  0.257600  0.435700  0.356000  1.0  0.1162
  H  H100  1  0.384600  0.297500  0.116400  1.0  0.112
  H  H101  1  0.723400  0.113400  0.218000  1.0  0.0985
  H  H102  1  0.698900  0.713700  0.114800  1.0  0.107
  H  H103  1  0.516700  0.048600  0.180200  1.0  0.0804
  H  H104  1  0.704300  0.526900  0.449600  1.0  0.098
  H  H105  1  0.893800  0.405500  0.175400  1.0  0.1053
  H  H106  1  0.562000  0.864500  0.093000  1.0  0.1091
  H  H107  1  0.295700  0.473100  0.550400  1.0  0.1006
  H  H108  1  0.465800  0.240700  0.480600  1.0  0.0999
  H  H109  1  0.135500  0.469000  0.907000  1.0  0.1105
  H  H110  1  0.506900  0.695600  0.372400  1.0  0.1107
  H  H111  1  0.405500  0.419400  0.223800  1.0  0.1095
  H  H112  1  0.112000  0.988600  0.425400  1.0  0.1101
  H  H113  1  0.790700  0.093200  0.657000  1.0  0.0965
  H  H114  1  0.473100  0.254700  0.550400  1.0  0.0998
  H  H115  1  0.240700  0.014800  0.480600  1.0  0.0992
  H  H116  1  0.735900  0.476200  0.800000  1.0  0.0994
  H  H117  1  0.214900  0.909800  0.775000  1.0  0.1125
  H  H118  1  0.286300  0.584100  0.885200  1.0  0.1067
  H  H119  1  0.760100  0.534200  0.519400  1.0  0.0986
  H  H120  1  0.131600  0.516700  0.180200  1.0  0.0793
  H  H121  1  0.771600  0.555900  0.120000  1.0  0.1022
  H  H122  1  0.996000  0.372500  0.276200  1.0  0.1082
  H  H123  1  0.962900  0.200500  0.740600  1.0  0.1198
  H  H124  1  0.951400  0.336500  0.819800  1.0  0.0813
  H  H125  1  0.578800  0.763700  0.801000  1.0  0.0776
  H  H126  1  0.483300  0.951400  0.819800  1.0  0.0803
  H  H127  1  0.563200  0.888000  0.574600  1.0  0.1088
  H  H128  1  0.453000  0.201000  0.627000  1.0  0.1139
  H  H129  1  0.181700  0.195600  0.776200  1.0  0.1091
  H  H130  1  0.769900  0.893800  0.175400  1.0  0.1024
  H  H131  1  0.098400  0.920300  0.356000  1.0  0.118
  H  H132  1  0.254700  0.077300  0.550400  1.0  0.0989
  H  H133  1  0.884500  0.653500  0.201200  1.0  0.1142
  H  H134  1  0.435900  0.228400  0.880000  1.0  0.1027
  H  H135  1  0.215600  0.968900  0.791000  1.0  0.1372
  H  H136  1  0.239900  0.465800  0.480600  1.0  0.0974
  H  H137  1  0.866300  0.563800  0.657000  1.0  0.0975
  H  H138  1  0.713700  0.415900  0.114800  1.0  0.1067
  H  H139  1  0.512900  0.015900  0.777200  1.0  0.0972
  H  H140  1  0.968900  0.575400  0.791000  1.0  0.1382
  H  H141  1  0.674000  0.745300  0.260800  1.0  0.1098
  H  H142  1  0.865200  0.214900  0.775000  1.0  0.1123
  H  H143  1  0.653500  0.316700  0.201200  1.0  0.1147
  H  H144  1  0.439900  0.134800  0.225000  1.0  0.1113
  H  H145  1  0.935900  0.676200  0.200000  1.0  0.1034
  H  H146  1  0.771500  0.053000  0.584600  1.0  0.1138
  H  H147  1  0.209300  0.906800  0.343000  1.0  0.0967
  H  H148  1  0.372500  0.280200  0.276200  1.0  0.1106
  H  H149  1  0.424600  0.177900  0.209000  1.0  0.1417
  H  H150  1  0.264100  0.523800  0.200000  1.0  0.0987
  H  H151  1  0.695600  0.865500  0.372400  1.0  0.1099
  H  H152  1  0.947000  0.186900  0.415400  1.0  0.1152
  H  H153  1  0.230100  0.106200  0.824600  1.0  0.1029
  H  H154  1  0.004000  0.627500  0.723800  1.0  0.108
  H  H155  1  0.174000  0.426000  0.627000  1.0  0.1115
  H  H156  1  0.718400  0.230100  0.824600  1.0  0.1037
  H  H157  1  0.962700  0.421200  0.199000  1.0  0.0769
  H  H158  1  0.405500  0.281600  0.175400  1.0  0.1041
  H  H159  1  0.780200  0.523800  0.676800  1.0  0.1092
  H  H160  1  0.505400  0.895400  0.782000  1.0  0.1
  H  H161  1  0.401100  0.698900  0.114800  1.0  0.1077
  H  H162  1  0.888000  0.011400  0.574600  1.0  0.1104
  H  H163  1  0.531000  0.228500  0.093000  1.0  0.1118
  H  H164  1  0.240700  0.907300  0.307000  1.0  0.0917
  H  H165  1  0.268200  0.181100  0.883600  1.0  0.1138
  H  H166  1  0.413200  0.484500  0.739200  1.0  0.1101
  H  H167  1  0.586800  0.515500  0.260800  1.0  0.109
  H  H168  1  0.281600  0.769900  0.175400  1.0  0.1032
  H  H169  1  0.895400  0.276600  0.782000  1.0  0.0999
  H  H170  1  0.813100  0.531600  0.584600  1.0  0.1139
  H  H171  1  0.106200  0.594500  0.824600  1.0  0.1045
  H  H172  1  0.676200  0.264100  0.200000  1.0  0.0977
  H  H173  1  0.436800  0.112000  0.425400  1.0  0.108
  H  H174  1  0.868400  0.483300  0.819800  1.0  0.0801
  H  H175  1  0.436200  0.209300  0.343000  1.0  0.0973
  H  H176  1  0.651600  0.435900  0.880000  1.0  0.1037
  H  H177  1  0.079700  0.742400  0.644000  1.0  0.1164
  H  H178  1  0.452300  0.115500  0.798800  1.0  0.1155
  H  H179  1  0.222300  0.459900  0.259400  1.0  0.1187
  H  H180  1  0.494600  0.104600  0.218000  1.0  0.0992
  H  H181  1  0.077300  0.295700  0.550400  1.0  0.097
  H  H182  1  0.113400  0.494600  0.218000  1.0  0.1005
  H  H183  1  0.181100  0.615400  0.883600  1.0  0.116
  H  H184  1  0.523800  0.896600  0.676800  1.0  0.1089
  H  H185  1  0.594500  0.718400  0.824600  1.0  0.1042
  H  H186  1  0.547000  0.799000  0.373000  1.0  0.1132
  H  H187  1  0.903700  0.996000  0.276200  1.0  0.1068
  H  H188  1  0.048600  0.663500  0.180200  1.0  0.0802
  H  H189  1  0.575400  0.822100  0.791000  1.0  0.1434
  H  H190  1  0.763700  0.222200  0.801000  1.0  0.0772
  H  H191  1  0.297500  0.731800  0.116400  1.0  0.1133
  H  H192  1  0.906800  0.133700  0.343000  1.0  0.0977
  H  H193  1  0.011400  0.686600  0.574600  1.0  0.1085
  H  H194  1  0.598900  0.301100  0.885200  1.0  0.1075
  H  H195  1  0.484500  0.326000  0.739200  1.0  0.1102
  H  H196  1  0.818900  0.384600  0.116400  1.0  0.1159
  H  H197  1  0.735700  0.238700  0.222800  1.0  0.0964
  H  H198  1  0.799500  0.222300  0.259400  1.0  0.1194
  H  H199  1  0.438000  0.135500  0.907000  1.0  0.1081
  H  H200  1  0.865500  0.676800  0.372400  1.0  0.1105
  H  H201  1  0.523800  0.935900  0.200000  1.0  0.0992
  H  H202  1  0.493100  0.304400  0.627600  1.0  0.1104
  H  H203  1  0.134800  0.785100  0.225000  1.0  0.1111
  H  H204  1  0.316700  0.547700  0.201200  1.0  0.1149
  H  H205  1  0.301100  0.286300  0.885200  1.0  0.1069
  H  H206  1  0.896600  0.153000  0.676800  1.0  0.1096
  H  H207  1  0.280200  0.903700  0.276200  1.0  0.1097
  H  H208  1  0.818300  0.804400  0.223800  1.0  0.1087
  H  H209  1  0.399700  0.240700  0.307000  1.0  0.0948
  H  H210  1  0.719800  0.096300  0.723800  1.0  0.1058
  H  H211  1  0.153000  0.780200  0.676800  1.0  0.1093
  H  H212  1  0.346500  0.683300  0.798800  1.0  0.1149
  H  H213  1  0.421200  0.236300  0.199000  1.0  0.0768
  H  H214  1  0.115500  0.346500  0.798800  1.0  0.1147
  H  H215  1  0.920300  0.257600  0.356000  1.0  0.1177
  H  H216  1  0.804400  0.405500  0.223800  1.0  0.1087
  H  H217  1  0.515500  0.674000  0.260800  1.0  0.1104
  H  H218  1  0.092700  0.933700  0.693000  1.0  0.0932
  H  H219  1  0.745300  0.922700  0.449600  1.0  0.1011
  H  H220  1  0.785100  0.090200  0.225000  1.0  0.1131
  H  H221  1  0.615400  0.702500  0.883600  1.0  0.1114
  H  H222  1  0.014800  0.239900  0.480600  1.0  0.0972
  H  H223  1  0.426000  0.453000  0.627000  1.0  0.1106
  H  H224  1  0.761300  0.512900  0.777200  1.0  0.097
  H  H225  1  0.487100  0.984100  0.222800  1.0  0.0969
  H  H226  1  0.988600  0.313400  0.425400  1.0  0.1089
  H  H227  1  0.037100  0.799500  0.259400  1.0  0.1197
  H  H228  1  0.784400  0.031100  0.209000  1.0  0.1364
  H  H229  1  0.195600  0.594500  0.776200  1.0  0.1093
  H  H230  1  0.560100  0.865200  0.775000  1.0  0.1117
  H  H231  1  0.864500  0.531000  0.093000  1.0  0.1101
  H  H232  1  0.627500  0.719800  0.723800  1.0  0.11
  H  H233  1  0.676800  0.506900  0.372400  1.0  0.1104
  H  H234  1  0.053000  0.813100  0.584600  1.0  0.1136
  H  H235  1  0.745300  0.586800  0.260800  1.0  0.1102
  H  H236  1  0.134500  0.323200  0.627600  1.0  0.1104
  H  H237  1  0.238700  0.487100  0.222800  1.0  0.0974
  H  H238  1  0.476200  0.103400  0.323200  1.0  0.1089
  H  H239  1  0.777800  0.962700  0.199000  1.0  0.0761
  H  H240  1  0.037300  0.578800  0.801000  1.0  0.0779
  C  C241  1  0.028150  0.599980  0.760960  1.0  0.1682
  C  C242  1  0.239000  0.244920  0.826700  1.0  -0.1365
  C  C243  1  0.772590  0.597020  0.290680  1.0  0.028
  C  C244  1  0.256950  0.560760  0.111540  1.0  -0.0085
  C  C245  1  0.410730  0.463080  0.642440  1.0  -0.0771
  C  C246  1  0.348160  0.760100  0.816320  1.0  0.002
  C  C247  1  0.113250  0.819960  0.667100  1.0  -0.0019
  C  C248  1  0.607900  0.700330  0.773800  1.0  0.1382
  C  C249  1  0.142210  0.809900  0.255600  1.0  -0.1376
  C  C250  1  0.609640  0.339860  0.166460  1.0  -0.1344
  C  C251  1  0.506300  0.919230  0.778600  1.0  -0.1421
  C  C252  1  0.595720  0.599180  0.805440  1.0  0.0055
  C  C253  1  0.526120  0.958280  0.754240  1.0  -0.1803
  C  C254  1  0.479270  0.080770  0.247940  1.0  0.0844
  C  C255  1  0.719740  0.740360  0.130040  1.0  0.0034
  C  C256  1  0.787610  0.538260  0.583120  1.0  -0.1751
  C  C257  1  0.760100  0.468160  0.816320  1.0  -0.0021
  C  C258  1  0.195490  0.364570  0.687080  1.0  -0.1568
  C  C259  1  0.955000  0.596100  0.717000  1.0  -0.0937
  C  C260  1  0.473100  0.249130  0.621420  1.0  0.1439
  C  C261  1  0.394270  0.355910  0.173340  1.0  0.1323
  C  C262  1  0.349330  0.486850  0.642860  1.0  -0.0754
  C  C263  1  0.389900  0.263800  0.267200  1.0  -0.1384
  C  C264  1  0.173400  0.390360  0.833540  1.0  -0.137
  C  C265  1  0.187390  0.507580  0.200960  1.0  0.0613
  C  C266  1  0.712170  0.433710  0.896920  1.0  -0.0802
  C  C267  1  0.623980  0.309410  0.175940  1.0  -0.1284
  C  C268  1  0.492420  0.986430  0.799040  1.0  0.0543
  C  C269  1  0.299670  0.834100  0.226200  1.0  0.1411
  C  C270  1  0.597020  0.518090  0.290680  1.0  0.0231
  C  C271  1  0.556820  0.826600  0.166460  1.0  -0.1359
  C  C272  1  0.796590  0.657800  0.288020  1.0  0.6897
  C  C273  1  0.021120  0.711510  0.576040  1.0  -0.0755
  C  C274  1  0.610320  0.280260  0.869960  1.0  0.003
  C  C275  1  0.213050  0.489450  0.222900  1.0  -0.0655
  C  C276  1  0.536330  0.883600  0.726860  1.0  0.0366
  C  C277  1  0.245270  0.463090  0.457380  1.0  -0.0743
  C  C278  1  0.690590  0.448040  0.824060  1.0  -0.1282
  C  C279  1  0.973270  0.578470  0.769740  1.0  -0.1713
  C  C280  1  0.400820  0.790280  0.194560  1.0  0.0072
  C  C281  1  0.280260  0.259640  0.869960  1.0  0.0032
  C  C282  1  0.197370  0.608020  0.869120  1.0  -0.0701
  C  C283  1  0.160980  0.028150  0.760960  1.0  0.1706
  C  C284  1  0.922930  0.680910  0.453860  1.0  -0.0793
  C  C285  1  0.554920  0.864530  0.576040  1.0  -0.0742
  C  C286  1  0.005710  0.754730  0.542620  1.0  -0.0744
  C  C287  1  0.392100  0.299670  0.226200  1.0  0.1352
  C  C288  1  0.056220  0.348160  0.816320  1.0  -0.0032
  C  C289  1  0.548990  0.836910  0.620380  1.0  0.0341
  C  C290  1  0.539270  0.819470  0.535340  1.0  0.116
  C  C291  1  0.328250  0.738900  0.130880  1.0  -0.0757
  C  C292  1  0.748230  0.530360  0.287940  1.0  0.6564
  C  C293  1  0.204490  0.955140  0.416880  1.0  -0.1741
  C  C294  1  0.177310  0.844570  0.281140  1.0  0.0942
  C  C295  1  0.815250  0.536790  0.103080  1.0  -0.0783
  C  C296  1  0.493700  0.080770  0.221400  1.0  -0.1444
  C  C297  1  0.536790  0.287830  0.103080  1.0  -0.0794
  C  C298  1  0.595430  0.267990  0.148580  1.0  0.114
  C  C299  1  0.896170  0.563430  0.718860  1.0  0.0937
  C  C300  1  0.463670  0.116400  0.273140  1.0  0.0369
  C  C301  1  0.939300  0.254590  0.382000  1.0  -0.1374
  C  C302  1  0.575220  0.786670  0.065440  1.0  0.6687
  C  C303  1  0.268630  0.572780  0.802140  1.0  0.6837
  C  C304  1  0.919230  0.272300  0.778600  1.0  -0.1393
  C  C305  1  0.199820  0.434410  0.871740  1.0  -0.0102
  C  C306  1  0.003930  0.284130  0.464660  1.0  0.1167
  C  C307  1  0.466490  0.770640  0.197860  1.0  0.6814
  C  C308  1  0.152860  0.886750  0.332900  1.0  -0.0034
  C  C309  1  0.489450  0.009850  0.222900  1.0  -0.0736
  C  C310  1  0.167170  0.479270  0.247940  1.0  0.0839
  C  C311  1  0.460730  0.180530  0.464660  1.0  0.1169
  C  C312  1  0.290580  0.235370  0.890240  1.0  -0.1288
  C  C313  1  0.928610  0.216530  0.379620  1.0  0.0332
  C  C314  1  0.216530  0.451010  0.379620  1.0  0.032
  C  C315  1  0.116400  0.809470  0.273140  1.0  0.0387
  C  C316  1  0.020120  0.345800  0.816600  1.0  0.0215
  C  C317  1  0.762000  0.120900  0.717000  1.0  -0.0974
  C  C318  1  0.779070  0.817430  0.173340  1.0  0.1325
  C  C319  1  0.576350  0.792230  0.732300  1.0  0.0763
  C  C320  1  0.732810  0.160980  0.760960  1.0  0.162
  C  C321  1  0.046930  0.691700  0.198800  1.0  -0.0773
  C  C322  1  0.978880  0.288490  0.423960  1.0  -0.0719
  C  C323  1  0.077070  0.319090  0.546140  1.0  -0.078
  C  C324  1  0.893890  0.397280  0.195740  1.0  -0.0411
  C  C325  1  0.180040  0.446150  0.332900  1.0  -0.0026
  C  C326  1  0.507580  0.013570  0.200960  1.0  0.0555
  C  C327  1  0.263800  0.877300  0.267200  1.0  -0.1376
  C  C328  1  0.768670  0.167170  0.247940  1.0  0.0831
  C  C329  1  0.721230  0.424780  0.934560  1.0  0.6641
  C  C330  1  0.212390  0.461740  0.416880  1.0  -0.1764
  C  C331  1  0.563430  0.822690  0.718860  1.0  0.0947
  C  C332  1  0.439240  0.145410  0.888460  1.0  -0.013
  C  C333  1  0.206260  0.595720  0.805440  1.0  0.0055
  C  C334  1  0.434410  0.671920  0.871740  1.0  -0.0085
  C  C335  1  0.727700  0.140630  0.221400  1.0  -0.1403
  C  C336  1  0.460290  0.242420  0.712060  1.0  0.6557
  C  C337  1  0.080770  0.727700  0.221400  1.0  -0.1385
  C  C338  1  0.771880  0.204040  0.245760  1.0  -0.1898
  C  C339  1  0.439300  0.183160  0.322200  1.0  -0.1807
  C  C340  1  0.155430  0.896170  0.718860  1.0  0.0953
  C  C341  1  0.530930  0.772950  0.453860  1.0  -0.0776
  C  C342  1  0.153160  0.809730  0.688920  1.0  -0.1752
  C  C343  1  0.602720  0.698150  0.804260  1.0  -0.039
  C  C344  1  0.596730  0.683940  0.933480  1.0  0.6814
  C  C345  1  0.364570  0.491590  0.687080  1.0  -0.1573
  C  C346  1  0.671920  0.437330  0.871740  1.0  -0.0064
  C  C347  1  0.832830  0.520730  0.752060  1.0  0.0842
  C  C348  1  0.879100  0.045000  0.283000  1.0  -0.0814
  C  C349  1  0.249540  0.596730  0.933480  1.0  0.6833
  C  C350  1  0.790280  0.793740  0.194560  1.0  0.0063
  C  C351  1  0.179360  0.410730  0.642440  1.0  -0.0768
  C  C352  1  0.860960  0.560700  0.677800  1.0  -0.1829
  C  C353  1  0.242420  0.251770  0.712060  1.0  0.6567
  C  C354  1  0.267190  0.839020  0.239040  1.0  0.1605
  C  C355  1  0.227410  0.402980  0.709320  1.0  0.0284
  C  C356  1  0.693660  0.772590  0.290680  1.0  0.0254
  C  C357  1  0.436570  0.177310  0.281140  1.0  0.0949
  C  C358  1  0.844050  0.059930  0.267700  1.0  0.0766
  C  C359  1  0.122700  0.996600  0.732800  1.0  -0.1316
  C  C360  1  0.562670  0.800180  0.128260  1.0  -0.0056
  C  C361  1  0.190530  0.843260  0.726860  1.0  0.0371
  C  C362  1  0.882900  0.139040  0.322200  1.0  -0.188
  C  C363  1  0.630220  0.796590  0.288020  1.0  0.6886
  C  C364  1  0.536920  0.768290  0.357560  1.0  -0.0758
  C  C365  1  0.468160  0.056220  0.816320  1.0  0.0054
  C  C366  1  0.847140  0.113250  0.667100  1.0  -0.0026
  C  C367  1  0.463210  0.712170  0.896920  1.0  -0.0789
  C  C368  1  0.578470  0.796470  0.769740  1.0  -0.176
  C  C369  1  0.883600  0.190530  0.726860  1.0  0.0388
  C  C370  1  0.780940  0.574080  0.312360  1.0  -0.1551
  C  C371  1  0.490220  0.278770  0.065440  1.0  0.6665
  C  C372  1  0.810170  0.640500  0.194780  1.0  0.673
  C  C373  1  0.510550  0.990150  0.777100  1.0  -0.0715
  C  C374  1  0.757580  0.748230  0.287940  1.0  0.6557
  C  C375  1  0.537310  0.810980  0.491620  1.0  0.0616
  C  C376  1  0.414530  0.236860  0.220660  1.0  0.0241
  C  C377  1  0.816840  0.117100  0.677800  1.0  -0.1843
  C  C378  1  0.201540  0.106110  0.804260  1.0  -0.0371
  C  C379  1  0.359500  0.615390  0.805220  1.0  0.6723
  C  C380  1  0.919230  0.231330  0.752060  1.0  0.0845
  C  C381  1  0.443180  0.173400  0.833540  1.0  -0.136
  C  C382  1  0.376020  0.690590  0.824060  1.0  -0.1284
  C  C383  1  0.851680  0.627710  0.378580  1.0  0.1445
  C  C384  1  0.425920  0.468580  0.687640  1.0  -0.1543
  C  C385  1  0.509780  0.721230  0.934560  1.0  0.667
  C  C386  1  0.140630  0.493700  0.221400  1.0  -0.1365
  C  C387  1  0.877300  0.003400  0.267200  1.0  -0.1332
  C  C388  1  0.445080  0.135470  0.423960  1.0  -0.0734
  C  C389  1  0.608020  0.671750  0.869120  1.0  -0.0706
  C  C390  1  0.822690  0.155430  0.718860  1.0  0.0955
  C  C391  1  0.706470  0.843990  0.357140  1.0  -0.0774
  C  C392  1  0.469070  0.227050  0.546140  1.0  -0.0792
  C  C393  1  0.272300  0.859370  0.778600  1.0  -0.1404
  C  C394  1  0.507100  0.046930  0.198800  1.0  -0.0744
  C  C395  1  0.809900  0.113390  0.255600  1.0  -0.1403
  C  C396  1  0.155950  0.940070  0.732300  1.0  0.077
  C  C397  1  0.231330  0.832830  0.752060  1.0  0.0836
  C  C398  1  0.872590  0.060700  0.618000  1.0  -0.1363
  C  C399  1  0.886750  0.180040  0.332900  1.0  -0.0009
  C  C400  1  0.470800  0.020120  0.816600  1.0  0.0219
  C  C401  1  0.560700  0.816840  0.677800  1.0  -0.1857
  C  C402  1  0.204040  0.473880  0.245760  1.0  -0.1864
  C  C403  1  0.080770  0.768670  0.247940  1.0  0.0842
  C  C404  1  0.342200  0.508570  0.711980  1.0  0.6892
  C  C405  1  0.213330  0.509780  0.934560  1.0  0.6694
  C  C406  1  0.148320  0.372290  0.621420  1.0  0.1437
  C  C407  1  0.654870  0.290580  0.890240  1.0  -0.1317
  C  C408  1  0.792230  0.155950  0.732300  1.0  0.0754
  C  C409  1  0.538260  0.795510  0.583120  1.0  -0.1778
  C  C410  1  0.819470  0.996070  0.535340  1.0  0.1171
  C  C411  1  0.442700  0.127410  0.382000  1.0  -0.1347
  C  C412  1  0.207770  0.844050  0.267700  1.0  0.0766
  C  C413  1  0.473880  0.041720  0.245760  1.0  -0.1807
  C  C414  1  0.553150  0.880590  0.148580  1.0  0.1167
  C  C415  1  0.391980  0.328250  0.130880  1.0  -0.0703
  C  C416  1  0.680910  0.530930  0.453860  1.0  -0.0791
  C  C417  1  0.926530  0.392100  0.226200  1.0  0.1397
  C  C418  1  0.227050  0.077070  0.546140  1.0  -0.0794
  C  C419  1  0.261720  0.219060  0.687640  1.0  -0.1541
  C  C420  1  0.581780  0.239000  0.826700  1.0  -0.1355
  C  C421  1  0.249130  0.148320  0.621420  1.0  0.1445
  C  C422  1  0.390360  0.660140  0.833540  1.0  -0.135
  C  C423  1  0.793740  0.404280  0.194560  1.0  0.0049
  C  C424  1  0.461740  0.204490  0.416880  1.0  -0.177
  C  C425  1  0.786670  0.490220  0.065440  1.0  0.6687
  C  C426  1  0.605730  0.644090  0.826660  1.0  0.1323
  C  C427  1  0.610100  0.736200  0.732800  1.0  -0.138
  C  C428  1  0.986430  0.306620  0.799040  1.0  0.0548
  C  C429  1  0.640500  0.384610  0.194780  1.0  0.672
  C  C430  1  0.836910  0.071390  0.620380  1.0  0.034
  C  C431  1  0.403270  0.316060  0.066520  1.0  0.6806
  C  C432  1  0.238000  0.879100  0.283000  1.0  -0.0903
  C  C433  1  0.339860  0.556820  0.166460  1.0  -0.1355
  C  C434  1  0.800180  0.565590  0.128260  1.0  -0.0097
  C  C435  1  0.979880  0.654200  0.183400  1.0  0.0333
  C  C436  1  0.151870  0.507100  0.198800  1.0  -0.072
  C  C437  1  0.615390  0.445720  0.805220  1.0  0.6722
  C  C438  1  0.212110  0.994290  0.457380  1.0  -0.0735
  C  C439  1  0.421530  0.203530  0.230260  1.0  -0.1695
  C  C440  1  0.996600  0.610100  0.732800  1.0  -0.1387
  C  C441  1  0.650670  0.513150  0.357140  1.0  -0.0737
  C  C442  1  0.535760  0.879190  0.688920  1.0  -0.1762
  C  C443  1  0.308300  0.848130  0.801200  1.0  -0.0723
  C  C444  1  0.808730  0.026730  0.230260  1.0  -0.1752
  C  C445  1  0.663250  0.750460  0.066520  1.0  0.6816
  C  C446  1  0.848130  0.492900  0.801200  1.0  -0.072
  C  C447  1  0.857790  0.190100  0.744400  1.0  -0.1381
  C  C448  1  0.530360  0.539710  0.287940  1.0  0.6553
  C  C449  1  0.518090  0.693660  0.290680  1.0  0.0225
  C  C450  1  0.683940  0.336750  0.933480  1.0  0.6786
  C  C451  1  0.328080  0.562670  0.128260  1.0  -0.0072
  C  C452  1  0.657800  0.491430  0.288020  1.0  0.689
  C  C453  1  0.754730  0.536910  0.542620  1.0  -0.074
  C  C454  1  0.879190  0.153160  0.688920  1.0  -0.1772
  C  C455  1  0.026730  0.421530  0.230260  1.0  -0.1682
  C  C456  1  0.795510  0.044860  0.583120  1.0  -0.1736
  C  C457  1  0.041720  0.771880  0.245760  1.0  -0.1832
  C  C458  1  0.859370  0.506300  0.778600  1.0  -0.1356
  C  C459  1  0.783470  0.548990  0.620380  1.0  0.0319
  C  C460  1  0.244920  0.587700  0.826700  1.0  -0.1366
  C  C461  1  0.433710  0.184750  0.896920  1.0  -0.0834
  C  C462  1  0.834100  0.926530  0.226200  1.0  0.1414
  C  C463  1  0.698150  0.201540  0.804260  1.0  -0.0395
  C  C464  1  0.229360  0.268630  0.802140  1.0  0.6831
  C  C465  1  0.219060  0.425920  0.687640  1.0  -0.155
  C  C466  1  0.755080  0.412300  0.173300  1.0  -0.137
  C  C467  1  0.402980  0.481910  0.709320  1.0  0.0232
  C  C468  1  0.599180  0.209720  0.805440  1.0  0.0064
  C  C469  1  0.817430  0.394270  0.173340  1.0  0.1324
  C  C470  1  0.183160  0.882900  0.322200  1.0  -0.1799
  C  C471  1  0.235370  0.599660  0.890240  1.0  -0.132
  C  C472  1  0.533510  0.229360  0.802140  1.0  0.6812
  C  C473  1  0.113390  0.445700  0.255600  1.0  -0.1408
  C  C474  1  0.943780  0.651840  0.183680  1.0  -0.0046
  C  C475  1  0.009850  0.733450  0.222900  1.0  -0.0732
  C  C476  1  0.654200  0.203520  0.183400  1.0  0.0323
  C  C477  1  0.599660  0.654870  0.890240  1.0  -0.1382
  C  C478  1  0.445700  0.142210  0.255600  1.0  -0.1363
  C  C479  1  0.355910  0.779070  0.173340  1.0  0.1337
  C  C480  1  0.804510  0.635430  0.312920  1.0  -0.1569
  C  C481  1  0.239900  0.531840  0.183680  1.0  -0.0011
  C  C482  1  0.106110  0.602720  0.804260  1.0  -0.0419
  C  C483  1  0.844570  0.103830  0.281140  1.0  0.0947
  C  C484  1  0.403900  0.238000  0.283000  1.0  -0.0878
  C  C485  1  0.560760  0.854590  0.111540  1.0  -0.0135
  C  C486  1  0.955140  0.212390  0.416880  1.0  -0.1745
  C  C487  1  0.954310  0.680640  0.491620  1.0  0.0609
  C  C488  1  0.486850  0.293530  0.642860  1.0  -0.074
  C  C489  1  0.193870  0.016200  0.779340  1.0  0.026
  C  C490  1  0.508570  0.369780  0.711980  1.0  0.6883
  C  C491  1  0.412300  0.418220  0.173300  1.0  -0.1363
  C  C492  1  0.574080  0.531420  0.312360  1.0  -0.1544
  C  C493  1  0.045690  0.319360  0.508380  1.0  0.057
  C  C494  1  0.251770  0.469640  0.712060  1.0  0.6569
  C  C495  1  0.802630  0.391980  0.130880  1.0  -0.0712
  C  C496  1  0.810980  0.954310  0.491620  1.0  0.0588
  C  C497  1  0.798460  0.893890  0.195740  1.0  -0.0392
  C  C498  1  0.464240  0.120810  0.311080  1.0  -0.1755
  C  C499  1  0.309410  0.551960  0.175940  1.0  -0.1272
  C  C500  1  0.003400  0.389900  0.267200  1.0  -0.1373
  C  C501  1  0.306620  0.812610  0.799040  1.0  0.0523
  C  C502  1  0.953070  0.308300  0.801200  1.0  -0.0785
  C  C503  1  0.267990  0.553150  0.148580  1.0  0.1144
  C  C504  1  0.796470  0.191270  0.769740  1.0  -0.1778
  C  C505  1  0.103830  0.436570  0.281140  1.0  0.1041
  C  C506  1  0.539710  0.757580  0.287940  1.0  0.6558
  C  C507  1  0.071390  0.783470  0.620380  1.0  0.0323
  C  C508  1  0.424780  0.213330  0.934560  1.0  0.6688
  C  C509  1  0.671750  0.261100  0.869120  1.0  -0.0756
  C  C510  1  0.345130  0.709420  0.109760  1.0  -0.1315
  C  C511  1  0.761000  0.755080  0.173300  1.0  -0.1369
  C  C512  1  0.738280  0.780940  0.312360  1.0  -0.154
  C  C513  1  0.306340  0.227410  0.709320  1.0  0.0256
  C  C514  1  0.680640  0.537310  0.491620  1.0  0.0563
  C  C515  1  0.599980  0.732810  0.760960  1.0  0.1697
  C  C516  1  0.469640  0.460290  0.712060  1.0  0.6551
  C  C517  1  0.287830  0.566290  0.103080  1.0  -0.0809
  C  C518  1  0.770640  0.731370  0.197860  1.0  0.683
  C  C519  1  0.319090  0.469070  0.546140  1.0  -0.079
  C  C520  1  0.372290  0.473100  0.621420  1.0  0.1459
  C  C521  1  0.284130  0.460730  0.464660  1.0  0.1178
  C  C522  1  0.700330  0.165900  0.773800  1.0  0.1388
  C  C523  1  0.156010  0.349330  0.642860  1.0  -0.0763
  C  C524  1  0.261100  0.197370  0.869120  1.0  -0.0709
  C  C525  1  0.553850  0.847140  0.667100  1.0  -0.0014
  C  C526  1  0.013570  0.693380  0.200960  1.0  0.05
  C  C527  1  0.462690  0.189020  0.508380  1.0  0.0607
  C  C528  1  0.404280  0.400820  0.194560  1.0  0.0051
  C  C529  1  0.120900  0.955000  0.717000  1.0  -0.0849
  C  C530  1  0.715870  0.539270  0.535340  1.0  0.1167
  C  C531  1  0.446850  0.119410  0.851420  1.0  0.1165
  C  C532  1  0.184750  0.463210  0.896920  1.0  -0.0787
  C  C533  1  0.259640  0.589700  0.869960  1.0  0.0099
  C  C534  1  0.940070  0.576350  0.732300  1.0  0.0748
  C  C535  1  0.526900  0.750870  0.378580  1.0  0.1442
  C  C536  1  0.492900  0.953070  0.801200  1.0  -0.0746
  C  C537  1  0.820640  0.589270  0.357560  1.0  -0.079
  C  C538  1  0.854590  0.550780  0.111540  1.0  -0.0131
  C  C539  1  0.651840  0.239900  0.183680  1.0  0.0035
  C  C540  1  0.585470  0.763140  0.779340  1.0  0.0218
  C  C541  1  0.236860  0.806130  0.220660  1.0  0.0225
  C  C542  1  0.189830  0.359500  0.805220  1.0  0.6726
  C  C543  1  0.145410  0.449220  0.888460  1.0  -0.0136
  C  C544  1  0.135470  0.978880  0.423960  1.0  -0.0723
  C  C545  1  0.231710  0.179360  0.642440  1.0  -0.0765
  C  C546  1  0.389680  0.719740  0.130040  1.0  0.0042
  C  C547  1  0.843990  0.650670  0.357140  1.0  -0.0751
  C  C548  1  0.016200  0.585470  0.779340  1.0  0.0235
  C  C549  1  0.796480  0.470800  0.816600  1.0  0.0235
  C  C550  1  0.463090  0.212110  0.457380  1.0  -0.0759
  C  C551  1  0.772950  0.922930  0.453860  1.0  -0.0795
  C  C552  1  0.044860  0.787610  0.583120  1.0  -0.1747
  C  C553  1  0.189020  0.045690  0.508380  1.0  0.0632
  C  C554  1  0.278770  0.575220  0.065440  1.0  0.6644
  C  C555  1  0.468580  0.261720  0.687640  1.0  -0.1562
  C  C556  1  0.203530  0.808730  0.230260  1.0  -0.1759
  C  C557  1  0.400020  0.267190  0.239040  1.0  0.1697
  C  C558  1  0.866530  0.623980  0.175940  1.0  -0.1303
  C  C559  1  0.345800  0.796480  0.816600  1.0  0.0384
  C  C560  1  0.768290  0.820640  0.357560  1.0  -0.0754
  C  C561  1  0.508410  0.677490  0.312920  1.0  -0.1554
  C  C562  1  0.971850  0.400020  0.239040  1.0  0.1641
  C  C563  1  0.423650  0.207770  0.267700  1.0  0.0773
  C  C564  1  0.319360  0.462690  0.508380  1.0  0.057
  C  C565  1  0.410300  0.389680  0.130040  1.0  0.0027
  C  C566  1  0.120810  0.846840  0.311080  1.0  -0.1777
  C  C567  1  0.880590  0.595430  0.148580  1.0  0.1139
  C  C568  1  0.677490  0.804510  0.312920  1.0  -0.1569
  C  C569  1  0.446150  0.152860  0.332900  1.0  -0.0029
  C  C570  1  0.886610  0.554300  0.744400  1.0  -0.1415
  C  C571  1  0.740360  0.410300  0.130040  1.0  0.0038
  C  C572  1  0.190270  0.464240  0.311080  1.0  -0.1763
  C  C573  1  0.809470  0.156740  0.273140  1.0  0.0366
  C  C574  1  0.133470  0.376020  0.824060  1.0  -0.1303
  C  C575  1  0.119410  0.404570  0.851420  1.0  0.1136
  C  C576  1  0.491590  0.322510  0.687080  1.0  -0.1556
  C  C577  1  0.660140  0.443180  0.833540  1.0  -0.1354
  C  C578  1  0.743050  0.439240  0.888460  1.0  -0.0085
  C  C579  1  0.418220  0.761000  0.173300  1.0  -0.1364
  C  C580  1  0.209720  0.206260  0.805440  1.0  0.0062
  C  C581  1  0.572780  0.533510  0.802140  1.0  0.6828
  C  C582  1  0.750460  0.403270  0.066520  1.0  0.6834
  C  C583  1  0.843260  0.536330  0.726860  1.0  0.038
  C  C584  1  0.190100  0.886610  0.744400  1.0  -0.1394
  C  C585  1  0.536910  0.787890  0.542620  1.0  -0.0769
  C  C586  1  0.732010  0.446850  0.851420  1.0  0.1146
  C  C587  1  0.711510  0.554920  0.576040  1.0  -0.0759
  C  C588  1  0.316060  0.663250  0.066520  1.0  0.6788
  C  C589  1  0.764630  0.400340  0.109760  1.0  -0.1336
  C  C590  1  0.990150  0.266550  0.777100  1.0  -0.0723
  C  C591  1  0.566290  0.815250  0.103080  1.0  -0.0829
  C  C592  1  0.384610  0.554280  0.194780  1.0  0.6722
  C  C593  1  0.693380  0.187390  0.200960  1.0  0.0564
  C  C594  1  0.059930  0.423650  0.267700  1.0  0.0768
  C  C595  1  0.427220  0.466490  0.197860  1.0  0.6828
  C  C596  1  0.644090  0.220930  0.826660  1.0  0.133
  C  C597  1  0.266550  0.786950  0.777100  1.0  -0.0734
  C  C598  1  0.839020  0.971850  0.239040  1.0  0.1687
  C  C599  1  0.139040  0.439300  0.322200  1.0  -0.1794
  C  C600  1  0.806130  0.983800  0.220660  1.0  0.024
  C  C601  1  0.531840  0.943780  0.183680  1.0  0.0044
  C  C602  1  0.635430  0.508410  0.312920  1.0  -0.1575
  C  C603  1  0.060700  0.745410  0.618000  1.0  -0.1373
  C  C604  1  0.996070  0.715870  0.535340  1.0  0.1168
  C  C605  1  0.203520  0.529200  0.183400  1.0  0.0222
  C  C606  1  0.451010  0.163090  0.379620  1.0  0.0327
  C  C607  1  0.589700  0.610320  0.869960  1.0  0.0025
  C  C608  1  0.117100  0.860960  0.677800  1.0  -0.185
  C  C609  1  0.045000  0.403900  0.283000  1.0  -0.0862
  C  C610  1  0.182570  0.605730  0.826660  1.0  0.1318
  C  C611  1  0.550780  0.256950  0.111540  1.0  -0.0131
  C  C612  1  0.565590  0.328080  0.128260  1.0  -0.0096
  C  C613  1  0.322510  0.195490  0.687080  1.0  -0.1566
  C  C614  1  0.958280  0.228120  0.754240  1.0  -0.1806
  C  C615  1  0.531420  0.738280  0.312360  1.0  -0.1563
  C  C616  1  0.738900  0.802630  0.130880  1.0  -0.0723
  C  C617  1  0.864530  0.021120  0.576040  1.0  -0.0741
  C  C618  1  0.400340  0.345130  0.109760  1.0  -0.1381
  C  C619  1  0.220930  0.182570  0.826660  1.0  0.1325
  C  C620  1  0.397280  0.301850  0.195740  1.0  -0.0358
  C  C621  1  0.554280  0.810170  0.194780  1.0  0.673
  C  C622  1  0.554300  0.857790  0.744400  1.0  -0.1385
  C  C623  1  0.745410  0.557300  0.618000  1.0  -0.1368
  C  C624  1  0.557300  0.872590  0.618000  1.0  -0.1323
  C  C625  1  0.819960  0.553850  0.667100  1.0  -0.0031
  C  C626  1  0.156740  0.463670  0.273140  1.0  0.038
  C  C627  1  0.191270  0.973270  0.769740  1.0  -0.1686
  C  C628  1  0.983800  0.414530  0.220660  1.0  0.0252
  C  C629  1  0.812610  0.492420  0.799040  1.0  0.0603
  C  C630  1  0.587700  0.581780  0.826700  1.0  -0.137
  C  C631  1  0.529200  0.979880  0.183400  1.0  0.0239
  C  C632  1  0.448040  0.133470  0.824060  1.0  -0.1273
  C  C633  1  0.551960  0.866530  0.175940  1.0  -0.13
  C  C634  1  0.165900  0.073470  0.773800  1.0  0.1407
  C  C635  1  0.846840  0.190270  0.311080  1.0  -0.1735
  C  C636  1  0.073470  0.607900  0.773800  1.0  0.1382
  C  C637  1  0.750870  0.851680  0.378580  1.0  0.1454
  C  C638  1  0.127410  0.939300  0.382000  1.0  -0.1362
  C  C639  1  0.445720  0.189830  0.805220  1.0  0.673
  C  C640  1  0.180530  0.003930  0.464660  1.0  0.1148
  C  C641  1  0.520730  0.919230  0.752060  1.0  0.0847
  C  C642  1  0.163090  0.928610  0.379620  1.0  0.0327
  C  C643  1  0.369780  0.203410  0.711980  1.0  0.6882
  C  C644  1  0.589270  0.536920  0.357560  1.0  -0.0776
  C  C645  1  0.795960  0.526120  0.754240  1.0  -0.186
  C  C646  1  0.731370  0.427220  0.197860  1.0  0.6841
  C  C647  1  0.463080  0.231710  0.642440  1.0  -0.079
  C  C648  1  0.994290  0.245270  0.457380  1.0  -0.0737
  C  C649  1  0.763140  0.193870  0.779340  1.0  0.0216
  C  C650  1  0.736200  0.122700  0.732800  1.0  -0.1392
  C  C651  1  0.709420  0.764630  0.109760  1.0  -0.1297
  C  C652  1  0.254590  0.442700  0.382000  1.0  -0.137
  C  C653  1  0.596100  0.762000  0.717000  1.0  -0.0884
  C  C654  1  0.203410  0.342200  0.711980  1.0  0.6889
  C  C655  1  0.437330  0.199820  0.871740  1.0  -0.0067
  C  C656  1  0.826600  0.609640  0.166460  1.0  -0.135
  C  C657  1  0.733450  0.213050  0.222900  1.0  -0.0709
  C  C658  1  0.809730  0.535760  0.688920  1.0  -0.1752
  C  C659  1  0.301850  0.798460  0.195740  1.0  -0.038
  C  C660  1  0.491430  0.630220  0.288020  1.0  0.6888
  C  C661  1  0.786950  0.510550  0.777100  1.0  -0.0726
  C  C662  1  0.336750  0.249540  0.933480  1.0  0.6821
  C  C663  1  0.228120  0.795960  0.754240  1.0  -0.1888
  C  C664  1  0.293530  0.156010  0.642860  1.0  -0.0761
  C  C665  1  0.627710  0.526900  0.378580  1.0  0.1456
  C  C666  1  0.481910  0.306340  0.709320  1.0  0.0233
  C  C667  1  0.288490  0.445080  0.423960  1.0  -0.0767
  C  C668  1  0.691700  0.151870  0.198800  1.0  -0.0742
  C  C669  1  0.404570  0.732010  0.851420  1.0  0.1136
  C  C670  1  0.449220  0.743050  0.888460  1.0  -0.0139
  C  C671  1  0.513150  0.706470  0.357140  1.0  -0.074
  C  C672  1  0.787890  0.005710  0.542620  1.0  -0.073
  N  N673  1  0.823510  0.901480  0.442960  1.0  -0.3274
  N  N674  1  0.098520  0.380550  0.557040  1.0  -0.3279
  N  N675  1  0.661940  0.190620  0.801880  1.0  0.1645
  N  N676  1  0.901480  0.619450  0.442960  1.0  -0.3252
  N  N677  1  0.237120  0.546660  0.159320  1.0  0.1286
  N  N678  1  0.613230  0.181150  0.159860  1.0  -0.1545
  N  N679  1  0.077800  0.387340  0.840680  1.0  0.136
  N  N680  1  0.624120  0.668800  0.757440  1.0  -0.1493
  N  N681  1  0.219220  0.107690  0.576380  1.0  0.1148
  N  N682  1  0.148010  0.129030  0.772320  1.0  -0.3321
  N  N683  1  0.442180  0.055900  0.853960  1.0  -0.1993
  N  N684  1  0.356710  0.851990  0.227680  1.0  -0.3347
  N  N685  1  0.055900  0.411780  0.853960  1.0  -0.2033
  N  N686  1  0.021290  0.386770  0.840140  1.0  -0.1555
  N  N687  1  0.643290  0.148010  0.772320  1.0  -0.3357
  N  N688  1  0.386770  0.818850  0.840140  1.0  -0.1565
  N  N689  1  0.411780  0.798060  0.853960  1.0  -0.2019
  N  N690  1  0.456680  0.158920  0.515960  1.0  -0.1465
  N  N691  1  0.978710  0.613230  0.159860  1.0  -0.1604
  N  N692  1  0.190620  0.139940  0.801880  1.0  0.1647
  N  N693  1  0.798060  0.442180  0.853960  1.0  -0.2004
  N  N694  1  0.059280  0.357040  0.515960  1.0  -0.1548
  N  N695  1  0.129030  0.624310  0.772320  1.0  -0.3389
  N  N696  1  0.133320  0.088640  0.757440  1.0  -0.1408
  N  N697  1  0.944100  0.588220  0.146040  1.0  -0.2046
  N  N698  1  0.543320  0.841080  0.484040  1.0  -0.1478
  N  N699  1  0.780780  0.892310  0.423620  1.0  0.1129
  N  N700  1  0.458520  0.176490  0.557040  1.0  -0.3254
  N  N701  1  0.624310  0.643290  0.772320  1.0  -0.3362
  N  N702  1  0.375880  0.331200  0.242560  1.0  -0.1445
  N  N703  1  0.940720  0.642960  0.484040  1.0  -0.148
  N  N704  1  0.453340  0.077800  0.840680  1.0  0.1432
  N  N705  1  0.922200  0.612660  0.159320  1.0  0.1343
  N  N706  1  0.911360  0.375880  0.242560  1.0  -0.1356
  N  N707  1  0.158920  0.059280  0.515960  1.0  -0.1495
  N  N708  1  0.546660  0.922200  0.159320  1.0  0.1409
  N  N709  1  0.588220  0.201940  0.146040  1.0  -0.1988
  N  N710  1  0.387340  0.762880  0.840680  1.0  0.1393
  N  N711  1  0.541480  0.823510  0.442960  1.0  -0.3295
  N  N712  1  0.612660  0.237120  0.159320  1.0  0.1382
  N  N713  1  0.088640  0.624120  0.757440  1.0  -0.1435
  N  N714  1  0.357160  0.468690  0.576380  1.0  0.1377
  N  N715  1  0.331200  0.866680  0.242560  1.0  -0.1343
  N  N716  1  0.762880  0.453340  0.840680  1.0  0.1309
  N  N717  1  0.338060  0.809380  0.198120  1.0  0.1624
  N  N718  1  0.181150  0.546630  0.159860  1.0  -0.1608
  N  N719  1  0.176490  0.098520  0.557040  1.0  -0.325
  N  N720  1  0.860060  0.388740  0.198120  1.0  0.1613
  N  N721  1  0.468690  0.219220  0.576380  1.0  0.1145
  N  N722  1  0.357040  0.456680  0.515960  1.0  -0.1493
  N  N723  1  0.611260  0.661940  0.801880  1.0  0.1625
  N  N724  1  0.809380  0.860060  0.198120  1.0  0.1613
  N  N725  1  0.107690  0.357160  0.576380  1.0  0.1369
  N  N726  1  0.546630  0.978710  0.159860  1.0  -0.1598
  N  N727  1  0.380550  0.458520  0.557040  1.0  -0.3268
  N  N728  1  0.851990  0.870970  0.227680  1.0  -0.3327
  N  N729  1  0.642840  0.531310  0.423620  1.0  0.136
  N  N730  1  0.892310  0.642840  0.423620  1.0  0.1365
  N  N731  1  0.557820  0.944100  0.146040  1.0  -0.202
  N  N732  1  0.866680  0.911360  0.242560  1.0  -0.1409
  N  N733  1  0.870970  0.375690  0.227680  1.0  -0.3399
  N  N734  1  0.201940  0.557820  0.146040  1.0  -0.2013
  N  N735  1  0.453370  0.021290  0.840140  1.0  -0.156
  N  N736  1  0.139940  0.611260  0.801880  1.0  0.1639
  N  N737  1  0.841080  0.940720  0.484040  1.0  -0.1535
  N  N738  1  0.388740  0.338060  0.198120  1.0  0.1574
  N  N739  1  0.531310  0.780780  0.423620  1.0  0.1129
  N  N740  1  0.375690  0.356710  0.227680  1.0  -0.333
  N  N741  1  0.818850  0.453370  0.840140  1.0  -0.1634
  N  N742  1  0.668800  0.133320  0.757440  1.0  -0.137
  N  N743  1  0.642960  0.543320  0.484040  1.0  -0.1448
  N  N744  1  0.619450  0.541480  0.442960  1.0  -0.32
  O  O745  1  0.586020  0.667320  0.949920  1.0  -0.568
  O  O746  1  0.372230  0.591580  0.821700  1.0  -0.5672
  O  O747  1  0.480680  0.741620  0.177080  1.0  -0.5776
  O  O748  1  0.605240  0.445920  0.768000  1.0  -0.5719
  O  O749  1  0.696400  0.435460  0.177080  1.0  -0.5777
  O  O750  1  0.363900  0.282600  0.949920  1.0  -0.5691
  O  O751  1  0.311540  0.523360  0.695020  1.0  -0.5854
  O  O752  1  0.408420  0.550530  0.178300  1.0  -0.5677
  O  O753  1  0.286440  0.480760  0.752560  1.0  -0.5909
  O  O754  1  0.480760  0.466120  0.752560  1.0  -0.5903
  O  O755  1  0.656300  0.775120  0.050720  1.0  -0.6063
  O  O756  1  0.282600  0.586020  0.949920  1.0  -0.5712
  O  O757  1  0.354300  0.507230  0.748840  1.0  -0.5845
  O  O758  1  0.343700  0.224880  0.949280  1.0  -0.6054
  O  O759  1  0.645700  0.492770  0.251160  1.0  -0.5847
  O  O760  1  0.224880  0.605580  0.949280  1.0  -0.6048
  O  O761  1  0.275600  0.656300  0.050720  1.0  -0.6051
  O  O762  1  0.550530  0.769880  0.178300  1.0  -0.5678
  O  O763  1  0.551780  0.798080  0.309220  1.0  -0.5698
  O  O764  1  0.394760  0.554080  0.232000  1.0  -0.5721
  O  O765  1  0.769880  0.627770  0.178300  1.0  -0.5688
  O  O766  1  0.481850  0.303430  0.050560  1.0  -0.5835
  O  O767  1  0.741620  0.696400  0.177080  1.0  -0.579
  O  O768  1  0.564540  0.519320  0.822920  1.0  -0.5778
  O  O769  1  0.587100  0.805050  0.049460  1.0  -0.5714
  O  O770  1  0.435460  0.480680  0.177080  1.0  -0.5773
  O  O771  1  0.724400  0.343700  0.949280  1.0  -0.6053
  O  O772  1  0.394540  0.241610  0.748840  1.0  -0.5856
  O  O773  1  0.717400  0.413980  0.050080  1.0  -0.5713
  O  O774  1  0.533880  0.728200  0.247440  1.0  -0.5908
  O  O775  1  0.449470  0.230120  0.821700  1.0  -0.5658
  O  O776  1  0.394420  0.275600  0.050720  1.0  -0.609
  O  O777  1  0.537640  0.755590  0.950540  1.0  -0.583
  O  O778  1  0.807700  0.748050  0.238240  1.0  -0.5755
  O  O779  1  0.616520  0.828340  0.304980  1.0  -0.586
  O  O780  1  0.569460  0.509810  0.761760  1.0  -0.5745
  O  O781  1  0.431290  0.252870  0.949440  1.0  -0.5807
  O  O782  1  0.605580  0.724400  0.949280  1.0  -0.6084
  O  O783  1  0.244410  0.587100  0.049460  1.0  -0.5804
  O  O784  1  0.775120  0.394420  0.050720  1.0  -0.606
  O  O785  1  0.636100  0.717400  0.050080  1.0  -0.5688
  O  O786  1  0.523360  0.383480  0.695020  1.0  -0.5865
  O  O787  1  0.412900  0.194950  0.950540  1.0  -0.571
  O  O788  1  0.667320  0.363900  0.949920  1.0  -0.5667
  O  O789  1  0.241610  0.354300  0.748840  1.0  -0.5854
  O  O790  1  0.755590  0.412900  0.950540  1.0  -0.5792
  O  O791  1  0.568710  0.747130  0.050560  1.0  -0.581
  O  O792  1  0.303430  0.568710  0.050560  1.0  -0.579
  O  O793  1  0.805050  0.462360  0.049460  1.0  -0.5722
  O  O794  1  0.230120  0.372230  0.821700  1.0  -0.568
  O  O795  1  0.466120  0.271800  0.752560  1.0  -0.5911
  O  O796  1  0.251950  0.569460  0.761760  1.0  -0.5739
  O  O797  1  0.627770  0.408420  0.178300  1.0  -0.5674
  O  O798  1  0.696570  0.431290  0.949440  1.0  -0.5792
  O  O799  1  0.322080  0.605240  0.768000  1.0  -0.5696
  O  O800  1  0.591580  0.449470  0.821700  1.0  -0.5664
  O  O801  1  0.462360  0.244410  0.049460  1.0  -0.5837
  O  O802  1  0.192300  0.251950  0.761760  1.0  -0.5753
  O  O803  1  0.448220  0.201920  0.690780  1.0  -0.5706
  O  O804  1  0.258380  0.303600  0.822920  1.0  -0.5784
  O  O805  1  0.605460  0.758390  0.251160  1.0  -0.5861
  O  O806  1  0.303600  0.564540  0.822920  1.0  -0.5785
  O  O807  1  0.509810  0.192300  0.761760  1.0  -0.5751
  O  O808  1  0.252870  0.518150  0.949440  1.0  -0.5794
  O  O809  1  0.332680  0.636100  0.050080  1.0  -0.5677
  O  O810  1  0.171660  0.311540  0.695020  1.0  -0.5875
  O  O811  1  0.837240  0.677920  0.232000  1.0  -0.5723
  O  O812  1  0.758390  0.645700  0.251160  1.0  -0.5853
  O  O813  1  0.554080  0.837240  0.232000  1.0  -0.5725
  O  O814  1  0.242560  0.488860  0.690780  1.0  -0.5706
  O  O815  1  0.518150  0.696570  0.949440  1.0  -0.5831
  O  O816  1  0.430540  0.490190  0.238240  1.0  -0.5743
  O  O817  1  0.445920  0.162760  0.768000  1.0  -0.5739
  O  O818  1  0.757440  0.511140  0.309220  1.0  -0.5713
  O  O819  1  0.492770  0.605460  0.251160  1.0  -0.5864
  O  O820  1  0.383480  0.171660  0.695020  1.0  -0.5866
  O  O821  1  0.476640  0.616520  0.304980  1.0  -0.5863
  O  O822  1  0.677920  0.394760  0.232000  1.0  -0.5716
  O  O823  1  0.194950  0.537640  0.950540  1.0  -0.5724
  O  O824  1  0.798080  0.757440  0.309220  1.0  -0.5723
  O  O825  1  0.413980  0.332680  0.050080  1.0  -0.5679
  O  O826  1  0.162760  0.322080  0.768000  1.0  -0.5719
  O  O827  1  0.728200  0.713560  0.247440  1.0  -0.5901
  O  O828  1  0.519240  0.533880  0.247440  1.0  -0.5903
  O  O829  1  0.507230  0.394540  0.748840  1.0  -0.5855
  O  O830  1  0.747130  0.481850  0.050560  1.0  -0.5795
  O  O831  1  0.490190  0.807700  0.238240  1.0  -0.5746
  O  O832  1  0.519320  0.258380  0.822920  1.0  -0.5767
  O  O833  1  0.748050  0.430540  0.238240  1.0  -0.5748
  O  O834  1  0.511140  0.551780  0.309220  1.0  -0.5713
  O  O835  1  0.271800  0.286440  0.752560  1.0  -0.5923
  O  O836  1  0.688460  0.476640  0.304980  1.0  -0.5876
  O  O837  1  0.713560  0.519240  0.247440  1.0  -0.5899
  O  O838  1  0.488860  0.448220  0.690780  1.0  -0.5715
  O  O839  1  0.201920  0.242560  0.690780  1.0  -0.5715
  O  O840  1  0.828340  0.688460  0.304980  1.0  -0.5885
