# generated using pymatgen
data_Cu12H83C108(I3N7)4
_symmetry_space_group_name_H-M   'P 1'
_cell_length_a   15.42720000
_cell_length_b   32.58910000
_cell_length_c   32.58910000
_cell_angle_alpha   107.08000000
_cell_angle_beta   99.92680000
_cell_angle_gamma   80.07320000
_symmetry_Int_Tables_number   1
_chemical_formula_structural   Cu12H83C108(I3N7)4
_chemical_formula_sum   'Cu48 H332 C432 I48 N112'
_cell_volume   15297.81860046
_cell_formula_units_Z   4
loop_
 _symmetry_equiv_pos_site_id
 _symmetry_equiv_pos_as_xyz
  1  'x, y, z'
loop_
 _atom_site_type_symbol
 _atom_site_label
 _atom_site_symmetry_multiplicity
 _atom_site_fract_x
 _atom_site_fract_y
 _atom_site_fract_z
 _atom_site_occupancy
 _atom_site_charge
  Cu  Cu1  1  0.203800  0.946130  0.299770  1.0  0.143
  Cu  Cu2  1  0.320000  0.957140  0.370100  1.0  0.1403
  Cu  Cu3  1  0.375920  0.953970  0.294450  1.0  0.1503
  Cu  Cu4  1  0.277760  0.882500  0.934040  1.0  0.1228
  Cu  Cu5  1  0.624080  0.046030  0.705550  1.0  0.152
  Cu  Cu6  1  0.722240  0.117500  0.065960  1.0  0.1226
  Cu  Cu7  1  0.296200  0.299770  0.946130  1.0  0.1424
  Cu  Cu8  1  0.379110  0.501710  0.783650  1.0  0.1913
  Cu  Cu9  1  0.879110  0.216350  0.498290  1.0  0.1894
  Cu  Cu10  1  0.667290  0.516910  0.148970  1.0  0.1309
  Cu  Cu11  1  0.796200  0.053870  0.700230  1.0  0.1425
  Cu  Cu12  1  0.170700  0.856380  0.862360  1.0  0.1289
  Cu  Cu13  1  0.310100  0.350400  0.388400  1.0  0.1546
  Cu  Cu14  1  0.820000  0.629900  0.042860  1.0  0.1403
  Cu  Cu15  1  0.195530  0.301650  0.334530  1.0  0.151
  Cu  Cu16  1  0.662960  0.119550  0.698210  1.0  0.1493
  Cu  Cu17  1  0.124080  0.294450  0.953970  1.0  0.1512
  Cu  Cu18  1  0.147700  0.775360  0.421480  1.0  0.1293
  Cu  Cu19  1  0.783970  0.512360  0.224420  1.0  0.1552
  Cu  Cu20  1  0.875920  0.705550  0.046030  1.0  0.1514
  Cu  Cu21  1  0.180000  0.370100  0.957140  1.0  0.1388
  Cu  Cu22  1  0.167290  0.851030  0.483090  1.0  0.1298
  Cu  Cu23  1  0.689900  0.649600  0.611600  1.0  0.1547
  Cu  Cu24  1  0.189900  0.388400  0.350400  1.0  0.1537
  Cu  Cu25  1  0.222240  0.934040  0.882500  1.0  0.122
  Cu  Cu26  1  0.620890  0.498290  0.216350  1.0  0.1912
  Cu  Cu27  1  0.832710  0.148970  0.516910  1.0  0.1306
  Cu  Cu28  1  0.120890  0.783650  0.501710  1.0  0.1913
  Cu  Cu29  1  0.337040  0.880450  0.301790  1.0  0.1492
  Cu  Cu30  1  0.647700  0.578520  0.224640  1.0  0.1274
  Cu  Cu31  1  0.695530  0.665470  0.698350  1.0  0.1503
  Cu  Cu32  1  0.352300  0.421480  0.775360  1.0  0.1281
  Cu  Cu33  1  0.804470  0.698350  0.665470  1.0  0.1501
  Cu  Cu34  1  0.777760  0.065960  0.117500  1.0  0.1237
  Cu  Cu35  1  0.716030  0.224420  0.512360  1.0  0.1575
  Cu  Cu36  1  0.162960  0.301790  0.880450  1.0  0.1492
  Cu  Cu37  1  0.852300  0.224640  0.578520  1.0  0.1302
  Cu  Cu38  1  0.703800  0.700230  0.053870  1.0  0.1427
  Cu  Cu39  1  0.283970  0.775580  0.487640  1.0  0.1538
  Cu  Cu40  1  0.329300  0.862360  0.856380  1.0  0.1294
  Cu  Cu41  1  0.304470  0.334530  0.301650  1.0  0.1496
  Cu  Cu42  1  0.837040  0.698210  0.119550  1.0  0.1511
  Cu  Cu43  1  0.829300  0.143620  0.137640  1.0  0.129
  Cu  Cu44  1  0.680000  0.042860  0.629900  1.0  0.1395
  Cu  Cu45  1  0.810100  0.611600  0.649600  1.0  0.1546
  Cu  Cu46  1  0.332710  0.483090  0.851030  1.0  0.1303
  Cu  Cu47  1  0.216030  0.487640  0.775580  1.0  0.1573
  Cu  Cu48  1  0.670700  0.137640  0.143620  1.0  0.1293
  H  H49  1  0.977000  0.102200  0.442000  1.0  0.1132
  H  H50  1  0.586900  0.392600  0.521800  1.0  0.1129
  H  H51  1  0.945700  0.753300  0.648500  1.0  0.0975
  H  H52  1  0.313900  0.795800  0.325600  1.0  0.0866
  H  H53  1  0.828900  0.622700  0.316500  1.0  0.0862
  H  H54  1  0.463600  0.847700  0.546900  1.0  0.1029
  H  H55  1  0.573600  0.976800  0.321200  1.0  0.1
  H  H56  1  0.912200  0.375100  0.139700  1.0  0.1053
  H  H57  1  0.572200  0.729700  0.414500  1.0  0.0924
  H  H58  1  0.969200  0.181500  0.224100  1.0  0.114
  H  H59  1  0.954200  0.995200  0.341800  1.0  0.0769
  H  H60  1  0.436200  0.222100  0.236500  1.0  0.0942
  H  H61  1  0.301700  0.789300  0.172100  1.0  0.0983
  H  H62  1  0.358500  0.338900  0.805900  1.0  0.1018
  H  H63  1  0.671100  0.316500  0.622700  1.0  0.0869
  H  H64  1  0.769800  0.052700  0.461700  1.0  0.0954
  H  H65  1  0.470300  0.994500  0.576500  1.0  0.1185
  H  H66  1  0.545800  0.341800  0.995200  1.0  0.0767
  H  H67  1  0.491500  0.407400  0.654800  1.0  0.1097
  H  H68  1  0.153400  0.876800  0.130200  1.0  0.0921
  H  H69  1  0.935100  0.985500  0.742900  1.0  0.1093
  H  H70  1  0.822500  0.986600  0.485800  1.0  0.1257
  H  H71  1  0.945200  0.434700  0.237700  1.0  0.0964
  H  H72  1  0.911700  0.998600  0.222600  1.0  0.1159
  H  H73  1  0.963600  0.453100  0.152300  1.0  0.1049
  H  H74  1  0.171100  0.377300  0.683500  1.0  0.0865
  H  H75  1  0.335500  0.210500  0.703900  1.0  0.1196
  H  H76  1  0.046000  0.374000  0.042400  1.0  0.1071
  H  H77  1  0.523000  0.442000  0.102200  1.0  0.1134
  H  H78  1  0.542900  0.877600  0.064600  1.0  0.1121
  H  H79  1  0.059000  0.227900  0.723900  1.0  0.1095
  H  H80  1  0.616800  0.734900  0.315300  1.0  0.1303
  H  H81  1  0.884300  0.499800  0.113200  1.0  0.1018
  H  H82  1  0.801700  0.827900  0.210700  1.0  0.0976
  H  H83  1  0.625800  0.083700  0.555500  1.0  0.0871
  H  H84  1  0.809500  0.583800  0.395200  1.0  0.1083
  H  H85  1  0.597900  0.733500  0.554500  1.0  0.1239
  H  H86  1  0.609000  0.658200  0.311000  1.0  0.0953
  H  H87  1  0.526700  0.562400  0.831000  1.0  0.0839
  H  H88  1  0.527600  0.722700  0.093500  1.0  0.0942
  H  H89  1  0.123600  0.253100  0.150500  1.0  0.0997
  H  H90  1  0.154200  0.634600  0.968200  1.0  0.1064
  H  H91  1  0.771100  0.975400  0.229000  1.0  0.0773
  H  H92  1  0.848200  0.207700  0.943100  1.0  0.1083
  H  H93  1  0.697300  0.677900  0.508900  1.0  0.111
  H  H94  1  0.530800  0.224100  0.181500  1.0  0.1139
  H  H95  1  0.088300  0.001400  0.777400  1.0  0.116
  H  H96  1  0.416600  0.676800  0.802200  1.0  0.1208
  H  H97  1  0.321600  0.946500  0.747100  1.0  0.1051
  H  H98  1  0.885200  0.770400  0.985000  1.0  0.1193
  H  H99  1  0.045800  0.004800  0.658200  1.0  0.0764
  H  H100  1  0.567000  0.199200  0.769000  1.0  0.0935
  H  H101  1  0.551700  0.513500  0.941900  1.0  0.0994
  H  H102  1  0.155800  0.145700  0.263100  1.0  0.1124
  H  H103  1  0.634200  0.527100  0.720700  1.0  0.1276
  H  H104  1  0.302700  0.322100  0.491100  1.0  0.111
  H  H105  1  0.727700  0.733200  0.793000  1.0  0.0893
  H  H106  1  0.014900  0.758400  0.942600  1.0  0.1037
  H  H107  1  0.346600  0.130200  0.876800  1.0  0.0907
  H  H108  1  0.051700  0.058100  0.486500  1.0  0.0992
  H  H109  1  0.913100  0.521800  0.392600  1.0  0.1131
  H  H110  1  0.338600  0.659100  0.849900  1.0  0.1161
  H  H111  1  0.607000  0.783200  0.150000  1.0  0.1026
  H  H112  1  0.141500  0.805900  0.338900  1.0  0.1032
  H  H113  1  0.448300  0.486500  0.058100  1.0  0.1
  H  H114  1  0.074600  0.136500  0.767500  1.0  0.0895
  H  H115  1  0.933000  0.769000  0.199200  1.0  0.0935
  H  H116  1  0.986200  0.290800  0.501200  1.0  0.0934
  H  H117  1  0.536400  0.152300  0.453100  1.0  0.1022
  H  H118  1  0.381800  0.604200  0.264000  1.0  0.1057
  H  H119  1  0.564900  0.742900  0.985500  1.0  0.1074
  H  H120  1  0.664500  0.789500  0.296100  1.0  0.1211
  H  H121  1  0.463600  0.870300  0.191500  1.0  0.089
  H  H122  1  0.686400  0.283300  0.079300  1.0  0.1027
  H  H123  1  0.829000  0.689300  0.865300  1.0  0.1179
  H  H124  1  0.325900  0.013500  0.889300  1.0  0.1287
  H  H125  1  0.844000  0.618600  0.797600  1.0  0.0966
  H  H126  1  0.116800  0.684700  0.265100  1.0  0.1311
  H  H127  1  0.055500  0.913600  0.435000  1.0  0.0942
  H  H128  1  0.027600  0.906500  0.277300  1.0  0.0934
  H  H129  1  0.554500  0.269400  0.558000  1.0  0.0854
  H  H130  1  0.272300  0.266800  0.207000  1.0  0.0893
  H  H131  1  0.030800  0.818500  0.775900  1.0  0.1131
  H  H132  1  0.411700  0.777400  0.001400  1.0  0.1154
  H  H133  1  0.086900  0.478200  0.607400  1.0  0.1127
  H  H134  1  0.865800  0.720700  0.527100  1.0  0.1274
  H  H135  1  0.473300  0.437600  0.169000  1.0  0.084
  H  H136  1  0.684100  0.552200  0.862600  1.0  0.1111
  H  H137  1  0.315900  0.447800  0.137400  1.0  0.1111
  H  H138  1  0.469200  0.775900  0.818500  1.0  0.115
  H  H139  1  0.800700  0.377600  0.707600  1.0  0.1009
  H  H140  1  0.525800  0.642900  0.532300  1.0  0.1107
  H  H141  1  0.269800  0.538300  0.947300  1.0  0.096
  H  H142  1  0.529700  0.005500  0.423500  1.0  0.1192
  H  H143  1  0.358600  0.332000  0.117200  1.0  0.1098
  H  H144  1  0.319000  0.529400  0.348400  1.0  0.0978
  H  H145  1  0.156000  0.381400  0.202400  1.0  0.0973
  H  H146  1  0.615700  0.113200  0.499800  1.0  0.1017
  H  H147  1  0.227700  0.207000  0.266800  1.0  0.0891
  H  H148  1  0.425400  0.767500  0.136500  1.0  0.089
  H  H149  1  0.073600  0.678800  0.023200  1.0  0.1011
  H  H150  1  0.122700  0.685000  0.843000  1.0  0.0984
  H  H151  1  0.474900  0.383800  0.951000  1.0  0.1144
  H  H152  1  0.008500  0.654800  0.407400  1.0  0.111
  H  H153  1  0.554800  0.237700  0.434700  1.0  0.1008
  H  H154  1  0.348200  0.056900  0.792300  1.0  0.1073
  H  H155  1  0.036400  0.546900  0.847700  1.0  0.1033
  H  H156  1  0.184100  0.137400  0.447800  1.0  0.1104
  H  H157  1  0.686100  0.204200  0.674400  1.0  0.0875
  H  H158  1  0.036400  0.191500  0.870300  1.0  0.0899
  H  H159  1  0.678400  0.053500  0.252900  1.0  0.1053
  H  H160  1  0.699300  0.707600  0.377600  1.0  0.1016
  H  H161  1  0.822600  0.541400  0.959800  1.0  0.0923
  H  H162  1  0.206900  0.950700  0.607500  1.0  0.0832
  H  H163  1  0.171000  0.310700  0.134700  1.0  0.1172
  H  H164  1  0.309500  0.604800  0.416200  1.0  0.1084
  H  H165  1  0.772600  0.571800  0.536200  1.0  0.1435
  H  H166  1  0.109700  0.239800  0.664200  1.0  0.107
  H  H167  1  0.178400  0.747100  0.946500  1.0  0.1054
  H  H168  1  0.444500  0.435000  0.913600  1.0  0.095
  H  H169  1  0.282800  0.410700  0.241500  1.0  0.1082
  H  H170  1  0.390300  0.664200  0.239800  1.0  0.1069
  H  H171  1  0.845800  0.365400  0.031800  1.0  0.1058
  H  H172  1  0.661400  0.340900  0.150100  1.0  0.1137
  H  H173  1  0.239400  0.090800  0.907600  1.0  0.1102
  H  H174  1  0.514900  0.057400  0.241600  1.0  0.1027
  H  H175  1  0.377700  0.877900  0.772900  1.0  0.0972
  H  H176  1  0.937700  0.985900  0.122500  1.0  0.0928
  H  H177  1  0.426400  0.023200  0.678800  1.0  0.1002
  H  H178  1  0.103900  0.828300  0.278500  1.0  0.119
  H  H179  1  0.935300  0.929400  0.648800  1.0  0.1004
  H  H180  1  0.656000  0.797600  0.618600  1.0  0.0966
  H  H181  1  0.618200  0.395800  0.736000  1.0  0.1052
  H  H182  1  0.583400  0.323200  0.197800  1.0  0.119
  H  H183  1  0.412200  0.860300  0.624900  1.0  0.1039
  H  H184  1  0.612200  0.595200  0.407200  1.0  0.1098
  H  H185  1  0.190500  0.416200  0.604800  1.0  0.1076
  H  H186  1  0.445500  0.730600  0.442000  1.0  0.0855
  H  H187  1  0.383200  0.265100  0.684700  1.0  0.1309
  H  H188  1  0.957100  0.064600  0.877600  1.0  0.1108
  H  H189  1  0.164500  0.703900  0.210500  1.0  0.118
  H  H190  1  0.023000  0.897800  0.558000  1.0  0.1139
  H  H191  1  0.614800  0.985000  0.770400  1.0  0.1165
  H  H192  1  0.844200  0.854300  0.736900  1.0  0.1113
  H  H193  1  0.513800  0.501200  0.290800  1.0  0.0926
  H  H194  1  0.155900  0.727500  0.149700  1.0  0.0913
  H  H195  1  0.376400  0.150500  0.253100  1.0  0.1001
  H  H196  1  0.344000  0.202400  0.381400  1.0  0.096
  H  H197  1  0.927800  0.414500  0.729700  1.0  0.0948
  H  H198  1  0.564700  0.648800  0.929400  1.0  0.1018
  H  H199  1  0.813900  0.674400  0.204200  1.0  0.0864
  H  H200  1  0.883200  0.315300  0.734900  1.0  0.13
  H  H201  1  0.925400  0.863500  0.232500  1.0  0.0898
  H  H202  1  0.846600  0.123200  0.869800  1.0  0.0922
  H  H203  1  0.819000  0.651600  0.470600  1.0  0.0979
  H  H204  1  0.118200  0.264000  0.604200  1.0  0.1068
  H  H205  1  0.651800  0.943100  0.207700  1.0  0.1079
  H  H206  1  0.838600  0.150100  0.340900  1.0  0.116
  H  H207  1  0.134200  0.279300  0.472900  1.0  0.127
  H  H208  1  0.230200  0.947300  0.538300  1.0  0.0962
  H  H209  1  0.377300  0.843000  0.685000  1.0  0.0975
  H  H210  1  0.674100  0.986500  0.110700  1.0  0.1275
  H  H211  1  0.727400  0.536200  0.571800  1.0  0.1434
  H  H212  1  0.472400  0.277300  0.906500  1.0  0.0936
  H  H213  1  0.125800  0.444500  0.916300  1.0  0.0878
  H  H214  1  0.717200  0.589300  0.758500  1.0  0.1089
  H  H215  1  0.151800  0.792300  0.056900  1.0  0.1083
  H  H216  1  0.067000  0.231000  0.800800  1.0  0.0938
  H  H217  1  0.486200  0.498800  0.709200  1.0  0.0932
  H  H218  1  0.097900  0.445500  0.266500  1.0  0.1233
  H  H219  1  0.181000  0.348400  0.529400  1.0  0.0985
  H  H220  1  0.859400  0.864200  0.119400  1.0  0.0981
  H  H221  1  0.881800  0.736000  0.395800  1.0  0.1074
  H  H222  1  0.293100  0.607500  0.950700  1.0  0.0825
  H  H223  1  0.413100  0.607400  0.478200  1.0  0.1133
  H  H224  1  0.457100  0.122400  0.935400  1.0  0.1123
  H  H225  1  0.433000  0.800800  0.231000  1.0  0.0934
  H  H226  1  0.158800  0.356800  0.743400  1.0  0.1178
  H  H227  1  0.396100  0.278500  0.828300  1.0  0.1205
  H  H228  1  0.891000  0.311000  0.658200  1.0  0.0959
  H  H229  1  0.858500  0.194100  0.661100  1.0  0.1039
  H  H230  1  0.344200  0.263100  0.145700  1.0  0.1126
  H  H231  1  0.641400  0.668000  0.882800  1.0  0.1092
  H  H232  1  0.793100  0.049300  0.392500  1.0  0.0835
  H  H233  1  0.109000  0.689000  0.341800  1.0  0.0968
  H  H234  1  0.313600  0.716700  0.920700  1.0  0.1033
  H  H235  1  0.622700  0.157000  0.315000  1.0  0.0968
  H  H236  1  0.300700  0.292400  0.622400  1.0  0.1013
  H  H237  1  0.677500  0.485800  0.986600  1.0  0.1261
  H  H238  1  0.728900  0.229000  0.975400  1.0  0.0778
  H  H239  1  0.883100  0.469700  0.968500  1.0  0.1128
  H  H240  1  0.435100  0.257100  0.014500  1.0  0.1076
  H  H241  1  0.739400  0.092400  0.909200  1.0  0.1129
  H  H242  1  0.141400  0.117200  0.332000  1.0  0.1077
  H  H243  1  0.140600  0.135800  0.880600  1.0  0.0996
  H  H244  1  0.477000  0.558000  0.897800  1.0  0.114
  H  H245  1  0.970300  0.423500  0.005500  1.0  0.1183
  H  H246  1  0.681000  0.470600  0.651600  1.0  0.0983
  H  H247  1  0.554300  0.648500  0.753300  1.0  0.0987
  H  H248  1  0.782800  0.758500  0.589300  1.0  0.1067
  H  H249  1  0.186100  0.325600  0.795800  1.0  0.0862
  H  H250  1  0.877700  0.227100  0.122100  1.0  0.0969
  H  H251  1  0.926400  0.321200  0.976800  1.0  0.1009
  H  H252  1  0.427800  0.270300  0.585500  1.0  0.0925
  H  H253  1  0.054500  0.442000  0.730600  1.0  0.0861
  H  H254  1  0.042900  0.935400  0.122400  1.0  0.1106
  H  H255  1  0.122300  0.772900  0.877900  1.0  0.0969
  H  H256  1  0.026700  0.169000  0.437600  1.0  0.0847
  H  H257  1  0.760600  0.909200  0.092400  1.0  0.1099
  H  H258  1  0.197300  0.491100  0.322100  1.0  0.1095
  H  H259  1  0.025100  0.951000  0.383800  1.0  0.1123
  H  H260  1  0.174100  0.889300  0.013500  1.0  0.1272
  H  H261  1  0.198300  0.172100  0.789300  1.0  0.0978
  H  H262  1  0.677400  0.959800  0.541400  1.0  0.0926
  H  H263  1  0.671000  0.865300  0.689300  1.0  0.1181
  H  H264  1  0.945500  0.558000  0.269400  1.0  0.0865
  H  H265  1  0.345800  0.968200  0.634600  1.0  0.1079
  H  H266  1  0.698300  0.210700  0.827900  1.0  0.0987
  H  H267  1  0.825900  0.110700  0.986500  1.0  0.1265
  H  H268  1  0.013800  0.709200  0.498800  1.0  0.0922
  H  H269  1  0.954000  0.626000  0.957600  1.0  0.1069
  H  H270  1  0.972400  0.093500  0.722700  1.0  0.0931
  H  H271  1  0.948300  0.941900  0.513500  1.0  0.0994
  H  H272  1  0.858600  0.882800  0.668000  1.0  0.1075
  H  H273  1  0.616900  0.968500  0.469700  1.0  0.1135
  H  H274  1  0.029700  0.576500  0.994500  1.0  0.1173
  H  H275  1  0.653400  0.869800  0.123200  1.0  0.09
  H  H276  1  0.062300  0.014100  0.877500  1.0  0.093
  H  H277  1  0.690500  0.395200  0.583800  1.0  0.1091
  H  H278  1  0.177400  0.458600  0.040200  1.0  0.0913
  H  H279  1  0.563800  0.777900  0.763500  1.0  0.0946
  H  H280  1  0.890300  0.760200  0.335800  1.0  0.1064
  H  H281  1  0.485100  0.942600  0.758400  1.0  0.1031
  H  H282  1  0.985100  0.241600  0.057400  1.0  0.1037
  H  H283  1  0.177500  0.013400  0.514200  1.0  0.1255
  H  H284  1  0.116900  0.530300  0.031500  1.0  0.1133
  H  H285  1  0.384300  0.886800  0.500200  1.0  0.1008
  H  H286  1  0.402100  0.266500  0.445500  1.0  0.1238
  H  H287  1  0.271100  0.771000  0.024600  1.0  0.0786
  H  H288  1  0.064900  0.014500  0.257100  1.0  0.1071
  H  H289  1  0.186400  0.920700  0.716700  1.0  0.1036
  H  H290  1  0.835500  0.296100  0.789500  1.0  0.1185
  H  H291  1  0.114800  0.229600  0.015000  1.0  0.1178
  H  H292  1  0.641500  0.661100  0.194100  1.0  0.1026
  H  H293  1  0.260600  0.907600  0.090800  1.0  0.1121
  H  H294  1  0.874200  0.555500  0.083700  1.0  0.0882
  H  H295  1  0.991500  0.345200  0.592600  1.0  0.1103
  H  H296  1  0.588300  0.222600  0.998600  1.0  0.116
  H  H297  1  0.112200  0.592800  0.404800  1.0  0.1083
  H  H298  1  0.441000  0.723900  0.227900  1.0  0.1095
  H  H299  1  0.896100  0.171700  0.721500  1.0  0.1183
  H  H300  1  0.344100  0.149700  0.727500  1.0  0.0904
  H  H301  1  0.916600  0.197800  0.323200  1.0  0.1217
  H  H302  1  0.437700  0.877500  0.014100  1.0  0.092
  H  H303  1  0.844100  0.272500  0.850300  1.0  0.0901
  H  H304  1  0.474200  0.357100  0.467700  1.0  0.1082
  H  H305  1  0.199300  0.622400  0.292400  1.0  0.1
  H  H306  1  0.877300  0.315000  0.157000  1.0  0.0984
  H  H307  1  0.574600  0.232500  0.863500  1.0  0.0895
  H  H308  1  0.087800  0.624900  0.860300  1.0  0.1051
  H  H309  1  0.772300  0.793000  0.733200  1.0  0.0889
  H  H310  1  0.603900  0.721500  0.171700  1.0  0.1183
  H  H311  1  0.813600  0.079300  0.283300  1.0  0.1041
  H  H312  1  0.322600  0.040200  0.458600  1.0  0.0928
  H  H313  1  0.655900  0.850300  0.272500  1.0  0.0915
  H  H314  1  0.508500  0.592600  0.345200  1.0  0.1091
  H  H315  1  0.973300  0.831000  0.562400  1.0  0.085
  H  H316  1  0.876400  0.746900  0.849500  1.0  0.1002
  H  H317  1  0.814300  0.577500  0.898700  1.0  0.0856
  H  H318  1  0.072200  0.585500  0.270300  1.0  0.095
  H  H319  1  0.341200  0.743400  0.356800  1.0  0.1184
  H  H320  1  0.525100  0.616200  0.049000  1.0  0.1142
  H  H321  1  0.454000  0.042400  0.374000  1.0  0.1069
  H  H322  1  0.815900  0.862600  0.552200  1.0  0.1104
  H  H323  1  0.387800  0.404800  0.592800  1.0  0.1106
  H  H324  1  0.064700  0.070600  0.351200  1.0  0.0996
  H  H325  1  0.314300  0.101300  0.422500  1.0  0.0842
  H  H326  1  0.107000  0.850000  0.216800  1.0  0.1035
  H  H327  1  0.902100  0.554500  0.733500  1.0  0.1234
  H  H328  1  0.025800  0.467700  0.357100  1.0  0.1075
  H  H329  1  0.374200  0.916300  0.444500  1.0  0.0871
  H  H330  1  0.054800  0.565300  0.762300  1.0  0.0977
  H  H331  1  0.329000  0.134700  0.310700  1.0  0.1185
  H  H332  1  0.454200  0.658200  0.004800  1.0  0.0771
  H  H333  1  0.623600  0.849500  0.746900  1.0  0.1002
  H  H334  1  0.936200  0.763500  0.777900  1.0  0.0939
  H  H335  1  0.393000  0.216800  0.850000  1.0  0.1019
  H  H336  1  0.559000  0.276100  0.772100  1.0  0.1098
  H  H337  1  0.893000  0.150000  0.783200  1.0  0.1032
  H  H338  1  0.063800  0.236500  0.222100  1.0  0.0934
  H  H339  1  0.272600  0.463800  0.428200  1.0  0.1449
  H  H340  1  0.609700  0.335800  0.760200  1.0  0.1063
  H  H341  1  0.228900  0.024600  0.771000  1.0  0.0772
  H  H342  1  0.161400  0.849900  0.659100  1.0  0.1149
  H  H343  1  0.655800  0.736900  0.854300  1.0  0.1125
  H  H344  1  0.365800  0.472900  0.279300  1.0  0.1282
  H  H345  1  0.654200  0.031800  0.365400  1.0  0.1081
  H  H346  1  0.322500  0.514200  0.013400  1.0  0.1253
  H  H347  1  0.963600  0.808500  0.129700  1.0  0.0896
  H  H348  1  0.658800  0.256600  0.643200  1.0  0.1178
  H  H349  1  0.555500  0.565000  0.086400  1.0  0.0948
  H  H350  1  0.944500  0.086400  0.565000  1.0  0.0949
  H  H351  1  0.546000  0.957600  0.626000  1.0  0.1067
  H  H352  1  0.383100  0.031500  0.530300  1.0  0.1134
  H  H353  1  0.445200  0.762300  0.565300  1.0  0.0972
  H  H354  1  0.391000  0.341800  0.689000  1.0  0.0958
  H  H355  1  0.054300  0.246700  0.351500  1.0  0.0988
  H  H356  1  0.841200  0.643200  0.256600  1.0  0.1173
  H  H357  1  0.974900  0.049000  0.616200  1.0  0.1126
  H  H358  1  0.730200  0.461700  0.052700  1.0  0.0964
  H  H359  1  0.640600  0.119400  0.864200  1.0  0.0965
  H  H360  1  0.887800  0.407200  0.595200  1.0  0.1079
  H  H361  1  0.359400  0.880600  0.135800  1.0  0.0959
  H  H362  1  0.115700  0.500200  0.886800  1.0  0.1017
  H  H363  1  0.562300  0.122500  0.985900  1.0  0.093
  H  H364  1  0.622300  0.122100  0.227100  1.0  0.0977
  H  H365  1  0.227400  0.428200  0.463800  1.0  0.1418
  H  H366  1  0.435300  0.351200  0.070600  1.0  0.1019
  H  H367  1  0.083400  0.802200  0.676800  1.0  0.1212
  H  H368  1  0.385200  0.015000  0.229600  1.0  0.1165
  H  H369  1  0.974200  0.532300  0.642900  1.0  0.1082
  H  H370  1  0.802700  0.508900  0.677900  1.0  0.109
  H  H371  1  0.587800  0.139700  0.375100  1.0  0.1039
  H  H372  1  0.821600  0.252900  0.053500  1.0  0.1053
  H  H373  1  0.185700  0.422500  0.101300  1.0  0.0863
  H  H374  1  0.445700  0.351500  0.246700  1.0  0.0989
  H  H375  1  0.685700  0.898700  0.577500  1.0  0.084
  H  H376  1  0.536400  0.129700  0.808500  1.0  0.0896
  H  H377  1  0.941000  0.772100  0.276100  1.0  0.1101
  H  H378  1  0.328900  0.683500  0.377300  1.0  0.0857
  H  H379  1  0.217200  0.241500  0.410700  1.0  0.1067
  H  H380  1  0.706900  0.392500  0.049300  1.0  0.0825
  C  C381  1  0.131300  0.457400  0.946600  1.0  0.1248
  C  C382  1  0.629100  0.397200  0.585600  1.0  -0.1102
  C  C383  1  0.343600  0.962000  0.694800  1.0  0.2377
  C  C384  1  0.888800  0.688200  0.861000  1.0  -0.1774
  C  C385  1  0.480700  0.102400  0.410800  1.0  0.2002
  C  C386  1  0.428400  0.942000  0.532200  1.0  0.2115
  C  C387  1  0.366000  0.330500  0.776100  1.0  0.1149
  C  C388  1  0.982600  0.834100  0.127700  1.0  -0.1412
  C  C389  1  0.147600  0.748200  0.176600  1.0  -0.141
  C  C390  1  0.872900  0.717100  0.367500  1.0  -0.1398
  C  C391  1  0.053700  0.892400  0.651200  1.0  0.1972
  C  C392  1  0.880300  0.290400  0.710800  1.0  -0.147
  C  C393  1  0.841500  0.535400  0.987000  1.0  0.0679
  C  C394  1  0.202000  0.718300  0.946900  1.0  -0.1423
  C  C395  1  0.300600  0.299300  0.596100  1.0  -0.1213
  C  C396  1  0.368700  0.772300  0.120700  1.0  -0.06
  C  C397  1  0.579600  0.666100  0.875700  1.0  -0.1448
  C  C398  1  0.467000  0.456800  0.045200  1.0  -0.1452
  C  C399  1  0.182700  0.207300  0.283500  1.0  0.0292
  C  C400  1  0.289200  0.117600  0.791800  1.0  0.1489
  C  C401  1  0.777600  0.945200  0.225600  1.0  -0.1105
  C  C402  1  0.355200  0.281500  0.174100  1.0  -0.1016
  C  C403  1  0.547100  0.238400  0.981800  1.0  -0.1061
  C  C404  1  0.684500  0.569900  0.808300  1.0  0.1513
  C  C405  1  0.938100  0.750900  0.987300  1.0  0.0902
  C  C406  1  0.967700  0.447100  0.122300  1.0  -0.1473
  C  C407  1  0.376400  0.293600  0.535400  1.0  0.1659
  C  C408  1  0.368700  0.946600  0.457400  1.0  0.1252
  C  C409  1  0.722400  0.225600  0.945200  1.0  -0.1151
  C  C410  1  0.158700  0.399400  0.147000  1.0  0.1908
  C  C411  1  0.486700  0.202200  0.227800  1.0  -0.0501
  C  C412  1  0.111200  0.311800  0.139000  1.0  -0.1808
  C  C413  1  0.769900  0.051500  0.364300  1.0  -0.1331
  C  C414  1  0.156400  0.694800  0.962000  1.0  0.2382
  C  C415  1  0.546100  0.388000  0.052000  1.0  0.1775
  C  C416  1  0.817300  0.792700  0.716500  1.0  0.0308
  C  C417  1  0.512700  0.515600  0.736000  1.0  0.038
  C  C418  1  0.989200  0.627800  0.404400  1.0  -0.1942
  C  C419  1  0.915200  0.222200  0.147000  1.0  0.0849
  C  C420  1  0.311800  0.513600  0.949000  1.0  0.0547
  C  C421  1  0.342800  0.679800  0.349000  1.0  -0.1106
  C  C422  1  0.298000  0.946900  0.718300  1.0  -0.1408
  C  C423  1  0.522400  0.601500  0.448500  1.0  0.2853
  C  C424  1  0.010700  0.744200  0.963600  1.0  -0.0261
  C  C425  1  0.967000  0.954800  0.543200  1.0  -0.146
  C  C426  1  0.840700  0.014400  0.499000  1.0  -0.1383
  C  C427  1  0.632300  0.290100  0.703900  1.0  0.117
  C  C428  1  0.184500  0.191700  0.430100  1.0  0.1525
  C  C429  1  0.900700  0.143600  0.339800  1.0  -0.199
  C  C430  1  0.535300  0.549700  0.801500  1.0  0.1825
  C  C431  1  0.270900  0.579700  0.322300  1.0  0.1203
  C  C432  1  0.730700  0.459200  0.668400  1.0  -0.1175
  C  C433  1  0.632200  0.749700  0.236300  1.0  0.0297
  C  C434  1  0.340700  0.501000  0.985600  1.0  -0.1398
  C  C435  1  0.980700  0.589200  0.897600  1.0  0.1994
  C  C436  1  0.210800  0.791800  0.117600  1.0  0.1484
  C  C437  1  0.078500  0.524900  0.900900  1.0  -0.1544
  C  C438  1  0.965200  0.195800  0.202200  1.0  -0.0516
  C  C439  1  0.317300  0.283500  0.207300  1.0  0.0287
  C  C440  1  0.593500  0.542500  0.069900  1.0  0.1046
  C  C441  1  0.716900  0.299700  0.068100  1.0  -0.1668
  C  C442  1  0.157200  0.349000  0.679800  1.0  -0.1097
  C  C443  1  0.914800  0.751500  0.252100  1.0  -0.1333
  C  C444  1  0.378700  0.668400  0.268600  1.0  -0.1452
  C  C445  1  0.861300  0.925000  0.234000  1.0  0.1815
  C  C446  1  0.987300  0.736000  0.515600  1.0  0.0379
  C  C447  1  0.519300  0.897600  0.589200  1.0  0.1998
  C  C448  1  0.465800  0.345600  0.096800  1.0  -0.1443
  C  C449  1  0.974100  0.090900  0.876500  1.0  -0.1414
  C  C450  1  0.971500  0.429900  0.035900  1.0  -0.1454
  C  C451  1  0.188700  0.395400  0.189600  1.0  -0.1239
  C  C452  1  0.793700  0.581000  0.870600  1.0  -0.1147
  C  C453  1  0.657200  0.320200  0.651000  1.0  -0.1091
  C  C454  1  0.904400  0.741700  0.530700  1.0  -0.08
  C  C455  1  0.619700  0.710800  0.290400  1.0  -0.1454
  C  C456  1  0.033000  0.045200  0.456800  1.0  -0.1447
  C  C457  1  0.057800  0.094700  0.879300  1.0  0.074
  C  C458  1  0.735300  0.588300  0.787700  1.0  -0.1
  C  C459  1  0.464500  0.734000  0.472000  1.0  0.1191
  C  C460  1  0.283100  0.700300  0.931900  1.0  -0.167
  C  C461  1  0.552000  0.559800  0.998800  1.0  0.1584
  C  C462  1  0.550700  0.597100  0.409100  1.0  -0.1726
  C  C463  1  0.035300  0.198500  0.450300  1.0  0.1778
  C  C464  1  0.204000  0.141600  0.785000  1.0  -0.055
  C  C465  1  0.399300  0.598500  0.374900  1.0  0.2375
  C  C466  1  0.132200  0.763700  0.250300  1.0  0.0296
  C  C467  1  0.589400  0.670200  0.770200  1.0  0.1668
  C  C468  1  0.483300  0.057800  0.400800  1.0  -0.1622
  C  C469  1  0.235300  0.212300  0.411700  1.0  -0.0975
  C  C470  1  0.543500  0.991230  0.300370  1.0  0.1468
  C  C471  1  0.800600  0.403900  0.700700  1.0  -0.1189
  C  C472  1  0.373600  0.008800  0.504600  1.0  -0.1319
  C  C473  1  0.873600  0.495400  0.991200  1.0  -0.1321
  C  C474  1  0.063600  0.684700  0.847500  1.0  -0.1239
  C  C475  1  0.076600  0.476100  0.376900  1.0  0.1267
  C  C476  1  0.868700  0.879300  0.227700  1.0  -0.0611
  C  C477  1  0.866200  0.210200  0.822400  1.0  0.1822
  C  C478  1  0.043500  0.699630  0.008770  1.0  0.1529
  C  C479  1  0.561900  0.987300  0.750900  1.0  0.0956
  C  C480  1  0.465200  0.797800  0.804200  1.0  -0.049
  C  C481  1  0.942200  0.905300  0.120700  1.0  0.0671
  C  C482  1  0.230700  0.331600  0.540800  1.0  -0.1171
  C  C483  1  0.017400  0.165900  0.872300  1.0  -0.1452
  C  C484  1  0.947000  0.171500  0.328500  1.0  -0.1458
  C  C485  1  0.704000  0.215000  0.858400  1.0  -0.0557
  C  C486  1  0.910600  0.770200  0.670200  1.0  0.1676
  C  C487  1  0.730100  0.364300  0.051500  1.0  -0.1411
  C  C488  1  0.710800  0.882400  0.208200  1.0  0.1485
  C  C489  1  0.349600  0.212100  0.733900  1.0  -0.217
  C  C490  1  0.489200  0.595600  0.372200  1.0  -0.1926
  C  C491  1  0.611200  0.861000  0.688200  1.0  -0.1795
  C  C492  1  0.019300  0.410800  0.102400  1.0  0.2006
  C  C493  1  0.032300  0.552900  0.877700  1.0  -0.1495
  C  C494  1  0.388800  0.139000  0.311800  1.0  -0.1782
  C  C495  1  0.127100  0.282900  0.632500  1.0  -0.1375
  C  C496  1  0.150400  0.733900  0.212100  1.0  -0.2166
  C  C497  1  0.489300  0.963600  0.744200  1.0  -0.0222
  C  C498  1  0.644600  0.362400  0.678000  1.0  0.2292
  C  C499  1  0.659300  0.499000  0.014400  1.0  -0.1362
  C  C500  1  0.474100  0.123500  0.909100  1.0  -0.1374
  C  C501  1  0.116000  0.807300  0.252100  1.0  -0.0823
  C  C502  1  0.688200  0.486400  0.051000  1.0  0.0553
  C  C503  1  0.729100  0.420300  0.677700  1.0  0.1209
  C  C504  1  0.366200  0.177600  0.789800  1.0  0.1813
  C  C505  1  0.998600  0.279900  0.156700  1.0  0.1553
  C  C506  1  0.989300  0.255800  0.036400  1.0  -0.0287
  C  C507  1  0.012700  0.264000  0.484400  1.0  0.039
  C  C508  1  0.965800  0.903200  0.654400  1.0  -0.1429
  C  C509  1  0.046100  0.948000  0.612000  1.0  0.1776
  C  C510  1  0.682700  0.716500  0.792700  1.0  0.0279
  C  C511  1  0.410600  0.329800  0.229800  1.0  0.1685
  C  C512  1  0.138700  0.075000  0.766000  1.0  0.1821
  C  C513  1  0.093500  0.930100  0.457500  1.0  0.1058
  C  C514  1  0.571600  0.058000  0.467800  1.0  0.2124
  C  C515  1  0.880700  0.977000  0.118600  1.0  0.0812
  C  C516  1  0.803400  0.481800  0.683400  1.0  -0.174
  C  C517  1  0.517400  0.127700  0.834100  1.0  -0.1408
  C  C518  1  0.644800  0.718500  0.825900  1.0  -0.1003
  C  C519  1  0.284000  0.896600  0.064000  1.0  -0.0906
  C  C520  1  0.188700  0.652100  0.960700  1.0  -0.24
  C  C521  1  0.159300  0.985600  0.501000  1.0  -0.1415
  C  C522  1  0.144600  0.322000  0.637600  1.0  0.2299
  C  C523  1  0.516700  0.942200  0.599200  1.0  -0.1639
  C  C524  1  0.811300  0.604600  0.810400  1.0  -0.1249
  C  C525  1  0.557800  0.120700  0.905300  1.0  0.0694
  C  C526  1  0.013300  0.227800  0.202200  1.0  -0.0496
  C  C527  1  0.678500  0.343000  0.067000  1.0  0.1909
  C  C528  1  0.084800  0.777800  0.853000  1.0  0.0865
  C  C529  1  0.672100  0.571700  0.482700  1.0  -0.0398
  C  C530  1  0.855400  0.678000  0.362400  1.0  0.2304
  C  C531  1  0.367700  0.709900  0.296100  1.0  0.1179
  C  C532  1  0.936400  0.315300  0.152500  1.0  -0.1202
  C  C533  1  0.538300  0.742900  0.009700  1.0  -0.0131
  C  C534  1  0.567500  0.395600  0.548800  1.0  -0.1664
  C  C535  1  0.132300  0.296100  0.709900  1.0  0.1172
  C  C536  1  0.510800  0.404400  0.627800  1.0  -0.1951
  C  C537  1  0.196600  0.518200  0.316600  1.0  -0.1733
  C  C538  1  0.229100  0.322300  0.579700  1.0  0.1199
  C  C539  1  0.446300  0.651200  0.892400  1.0  0.1963
  C  C540  1  0.878700  0.731400  0.331600  1.0  -0.1495
  C  C541  1  0.199400  0.596100  0.299300  1.0  -0.1184
  C  C542  1  0.119300  0.023000  0.881400  1.0  0.0745
  C  C543  1  0.082800  0.278200  0.149000  1.0  -0.1833
  C  C544  1  0.067500  0.451200  0.604400  1.0  -0.1703
  C  C545  1  0.920400  0.875700  0.666100  1.0  -0.1471
  C  C546  1  0.928300  0.164500  0.869300  1.0  0.2818
  C  C547  1  0.533000  0.543200  0.954800  1.0  -0.1446
  C  C548  1  0.699400  0.700700  0.403900  1.0  -0.1219
  C  C549  1  0.963900  0.839200  0.674800  1.0  0.146
  C  C550  1  0.964700  0.801500  0.549700  1.0  0.1778
  C  C551  1  0.409300  0.790300  0.250500  1.0  0.0467
  C  C552  1  0.784000  0.936000  0.103400  1.0  -0.091
  C  C553  1  0.134000  0.776100  0.330500  1.0  0.1146
  C  C554  1  0.867700  0.703900  0.290100  1.0  0.1179
  C  C555  1  0.461700  0.257100  0.990300  1.0  -0.0136
  C  C556  1  0.907200  0.126400  0.871600  1.0  -0.1509
  C  C557  1  0.986200  0.071600  0.430600  1.0  -0.2169
  C  C558  1  0.028500  0.570100  0.964100  1.0  -0.1427
  C  C559  1  0.617300  0.668600  0.287800  1.0  0.0223
  C  C560  1  0.341500  0.013000  0.464600  1.0  0.0674
  C  C561  1  0.631300  0.227700  0.879300  1.0  -0.0594
  C  C562  1  0.264700  0.411700  0.212300  1.0  -0.0999
  C  C563  1  0.525900  0.876500  0.090900  1.0  -0.1344
  C  C564  1  0.563600  0.152500  0.315300  1.0  -0.1275
  C  C565  1  0.986700  0.772200  0.797800  1.0  -0.0476
  C  C566  1  0.447000  0.671500  0.828500  1.0  -0.1419
  C  C567  1  0.546300  0.864600  0.651800  1.0  0.139
  C  C568  1  0.372900  0.632500  0.282900  1.0  -0.1351
  C  C569  1  0.473000  0.628400  0.992200  1.0  -0.1408
  C  C570  1  0.921500  0.475100  0.099100  1.0  -0.1551
  C  C571  1  0.453700  0.135400  0.348200  1.0  0.1387
  C  C572  1  0.584800  0.147000  0.222200  1.0  0.0842
  C  C573  1  0.510700  0.036400  0.255800  1.0  -0.0238
  C  C574  1  0.631300  0.053400  0.542600  1.0  0.1246
  C  C575  1  0.517100  0.604300  0.018500  1.0  -0.1933
  C  C576  1  0.035500  0.472000  0.734000  1.0  0.1188
  C  C577  1  0.882700  0.287800  0.668600  1.0  0.0222
  C  C578  1  0.532300  0.122300  0.447100  1.0  -0.1488
  C  C579  1  0.126400  0.504600  0.008800  1.0  -0.1323
  C  C580  1  0.982900  0.018500  0.604300  1.0  -0.1922
  C  C581  1  0.436400  0.847500  0.684700  1.0  -0.1228
  C  C582  1  0.380300  0.289200  0.709600  1.0  -0.1531
  C  C583  1  0.027000  0.992200  0.628400  1.0  -0.1446
  C  C584  1  0.442200  0.879300  0.094700  1.0  0.0637
  C  C585  1  0.216900  0.931900  0.700300  1.0  -0.1648
  C  C586  1  0.796000  0.858400  0.215000  1.0  -0.0543
  C  C587  1  0.361300  0.766000  0.075000  1.0  0.1817
  C  C588  1  0.688700  0.039300  0.347900  1.0  -0.2411
  C  C589  1  0.917200  0.721800  0.851000  1.0  -0.1844
  C  C590  1  0.099300  0.856400  0.660200  1.0  -0.1988
  C  C591  1  0.899300  0.625100  0.401500  1.0  0.2366
  C  C592  1  0.016700  0.400800  0.057800  1.0  -0.1625
  C  C593  1  0.341300  0.147000  0.399400  1.0  0.1905
  C  C594  1  0.452900  0.761600  0.018200  1.0  -0.1038
  C  C595  1  0.845900  0.698600  0.212400  1.0  0.1532
  C  C596  1  0.961700  0.009700  0.742900  1.0  -0.0145
  C  C597  1  0.090700  0.250500  0.790300  1.0  0.0445
  C  C598  1  0.656400  0.038000  0.305200  1.0  0.2263
  C  C599  1  0.428300  0.130700  0.835500  1.0  0.2821
  C  C600  1  0.811300  0.347900  0.039300  1.0  -0.2393
  C  C601  1  0.716000  0.103400  0.936000  1.0  -0.0871
  C  C602  1  0.928400  0.467800  0.058000  1.0  0.2106
  C  C603  1  0.654100  0.212400  0.698600  1.0  0.1481
  C  C604  1  0.579700  0.122300  0.867500  1.0  -0.1835
  C  C605  1  0.158500  0.464600  0.013000  1.0  0.068
  C  C606  1  0.849600  0.266100  0.787900  1.0  -0.215
  C  C607  1  0.706300  0.870600  0.581000  1.0  -0.1183
  C  C608  1  0.946300  0.107600  0.348800  1.0  0.1967
  C  C609  1  0.415200  0.853000  0.777800  1.0  0.0791
  C  C610  1  0.571700  0.869300  0.164500  1.0  0.2822
  C  C611  1  0.292700  0.073500  0.786700  1.0  -0.1693
  C  C612  1  0.650400  0.787900  0.266100  1.0  -0.2183
  C  C613  1  0.382600  0.215500  0.820100  1.0  -0.1256
  C  C614  1  0.517500  0.731700  0.067700  1.0  0.1707
  C  C615  1  0.010800  0.372200  0.595600  1.0  -0.197
  C  C616  1  0.870900  0.585600  0.397200  1.0  -0.1125
  C  C617  1  0.465600  0.751000  0.537800  1.0  0.0407
  C  C618  1  0.595600  0.530700  0.741700  1.0  -0.0772
  C  C619  1  0.121300  0.268600  0.668400  1.0  -0.1489
  C  C620  1  0.592800  0.871600  0.126400  1.0  -0.1487
  C  C621  1  0.053000  0.828500  0.671500  1.0  -0.1461
  C  C622  1  0.876400  0.464600  0.706400  1.0  0.1651
  C  C623  1  0.909300  0.749500  0.209700  1.0  0.0452
  C  C624  1  0.315500  0.430100  0.191700  1.0  0.1506
  C  C625  1  0.471500  0.964100  0.570100  1.0  -0.1442
  C  C626  1  0.044700  0.648900  0.857900  1.0  -0.17
  C  C627  1  0.633800  0.822400  0.210200  1.0  0.1806
  C  C628  1  0.616000  0.747900  0.192700  1.0  -0.0804
  C  C629  1  0.046300  0.348200  0.135400  1.0  0.1391
  C  C630  1  0.423400  0.376900  0.476100  1.0  0.1322
  C  C631  1  0.815500  0.808300  0.569900  1.0  0.1519
  C  C632  1  0.534400  0.249000  0.462200  1.0  0.0391
  C  C633  1  0.349200  0.715300  0.337300  1.0  -0.2282
  C  C634  1  0.867800  0.236300  0.749700  1.0  0.0294
  C  C635  1  0.384000  0.252100  0.807300  1.0  -0.0805
  C  C636  1  0.528500  0.035900  0.429900  1.0  -0.1444
  C  C637  1  0.216000  0.064000  0.896600  1.0  -0.09
  C  C638  1  0.553000  0.328500  0.171500  1.0  -0.1417
  C  C639  1  0.455300  0.857900  0.648900  1.0  -0.1692
  C  C640  1  0.432500  0.604400  0.451200  1.0  -0.1705
  C  C641  1  0.050700  0.590900  0.402900  1.0  -0.1727
  C  C642  1  0.277600  0.774400  0.054800  1.0  -0.1141
  C  C643  1  0.352400  0.176600  0.748200  1.0  -0.1472
  C  C644  1  0.696600  0.683400  0.481800  1.0  -0.1722
  C  C645  1  0.123600  0.535400  0.293600  1.0  0.166
  C  C646  1  0.071700  0.835500  0.130700  1.0  0.2819
  C  C647  1  0.417200  0.149000  0.278200  1.0  -0.1805
  C  C648  1  0.407200  0.128400  0.873600  1.0  -0.1485
  C  C649  1  0.079700  0.132500  0.877700  1.0  -0.1855
  C  C650  1  0.688700  0.810400  0.604600  1.0  -0.1218
  C  C651  1  0.600700  0.401500  0.625100  1.0  0.237
  C  C652  1  0.964500  0.528000  0.266000  1.0  0.1175
  C  C653  1  0.977600  0.448500  0.601500  1.0  0.2847
  C  C654  1  0.117300  0.712200  0.331400  1.0  0.0223
  C  C655  1  0.498600  0.843300  0.720100  1.0  0.1566
  C  C656  1  0.501400  0.156700  0.279900  1.0  0.1562
  C  C657  1  0.658500  0.987000  0.535400  1.0  0.0675
  C  C658  1  0.119700  0.709600  0.289200  1.0  -0.1467
  C  C659  1  0.123700  0.573400  0.285400  1.0  -0.1339
  C  C660  1  0.535500  0.266000  0.528000  1.0  0.1192
  C  C661  1  0.623600  0.706400  0.464600  1.0  0.1663
  C  C662  1  0.534800  0.202200  0.195800  1.0  -0.0499
  C  C663  1  0.789200  0.208200  0.882400  1.0  0.1471
  C  C664  1  0.627100  0.367500  0.717100  1.0  -0.1333
  C  C665  1  0.513300  0.797800  0.772200  1.0  -0.0497
  C  C666  1  0.843600  0.305200  0.038000  1.0  0.2269
  C  C667  1  0.953900  0.052000  0.388000  1.0  0.1775
  C  C668  1  0.764000  0.110300  0.977700  1.0  -0.0497
  C  C669  1  0.034800  0.804200  0.797800  1.0  -0.0499
  C  C670  1  0.949300  0.409100  0.597100  1.0  -0.1719
  C  C671  1  0.527000  0.371600  0.007800  1.0  -0.1401
  C  C672  1  0.117400  0.820100  0.215500  1.0  -0.1209
  C  C673  1  0.482500  0.268300  0.932300  1.0  0.174
  C  C674  1  0.382700  0.331400  0.712200  1.0  0.0209
  C  C675  1  0.406500  0.457500  0.930100  1.0  0.1053
  C  C676  1  0.599300  0.339800  0.143600  1.0  -0.1977
  C  C677  1  0.150800  0.337300  0.715300  1.0  -0.234
  C  C678  1  0.811800  0.051000  0.486400  1.0  0.0554
  C  C679  1  0.544700  0.142100  0.351100  1.0  -0.1717
  C  C680  1  0.414800  0.747900  0.248500  1.0  -0.1337
  C  C681  1  0.178500  0.933000  0.657000  1.0  0.1907
  C  C682  1  0.798000  0.281700  0.053100  1.0  -0.1415
  C  C683  1  0.841300  0.600600  0.853000  1.0  0.19
  C  C684  1  0.623700  0.714600  0.426600  1.0  -0.1324
  C  C685  1  0.188200  0.949000  0.513600  1.0  0.0556
  C  C686  1  0.311300  0.189600  0.395400  1.0  -0.1233
  C  C687  1  0.647600  0.823400  0.251800  1.0  -0.1472
  C  C688  1  0.952900  0.981800  0.238400  1.0  -0.1078
  C  C689  1  0.376300  0.285400  0.573400  1.0  -0.1333
  C  C690  1  0.047100  0.018200  0.761600  1.0  -0.1155
  C  C691  1  0.321500  0.657000  0.933000  1.0  0.1909
  C  C692  1  0.783100  0.068100  0.299700  1.0  -0.1664
  C  C693  1  0.293700  0.129400  0.419000  1.0  -0.1127
  C  C694  1  0.206300  0.419000  0.129400  1.0  -0.112
  C  C695  1  0.089400  0.229800  0.329800  1.0  0.1696
  C  C696  1  0.438100  0.012700  0.249100  1.0  0.0948
  C  C697  1  0.420400  0.333900  0.124300  1.0  -0.1462
  C  C698  1  0.052000  0.001200  0.440200  1.0  0.1593
  C  C699  1  0.534200  0.654400  0.903200  1.0  -0.1445
  C  C700  1  0.852400  0.251800  0.823400  1.0  -0.1421
  C  C701  1  0.230100  0.948500  0.635700  1.0  -0.138
  C  C702  1  0.482600  0.872300  0.165900  1.0  -0.1431
  C  C703  1  0.421500  0.900900  0.524900  1.0  -0.155
  C  C704  1  0.707300  0.926500  0.213300  1.0  -0.1739
  C  C705  1  0.269900  0.635700  0.948500  1.0  -0.137
  C  C706  1  0.716300  0.565800  0.849200  1.0  -0.1822
  C  C707  1  0.017500  0.932300  0.268300  1.0  0.1735
  C  C708  1  0.950900  0.532600  0.735400  1.0  -0.1117
  C  C709  1  0.477600  0.398500  0.551500  1.0  0.2726
  C  C710  1  0.133800  0.789800  0.177600  1.0  0.1838
  C  C711  1  0.456500  0.008770  0.699630  1.0  0.1475
  C  C712  1  0.049100  0.467400  0.264600  1.0  -0.1095
  C  C713  1  0.953700  0.651800  0.864600  1.0  0.1392
  C  C714  1  0.448000  0.440200  0.001200  1.0  0.1591
  C  C715  1  0.214800  0.474100  0.416700  1.0  0.0839
  C  C716  1  0.821500  0.067000  0.343000  1.0  0.1915
  C  C717  1  0.453900  0.612000  0.948000  1.0  0.1774
  C  C718  1  0.355400  0.637600  0.322000  1.0  0.2286
  C  C719  1  0.714800  0.583300  0.525900  1.0  0.0822
  C  C720  1  0.464700  0.450300  0.198500  1.0  0.1833
  C  C721  1  0.071600  0.532200  0.942000  1.0  0.2111
  C  C722  1  0.876300  0.426600  0.714600  1.0  -0.1327
  C  C723  1  0.638700  0.234000  0.925000  1.0  0.1818
  C  C724  1  0.906500  0.069900  0.542500  1.0  0.1062
  C  C725  1  0.783700  0.849200  0.565800  1.0  -0.1789
  C  C726  1  0.311300  0.960700  0.652100  1.0  -0.2398
  C  C727  1  0.549100  0.735400  0.532600  1.0  -0.1109
  C  C728  1  0.264000  0.022300  0.889700  1.0  -0.054
  C  C729  1  0.085200  0.248500  0.747900  1.0  -0.1334
  C  C730  1  0.367800  0.250300  0.763700  1.0  0.0291
  C  C731  1  0.553700  0.348800  0.107600  1.0  0.1984
  C  C732  1  0.269300  0.540800  0.331600  1.0  -0.1193
  C  C733  1  0.884000  0.192700  0.747900  1.0  -0.0802
  C  C734  1  0.013800  0.928400  0.569400  1.0  -0.2165
  C  C735  1  0.868700  0.542600  0.053400  1.0  0.1253
  C  C736  1  0.482900  0.395700  0.981500  1.0  -0.1931
  C  C737  1  0.866000  0.223900  0.669500  1.0  0.115
  C  C738  1  0.144800  0.174100  0.281500  1.0  -0.1044
  C  C739  1  0.955300  0.351100  0.142100  1.0  -0.1727
  C  C740  1  0.513800  0.430600  0.071600  1.0  -0.2179
  C  C741  1  0.849200  0.662700  0.284700  1.0  -0.2328
  C  C742  1  0.467700  0.877700  0.552900  1.0  -0.1523
  C  C743  1  0.129100  0.414400  0.602800  1.0  -0.1126
  C  C744  1  0.095600  0.258300  0.469300  1.0  -0.0785
  C  C745  1  0.154100  0.301400  0.787600  1.0  0.1521
  C  C746  1  0.131300  0.120700  0.772300  1.0  -0.0619
  C  C747  1  0.172100  0.517300  0.428300  1.0  -0.0445
  C  C748  1  0.582800  0.851000  0.721800  1.0  -0.1828
  C  C749  1  0.932500  0.548800  0.395600  1.0  -0.1721
  C  C750  1  0.036100  0.160800  0.325200  1.0  0.1435
  C  C751  1  0.920300  0.867500  0.122300  1.0  -0.1809
  C  C752  1  0.345900  0.787600  0.301400  1.0  0.154
  C  C753  1  0.770900  0.677700  0.420300  1.0  0.1199
  C  C754  1  0.380700  0.881400  0.023000  1.0  0.0848
  C  C755  1  0.827900  0.482700  0.571700  1.0  -0.0407
  C  C756  1  0.842800  0.651000  0.320200  1.0  -0.1143
  C  C757  1  0.702000  0.053100  0.281700  1.0  -0.1411
  C  C758  1  0.590700  0.209700  0.749500  1.0  0.0471
  C  C759  1  0.536100  0.674800  0.839200  1.0  0.1432
  C  C760  1  0.216300  0.150800  0.434200  1.0  -0.1768
  C  C761  1  0.617400  0.784500  0.179900  1.0  -0.1254
  C  C762  1  0.486200  0.569400  0.928400  1.0  -0.2187
  C  C763  1  0.034400  0.537800  0.751000  1.0  0.0372
  C  C764  1  0.882600  0.179900  0.784500  1.0  -0.1293
  C  C765  1  0.025900  0.909100  0.123500  1.0  -0.1353
  C  C766  1  0.487300  0.484400  0.264000  1.0  0.0378
  C  C767  1  0.463900  0.325200  0.160800  1.0  0.145
  C  C768  1  0.222400  0.054800  0.774400  1.0  -0.1111
  C  C769  1  0.965600  0.462200  0.249000  1.0  0.0363
  C  C770  1  0.658700  0.853000  0.600600  1.0  0.1907
  C  C771  1  0.283700  0.434200  0.150800  1.0  -0.1803
  C  C772  1  0.450900  0.264600  0.467400  1.0  -0.1088
  C  C773  1  0.100700  0.374900  0.598500  1.0  0.237
  C  C774  1  0.296000  0.785000  0.141600  1.0  -0.0562
  C  C775  1  0.034200  0.096800  0.345600  1.0  -0.1437
  C  C776  1  0.420300  0.877700  0.132500  1.0  -0.18
  C  C777  1  0.449300  0.402900  0.590900  1.0  -0.1744
  C  C778  1  0.404400  0.469300  0.258300  1.0  -0.0751
  C  C779  1  0.621300  0.331600  0.731400  1.0  -0.1463
  C  C780  1  0.236000  0.889700  0.022300  1.0  -0.0524
  C  C781  1  0.370900  0.602800  0.414400  1.0  -0.1119
  C  C782  1  0.079600  0.124300  0.333900  1.0  -0.1435
  C  C783  1  0.585200  0.252100  0.751500  1.0  -0.1342
  C  C784  1  0.792700  0.213300  0.926500  1.0  -0.1701
  C  C785  1  0.092800  0.873600  0.128400  1.0  -0.1499
  C  C786  1  0.285200  0.416700  0.474100  1.0  0.0811
  C  C787  1  0.038300  0.990300  0.257100  1.0  -0.013
  C  C788  1  0.973000  0.007800  0.371600  1.0  -0.1473
  C  C789  1  0.736000  0.977700  0.110300  1.0  -0.0543
  C  C790  1  0.956500  0.300370  0.991230  1.0  0.1526
  C  C791  1  0.578500  0.099100  0.475100  1.0  -0.1528
  C  C792  1  0.207300  0.786700  0.073500  1.0  -0.1705
  C  C793  1  0.303400  0.316600  0.518200  1.0  -0.1757
  C  C794  1  0.650800  0.284700  0.662700  1.0  -0.2282
  C  C795  1  0.022400  0.551500  0.398500  1.0  0.2755
  C  C796  1  0.764700  0.787700  0.588300  1.0  -0.0969
  C  C797  1  0.983300  0.599200  0.942200  1.0  -0.1625
  C  C798  1  0.619300  0.118600  0.977000  1.0  0.0791
  C  C799  1  0.855200  0.825900  0.718500  1.0  -0.1019
  C  C800  1  0.923400  0.523900  0.623100  1.0  0.1284
  C  C801  1  0.017100  0.981500  0.395700  1.0  -0.1936
  C  C802  1  0.785200  0.525900  0.583300  1.0  0.0848
  C  C803  1  0.001400  0.720100  0.843300  1.0  0.1571
  C  C804  1  0.327900  0.428300  0.517300  1.0  -0.0424
  C  C805  1  0.634000  0.669500  0.223900  1.0  0.1155
  C  C806  1  0.948000  0.998800  0.559800  1.0  0.1593
  C  C807  1  0.982500  0.067700  0.731700  1.0  0.1736
  C  C808  1  0.576600  0.623100  0.523900  1.0  0.1327
  C  C809  1  0.400700  0.660200  0.856400  1.0  -0.1965
  C  C810  1  0.769300  0.668400  0.459200  1.0  -0.1176
  C  C811  1  0.626400  0.991200  0.495400  1.0  -0.134
  C  C812  1  0.061900  0.249100  0.012700  1.0  0.0895
  I  I813  1  0.320170  0.800440  0.891800  1.0  -0.3158
  I  I814  1  0.516370  0.086010  0.651190  1.0  -0.237
  I  I815  1  0.284410  0.904610  0.228270  1.0  -0.26
  I  I816  1  0.179830  0.891800  0.800440  1.0  -0.3163
  I  I817  1  0.483630  0.913990  0.348810  1.0  -0.2345
  I  I818  1  0.715590  0.095390  0.771730  1.0  -0.2614
  I  I819  1  0.784410  0.771730  0.095390  1.0  -0.2624
  I  I820  1  0.205720  0.429600  0.817800  1.0  -0.2956
  I  I821  1  0.893960  0.082620  0.072800  1.0  -0.2114
  I  I822  1  0.309440  0.453390  0.707410  1.0  -0.2881
  I  I823  1  0.606040  0.072800  0.082620  1.0  -0.2152
  I  I824  1  0.634000  0.592110  0.659650  1.0  -0.3503
  I  I825  1  0.016370  0.348810  0.913990  1.0  -0.237
  I  I826  1  0.793140  0.103600  0.648280  1.0  -0.2631
  I  I827  1  0.983630  0.651190  0.086010  1.0  -0.2353
  I  I828  1  0.134000  0.340350  0.407890  1.0  -0.3513
  I  I829  1  0.230080  0.833680  0.558140  1.0  -0.303
  I  I830  1  0.239770  0.336950  0.022190  1.0  -0.2729
  I  I831  1  0.206860  0.896400  0.351720  1.0  -0.262
  I  I832  1  0.123100  0.346690  0.275890  1.0  -0.3367
  I  I833  1  0.004660  0.829000  0.446780  1.0  -0.3196
  I  I834  1  0.376900  0.275890  0.346690  1.0  -0.3372
  I  I835  1  0.269920  0.558140  0.833680  1.0  -0.3074
  I  I836  1  0.504660  0.553220  0.171000  1.0  -0.3195
  I  I837  1  0.623100  0.724110  0.653310  1.0  -0.3358
  I  I838  1  0.809440  0.292590  0.546610  1.0  -0.2889
  I  I839  1  0.294280  0.817800  0.429600  1.0  -0.2955
  I  I840  1  0.393960  0.927200  0.917380  1.0  -0.2144
  I  I841  1  0.769920  0.166320  0.441860  1.0  -0.3021
  I  I842  1  0.495340  0.446780  0.829000  1.0  -0.3198
  I  I843  1  0.760230  0.663050  0.977810  1.0  -0.2731
  I  I844  1  0.739770  0.977810  0.663050  1.0  -0.2727
  I  I845  1  0.215590  0.228270  0.904610  1.0  -0.2619
  I  I846  1  0.995340  0.171000  0.553220  1.0  -0.3195
  I  I847  1  0.690560  0.546610  0.292590  1.0  -0.289
  I  I848  1  0.866000  0.659650  0.592110  1.0  -0.3527
  I  I849  1  0.293140  0.351720  0.896400  1.0  -0.2619
  I  I850  1  0.705720  0.182200  0.570400  1.0  -0.297
  I  I851  1  0.730080  0.441860  0.166320  1.0  -0.3094
  I  I852  1  0.876900  0.653310  0.724110  1.0  -0.3379
  I  I853  1  0.706860  0.648280  0.103600  1.0  -0.2619
  I  I854  1  0.260230  0.022190  0.336950  1.0  -0.2728
  I  I855  1  0.794280  0.570400  0.182200  1.0  -0.2964
  I  I856  1  0.820170  0.108200  0.199560  1.0  -0.3159
  I  I857  1  0.366000  0.407890  0.340350  1.0  -0.3522
  I  I858  1  0.106040  0.917380  0.927200  1.0  -0.211
  I  I859  1  0.190560  0.707410  0.453390  1.0  -0.2928
  I  I860  1  0.679830  0.199560  0.108200  1.0  -0.3157
  N  N861  1  0.850100  0.084800  0.513400  1.0  -0.3293
  N  N862  1  0.306300  0.883400  0.997000  1.0  -0.3505
  N  N863  1  0.344200  0.385000  0.448600  1.0  -0.2687
  N  N864  1  0.524800  0.168400  0.244800  1.0  0.0682
  N  N865  1  0.655800  0.615000  0.551400  1.0  -0.268
  N  N866  1  0.458400  0.984700  0.276700  1.0  -0.3344
  N  N867  1  0.041600  0.276700  0.984700  1.0  -0.3385
  N  N868  1  0.439000  0.753100  0.054700  1.0  0.0478
  N  N869  1  0.912500  0.189700  0.165100  1.0  -0.2847
  N  N870  1  0.871400  0.246400  0.642800  1.0  -0.3682
  N  N871  1  0.634200  0.184200  0.716400  1.0  -0.4109
  N  N872  1  0.152500  0.337000  0.601200  1.0  -0.1383
  N  N873  1  0.913600  0.499000  0.250600  1.0  -0.1905
  N  N874  1  0.693700  0.116600  0.003000  1.0  -0.3467
  N  N875  1  0.372700  0.289100  0.750500  1.0  0.0431
  N  N876  1  0.913300  0.481400  0.596400  1.0  -0.1202
  N  N877  1  0.412500  0.834900  0.810300  1.0  -0.2906
  N  N878  1  0.890200  0.499400  0.035600  1.0  -0.0442
  N  N879  1  0.086700  0.518600  0.403600  1.0  -0.1191
  N  N880  1  0.577500  0.724500  0.042300  1.0  -0.3504
  N  N881  1  0.975200  0.244800  0.168400  1.0  0.0672
  N  N882  1  0.106800  0.214400  0.447600  1.0  0.0376
  N  N883  1  0.587500  0.165100  0.189700  1.0  -0.2955
  N  N884  1  0.075800  0.712550  0.976850  1.0  -0.0977
  N  N885  1  0.146200  0.244600  0.314800  1.0  -0.4086
  N  N886  1  0.125000  0.282300  0.746700  1.0  0.045
  N  N887  1  0.541600  0.015300  0.723300  1.0  -0.3367
  N  N888  1  0.865800  0.716400  0.184200  1.0  -0.4109
  N  N889  1  0.049600  0.511500  0.277300  1.0  0.0259
  N  N890  1  0.939000  0.945300  0.246900  1.0  0.0476
  N  N891  1  0.365600  0.139200  0.803400  1.0  -0.1874
  N  N892  1  0.413600  0.749400  0.501000  1.0  -0.1909
  N  N893  1  0.628600  0.642800  0.246400  1.0  -0.3674
  N  N894  1  0.077500  0.957700  0.275500  1.0  -0.3513
  N  N895  1  0.350100  0.486600  0.915200  1.0  -0.3266
  N  N896  1  0.924200  0.287450  0.023150  1.0  -0.0969
  N  N897  1  0.476700  0.527700  0.772300  1.0  -0.3852
  N  N898  1  0.404900  0.638100  0.921500  1.0  -0.1703
  N  N899  1  0.595100  0.361900  0.078500  1.0  -0.1697
  N  N900  1  0.958400  0.723300  0.015300  1.0  -0.3354
  N  N901  1  0.425800  0.126100  0.383500  1.0  -0.2343
  N  N902  1  0.575800  0.023150  0.287450  1.0  -0.0986
  N  N903  1  0.393200  0.447600  0.214400  1.0  0.0374
  N  N904  1  0.422500  0.275500  0.957700  1.0  -0.3531
  N  N905  1  0.127300  0.750500  0.289100  1.0  0.0436
  N  N906  1  0.024800  0.755200  0.831600  1.0  0.0677
  N  N907  1  0.413600  0.310900  0.188300  1.0  0.0468
  N  N908  1  0.606800  0.552400  0.785600  1.0  0.0365
  N  N909  1  0.913600  0.811700  0.689100  1.0  0.0488
  N  N910  1  0.086400  0.501000  0.749400  1.0  -0.1879
  N  N911  1  0.109800  0.500600  0.964400  1.0  -0.0442
  N  N912  1  0.634400  0.860800  0.196600  1.0  -0.1877
  N  N913  1  0.649900  0.513400  0.084800  1.0  -0.3299
  N  N914  1  0.844200  0.551400  0.615000  1.0  -0.2651
  N  N915  1  0.839200  0.565300  0.024700  1.0  -0.4016
  N  N916  1  0.061000  0.054700  0.753100  1.0  0.0472
  N  N917  1  0.586400  0.250600  0.499000  1.0  -0.1885
  N  N918  1  0.806300  0.003000  0.116600  1.0  -0.3446
  N  N919  1  0.128600  0.753600  0.357200  1.0  -0.3702
  N  N920  1  0.869600  0.941700  0.115100  1.0  0.0532
  N  N921  1  0.155800  0.448600  0.385000  1.0  -0.2708
  N  N922  1  0.904900  0.078500  0.361900  1.0  -0.1708
  N  N923  1  0.901800  0.026000  0.534800  1.0  0.0262
  N  N924  1  0.160800  0.434700  0.975300  1.0  -0.3995
  N  N925  1  0.847500  0.663000  0.398800  1.0  -0.1384
  N  N926  1  0.424200  0.976850  0.712550  1.0  -0.0983
  N  N927  1  0.347500  0.601200  0.337000  1.0  -0.1385
  N  N928  1  0.098200  0.974000  0.465200  1.0  0.0257
  N  N929  1  0.095100  0.921500  0.638100  1.0  -0.1698
  N  N930  1  0.369600  0.884900  0.058300  1.0  0.052
  N  N931  1  0.652500  0.398800  0.663000  1.0  -0.1391
  N  N932  1  0.390200  0.964400  0.500600  1.0  -0.0426
  N  N933  1  0.149900  0.915200  0.486600  1.0  -0.3273
  N  N934  1  0.365800  0.815800  0.283600  1.0  -0.4122
  N  N935  1  0.371400  0.357200  0.753600  1.0  -0.3696
  N  N936  1  0.134200  0.283600  0.815800  1.0  -0.4133
  N  N937  1  0.627300  0.710900  0.249500  1.0  0.0444
  N  N938  1  0.922500  0.042300  0.724500  1.0  -0.3527
  N  N939  1  0.853800  0.755400  0.685200  1.0  -0.4093
  N  N940  1  0.950400  0.488500  0.722700  1.0  0.0256
  N  N941  1  0.401800  0.465200  0.974000  1.0  0.0257
  N  N942  1  0.475200  0.831600  0.755200  1.0  0.0667
  N  N943  1  0.893200  0.785600  0.552400  1.0  0.0387
  N  N944  1  0.339200  0.975300  0.434700  1.0  -0.4021
  N  N945  1  0.660800  0.024700  0.565300  1.0  -0.402
  N  N946  1  0.865600  0.196600  0.860800  1.0  -0.1871
  N  N947  1  0.630400  0.115100  0.941700  1.0  0.0522
  N  N948  1  0.872700  0.249500  0.710900  1.0  0.0422
  N  N949  1  0.023300  0.772300  0.527700  1.0  -0.3791
  N  N950  1  0.523300  0.472300  0.227700  1.0  -0.3789
  N  N951  1  0.925800  0.616500  0.873900  1.0  -0.2343
  N  N952  1  0.130400  0.058300  0.884900  1.0  0.0564
  N  N953  1  0.450400  0.277300  0.511500  1.0  0.025
  N  N954  1  0.586700  0.596400  0.481400  1.0  -0.1221
  N  N955  1  0.353800  0.314800  0.244600  1.0  -0.4085
  N  N956  1  0.087500  0.810300  0.834900  1.0  -0.2848
  N  N957  1  0.086400  0.188300  0.310900  1.0  0.0485
  N  N958  1  0.586400  0.689100  0.811700  1.0  0.0465
  N  N959  1  0.646200  0.685200  0.755400  1.0  -0.4065
  N  N960  1  0.134400  0.803400  0.139200  1.0  -0.1877
  N  N961  1  0.574200  0.873900  0.616500  1.0  -0.2338
  N  N962  1  0.549600  0.722700  0.488500  1.0  0.024
  N  N963  1  0.875000  0.717700  0.253300  1.0  0.0442
  N  N964  1  0.625000  0.253300  0.717700  1.0  0.0462
  N  N965  1  0.193700  0.997000  0.883400  1.0  -0.3434
  N  N966  1  0.598200  0.534800  0.026000  1.0  0.0264
  N  N967  1  0.375000  0.746700  0.282300  1.0  0.0463
  N  N968  1  0.976700  0.227700  0.472300  1.0  -0.386
  N  N969  1  0.413300  0.403600  0.518600  1.0  -0.1228
  N  N970  1  0.561000  0.246900  0.945300  1.0  0.0472
  N  N971  1  0.074200  0.383500  0.126100  1.0  -0.2343
  N  N972  1  0.609800  0.035600  0.499400  1.0  -0.0422
