# generated using pymatgen
data_MgIn2H16C20(N4O11)2
_symmetry_space_group_name_H-M   'P 1'
_cell_length_a   30.98400000
_cell_length_b   30.98400000
_cell_length_c   30.98400000
_cell_angle_alpha   90.00000000
_cell_angle_beta   90.00000000
_cell_angle_gamma   90.00000000
_symmetry_Int_Tables_number   1
_chemical_formula_structural   MgIn2H16C20(N4O11)2
_chemical_formula_sum   'Mg24 In48 H384 C480 N192 O528'
_cell_volume   29744.89580390
_cell_formula_units_Z   24
loop_
 _symmetry_equiv_pos_site_id
 _symmetry_equiv_pos_as_xyz
  1  'x, y, z'
loop_
 _atom_site_type_symbol
 _atom_site_label
 _atom_site_symmetry_multiplicity
 _atom_site_fract_x
 _atom_site_fract_y
 _atom_site_fract_z
 _atom_site_occupancy
 _atom_site_charge
  Mg  Mg1  1  0.174700  0.000000  0.174700  1.0  1.298
  Mg  Mg2  1  0.825300  0.000000  0.174700  1.0  1.2974
  Mg  Mg3  1  0.825300  0.000000  0.825300  1.0  1.2974
  Mg  Mg4  1  0.174700  0.000000  0.825300  1.0  1.298
  Mg  Mg5  1  0.174700  0.174700  0.000000  1.0  1.2979
  Mg  Mg6  1  0.174700  0.825300  0.000000  1.0  1.2978
  Mg  Mg7  1  0.825300  0.825300  0.000000  1.0  1.2975
  Mg  Mg8  1  0.825300  0.174700  0.000000  1.0  1.2973
  Mg  Mg9  1  0.000000  0.174700  0.174700  1.0  1.298
  Mg  Mg10  1  0.000000  0.174700  0.825300  1.0  1.298
  Mg  Mg11  1  0.000000  0.825300  0.825300  1.0  1.2984
  Mg  Mg12  1  0.000000  0.825300  0.174700  1.0  1.2981
  Mg  Mg13  1  0.674700  0.500000  0.674700  1.0  1.298
  Mg  Mg14  1  0.325300  0.500000  0.674700  1.0  1.2974
  Mg  Mg15  1  0.325300  0.500000  0.325300  1.0  1.2974
  Mg  Mg16  1  0.674700  0.500000  0.325300  1.0  1.298
  Mg  Mg17  1  0.674700  0.674700  0.500000  1.0  1.2979
  Mg  Mg18  1  0.674700  0.325300  0.500000  1.0  1.2978
  Mg  Mg19  1  0.325300  0.325300  0.500000  1.0  1.2975
  Mg  Mg20  1  0.325300  0.674700  0.500000  1.0  1.2973
  Mg  Mg21  1  0.500000  0.674700  0.674700  1.0  1.298
  Mg  Mg22  1  0.500000  0.674700  0.325300  1.0  1.298
  Mg  Mg23  1  0.500000  0.325300  0.325300  1.0  1.2984
  Mg  Mg24  1  0.500000  0.325300  0.674700  1.0  1.2981
  In  In25  1  0.250000  0.605060  0.105060  1.0  1.5155
  In  In26  1  0.750000  0.394940  0.105060  1.0  1.516
  In  In27  1  0.750000  0.605060  0.894940  1.0  1.5158
  In  In28  1  0.250000  0.394940  0.894940  1.0  1.5163
  In  In29  1  0.105060  0.250000  0.605060  1.0  1.514
  In  In30  1  0.105060  0.750000  0.394940  1.0  1.5144
  In  In31  1  0.894940  0.750000  0.605060  1.0  1.515
  In  In32  1  0.894940  0.250000  0.394940  1.0  1.5153
  In  In33  1  0.605060  0.105060  0.250000  1.0  1.5138
  In  In34  1  0.394940  0.105060  0.750000  1.0  1.5148
  In  In35  1  0.605060  0.894940  0.750000  1.0  1.5143
  In  In36  1  0.394940  0.894940  0.250000  1.0  1.5153
  In  In37  1  0.605060  0.250000  0.894940  1.0  1.5144
  In  In38  1  0.394940  0.750000  0.894940  1.0  1.5153
  In  In39  1  0.605060  0.750000  0.105060  1.0  1.514
  In  In40  1  0.394940  0.250000  0.105060  1.0  1.515
  In  In41  1  0.250000  0.105060  0.394940  1.0  1.5158
  In  In42  1  0.750000  0.105060  0.605060  1.0  1.5155
  In  In43  1  0.750000  0.894940  0.394940  1.0  1.5163
  In  In44  1  0.250000  0.894940  0.605060  1.0  1.516
  In  In45  1  0.105060  0.605060  0.750000  1.0  1.5138
  In  In46  1  0.105060  0.394940  0.250000  1.0  1.5143
  In  In47  1  0.894940  0.605060  0.250000  1.0  1.5148
  In  In48  1  0.894940  0.394940  0.750000  1.0  1.5153
  In  In49  1  0.750000  0.394940  0.894940  1.0  1.5163
  In  In50  1  0.250000  0.605060  0.894940  1.0  1.5158
  In  In51  1  0.250000  0.394940  0.105060  1.0  1.516
  In  In52  1  0.750000  0.605060  0.105060  1.0  1.5155
  In  In53  1  0.894940  0.750000  0.394940  1.0  1.5153
  In  In54  1  0.894940  0.250000  0.605060  1.0  1.515
  In  In55  1  0.105060  0.250000  0.394940  1.0  1.5144
  In  In56  1  0.105060  0.750000  0.605060  1.0  1.514
  In  In57  1  0.394940  0.894940  0.750000  1.0  1.5153
  In  In58  1  0.605060  0.894940  0.250000  1.0  1.5143
  In  In59  1  0.394940  0.105060  0.250000  1.0  1.5148
  In  In60  1  0.605060  0.105060  0.750000  1.0  1.5138
  In  In61  1  0.394940  0.750000  0.105060  1.0  1.515
  In  In62  1  0.605060  0.250000  0.105060  1.0  1.514
  In  In63  1  0.394940  0.250000  0.894940  1.0  1.5153
  In  In64  1  0.605060  0.750000  0.894940  1.0  1.5144
  In  In65  1  0.750000  0.894940  0.605060  1.0  1.516
  In  In66  1  0.250000  0.894940  0.394940  1.0  1.5163
  In  In67  1  0.250000  0.105060  0.605060  1.0  1.5155
  In  In68  1  0.750000  0.105060  0.394940  1.0  1.5158
  In  In69  1  0.894940  0.394940  0.250000  1.0  1.5153
  In  In70  1  0.894940  0.605060  0.750000  1.0  1.5148
  In  In71  1  0.105060  0.394940  0.750000  1.0  1.5143
  In  In72  1  0.105060  0.605060  0.250000  1.0  1.5138
  H  H73  1  0.152060  0.076480  0.187660  1.0  0.253
  H  H74  1  0.847940  0.923520  0.187660  1.0  0.252
  H  H75  1  0.847940  0.076480  0.812340  1.0  0.2528
  H  H76  1  0.152060  0.923520  0.812340  1.0  0.2539
  H  H77  1  0.187660  0.152060  0.076480  1.0  0.2534
  H  H78  1  0.187660  0.847940  0.923520  1.0  0.2542
  H  H79  1  0.812340  0.847940  0.076480  1.0  0.2532
  H  H80  1  0.812340  0.152060  0.923520  1.0  0.2527
  H  H81  1  0.076480  0.187660  0.152060  1.0  0.2527
  H  H82  1  0.923520  0.187660  0.847940  1.0  0.2547
  H  H83  1  0.076480  0.812340  0.847940  1.0  0.2529
  H  H84  1  0.923520  0.812340  0.152060  1.0  0.2533
  H  H85  1  0.076480  0.152060  0.812340  1.0  0.2526
  H  H86  1  0.923520  0.847940  0.812340  1.0  0.2544
  H  H87  1  0.076480  0.847940  0.187660  1.0  0.253
  H  H88  1  0.923520  0.152060  0.187660  1.0  0.2531
  H  H89  1  0.152060  0.187660  0.923520  1.0  0.2542
  H  H90  1  0.847940  0.187660  0.076480  1.0  0.2531
  H  H91  1  0.847940  0.812340  0.923520  1.0  0.2524
  H  H92  1  0.152060  0.812340  0.076480  1.0  0.2538
  H  H93  1  0.187660  0.076480  0.847940  1.0  0.2535
  H  H94  1  0.187660  0.923520  0.152060  1.0  0.2524
  H  H95  1  0.812340  0.076480  0.152060  1.0  0.2522
  H  H96  1  0.812340  0.923520  0.847940  1.0  0.253
  H  H97  1  0.847940  0.923520  0.812340  1.0  0.2524
  H  H98  1  0.152060  0.076480  0.812340  1.0  0.2536
  H  H99  1  0.152060  0.923520  0.187660  1.0  0.2533
  H  H100  1  0.847940  0.076480  0.187660  1.0  0.2526
  H  H101  1  0.812340  0.847940  0.923520  1.0  0.2534
  H  H102  1  0.812340  0.152060  0.076480  1.0  0.253
  H  H103  1  0.187660  0.152060  0.923520  1.0  0.2532
  H  H104  1  0.187660  0.847940  0.076480  1.0  0.2539
  H  H105  1  0.923520  0.812340  0.847940  1.0  0.2545
  H  H106  1  0.076480  0.812340  0.152060  1.0  0.2519
  H  H107  1  0.923520  0.187660  0.152060  1.0  0.2539
  H  H108  1  0.076480  0.187660  0.847940  1.0  0.2531
  H  H109  1  0.923520  0.847940  0.187660  1.0  0.2539
  H  H110  1  0.076480  0.152060  0.187660  1.0  0.2522
  H  H111  1  0.923520  0.152060  0.812340  1.0  0.2536
  H  H112  1  0.076480  0.847940  0.812340  1.0  0.2533
  H  H113  1  0.847940  0.812340  0.076480  1.0  0.2526
  H  H114  1  0.152060  0.812340  0.923520  1.0  0.2535
  H  H115  1  0.152060  0.187660  0.076480  1.0  0.2543
  H  H116  1  0.847940  0.187660  0.923520  1.0  0.2532
  H  H117  1  0.812340  0.923520  0.152060  1.0  0.2517
  H  H118  1  0.812340  0.076480  0.847940  1.0  0.2531
  H  H119  1  0.187660  0.923520  0.847940  1.0  0.2534
  H  H120  1  0.187660  0.076480  0.152060  1.0  0.2529
  H  H121  1  0.652060  0.576480  0.687660  1.0  0.253
  H  H122  1  0.347940  0.423520  0.687660  1.0  0.252
  H  H123  1  0.347940  0.576480  0.312340  1.0  0.2528
  H  H124  1  0.652060  0.423520  0.312340  1.0  0.2539
  H  H125  1  0.687660  0.652060  0.576480  1.0  0.2534
  H  H126  1  0.687660  0.347940  0.423520  1.0  0.2542
  H  H127  1  0.312340  0.347940  0.576480  1.0  0.2532
  H  H128  1  0.312340  0.652060  0.423520  1.0  0.2527
  H  H129  1  0.576480  0.687660  0.652060  1.0  0.2527
  H  H130  1  0.423520  0.687660  0.347940  1.0  0.2547
  H  H131  1  0.576480  0.312340  0.347940  1.0  0.2529
  H  H132  1  0.423520  0.312340  0.652060  1.0  0.2533
  H  H133  1  0.576480  0.652060  0.312340  1.0  0.2526
  H  H134  1  0.423520  0.347940  0.312340  1.0  0.2544
  H  H135  1  0.576480  0.347940  0.687660  1.0  0.253
  H  H136  1  0.423520  0.652060  0.687660  1.0  0.2531
  H  H137  1  0.652060  0.687660  0.423520  1.0  0.2542
  H  H138  1  0.347940  0.687660  0.576480  1.0  0.2531
  H  H139  1  0.347940  0.312340  0.423520  1.0  0.2524
  H  H140  1  0.652060  0.312340  0.576480  1.0  0.2538
  H  H141  1  0.687660  0.576480  0.347940  1.0  0.2535
  H  H142  1  0.687660  0.423520  0.652060  1.0  0.2524
  H  H143  1  0.312340  0.576480  0.652060  1.0  0.2522
  H  H144  1  0.312340  0.423520  0.347940  1.0  0.253
  H  H145  1  0.347940  0.423520  0.312340  1.0  0.2524
  H  H146  1  0.652060  0.576480  0.312340  1.0  0.2536
  H  H147  1  0.652060  0.423520  0.687660  1.0  0.2533
  H  H148  1  0.347940  0.576480  0.687660  1.0  0.2526
  H  H149  1  0.312340  0.347940  0.423520  1.0  0.2534
  H  H150  1  0.312340  0.652060  0.576480  1.0  0.253
  H  H151  1  0.687660  0.652060  0.423520  1.0  0.2532
  H  H152  1  0.687660  0.347940  0.576480  1.0  0.2539
  H  H153  1  0.423520  0.312340  0.347940  1.0  0.2545
  H  H154  1  0.576480  0.312340  0.652060  1.0  0.2519
  H  H155  1  0.423520  0.687660  0.652060  1.0  0.2539
  H  H156  1  0.576480  0.687660  0.347940  1.0  0.2531
  H  H157  1  0.423520  0.347940  0.687660  1.0  0.2539
  H  H158  1  0.576480  0.652060  0.687660  1.0  0.2522
  H  H159  1  0.423520  0.652060  0.312340  1.0  0.2536
  H  H160  1  0.576480  0.347940  0.312340  1.0  0.2533
  H  H161  1  0.347940  0.312340  0.576480  1.0  0.2526
  H  H162  1  0.652060  0.312340  0.423520  1.0  0.2535
  H  H163  1  0.652060  0.687660  0.576480  1.0  0.2543
  H  H164  1  0.347940  0.687660  0.423520  1.0  0.2532
  H  H165  1  0.312340  0.423520  0.652060  1.0  0.2517
  H  H166  1  0.312340  0.576480  0.347940  1.0  0.2531
  H  H167  1  0.687660  0.423520  0.347940  1.0  0.2534
  H  H168  1  0.687660  0.576480  0.652060  1.0  0.2529
  H  H169  1  0.315520  0.525180  0.401230  1.0  0.218
  H  H170  1  0.684480  0.474820  0.401230  1.0  0.2185
  H  H171  1  0.684480  0.525180  0.598770  1.0  0.2174
  H  H172  1  0.315520  0.474820  0.598770  1.0  0.2162
  H  H173  1  0.401230  0.315520  0.525180  1.0  0.2173
  H  H174  1  0.401230  0.684480  0.474820  1.0  0.2176
  H  H175  1  0.598770  0.684480  0.525180  1.0  0.2172
  H  H176  1  0.598770  0.315520  0.474820  1.0  0.2167
  H  H177  1  0.525180  0.401230  0.315520  1.0  0.2173
  H  H178  1  0.474820  0.401230  0.684480  1.0  0.2154
  H  H179  1  0.525180  0.598770  0.684480  1.0  0.2166
  H  H180  1  0.474820  0.598770  0.315520  1.0  0.216
  H  H181  1  0.525180  0.315520  0.598770  1.0  0.2171
  H  H182  1  0.474820  0.684480  0.598770  1.0  0.2169
  H  H183  1  0.525180  0.684480  0.401230  1.0  0.2195
  H  H184  1  0.474820  0.315520  0.401230  1.0  0.2169
  H  H185  1  0.315520  0.401230  0.474820  1.0  0.2164
  H  H186  1  0.684480  0.401230  0.525180  1.0  0.2162
  H  H187  1  0.684480  0.598770  0.474820  1.0  0.2162
  H  H188  1  0.315520  0.598770  0.525180  1.0  0.2155
  H  H189  1  0.401230  0.525180  0.684480  1.0  0.2176
  H  H190  1  0.401230  0.474820  0.315520  1.0  0.2174
  H  H191  1  0.598770  0.525180  0.315520  1.0  0.218
  H  H192  1  0.598770  0.474820  0.684480  1.0  0.2165
  H  H193  1  0.684480  0.474820  0.598770  1.0  0.2159
  H  H194  1  0.315520  0.525180  0.598770  1.0  0.2162
  H  H195  1  0.315520  0.474820  0.401230  1.0  0.2176
  H  H196  1  0.684480  0.525180  0.401230  1.0  0.2186
  H  H197  1  0.598770  0.684480  0.474820  1.0  0.2167
  H  H198  1  0.598770  0.315520  0.525180  1.0  0.2162
  H  H199  1  0.401230  0.315520  0.474820  1.0  0.2162
  H  H200  1  0.401230  0.684480  0.525180  1.0  0.2174
  H  H201  1  0.474820  0.598770  0.684480  1.0  0.2148
  H  H202  1  0.525180  0.598770  0.315520  1.0  0.2165
  H  H203  1  0.474820  0.401230  0.315520  1.0  0.2153
  H  H204  1  0.525180  0.401230  0.684480  1.0  0.2164
  H  H205  1  0.474820  0.684480  0.401230  1.0  0.2169
  H  H206  1  0.525180  0.315520  0.401230  1.0  0.2187
  H  H207  1  0.474820  0.315520  0.598770  1.0  0.2152
  H  H208  1  0.525180  0.684480  0.598770  1.0  0.2173
  H  H209  1  0.684480  0.598770  0.525180  1.0  0.2156
  H  H210  1  0.315520  0.598770  0.474820  1.0  0.2151
  H  H211  1  0.315520  0.401230  0.525180  1.0  0.2154
  H  H212  1  0.684480  0.401230  0.474820  1.0  0.2159
  H  H213  1  0.598770  0.474820  0.315520  1.0  0.2165
  H  H214  1  0.598770  0.525180  0.684480  1.0  0.2167
  H  H215  1  0.401230  0.474820  0.684480  1.0  0.2164
  H  H216  1  0.401230  0.525180  0.315520  1.0  0.2177
  H  H217  1  0.815520  0.025180  0.901230  1.0  0.218
  H  H218  1  0.184480  0.974820  0.901230  1.0  0.2185
  H  H219  1  0.184480  0.025180  0.098770  1.0  0.2174
  H  H220  1  0.815520  0.974820  0.098770  1.0  0.2162
  H  H221  1  0.901230  0.815520  0.025180  1.0  0.2173
  H  H222  1  0.901230  0.184480  0.974820  1.0  0.2176
  H  H223  1  0.098770  0.184480  0.025180  1.0  0.2172
  H  H224  1  0.098770  0.815520  0.974820  1.0  0.2167
  H  H225  1  0.025180  0.901230  0.815520  1.0  0.2173
  H  H226  1  0.974820  0.901230  0.184480  1.0  0.2154
  H  H227  1  0.025180  0.098770  0.184480  1.0  0.2164
  H  H228  1  0.974820  0.098770  0.815520  1.0  0.216
  H  H229  1  0.025180  0.815520  0.098770  1.0  0.2169
  H  H230  1  0.974820  0.184480  0.098770  1.0  0.2169
  H  H231  1  0.025180  0.184480  0.901230  1.0  0.2195
  H  H232  1  0.974820  0.815520  0.901230  1.0  0.2169
  H  H233  1  0.815520  0.901230  0.974820  1.0  0.2164
  H  H234  1  0.184480  0.901230  0.025180  1.0  0.2162
  H  H235  1  0.184480  0.098770  0.974820  1.0  0.2162
  H  H236  1  0.815520  0.098770  0.025180  1.0  0.2155
  H  H237  1  0.901230  0.025180  0.184480  1.0  0.2176
  H  H238  1  0.901230  0.974820  0.815520  1.0  0.2174
  H  H239  1  0.098770  0.025180  0.815520  1.0  0.218
  H  H240  1  0.098770  0.974820  0.184480  1.0  0.2165
  H  H241  1  0.184480  0.974820  0.098770  1.0  0.2159
  H  H242  1  0.815520  0.025180  0.098770  1.0  0.2165
  H  H243  1  0.815520  0.974820  0.901230  1.0  0.2176
  H  H244  1  0.184480  0.025180  0.901230  1.0  0.2186
  H  H245  1  0.098770  0.184480  0.974820  1.0  0.2167
  H  H246  1  0.098770  0.815520  0.025180  1.0  0.2162
  H  H247  1  0.901230  0.815520  0.974820  1.0  0.2162
  H  H248  1  0.901230  0.184480  0.025180  1.0  0.2174
  H  H249  1  0.974820  0.098770  0.184480  1.0  0.2148
  H  H250  1  0.025180  0.098770  0.815520  1.0  0.2167
  H  H251  1  0.974820  0.901230  0.815520  1.0  0.2153
  H  H252  1  0.025180  0.901230  0.184480  1.0  0.2164
  H  H253  1  0.974820  0.184480  0.901230  1.0  0.2169
  H  H254  1  0.025180  0.815520  0.901230  1.0  0.2187
  H  H255  1  0.974820  0.815520  0.098770  1.0  0.2152
  H  H256  1  0.025180  0.184480  0.098770  1.0  0.2176
  H  H257  1  0.184480  0.098770  0.025180  1.0  0.2158
  H  H258  1  0.815520  0.098770  0.974820  1.0  0.2151
  H  H259  1  0.815520  0.901230  0.025180  1.0  0.2154
  H  H260  1  0.184480  0.901230  0.974820  1.0  0.2159
  H  H261  1  0.098770  0.974820  0.815520  1.0  0.2165
  H  H262  1  0.098770  0.025180  0.184480  1.0  0.2167
  H  H263  1  0.901230  0.974820  0.184480  1.0  0.2164
  H  H264  1  0.901230  0.025180  0.815520  1.0  0.2177
  H  H265  1  0.252550  0.525180  0.349130  1.0  0.2125
  H  H266  1  0.747450  0.474820  0.349130  1.0  0.2121
  H  H267  1  0.747450  0.525180  0.650870  1.0  0.2129
  H  H268  1  0.252550  0.474820  0.650870  1.0  0.2125
  H  H269  1  0.349130  0.252550  0.525180  1.0  0.2125
  H  H270  1  0.349130  0.747450  0.474820  1.0  0.2121
  H  H271  1  0.650870  0.747450  0.525180  1.0  0.2128
  H  H272  1  0.650870  0.252550  0.474820  1.0  0.2122
  H  H273  1  0.525180  0.349130  0.252550  1.0  0.2122
  H  H274  1  0.474820  0.349130  0.747450  1.0  0.2132
  H  H275  1  0.525180  0.650870  0.747450  1.0  0.2126
  H  H276  1  0.474820  0.650870  0.252550  1.0  0.2118
  H  H277  1  0.525180  0.252550  0.650870  1.0  0.2125
  H  H278  1  0.474820  0.747450  0.650870  1.0  0.2135
  H  H279  1  0.525180  0.747450  0.349130  1.0  0.2127
  H  H280  1  0.474820  0.252550  0.349130  1.0  0.2126
  H  H281  1  0.252550  0.349130  0.474820  1.0  0.2121
  H  H282  1  0.747450  0.349130  0.525180  1.0  0.2124
  H  H283  1  0.747450  0.650870  0.474820  1.0  0.2114
  H  H284  1  0.252550  0.650870  0.525180  1.0  0.2123
  H  H285  1  0.349130  0.525180  0.747450  1.0  0.2131
  H  H286  1  0.349130  0.474820  0.252550  1.0  0.2123
  H  H287  1  0.650870  0.525180  0.252550  1.0  0.2127
  H  H288  1  0.650870  0.474820  0.747450  1.0  0.2134
  H  H289  1  0.747450  0.474820  0.650870  1.0  0.2127
  H  H290  1  0.252550  0.525180  0.650870  1.0  0.2126
  H  H291  1  0.252550  0.474820  0.349130  1.0  0.2128
  H  H292  1  0.747450  0.525180  0.349130  1.0  0.2124
  H  H293  1  0.650870  0.747450  0.474820  1.0  0.2123
  H  H294  1  0.650870  0.252550  0.525180  1.0  0.2126
  H  H295  1  0.349130  0.252550  0.474820  1.0  0.2119
  H  H296  1  0.349130  0.747450  0.525180  1.0  0.2128
  H  H297  1  0.474820  0.650870  0.747450  1.0  0.2127
  H  H298  1  0.525180  0.650870  0.252550  1.0  0.2116
  H  H299  1  0.474820  0.349130  0.252550  1.0  0.213
  H  H300  1  0.525180  0.349130  0.747450  1.0  0.2127
  H  H301  1  0.474820  0.747450  0.349130  1.0  0.2134
  H  H302  1  0.525180  0.252550  0.349130  1.0  0.2123
  H  H303  1  0.474820  0.252550  0.650870  1.0  0.213
  H  H304  1  0.525180  0.747450  0.650870  1.0  0.2126
  H  H305  1  0.747450  0.650870  0.525180  1.0  0.212
  H  H306  1  0.252550  0.650870  0.474820  1.0  0.2116
  H  H307  1  0.252550  0.349130  0.525180  1.0  0.2123
  H  H308  1  0.747450  0.349130  0.474820  1.0  0.212
  H  H309  1  0.650870  0.474820  0.252550  1.0  0.2127
  H  H310  1  0.650870  0.525180  0.747450  1.0  0.2129
  H  H311  1  0.349130  0.474820  0.747450  1.0  0.2129
  H  H312  1  0.349130  0.525180  0.252550  1.0  0.213
  H  H313  1  0.752550  0.025180  0.849130  1.0  0.2125
  H  H314  1  0.247450  0.974820  0.849130  1.0  0.2121
  H  H315  1  0.247450  0.025180  0.150870  1.0  0.2129
  H  H316  1  0.752550  0.974820  0.150870  1.0  0.2125
  H  H317  1  0.849130  0.752550  0.025180  1.0  0.2125
  H  H318  1  0.849130  0.247450  0.974820  1.0  0.2121
  H  H319  1  0.150870  0.247450  0.025180  1.0  0.2128
  H  H320  1  0.150870  0.752550  0.974820  1.0  0.2122
  H  H321  1  0.025180  0.849130  0.752550  1.0  0.2122
  H  H322  1  0.974820  0.849130  0.247450  1.0  0.2132
  H  H323  1  0.025180  0.150870  0.247450  1.0  0.2126
  H  H324  1  0.974820  0.150870  0.752550  1.0  0.2118
  H  H325  1  0.025180  0.752550  0.150870  1.0  0.2125
  H  H326  1  0.974820  0.247450  0.150870  1.0  0.2135
  H  H327  1  0.025180  0.247450  0.849130  1.0  0.2127
  H  H328  1  0.974820  0.752550  0.849130  1.0  0.2126
  H  H329  1  0.752550  0.849130  0.974820  1.0  0.2121
  H  H330  1  0.247450  0.849130  0.025180  1.0  0.2124
  H  H331  1  0.247450  0.150870  0.974820  1.0  0.2114
  H  H332  1  0.752550  0.150870  0.025180  1.0  0.2123
  H  H333  1  0.849130  0.025180  0.247450  1.0  0.2131
  H  H334  1  0.849130  0.974820  0.752550  1.0  0.2123
  H  H335  1  0.150870  0.025180  0.752550  1.0  0.2127
  H  H336  1  0.150870  0.974820  0.247450  1.0  0.2134
  H  H337  1  0.247450  0.974820  0.150870  1.0  0.2127
  H  H338  1  0.752550  0.025180  0.150870  1.0  0.2126
  H  H339  1  0.752550  0.974820  0.849130  1.0  0.2128
  H  H340  1  0.247450  0.025180  0.849130  1.0  0.2124
  H  H341  1  0.150870  0.247450  0.974820  1.0  0.2123
  H  H342  1  0.150870  0.752550  0.025180  1.0  0.2126
  H  H343  1  0.849130  0.752550  0.974820  1.0  0.2119
  H  H344  1  0.849130  0.247450  0.025180  1.0  0.2128
  H  H345  1  0.974820  0.150870  0.247450  1.0  0.2127
  H  H346  1  0.025180  0.150870  0.752550  1.0  0.2116
  H  H347  1  0.974820  0.849130  0.752550  1.0  0.213
  H  H348  1  0.025180  0.849130  0.247450  1.0  0.2127
  H  H349  1  0.974820  0.247450  0.849130  1.0  0.2134
  H  H350  1  0.025180  0.752550  0.849130  1.0  0.2123
  H  H351  1  0.974820  0.752550  0.150870  1.0  0.213
  H  H352  1  0.025180  0.247450  0.150870  1.0  0.2126
  H  H353  1  0.247450  0.150870  0.025180  1.0  0.212
  H  H354  1  0.752550  0.150870  0.974820  1.0  0.2116
  H  H355  1  0.752550  0.849130  0.025180  1.0  0.2123
  H  H356  1  0.247450  0.849130  0.974820  1.0  0.212
  H  H357  1  0.150870  0.974820  0.752550  1.0  0.2127
  H  H358  1  0.150870  0.025180  0.247450  1.0  0.2129
  H  H359  1  0.849130  0.974820  0.247450  1.0  0.2129
  H  H360  1  0.849130  0.025180  0.752550  1.0  0.213
  H  H361  1  0.193280  0.587040  0.193280  1.0  0.0953
  H  H362  1  0.806720  0.412960  0.193280  1.0  0.0958
  H  H363  1  0.806720  0.587040  0.806720  1.0  0.0962
  H  H364  1  0.193280  0.412960  0.806720  1.0  0.0959
  H  H365  1  0.193280  0.193280  0.587040  1.0  0.0957
  H  H366  1  0.193280  0.806720  0.412960  1.0  0.0953
  H  H367  1  0.806720  0.806720  0.587040  1.0  0.0958
  H  H368  1  0.806720  0.193280  0.412960  1.0  0.0954
  H  H369  1  0.587040  0.193280  0.193280  1.0  0.0965
  H  H370  1  0.412960  0.193280  0.806720  1.0  0.0967
  H  H371  1  0.587040  0.806720  0.806720  1.0  0.0969
  H  H372  1  0.412960  0.806720  0.193280  1.0  0.0958
  H  H373  1  0.587040  0.193280  0.806720  1.0  0.0971
  H  H374  1  0.412960  0.806720  0.806720  1.0  0.0968
  H  H375  1  0.587040  0.806720  0.193280  1.0  0.0966
  H  H376  1  0.412960  0.193280  0.193280  1.0  0.0955
  H  H377  1  0.193280  0.193280  0.412960  1.0  0.0948
  H  H378  1  0.806720  0.193280  0.587040  1.0  0.0961
  H  H379  1  0.806720  0.806720  0.412960  1.0  0.0957
  H  H380  1  0.193280  0.806720  0.587040  1.0  0.0956
  H  H381  1  0.193280  0.587040  0.806720  1.0  0.096
  H  H382  1  0.193280  0.412960  0.193280  1.0  0.0951
  H  H383  1  0.806720  0.587040  0.193280  1.0  0.0957
  H  H384  1  0.806720  0.412960  0.806720  1.0  0.0964
  H  H385  1  0.693280  0.087040  0.693280  1.0  0.0953
  H  H386  1  0.306720  0.912960  0.693280  1.0  0.0958
  H  H387  1  0.306720  0.087040  0.306720  1.0  0.0962
  H  H388  1  0.693280  0.912960  0.306720  1.0  0.0959
  H  H389  1  0.693280  0.693280  0.087040  1.0  0.0957
  H  H390  1  0.693280  0.306720  0.912960  1.0  0.0953
  H  H391  1  0.306720  0.306720  0.087040  1.0  0.0958
  H  H392  1  0.306720  0.693280  0.912960  1.0  0.0954
  H  H393  1  0.087040  0.693280  0.693280  1.0  0.0965
  H  H394  1  0.912960  0.693280  0.306720  1.0  0.0967
  H  H395  1  0.087040  0.306720  0.306720  1.0  0.0969
  H  H396  1  0.912960  0.306720  0.693280  1.0  0.0958
  H  H397  1  0.087040  0.693280  0.306720  1.0  0.0971
  H  H398  1  0.912960  0.306720  0.306720  1.0  0.0968
  H  H399  1  0.087040  0.306720  0.693280  1.0  0.0966
  H  H400  1  0.912960  0.693280  0.693280  1.0  0.0955
  H  H401  1  0.693280  0.693280  0.912960  1.0  0.0948
  H  H402  1  0.306720  0.693280  0.087040  1.0  0.0961
  H  H403  1  0.306720  0.306720  0.912960  1.0  0.0957
  H  H404  1  0.693280  0.306720  0.087040  1.0  0.0956
  H  H405  1  0.693280  0.087040  0.306720  1.0  0.096
  H  H406  1  0.693280  0.912960  0.693280  1.0  0.0951
  H  H407  1  0.306720  0.087040  0.693280  1.0  0.0957
  H  H408  1  0.306720  0.912960  0.306720  1.0  0.0964
  H  H409  1  0.284840  0.500000  0.129360  1.0  0.101
  H  H410  1  0.715160  0.500000  0.129360  1.0  0.1009
  H  H411  1  0.715160  0.500000  0.870640  1.0  0.1011
  H  H412  1  0.284840  0.500000  0.870640  1.0  0.1003
  H  H413  1  0.129360  0.284840  0.500000  1.0  0.1037
  H  H414  1  0.129360  0.715160  0.500000  1.0  0.1028
  H  H415  1  0.870640  0.715160  0.500000  1.0  0.1036
  H  H416  1  0.870640  0.284840  0.500000  1.0  0.1047
  H  H417  1  0.500000  0.129360  0.284840  1.0  0.1042
  H  H418  1  0.500000  0.129360  0.715160  1.0  0.1064
  H  H419  1  0.500000  0.870640  0.715160  1.0  0.1062
  H  H420  1  0.500000  0.870640  0.284840  1.0  0.104
  H  H421  1  0.500000  0.284840  0.870640  1.0  0.1059
  H  H422  1  0.500000  0.715160  0.870640  1.0  0.1054
  H  H423  1  0.500000  0.715160  0.129360  1.0  0.1059
  H  H424  1  0.500000  0.284840  0.129360  1.0  0.1064
  H  H425  1  0.284840  0.129360  0.500000  1.0  0.1009
  H  H426  1  0.715160  0.129360  0.500000  1.0  0.1013
  H  H427  1  0.715160  0.870640  0.500000  1.0  0.1012
  H  H428  1  0.284840  0.870640  0.500000  1.0  0.101
  H  H429  1  0.129360  0.500000  0.715160  1.0  0.1033
  H  H430  1  0.129360  0.500000  0.284840  1.0  0.101
  H  H431  1  0.870640  0.500000  0.284840  1.0  0.1023
  H  H432  1  0.870640  0.500000  0.715160  1.0  0.1045
  H  H433  1  0.784840  0.000000  0.629360  1.0  0.101
  H  H434  1  0.215160  0.000000  0.629360  1.0  0.1009
  H  H435  1  0.215160  0.000000  0.370640  1.0  0.1011
  H  H436  1  0.784840  0.000000  0.370640  1.0  0.1003
  H  H437  1  0.629360  0.784840  0.000000  1.0  0.1037
  H  H438  1  0.629360  0.215160  0.000000  1.0  0.1028
  H  H439  1  0.370640  0.215160  0.000000  1.0  0.1036
  H  H440  1  0.370640  0.784840  0.000000  1.0  0.1047
  H  H441  1  0.000000  0.629360  0.784840  1.0  0.1042
  H  H442  1  0.000000  0.629360  0.215160  1.0  0.1064
  H  H443  1  0.000000  0.370640  0.215160  1.0  0.1062
  H  H444  1  0.000000  0.370640  0.784840  1.0  0.104
  H  H445  1  0.000000  0.784840  0.370640  1.0  0.1059
  H  H446  1  0.000000  0.215160  0.370640  1.0  0.1054
  H  H447  1  0.000000  0.215160  0.629360  1.0  0.1059
  H  H448  1  0.000000  0.784840  0.629360  1.0  0.1064
  H  H449  1  0.784840  0.629360  0.000000  1.0  0.1009
  H  H450  1  0.215160  0.629360  0.000000  1.0  0.1013
  H  H451  1  0.215160  0.370640  0.000000  1.0  0.1012
  H  H452  1  0.784840  0.370640  0.000000  1.0  0.101
  H  H453  1  0.629360  0.000000  0.215160  1.0  0.1033
  H  H454  1  0.629360  0.000000  0.784840  1.0  0.101
  H  H455  1  0.370640  0.000000  0.784840  1.0  0.1023
  H  H456  1  0.370640  0.000000  0.215160  1.0  0.1045
  C  C457  1  0.176290  0.671460  0.145320  1.0  0.0562
  C  C458  1  0.823710  0.328540  0.145320  1.0  0.0558
  C  C459  1  0.823710  0.671460  0.854680  1.0  0.0557
  C  C460  1  0.176290  0.328540  0.854680  1.0  0.0564
  C  C461  1  0.145320  0.176290  0.671460  1.0  0.0564
  C  C462  1  0.145320  0.823710  0.328540  1.0  0.0557
  C  C463  1  0.854680  0.823710  0.671460  1.0  0.0557
  C  C464  1  0.854680  0.176290  0.328540  1.0  0.0559
  C  C465  1  0.671460  0.145320  0.176290  1.0  0.0551
  C  C466  1  0.328540  0.145320  0.823710  1.0  0.0558
  C  C467  1  0.671460  0.854680  0.823710  1.0  0.0554
  C  C468  1  0.328540  0.854680  0.176290  1.0  0.0564
  C  C469  1  0.671460  0.176290  0.854680  1.0  0.0554
  C  C470  1  0.328540  0.823710  0.854680  1.0  0.0561
  C  C471  1  0.671460  0.823710  0.145320  1.0  0.0554
  C  C472  1  0.328540  0.176290  0.145320  1.0  0.0565
  C  C473  1  0.176290  0.145320  0.328540  1.0  0.0549
  C  C474  1  0.823710  0.145320  0.671460  1.0  0.0546
  C  C475  1  0.823710  0.854680  0.328540  1.0  0.0549
  C  C476  1  0.176290  0.854680  0.671460  1.0  0.0555
  C  C477  1  0.145320  0.671460  0.823710  1.0  0.0566
  C  C478  1  0.145320  0.328540  0.176290  1.0  0.0568
  C  C479  1  0.854680  0.671460  0.176290  1.0  0.0564
  C  C480  1  0.854680  0.328540  0.823710  1.0  0.0567
  C  C481  1  0.823710  0.328540  0.854680  1.0  0.0559
  C  C482  1  0.176290  0.671460  0.854680  1.0  0.0559
  C  C483  1  0.176290  0.328540  0.145320  1.0  0.0564
  C  C484  1  0.823710  0.671460  0.145320  1.0  0.0558
  C  C485  1  0.854680  0.823710  0.328540  1.0  0.0555
  C  C486  1  0.854680  0.176290  0.671460  1.0  0.0561
  C  C487  1  0.145320  0.176290  0.328540  1.0  0.0559
  C  C488  1  0.145320  0.823710  0.671460  1.0  0.0559
  C  C489  1  0.328540  0.854680  0.823710  1.0  0.0563
  C  C490  1  0.671460  0.854680  0.176290  1.0  0.0554
  C  C491  1  0.328540  0.145320  0.176290  1.0  0.0559
  C  C492  1  0.671460  0.145320  0.823710  1.0  0.0551
  C  C493  1  0.328540  0.823710  0.145320  1.0  0.0562
  C  C494  1  0.671460  0.176290  0.145320  1.0  0.0556
  C  C495  1  0.328540  0.176290  0.854680  1.0  0.0565
  C  C496  1  0.671460  0.823710  0.854680  1.0  0.0551
  C  C497  1  0.823710  0.854680  0.671460  1.0  0.0551
  C  C498  1  0.176290  0.854680  0.328540  1.0  0.0553
  C  C499  1  0.176290  0.145320  0.671460  1.0  0.0551
  C  C500  1  0.823710  0.145320  0.328540  1.0  0.0543
  C  C501  1  0.854680  0.328540  0.176290  1.0  0.0567
  C  C502  1  0.854680  0.671460  0.823710  1.0  0.0564
  C  C503  1  0.145320  0.328540  0.823710  1.0  0.0567
  C  C504  1  0.145320  0.671460  0.176290  1.0  0.0566
  C  C505  1  0.676290  0.171460  0.645320  1.0  0.0562
  C  C506  1  0.323710  0.828540  0.645320  1.0  0.0558
  C  C507  1  0.323710  0.171460  0.354680  1.0  0.0557
  C  C508  1  0.676290  0.828540  0.354680  1.0  0.0564
  C  C509  1  0.645320  0.676290  0.171460  1.0  0.0564
  C  C510  1  0.645320  0.323710  0.828540  1.0  0.0557
  C  C511  1  0.354680  0.323710  0.171460  1.0  0.0557
  C  C512  1  0.354680  0.676290  0.828540  1.0  0.0559
  C  C513  1  0.171460  0.645320  0.676290  1.0  0.0551
  C  C514  1  0.828540  0.645320  0.323710  1.0  0.0558
  C  C515  1  0.171460  0.354680  0.323710  1.0  0.0554
  C  C516  1  0.828540  0.354680  0.676290  1.0  0.0564
  C  C517  1  0.171460  0.676290  0.354680  1.0  0.0554
  C  C518  1  0.828540  0.323710  0.354680  1.0  0.0561
  C  C519  1  0.171460  0.323710  0.645320  1.0  0.0554
  C  C520  1  0.828540  0.676290  0.645320  1.0  0.0565
  C  C521  1  0.676290  0.645320  0.828540  1.0  0.0549
  C  C522  1  0.323710  0.645320  0.171460  1.0  0.0546
  C  C523  1  0.323710  0.354680  0.828540  1.0  0.0549
  C  C524  1  0.676290  0.354680  0.171460  1.0  0.0555
  C  C525  1  0.645320  0.171460  0.323710  1.0  0.0566
  C  C526  1  0.645320  0.828540  0.676290  1.0  0.0568
  C  C527  1  0.354680  0.171460  0.676290  1.0  0.0564
  C  C528  1  0.354680  0.828540  0.323710  1.0  0.0567
  C  C529  1  0.323710  0.828540  0.354680  1.0  0.0559
  C  C530  1  0.676290  0.171460  0.354680  1.0  0.0559
  C  C531  1  0.676290  0.828540  0.645320  1.0  0.0564
  C  C532  1  0.323710  0.171460  0.645320  1.0  0.0558
  C  C533  1  0.354680  0.323710  0.828540  1.0  0.0555
  C  C534  1  0.354680  0.676290  0.171460  1.0  0.0561
  C  C535  1  0.645320  0.676290  0.828540  1.0  0.0559
  C  C536  1  0.645320  0.323710  0.171460  1.0  0.0559
  C  C537  1  0.828540  0.354680  0.323710  1.0  0.0563
  C  C538  1  0.171460  0.354680  0.676290  1.0  0.0554
  C  C539  1  0.828540  0.645320  0.676290  1.0  0.0559
  C  C540  1  0.171460  0.645320  0.323710  1.0  0.0551
  C  C541  1  0.828540  0.323710  0.645320  1.0  0.0562
  C  C542  1  0.171460  0.676290  0.645320  1.0  0.0556
  C  C543  1  0.828540  0.676290  0.354680  1.0  0.0565
  C  C544  1  0.171460  0.323710  0.354680  1.0  0.0551
  C  C545  1  0.323710  0.354680  0.171460  1.0  0.0551
  C  C546  1  0.676290  0.354680  0.828540  1.0  0.0553
  C  C547  1  0.676290  0.645320  0.171460  1.0  0.0551
  C  C548  1  0.323710  0.645320  0.828540  1.0  0.0543
  C  C549  1  0.354680  0.828540  0.676290  1.0  0.0567
  C  C550  1  0.354680  0.171460  0.323710  1.0  0.0564
  C  C551  1  0.645320  0.828540  0.323710  1.0  0.0567
  C  C552  1  0.645320  0.171460  0.676290  1.0  0.0566
  C  C553  1  0.190820  0.707870  0.118030  1.0  0.7134
  C  C554  1  0.809180  0.292130  0.118030  1.0  0.7132
  C  C555  1  0.809180  0.707870  0.881970  1.0  0.7126
  C  C556  1  0.190820  0.292130  0.881970  1.0  0.714
  C  C557  1  0.118030  0.190820  0.707870  1.0  0.7144
  C  C558  1  0.118030  0.809180  0.292130  1.0  0.7141
  C  C559  1  0.881970  0.809180  0.707870  1.0  0.7144
  C  C560  1  0.881970  0.190820  0.292130  1.0  0.7142
  C  C561  1  0.707870  0.118030  0.190820  1.0  0.711
  C  C562  1  0.292130  0.118030  0.809180  1.0  0.7115
  C  C563  1  0.707870  0.881970  0.809180  1.0  0.7113
  C  C564  1  0.292130  0.881970  0.190820  1.0  0.7116
  C  C565  1  0.707870  0.190820  0.881970  1.0  0.7114
  C  C566  1  0.292130  0.809180  0.881970  1.0  0.7116
  C  C567  1  0.707870  0.809180  0.118030  1.0  0.7108
  C  C568  1  0.292130  0.190820  0.118030  1.0  0.7117
  C  C569  1  0.190820  0.118030  0.292130  1.0  0.7133
  C  C570  1  0.809180  0.118030  0.707870  1.0  0.7134
  C  C571  1  0.809180  0.881970  0.292130  1.0  0.7132
  C  C572  1  0.190820  0.881970  0.707870  1.0  0.7143
  C  C573  1  0.118030  0.707870  0.809180  1.0  0.7134
  C  C574  1  0.118030  0.292130  0.190820  1.0  0.7141
  C  C575  1  0.881970  0.707870  0.190820  1.0  0.714
  C  C576  1  0.881970  0.292130  0.809180  1.0  0.7142
  C  C577  1  0.809180  0.292130  0.881970  1.0  0.713
  C  C578  1  0.190820  0.707870  0.881970  1.0  0.7132
  C  C579  1  0.190820  0.292130  0.118030  1.0  0.7132
  C  C580  1  0.809180  0.707870  0.118030  1.0  0.7124
  C  C581  1  0.881970  0.809180  0.292130  1.0  0.7132
  C  C582  1  0.881970  0.190820  0.707870  1.0  0.7138
  C  C583  1  0.118030  0.190820  0.292130  1.0  0.7133
  C  C584  1  0.118030  0.809180  0.707870  1.0  0.7134
  C  C585  1  0.292130  0.881970  0.809180  1.0  0.7112
  C  C586  1  0.707870  0.881970  0.190820  1.0  0.7111
  C  C587  1  0.292130  0.118030  0.190820  1.0  0.7113
  C  C588  1  0.707870  0.118030  0.809180  1.0  0.7107
  C  C589  1  0.292130  0.809180  0.118030  1.0  0.7113
  C  C590  1  0.707870  0.190820  0.118030  1.0  0.711
  C  C591  1  0.292130  0.190820  0.881970  1.0  0.7113
  C  C592  1  0.707870  0.809180  0.881970  1.0  0.711
  C  C593  1  0.809180  0.881970  0.707870  1.0  0.7131
  C  C594  1  0.190820  0.881970  0.292130  1.0  0.7134
  C  C595  1  0.190820  0.118030  0.707870  1.0  0.7139
  C  C596  1  0.809180  0.118030  0.292130  1.0  0.7125
  C  C597  1  0.881970  0.292130  0.190820  1.0  0.7135
  C  C598  1  0.881970  0.707870  0.809180  1.0  0.7132
  C  C599  1  0.118030  0.292130  0.809180  1.0  0.713
  C  C600  1  0.118030  0.707870  0.190820  1.0  0.7126
  C  C601  1  0.690820  0.207870  0.618030  1.0  0.7134
  C  C602  1  0.309180  0.792130  0.618030  1.0  0.7132
  C  C603  1  0.309180  0.207870  0.381970  1.0  0.7126
  C  C604  1  0.690820  0.792130  0.381970  1.0  0.714
  C  C605  1  0.618030  0.690820  0.207870  1.0  0.7144
  C  C606  1  0.618030  0.309180  0.792130  1.0  0.7141
  C  C607  1  0.381970  0.309180  0.207870  1.0  0.7144
  C  C608  1  0.381970  0.690820  0.792130  1.0  0.7142
  C  C609  1  0.207870  0.618030  0.690820  1.0  0.711
  C  C610  1  0.792130  0.618030  0.309180  1.0  0.7115
  C  C611  1  0.207870  0.381970  0.309180  1.0  0.7113
  C  C612  1  0.792130  0.381970  0.690820  1.0  0.7116
  C  C613  1  0.207870  0.690820  0.381970  1.0  0.7114
  C  C614  1  0.792130  0.309180  0.381970  1.0  0.7116
  C  C615  1  0.207870  0.309180  0.618030  1.0  0.7108
  C  C616  1  0.792130  0.690820  0.618030  1.0  0.7117
  C  C617  1  0.690820  0.618030  0.792130  1.0  0.7133
  C  C618  1  0.309180  0.618030  0.207870  1.0  0.7134
  C  C619  1  0.309180  0.381970  0.792130  1.0  0.7132
  C  C620  1  0.690820  0.381970  0.207870  1.0  0.7143
  C  C621  1  0.618030  0.207870  0.309180  1.0  0.7134
  C  C622  1  0.618030  0.792130  0.690820  1.0  0.7141
  C  C623  1  0.381970  0.207870  0.690820  1.0  0.714
  C  C624  1  0.381970  0.792130  0.309180  1.0  0.7142
  C  C625  1  0.309180  0.792130  0.381970  1.0  0.713
  C  C626  1  0.690820  0.207870  0.381970  1.0  0.7132
  C  C627  1  0.690820  0.792130  0.618030  1.0  0.7132
  C  C628  1  0.309180  0.207870  0.618030  1.0  0.7124
  C  C629  1  0.381970  0.309180  0.792130  1.0  0.7132
  C  C630  1  0.381970  0.690820  0.207870  1.0  0.7138
  C  C631  1  0.618030  0.690820  0.792130  1.0  0.7133
  C  C632  1  0.618030  0.309180  0.207870  1.0  0.7134
  C  C633  1  0.792130  0.381970  0.309180  1.0  0.7112
  C  C634  1  0.207870  0.381970  0.690820  1.0  0.7111
  C  C635  1  0.792130  0.618030  0.690820  1.0  0.7113
  C  C636  1  0.207870  0.618030  0.309180  1.0  0.7107
  C  C637  1  0.792130  0.309180  0.618030  1.0  0.7113
  C  C638  1  0.207870  0.690820  0.618030  1.0  0.711
  C  C639  1  0.792130  0.690820  0.381970  1.0  0.7113
  C  C640  1  0.207870  0.309180  0.381970  1.0  0.711
  C  C641  1  0.309180  0.381970  0.207870  1.0  0.7131
  C  C642  1  0.690820  0.381970  0.792130  1.0  0.7134
  C  C643  1  0.690820  0.618030  0.207870  1.0  0.7139
  C  C644  1  0.309180  0.618030  0.792130  1.0  0.7125
  C  C645  1  0.381970  0.792130  0.690820  1.0  0.7135
  C  C646  1  0.381970  0.207870  0.309180  1.0  0.7132
  C  C647  1  0.618030  0.792130  0.309180  1.0  0.713
  C  C648  1  0.618030  0.207870  0.690820  1.0  0.7126
  C  C649  1  0.193510  0.522830  0.086430  1.0  0.0989
  C  C650  1  0.806490  0.477170  0.086430  1.0  0.0998
  C  C651  1  0.806490  0.522830  0.913570  1.0  0.0994
  C  C652  1  0.193510  0.477170  0.913570  1.0  0.099
  C  C653  1  0.086430  0.193510  0.522830  1.0  0.1005
  C  C654  1  0.086430  0.806490  0.477170  1.0  0.1017
  C  C655  1  0.913570  0.806490  0.522830  1.0  0.1012
  C  C656  1  0.913570  0.193510  0.477170  1.0  0.1017
  C  C657  1  0.522830  0.086430  0.193510  1.0  0.1004
  C  C658  1  0.477170  0.086430  0.806490  1.0  0.1005
  C  C659  1  0.522830  0.913570  0.806490  1.0  0.1009
  C  C660  1  0.477170  0.913570  0.193510  1.0  0.1
  C  C661  1  0.522830  0.193510  0.913570  1.0  0.1
  C  C662  1  0.477170  0.806490  0.913570  1.0  0.0998
  C  C663  1  0.522830  0.806490  0.086430  1.0  0.1003
  C  C664  1  0.477170  0.193510  0.086430  1.0  0.0995
  C  C665  1  0.193510  0.086430  0.477170  1.0  0.1006
  C  C666  1  0.806490  0.086430  0.522830  1.0  0.1004
  C  C667  1  0.806490  0.913570  0.477170  1.0  0.1013
  C  C668  1  0.193510  0.913570  0.522830  1.0  0.0999
  C  C669  1  0.086430  0.522830  0.806490  1.0  0.1005
  C  C670  1  0.086430  0.477170  0.193510  1.0  0.1001
  C  C671  1  0.913570  0.522830  0.193510  1.0  0.1005
  C  C672  1  0.913570  0.477170  0.806490  1.0  0.101
  C  C673  1  0.806490  0.477170  0.913570  1.0  0.0997
  C  C674  1  0.193510  0.522830  0.913570  1.0  0.099
  C  C675  1  0.193510  0.477170  0.086430  1.0  0.0993
  C  C676  1  0.806490  0.522830  0.086430  1.0  0.0997
  C  C677  1  0.913570  0.806490  0.477170  1.0  0.1023
  C  C678  1  0.913570  0.193510  0.522830  1.0  0.1011
  C  C679  1  0.086430  0.193510  0.477170  1.0  0.1014
  C  C680  1  0.086430  0.806490  0.522830  1.0  0.101
  C  C681  1  0.477170  0.913570  0.806490  1.0  0.1008
  C  C682  1  0.522830  0.913570  0.193510  1.0  0.1007
  C  C683  1  0.477170  0.086430  0.193510  1.0  0.1
  C  C684  1  0.522830  0.086430  0.806490  1.0  0.1009
  C  C685  1  0.477170  0.806490  0.086430  1.0  0.1001
  C  C686  1  0.522830  0.193510  0.086430  1.0  0.1003
  C  C687  1  0.477170  0.193510  0.913570  1.0  0.0996
  C  C688  1  0.522830  0.806490  0.913570  1.0  0.1003
  C  C689  1  0.806490  0.913570  0.522830  1.0  0.1006
  C  C690  1  0.193510  0.913570  0.477170  1.0  0.1008
  C  C691  1  0.193510  0.086430  0.522830  1.0  0.1
  C  C692  1  0.806490  0.086430  0.477170  1.0  0.1014
  C  C693  1  0.913570  0.477170  0.193510  1.0  0.1006
  C  C694  1  0.913570  0.522830  0.806490  1.0  0.101
  C  C695  1  0.086430  0.477170  0.806490  1.0  0.1008
  C  C696  1  0.086430  0.522830  0.193510  1.0  0.1003
  C  C697  1  0.693510  0.022830  0.586430  1.0  0.0989
  C  C698  1  0.306490  0.977170  0.586430  1.0  0.0998
  C  C699  1  0.306490  0.022830  0.413570  1.0  0.0994
  C  C700  1  0.693510  0.977170  0.413570  1.0  0.099
  C  C701  1  0.586430  0.693510  0.022830  1.0  0.1005
  C  C702  1  0.586430  0.306490  0.977170  1.0  0.1017
  C  C703  1  0.413570  0.306490  0.022830  1.0  0.1012
  C  C704  1  0.413570  0.693510  0.977170  1.0  0.1017
  C  C705  1  0.022830  0.586430  0.693510  1.0  0.1004
  C  C706  1  0.977170  0.586430  0.306490  1.0  0.1005
  C  C707  1  0.022830  0.413570  0.306490  1.0  0.1009
  C  C708  1  0.977170  0.413570  0.693510  1.0  0.1
  C  C709  1  0.022830  0.693510  0.413570  1.0  0.1
  C  C710  1  0.977170  0.306490  0.413570  1.0  0.0998
  C  C711  1  0.022830  0.306490  0.586430  1.0  0.1003
  C  C712  1  0.977170  0.693510  0.586430  1.0  0.0995
  C  C713  1  0.693510  0.586430  0.977170  1.0  0.1006
  C  C714  1  0.306490  0.586430  0.022830  1.0  0.1004
  C  C715  1  0.306490  0.413570  0.977170  1.0  0.1013
  C  C716  1  0.693510  0.413570  0.022830  1.0  0.0999
  C  C717  1  0.586430  0.022830  0.306490  1.0  0.1005
  C  C718  1  0.586430  0.977170  0.693510  1.0  0.1001
  C  C719  1  0.413570  0.022830  0.693510  1.0  0.1005
  C  C720  1  0.413570  0.977170  0.306490  1.0  0.101
  C  C721  1  0.306490  0.977170  0.413570  1.0  0.0997
  C  C722  1  0.693510  0.022830  0.413570  1.0  0.099
  C  C723  1  0.693510  0.977170  0.586430  1.0  0.0993
  C  C724  1  0.306490  0.022830  0.586430  1.0  0.0997
  C  C725  1  0.413570  0.306490  0.977170  1.0  0.1023
  C  C726  1  0.413570  0.693510  0.022830  1.0  0.1011
  C  C727  1  0.586430  0.693510  0.977170  1.0  0.1014
  C  C728  1  0.586430  0.306490  0.022830  1.0  0.101
  C  C729  1  0.977170  0.413570  0.306490  1.0  0.1008
  C  C730  1  0.022830  0.413570  0.693510  1.0  0.1007
  C  C731  1  0.977170  0.586430  0.693510  1.0  0.1
  C  C732  1  0.022830  0.586430  0.306490  1.0  0.1009
  C  C733  1  0.977170  0.306490  0.586430  1.0  0.1001
  C  C734  1  0.022830  0.693510  0.586430  1.0  0.1003
  C  C735  1  0.977170  0.693510  0.413570  1.0  0.0996
  C  C736  1  0.022830  0.306490  0.413570  1.0  0.1003
  C  C737  1  0.306490  0.413570  0.022830  1.0  0.1006
  C  C738  1  0.693510  0.413570  0.977170  1.0  0.1008
  C  C739  1  0.693510  0.586430  0.022830  1.0  0.1
  C  C740  1  0.306490  0.586430  0.977170  1.0  0.1014
  C  C741  1  0.413570  0.977170  0.693510  1.0  0.1006
  C  C742  1  0.413570  0.022830  0.306490  1.0  0.101
  C  C743  1  0.586430  0.977170  0.306490  1.0  0.1008
  C  C744  1  0.586430  0.022830  0.693510  1.0  0.1003
  C  C745  1  0.161640  0.550730  0.067910  1.0  0.7197
  C  C746  1  0.838360  0.449270  0.067910  1.0  0.7179
  C  C747  1  0.838360  0.550730  0.932090  1.0  0.7179
  C  C748  1  0.161640  0.449270  0.932090  1.0  0.7191
  C  C749  1  0.067910  0.161640  0.550730  1.0  0.7174
  C  C750  1  0.067910  0.838360  0.449270  1.0  0.7168
  C  C751  1  0.932090  0.838360  0.550730  1.0  0.7164
  C  C752  1  0.932090  0.161640  0.449270  1.0  0.7174
  C  C753  1  0.550730  0.067910  0.161640  1.0  0.7176
  C  C754  1  0.449270  0.067910  0.838360  1.0  0.7188
  C  C755  1  0.550730  0.932090  0.838360  1.0  0.7187
  C  C756  1  0.449270  0.932090  0.161640  1.0  0.7188
  C  C757  1  0.550730  0.161640  0.932090  1.0  0.718
  C  C758  1  0.449270  0.838360  0.932090  1.0  0.7156
  C  C759  1  0.550730  0.838360  0.067910  1.0  0.7165
  C  C760  1  0.449270  0.161640  0.067910  1.0  0.7171
  C  C761  1  0.161640  0.067910  0.449270  1.0  0.7191
  C  C762  1  0.838360  0.067910  0.550730  1.0  0.7188
  C  C763  1  0.838360  0.932090  0.449270  1.0  0.7174
  C  C764  1  0.161640  0.932090  0.550730  1.0  0.7177
  C  C765  1  0.067910  0.550730  0.838360  1.0  0.7178
  C  C766  1  0.067910  0.449270  0.161640  1.0  0.7192
  C  C767  1  0.932090  0.550730  0.161640  1.0  0.7185
  C  C768  1  0.932090  0.449270  0.838360  1.0  0.7206
  C  C769  1  0.838360  0.449270  0.932090  1.0  0.719
  C  C770  1  0.161640  0.550730  0.932090  1.0  0.7185
  C  C771  1  0.161640  0.449270  0.067910  1.0  0.7195
  C  C772  1  0.838360  0.550730  0.067910  1.0  0.7176
  C  C773  1  0.932090  0.838360  0.449270  1.0  0.7169
  C  C774  1  0.932090  0.161640  0.550730  1.0  0.7188
  C  C775  1  0.067910  0.161640  0.449270  1.0  0.7169
  C  C776  1  0.067910  0.838360  0.550730  1.0  0.7155
  C  C777  1  0.449270  0.932090  0.838360  1.0  0.7175
  C  C778  1  0.550730  0.932090  0.161640  1.0  0.7175
  C  C779  1  0.449270  0.067910  0.161640  1.0  0.7189
  C  C780  1  0.550730  0.067910  0.838360  1.0  0.7197
  C  C781  1  0.449270  0.838360  0.067910  1.0  0.7169
  C  C782  1  0.550730  0.161640  0.067910  1.0  0.7165
  C  C783  1  0.449270  0.161640  0.932090  1.0  0.7174
  C  C784  1  0.550730  0.838360  0.932090  1.0  0.7163
  C  C785  1  0.838360  0.932090  0.550730  1.0  0.7171
  C  C786  1  0.161640  0.932090  0.449270  1.0  0.7194
  C  C787  1  0.161640  0.067910  0.550730  1.0  0.7191
  C  C788  1  0.838360  0.067910  0.449270  1.0  0.7174
  C  C789  1  0.932090  0.449270  0.161640  1.0  0.7188
  C  C790  1  0.932090  0.550730  0.838360  1.0  0.7197
  C  C791  1  0.067910  0.449270  0.838360  1.0  0.7186
  C  C792  1  0.067910  0.550730  0.161640  1.0  0.7191
  C  C793  1  0.661640  0.050730  0.567910  1.0  0.7197
  C  C794  1  0.338360  0.949270  0.567910  1.0  0.7179
  C  C795  1  0.338360  0.050730  0.432090  1.0  0.7179
  C  C796  1  0.661640  0.949270  0.432090  1.0  0.7191
  C  C797  1  0.567910  0.661640  0.050730  1.0  0.7174
  C  C798  1  0.567910  0.338360  0.949270  1.0  0.7168
  C  C799  1  0.432090  0.338360  0.050730  1.0  0.7164
  C  C800  1  0.432090  0.661640  0.949270  1.0  0.7174
  C  C801  1  0.050730  0.567910  0.661640  1.0  0.7176
  C  C802  1  0.949270  0.567910  0.338360  1.0  0.7188
  C  C803  1  0.050730  0.432090  0.338360  1.0  0.7187
  C  C804  1  0.949270  0.432090  0.661640  1.0  0.7188
  C  C805  1  0.050730  0.661640  0.432090  1.0  0.718
  C  C806  1  0.949270  0.338360  0.432090  1.0  0.7156
  C  C807  1  0.050730  0.338360  0.567910  1.0  0.7165
  C  C808  1  0.949270  0.661640  0.567910  1.0  0.7171
  C  C809  1  0.661640  0.567910  0.949270  1.0  0.7191
  C  C810  1  0.338360  0.567910  0.050730  1.0  0.7188
  C  C811  1  0.338360  0.432090  0.949270  1.0  0.7174
  C  C812  1  0.661640  0.432090  0.050730  1.0  0.7177
  C  C813  1  0.567910  0.050730  0.338360  1.0  0.7178
  C  C814  1  0.567910  0.949270  0.661640  1.0  0.7192
  C  C815  1  0.432090  0.050730  0.661640  1.0  0.7185
  C  C816  1  0.432090  0.949270  0.338360  1.0  0.7206
  C  C817  1  0.338360  0.949270  0.432090  1.0  0.719
  C  C818  1  0.661640  0.050730  0.432090  1.0  0.7185
  C  C819  1  0.661640  0.949270  0.567910  1.0  0.7195
  C  C820  1  0.338360  0.050730  0.567910  1.0  0.7176
  C  C821  1  0.432090  0.338360  0.949270  1.0  0.7169
  C  C822  1  0.432090  0.661640  0.050730  1.0  0.7188
  C  C823  1  0.567910  0.661640  0.949270  1.0  0.7169
  C  C824  1  0.567910  0.338360  0.050730  1.0  0.7155
  C  C825  1  0.949270  0.432090  0.338360  1.0  0.7175
  C  C826  1  0.050730  0.432090  0.661640  1.0  0.7175
  C  C827  1  0.949270  0.567910  0.661640  1.0  0.7189
  C  C828  1  0.050730  0.567910  0.338360  1.0  0.7197
  C  C829  1  0.949270  0.338360  0.567910  1.0  0.7169
  C  C830  1  0.050730  0.661640  0.567910  1.0  0.7165
  C  C831  1  0.949270  0.661640  0.432090  1.0  0.7174
  C  C832  1  0.050730  0.338360  0.432090  1.0  0.7163
  C  C833  1  0.338360  0.432090  0.050730  1.0  0.7171
  C  C834  1  0.661640  0.432090  0.949270  1.0  0.7194
  C  C835  1  0.661640  0.567910  0.050730  1.0  0.7191
  C  C836  1  0.338360  0.567910  0.949270  1.0  0.7174
  C  C837  1  0.432090  0.949270  0.661640  1.0  0.7188
  C  C838  1  0.432090  0.050730  0.338360  1.0  0.7197
  C  C839  1  0.567910  0.949270  0.338360  1.0  0.7186
  C  C840  1  0.567910  0.050730  0.661640  1.0  0.7191
  C  C841  1  0.169990  0.601170  0.169990  1.0  0.3813
  C  C842  1  0.830010  0.398830  0.169990  1.0  0.3788
  C  C843  1  0.830010  0.601170  0.830010  1.0  0.3801
  C  C844  1  0.169990  0.398830  0.830010  1.0  0.3774
  C  C845  1  0.169990  0.169990  0.601170  1.0  0.3834
  C  C846  1  0.169990  0.830010  0.398830  1.0  0.3795
  C  C847  1  0.830010  0.830010  0.601170  1.0  0.3794
  C  C848  1  0.830010  0.169990  0.398830  1.0  0.3838
  C  C849  1  0.601170  0.169990  0.169990  1.0  0.3853
  C  C850  1  0.398830  0.169990  0.830010  1.0  0.3851
  C  C851  1  0.601170  0.830010  0.830010  1.0  0.3794
  C  C852  1  0.398830  0.830010  0.169990  1.0  0.3811
  C  C853  1  0.601170  0.169990  0.830010  1.0  0.3832
  C  C854  1  0.398830  0.830010  0.830010  1.0  0.3809
  C  C855  1  0.601170  0.830010  0.169990  1.0  0.3813
  C  C856  1  0.398830  0.169990  0.169990  1.0  0.3856
  C  C857  1  0.169990  0.169990  0.398830  1.0  0.3834
  C  C858  1  0.830010  0.169990  0.601170  1.0  0.3832
  C  C859  1  0.830010  0.830010  0.398830  1.0  0.3798
  C  C860  1  0.169990  0.830010  0.601170  1.0  0.3797
  C  C861  1  0.169990  0.601170  0.830010  1.0  0.3794
  C  C862  1  0.169990  0.398830  0.169990  1.0  0.3791
  C  C863  1  0.830010  0.601170  0.169990  1.0  0.3812
  C  C864  1  0.830010  0.398830  0.830010  1.0  0.378
  C  C865  1  0.669990  0.101170  0.669990  1.0  0.3813
  C  C866  1  0.330010  0.898830  0.669990  1.0  0.3788
  C  C867  1  0.330010  0.101170  0.330010  1.0  0.3801
  C  C868  1  0.669990  0.898830  0.330010  1.0  0.3774
  C  C869  1  0.669990  0.669990  0.101170  1.0  0.3834
  C  C870  1  0.669990  0.330010  0.898830  1.0  0.3795
  C  C871  1  0.330010  0.330010  0.101170  1.0  0.3794
  C  C872  1  0.330010  0.669990  0.898830  1.0  0.3838
  C  C873  1  0.101170  0.669990  0.669990  1.0  0.3853
  C  C874  1  0.898830  0.669990  0.330010  1.0  0.3851
  C  C875  1  0.101170  0.330010  0.330010  1.0  0.3794
  C  C876  1  0.898830  0.330010  0.669990  1.0  0.3811
  C  C877  1  0.101170  0.669990  0.330010  1.0  0.3832
  C  C878  1  0.898830  0.330010  0.330010  1.0  0.3809
  C  C879  1  0.101170  0.330010  0.669990  1.0  0.3813
  C  C880  1  0.898830  0.669990  0.669990  1.0  0.3856
  C  C881  1  0.669990  0.669990  0.898830  1.0  0.3834
  C  C882  1  0.330010  0.669990  0.101170  1.0  0.3832
  C  C883  1  0.330010  0.330010  0.898830  1.0  0.3798
  C  C884  1  0.669990  0.330010  0.101170  1.0  0.3797
  C  C885  1  0.669990  0.101170  0.330010  1.0  0.3794
  C  C886  1  0.669990  0.898830  0.669990  1.0  0.3791
  C  C887  1  0.330010  0.101170  0.669990  1.0  0.3812
  C  C888  1  0.330010  0.898830  0.330010  1.0  0.378
  C  C889  1  0.253040  0.500000  0.115070  1.0  0.403
  C  C890  1  0.746960  0.500000  0.115070  1.0  0.4045
  C  C891  1  0.746960  0.500000  0.884930  1.0  0.4034
  C  C892  1  0.253040  0.500000  0.884930  1.0  0.4023
  C  C893  1  0.115070  0.253040  0.500000  1.0  0.3997
  C  C894  1  0.115070  0.746960  0.500000  1.0  0.4009
  C  C895  1  0.884930  0.746960  0.500000  1.0  0.4024
  C  C896  1  0.884930  0.253040  0.500000  1.0  0.4013
  C  C897  1  0.500000  0.115070  0.253040  1.0  0.4014
  C  C898  1  0.500000  0.115070  0.746960  1.0  0.4009
  C  C899  1  0.500000  0.884930  0.746960  1.0  0.4006
  C  C900  1  0.500000  0.884930  0.253040  1.0  0.4024
  C  C901  1  0.500000  0.253040  0.884930  1.0  0.3998
  C  C902  1  0.500000  0.746960  0.884930  1.0  0.4004
  C  C903  1  0.500000  0.746960  0.115070  1.0  0.4015
  C  C904  1  0.500000  0.253040  0.115070  1.0  0.4005
  C  C905  1  0.253040  0.115070  0.500000  1.0  0.4012
  C  C906  1  0.746960  0.115070  0.500000  1.0  0.4022
  C  C907  1  0.746960  0.884930  0.500000  1.0  0.4031
  C  C908  1  0.253040  0.884930  0.500000  1.0  0.4016
  C  C909  1  0.115070  0.500000  0.746960  1.0  0.4023
  C  C910  1  0.115070  0.500000  0.253040  1.0  0.4028
  C  C911  1  0.884930  0.500000  0.253040  1.0  0.4046
  C  C912  1  0.884930  0.500000  0.746960  1.0  0.4038
  C  C913  1  0.753040  0.000000  0.615070  1.0  0.403
  C  C914  1  0.246960  0.000000  0.615070  1.0  0.4045
  C  C915  1  0.246960  0.000000  0.384930  1.0  0.4034
  C  C916  1  0.753040  0.000000  0.384930  1.0  0.4023
  C  C917  1  0.615070  0.753040  0.000000  1.0  0.3997
  C  C918  1  0.615070  0.246960  0.000000  1.0  0.4009
  C  C919  1  0.384930  0.246960  0.000000  1.0  0.4024
  C  C920  1  0.384930  0.753040  0.000000  1.0  0.4013
  C  C921  1  0.000000  0.615070  0.753040  1.0  0.4014
  C  C922  1  0.000000  0.615070  0.246960  1.0  0.4009
  C  C923  1  0.000000  0.384930  0.246960  1.0  0.4006
  C  C924  1  0.000000  0.384930  0.753040  1.0  0.4024
  C  C925  1  0.000000  0.753040  0.384930  1.0  0.3998
  C  C926  1  0.000000  0.246960  0.384930  1.0  0.4004
  C  C927  1  0.000000  0.246960  0.615070  1.0  0.4015
  C  C928  1  0.000000  0.753040  0.615070  1.0  0.4005
  C  C929  1  0.753040  0.615070  0.000000  1.0  0.4012
  C  C930  1  0.246960  0.615070  0.000000  1.0  0.4022
  C  C931  1  0.246960  0.384930  0.000000  1.0  0.4031
  C  C932  1  0.753040  0.384930  0.000000  1.0  0.4016
  C  C933  1  0.615070  0.000000  0.246960  1.0  0.4023
  C  C934  1  0.615070  0.000000  0.753040  1.0  0.4028
  C  C935  1  0.384930  0.000000  0.753040  1.0  0.4046
  C  C936  1  0.384930  0.000000  0.246960  1.0  0.4038
  N  N937  1  0.193130  0.628930  0.139060  1.0  -0.3275
  N  N938  1  0.806870  0.371070  0.139060  1.0  -0.3298
  N  N939  1  0.806870  0.628930  0.860940  1.0  -0.3293
  N  N940  1  0.193130  0.371070  0.860940  1.0  -0.3269
  N  N941  1  0.139060  0.193130  0.628930  1.0  -0.3308
  N  N942  1  0.139060  0.806870  0.371070  1.0  -0.3307
  N  N943  1  0.860940  0.806870  0.628930  1.0  -0.3282
  N  N944  1  0.860940  0.193130  0.371070  1.0  -0.3286
  N  N945  1  0.628930  0.139060  0.193130  1.0  -0.3307
  N  N946  1  0.371070  0.139060  0.806870  1.0  -0.3307
  N  N947  1  0.628930  0.860940  0.806870  1.0  -0.331
  N  N948  1  0.371070  0.860940  0.193130  1.0  -0.3303
  N  N949  1  0.628930  0.193130  0.860940  1.0  -0.3305
  N  N950  1  0.371070  0.806870  0.860940  1.0  -0.33
  N  N951  1  0.628930  0.806870  0.139060  1.0  -0.331
  N  N952  1  0.371070  0.193130  0.139060  1.0  -0.3307
  N  N953  1  0.193130  0.139060  0.371070  1.0  -0.3278
  N  N954  1  0.806870  0.139060  0.628930  1.0  -0.3305
  N  N955  1  0.806870  0.860940  0.371070  1.0  -0.3307
  N  N956  1  0.193130  0.860940  0.628930  1.0  -0.328
  N  N957  1  0.139060  0.628930  0.806870  1.0  -0.3301
  N  N958  1  0.139060  0.371070  0.193130  1.0  -0.3302
  N  N959  1  0.860940  0.628930  0.193130  1.0  -0.3278
  N  N960  1  0.860940  0.371070  0.806870  1.0  -0.3282
  N  N961  1  0.806870  0.371070  0.860940  1.0  -0.3293
  N  N962  1  0.193130  0.628930  0.860940  1.0  -0.327
  N  N963  1  0.193130  0.371070  0.139060  1.0  -0.3275
  N  N964  1  0.806870  0.628930  0.139060  1.0  -0.3296
  N  N965  1  0.860940  0.806870  0.371070  1.0  -0.3283
  N  N966  1  0.860940  0.193130  0.628930  1.0  -0.3284
  N  N967  1  0.139060  0.193130  0.371070  1.0  -0.331
  N  N968  1  0.139060  0.806870  0.628930  1.0  -0.3307
  N  N969  1  0.371070  0.860940  0.806870  1.0  -0.3309
  N  N970  1  0.628930  0.860940  0.193130  1.0  -0.3306
  N  N971  1  0.371070  0.139060  0.193130  1.0  -0.3302
  N  N972  1  0.628930  0.139060  0.806870  1.0  -0.331
  N  N973  1  0.371070  0.806870  0.139060  1.0  -0.3307
  N  N974  1  0.628930  0.193130  0.139060  1.0  -0.3308
  N  N975  1  0.371070  0.193130  0.860940  1.0  -0.3303
  N  N976  1  0.628930  0.806870  0.860940  1.0  -0.3304
  N  N977  1  0.806870  0.860940  0.628930  1.0  -0.3303
  N  N978  1  0.193130  0.860940  0.371070  1.0  -0.3284
  N  N979  1  0.193130  0.139060  0.628930  1.0  -0.3276
  N  N980  1  0.806870  0.139060  0.371070  1.0  -0.3304
  N  N981  1  0.860940  0.371070  0.193130  1.0  -0.3276
  N  N982  1  0.860940  0.628930  0.806870  1.0  -0.328
  N  N983  1  0.139060  0.371070  0.806870  1.0  -0.3304
  N  N984  1  0.139060  0.628930  0.193130  1.0  -0.3302
  N  N985  1  0.693130  0.128930  0.639060  1.0  -0.3275
  N  N986  1  0.306870  0.871070  0.639060  1.0  -0.3298
  N  N987  1  0.306870  0.128930  0.360940  1.0  -0.3293
  N  N988  1  0.693130  0.871070  0.360940  1.0  -0.3269
  N  N989  1  0.639060  0.693130  0.128930  1.0  -0.3308
  N  N990  1  0.639060  0.306870  0.871070  1.0  -0.3307
  N  N991  1  0.360940  0.306870  0.128930  1.0  -0.3282
  N  N992  1  0.360940  0.693130  0.871070  1.0  -0.3286
  N  N993  1  0.128930  0.639060  0.693130  1.0  -0.3307
  N  N994  1  0.871070  0.639060  0.306870  1.0  -0.3307
  N  N995  1  0.128930  0.360940  0.306870  1.0  -0.331
  N  N996  1  0.871070  0.360940  0.693130  1.0  -0.3303
  N  N997  1  0.128930  0.693130  0.360940  1.0  -0.3305
  N  N998  1  0.871070  0.306870  0.360940  1.0  -0.33
  N  N999  1  0.128930  0.306870  0.639060  1.0  -0.331
  N  N1000  1  0.871070  0.693130  0.639060  1.0  -0.3307
  N  N1001  1  0.693130  0.639060  0.871070  1.0  -0.3278
  N  N1002  1  0.306870  0.639060  0.128930  1.0  -0.3305
  N  N1003  1  0.306870  0.360940  0.871070  1.0  -0.3307
  N  N1004  1  0.693130  0.360940  0.128930  1.0  -0.328
  N  N1005  1  0.639060  0.128930  0.306870  1.0  -0.3301
  N  N1006  1  0.639060  0.871070  0.693130  1.0  -0.3302
  N  N1007  1  0.360940  0.128930  0.693130  1.0  -0.3278
  N  N1008  1  0.360940  0.871070  0.306870  1.0  -0.3282
  N  N1009  1  0.306870  0.871070  0.360940  1.0  -0.3293
  N  N1010  1  0.693130  0.128930  0.360940  1.0  -0.327
  N  N1011  1  0.693130  0.871070  0.639060  1.0  -0.3275
  N  N1012  1  0.306870  0.128930  0.639060  1.0  -0.3296
  N  N1013  1  0.360940  0.306870  0.871070  1.0  -0.3283
  N  N1014  1  0.360940  0.693130  0.128930  1.0  -0.3284
  N  N1015  1  0.639060  0.693130  0.871070  1.0  -0.331
  N  N1016  1  0.639060  0.306870  0.128930  1.0  -0.3307
  N  N1017  1  0.871070  0.360940  0.306870  1.0  -0.3309
  N  N1018  1  0.128930  0.360940  0.693130  1.0  -0.3306
  N  N1019  1  0.871070  0.639060  0.693130  1.0  -0.3302
  N  N1020  1  0.128930  0.639060  0.306870  1.0  -0.331
  N  N1021  1  0.871070  0.306870  0.639060  1.0  -0.3307
  N  N1022  1  0.128930  0.693130  0.639060  1.0  -0.3308
  N  N1023  1  0.871070  0.693130  0.360940  1.0  -0.3303
  N  N1024  1  0.128930  0.306870  0.360940  1.0  -0.3304
  N  N1025  1  0.306870  0.360940  0.128930  1.0  -0.3303
  N  N1026  1  0.693130  0.360940  0.871070  1.0  -0.3284
  N  N1027  1  0.693130  0.639060  0.128930  1.0  -0.3276
  N  N1028  1  0.306870  0.639060  0.871070  1.0  -0.3304
  N  N1029  1  0.360940  0.871070  0.693130  1.0  -0.3276
  N  N1030  1  0.360940  0.128930  0.306870  1.0  -0.328
  N  N1031  1  0.639060  0.871070  0.306870  1.0  -0.3304
  N  N1032  1  0.639060  0.128930  0.693130  1.0  -0.3302
  N  N1033  1  0.231490  0.536970  0.104170  1.0  -0.4525
  N  N1034  1  0.768510  0.463030  0.104170  1.0  -0.452
  N  N1035  1  0.768510  0.536970  0.895830  1.0  -0.4533
  N  N1036  1  0.231490  0.463030  0.895830  1.0  -0.4499
  N  N1037  1  0.104170  0.231490  0.536970  1.0  -0.4483
  N  N1038  1  0.104170  0.768510  0.463030  1.0  -0.4488
  N  N1039  1  0.895830  0.768510  0.536970  1.0  -0.4489
  N  N1040  1  0.895830  0.231490  0.463030  1.0  -0.4498
  N  N1041  1  0.536970  0.104170  0.231490  1.0  -0.4504
  N  N1042  1  0.463030  0.104170  0.768510  1.0  -0.4503
  N  N1043  1  0.536970  0.895830  0.768510  1.0  -0.4492
  N  N1044  1  0.463030  0.895830  0.231490  1.0  -0.4497
  N  N1045  1  0.536970  0.231490  0.895830  1.0  -0.4498
  N  N1046  1  0.463030  0.768510  0.895830  1.0  -0.4504
  N  N1047  1  0.536970  0.768510  0.104170  1.0  -0.4503
  N  N1048  1  0.463030  0.231490  0.104170  1.0  -0.4517
  N  N1049  1  0.231490  0.104170  0.463030  1.0  -0.4487
  N  N1050  1  0.768510  0.104170  0.536970  1.0  -0.4495
  N  N1051  1  0.768510  0.895830  0.463030  1.0  -0.4495
  N  N1052  1  0.231490  0.895830  0.536970  1.0  -0.4471
  N  N1053  1  0.104170  0.536970  0.768510  1.0  -0.4521
  N  N1054  1  0.104170  0.463030  0.231490  1.0  -0.4501
  N  N1055  1  0.895830  0.536970  0.231490  1.0  -0.4532
  N  N1056  1  0.895830  0.463030  0.768510  1.0  -0.451
  N  N1057  1  0.768510  0.463030  0.895830  1.0  -0.4514
  N  N1058  1  0.231490  0.536970  0.895830  1.0  -0.4519
  N  N1059  1  0.231490  0.463030  0.104170  1.0  -0.4503
  N  N1060  1  0.768510  0.536970  0.104170  1.0  -0.4541
  N  N1061  1  0.895830  0.768510  0.463030  1.0  -0.45
  N  N1062  1  0.895830  0.231490  0.536970  1.0  -0.4496
  N  N1063  1  0.104170  0.231490  0.463030  1.0  -0.4488
  N  N1064  1  0.104170  0.768510  0.536970  1.0  -0.4478
  N  N1065  1  0.463030  0.895830  0.768510  1.0  -0.45
  N  N1066  1  0.536970  0.895830  0.231490  1.0  -0.4493
  N  N1067  1  0.463030  0.104170  0.231490  1.0  -0.4504
  N  N1068  1  0.536970  0.104170  0.768510  1.0  -0.4498
  N  N1069  1  0.463030  0.768510  0.104170  1.0  -0.4508
  N  N1070  1  0.536970  0.231490  0.104170  1.0  -0.4511
  N  N1071  1  0.463030  0.231490  0.895830  1.0  -0.4507
  N  N1072  1  0.536970  0.768510  0.895830  1.0  -0.4496
  N  N1073  1  0.768510  0.895830  0.536970  1.0  -0.4486
  N  N1074  1  0.231490  0.895830  0.463030  1.0  -0.4483
  N  N1075  1  0.231490  0.104170  0.536970  1.0  -0.4481
  N  N1076  1  0.768510  0.104170  0.463030  1.0  -0.4498
  N  N1077  1  0.895830  0.463030  0.231490  1.0  -0.4511
  N  N1078  1  0.895830  0.536970  0.768510  1.0  -0.4532
  N  N1079  1  0.104170  0.463030  0.768510  1.0  -0.4502
  N  N1080  1  0.104170  0.536970  0.231490  1.0  -0.4519
  N  N1081  1  0.731490  0.036970  0.604170  1.0  -0.4525
  N  N1082  1  0.268510  0.963030  0.604170  1.0  -0.452
  N  N1083  1  0.268510  0.036970  0.395830  1.0  -0.4533
  N  N1084  1  0.731490  0.963030  0.395830  1.0  -0.4499
  N  N1085  1  0.604170  0.731490  0.036970  1.0  -0.4483
  N  N1086  1  0.604170  0.268510  0.963030  1.0  -0.4488
  N  N1087  1  0.395830  0.268510  0.036970  1.0  -0.4489
  N  N1088  1  0.395830  0.731490  0.963030  1.0  -0.4498
  N  N1089  1  0.036970  0.604170  0.731490  1.0  -0.4504
  N  N1090  1  0.963030  0.604170  0.268510  1.0  -0.4503
  N  N1091  1  0.036970  0.395830  0.268510  1.0  -0.4492
  N  N1092  1  0.963030  0.395830  0.731490  1.0  -0.4497
  N  N1093  1  0.036970  0.731490  0.395830  1.0  -0.4498
  N  N1094  1  0.963030  0.268510  0.395830  1.0  -0.4504
  N  N1095  1  0.036970  0.268510  0.604170  1.0  -0.4503
  N  N1096  1  0.963030  0.731490  0.604170  1.0  -0.4517
  N  N1097  1  0.731490  0.604170  0.963030  1.0  -0.4487
  N  N1098  1  0.268510  0.604170  0.036970  1.0  -0.4495
  N  N1099  1  0.268510  0.395830  0.963030  1.0  -0.4495
  N  N1100  1  0.731490  0.395830  0.036970  1.0  -0.4471
  N  N1101  1  0.604170  0.036970  0.268510  1.0  -0.4521
  N  N1102  1  0.604170  0.963030  0.731490  1.0  -0.4501
  N  N1103  1  0.395830  0.036970  0.731490  1.0  -0.4532
  N  N1104  1  0.395830  0.963030  0.268510  1.0  -0.451
  N  N1105  1  0.268510  0.963030  0.395830  1.0  -0.4514
  N  N1106  1  0.731490  0.036970  0.395830  1.0  -0.4519
  N  N1107  1  0.731490  0.963030  0.604170  1.0  -0.4503
  N  N1108  1  0.268510  0.036970  0.604170  1.0  -0.4541
  N  N1109  1  0.395830  0.268510  0.963030  1.0  -0.45
  N  N1110  1  0.395830  0.731490  0.036970  1.0  -0.4496
  N  N1111  1  0.604170  0.731490  0.963030  1.0  -0.4488
  N  N1112  1  0.604170  0.268510  0.036970  1.0  -0.4478
  N  N1113  1  0.963030  0.395830  0.268510  1.0  -0.45
  N  N1114  1  0.036970  0.395830  0.731490  1.0  -0.4493
  N  N1115  1  0.963030  0.604170  0.731490  1.0  -0.4504
  N  N1116  1  0.036970  0.604170  0.268510  1.0  -0.4498
  N  N1117  1  0.963030  0.268510  0.604170  1.0  -0.4508
  N  N1118  1  0.036970  0.731490  0.604170  1.0  -0.4511
  N  N1119  1  0.963030  0.731490  0.395830  1.0  -0.4507
  N  N1120  1  0.036970  0.268510  0.395830  1.0  -0.4496
  N  N1121  1  0.268510  0.395830  0.036970  1.0  -0.4486
  N  N1122  1  0.731490  0.395830  0.963030  1.0  -0.4483
  N  N1123  1  0.731490  0.604170  0.036970  1.0  -0.4481
  N  N1124  1  0.268510  0.604170  0.963030  1.0  -0.4498
  N  N1125  1  0.395830  0.963030  0.731490  1.0  -0.4511
  N  N1126  1  0.395830  0.036970  0.268510  1.0  -0.4532
  N  N1127  1  0.604170  0.963030  0.268510  1.0  -0.4502
  N  N1128  1  0.604170  0.036970  0.731490  1.0  -0.4519
  O  O1129  1  0.207540  0.700270  0.081400  1.0  -0.5293
  O  O1130  1  0.792460  0.299730  0.081400  1.0  -0.53
  O  O1131  1  0.792460  0.700270  0.918600  1.0  -0.5297
  O  O1132  1  0.207540  0.299730  0.918600  1.0  -0.5298
  O  O1133  1  0.081400  0.207540  0.700270  1.0  -0.5262
  O  O1134  1  0.081400  0.792460  0.299730  1.0  -0.5261
  O  O1135  1  0.918600  0.792460  0.700270  1.0  -0.5262
  O  O1136  1  0.918600  0.207540  0.299730  1.0  -0.5269
  O  O1137  1  0.700270  0.081400  0.207540  1.0  -0.5237
  O  O1138  1  0.299730  0.081400  0.792460  1.0  -0.5263
  O  O1139  1  0.700270  0.918600  0.792460  1.0  -0.5251
  O  O1140  1  0.299730  0.918600  0.207540  1.0  -0.5253
  O  O1141  1  0.700270  0.207540  0.918600  1.0  -0.5288
  O  O1142  1  0.299730  0.792460  0.918600  1.0  -0.5295
  O  O1143  1  0.700270  0.792460  0.081400  1.0  -0.5282
  O  O1144  1  0.299730  0.207540  0.081400  1.0  -0.5295
  O  O1145  1  0.207540  0.081400  0.299730  1.0  -0.524
  O  O1146  1  0.792460  0.081400  0.700270  1.0  -0.5243
  O  O1147  1  0.792460  0.918600  0.299730  1.0  -0.5249
  O  O1148  1  0.207540  0.918600  0.700270  1.0  -0.5243
  O  O1149  1  0.081400  0.700270  0.792460  1.0  -0.5282
  O  O1150  1  0.081400  0.299730  0.207540  1.0  -0.5266
  O  O1151  1  0.918600  0.700270  0.207540  1.0  -0.5273
  O  O1152  1  0.918600  0.299730  0.792460  1.0  -0.5289
  O  O1153  1  0.792460  0.299730  0.918600  1.0  -0.5301
  O  O1154  1  0.207540  0.700270  0.918600  1.0  -0.5294
  O  O1155  1  0.207540  0.299730  0.081400  1.0  -0.5296
  O  O1156  1  0.792460  0.700270  0.081400  1.0  -0.5297
  O  O1157  1  0.918600  0.792460  0.299730  1.0  -0.5263
  O  O1158  1  0.918600  0.207540  0.700270  1.0  -0.5267
  O  O1159  1  0.081400  0.207540  0.299730  1.0  -0.5264
  O  O1160  1  0.081400  0.792460  0.700270  1.0  -0.5258
  O  O1161  1  0.299730  0.918600  0.792460  1.0  -0.5265
  O  O1162  1  0.700270  0.918600  0.207540  1.0  -0.5239
  O  O1163  1  0.299730  0.081400  0.207540  1.0  -0.5248
  O  O1164  1  0.700270  0.081400  0.792460  1.0  -0.5252
  O  O1165  1  0.299730  0.792460  0.081400  1.0  -0.5293
  O  O1166  1  0.700270  0.207540  0.081400  1.0  -0.5285
  O  O1167  1  0.299730  0.207540  0.918600  1.0  -0.5299
  O  O1168  1  0.700270  0.792460  0.918600  1.0  -0.5283
  O  O1169  1  0.792460  0.918600  0.700270  1.0  -0.5247
  O  O1170  1  0.207540  0.918600  0.299730  1.0  -0.5246
  O  O1171  1  0.207540  0.081400  0.700270  1.0  -0.5239
  O  O1172  1  0.792460  0.081400  0.299730  1.0  -0.5243
  O  O1173  1  0.918600  0.299730  0.207540  1.0  -0.5279
  O  O1174  1  0.918600  0.700270  0.792460  1.0  -0.5282
  O  O1175  1  0.081400  0.299730  0.792460  1.0  -0.5285
  O  O1176  1  0.081400  0.700270  0.207540  1.0  -0.5265
  O  O1177  1  0.707540  0.200270  0.581400  1.0  -0.5293
  O  O1178  1  0.292460  0.799730  0.581400  1.0  -0.53
  O  O1179  1  0.292460  0.200270  0.418600  1.0  -0.5297
  O  O1180  1  0.707540  0.799730  0.418600  1.0  -0.5298
  O  O1181  1  0.581400  0.707540  0.200270  1.0  -0.5262
  O  O1182  1  0.581400  0.292460  0.799730  1.0  -0.5261
  O  O1183  1  0.418600  0.292460  0.200270  1.0  -0.5262
  O  O1184  1  0.418600  0.707540  0.799730  1.0  -0.5269
  O  O1185  1  0.200270  0.581400  0.707540  1.0  -0.5237
  O  O1186  1  0.799730  0.581400  0.292460  1.0  -0.5263
  O  O1187  1  0.200270  0.418600  0.292460  1.0  -0.5251
  O  O1188  1  0.799730  0.418600  0.707540  1.0  -0.5253
  O  O1189  1  0.200270  0.707540  0.418600  1.0  -0.5288
  O  O1190  1  0.799730  0.292460  0.418600  1.0  -0.5295
  O  O1191  1  0.200270  0.292460  0.581400  1.0  -0.5282
  O  O1192  1  0.799730  0.707540  0.581400  1.0  -0.5295
  O  O1193  1  0.707540  0.581400  0.799730  1.0  -0.524
  O  O1194  1  0.292460  0.581400  0.200270  1.0  -0.5243
  O  O1195  1  0.292460  0.418600  0.799730  1.0  -0.5249
  O  O1196  1  0.707540  0.418600  0.200270  1.0  -0.5243
  O  O1197  1  0.581400  0.200270  0.292460  1.0  -0.5282
  O  O1198  1  0.581400  0.799730  0.707540  1.0  -0.5266
  O  O1199  1  0.418600  0.200270  0.707540  1.0  -0.5273
  O  O1200  1  0.418600  0.799730  0.292460  1.0  -0.5289
  O  O1201  1  0.292460  0.799730  0.418600  1.0  -0.5301
  O  O1202  1  0.707540  0.200270  0.418600  1.0  -0.5294
  O  O1203  1  0.707540  0.799730  0.581400  1.0  -0.5296
  O  O1204  1  0.292460  0.200270  0.581400  1.0  -0.5297
  O  O1205  1  0.418600  0.292460  0.799730  1.0  -0.5263
  O  O1206  1  0.418600  0.707540  0.200270  1.0  -0.5267
  O  O1207  1  0.581400  0.707540  0.799730  1.0  -0.5264
  O  O1208  1  0.581400  0.292460  0.200270  1.0  -0.5258
  O  O1209  1  0.799730  0.418600  0.292460  1.0  -0.5265
  O  O1210  1  0.200270  0.418600  0.707540  1.0  -0.5239
  O  O1211  1  0.799730  0.581400  0.707540  1.0  -0.5248
  O  O1212  1  0.200270  0.581400  0.292460  1.0  -0.5252
  O  O1213  1  0.799730  0.292460  0.581400  1.0  -0.5293
  O  O1214  1  0.200270  0.707540  0.581400  1.0  -0.5285
  O  O1215  1  0.799730  0.707540  0.418600  1.0  -0.5299
  O  O1216  1  0.200270  0.292460  0.418600  1.0  -0.5283
  O  O1217  1  0.292460  0.418600  0.200270  1.0  -0.5247
  O  O1218  1  0.707540  0.418600  0.799730  1.0  -0.5246
  O  O1219  1  0.707540  0.581400  0.200270  1.0  -0.5239
  O  O1220  1  0.292460  0.581400  0.799730  1.0  -0.5243
  O  O1221  1  0.418600  0.799730  0.707540  1.0  -0.5279
  O  O1222  1  0.418600  0.200270  0.292460  1.0  -0.5282
  O  O1223  1  0.581400  0.799730  0.292460  1.0  -0.5285
  O  O1224  1  0.581400  0.200270  0.707540  1.0  -0.5265
  O  O1225  1  0.188160  0.746610  0.130800  1.0  -0.4615
  O  O1226  1  0.811840  0.253390  0.130800  1.0  -0.4629
  O  O1227  1  0.811840  0.746610  0.869200  1.0  -0.4616
  O  O1228  1  0.188160  0.253390  0.869200  1.0  -0.4638
  O  O1229  1  0.130800  0.188160  0.746610  1.0  -0.4674
  O  O1230  1  0.130800  0.811840  0.253390  1.0  -0.4669
  O  O1231  1  0.869200  0.811840  0.746610  1.0  -0.468
  O  O1232  1  0.869200  0.188160  0.253390  1.0  -0.467
  O  O1233  1  0.746610  0.130800  0.188160  1.0  -0.4659
  O  O1234  1  0.253390  0.130800  0.811840  1.0  -0.4637
  O  O1235  1  0.746610  0.869200  0.811840  1.0  -0.4669
  O  O1236  1  0.253390  0.869200  0.188160  1.0  -0.4641
  O  O1237  1  0.746610  0.188160  0.869200  1.0  -0.467
  O  O1238  1  0.253390  0.811840  0.869200  1.0  -0.4645
  O  O1239  1  0.746610  0.811840  0.130800  1.0  -0.4668
  O  O1240  1  0.253390  0.188160  0.130800  1.0  -0.4636
  O  O1241  1  0.188160  0.130800  0.253390  1.0  -0.4661
  O  O1242  1  0.811840  0.130800  0.746610  1.0  -0.4679
  O  O1243  1  0.811840  0.869200  0.253390  1.0  -0.4671
  O  O1244  1  0.188160  0.869200  0.746610  1.0  -0.4673
  O  O1245  1  0.130800  0.746610  0.811840  1.0  -0.4614
  O  O1246  1  0.130800  0.253390  0.188160  1.0  -0.4632
  O  O1247  1  0.869200  0.746610  0.188160  1.0  -0.4611
  O  O1248  1  0.869200  0.253390  0.811840  1.0  -0.4628
  O  O1249  1  0.811840  0.253390  0.869200  1.0  -0.4641
  O  O1250  1  0.188160  0.746610  0.869200  1.0  -0.4615
  O  O1251  1  0.188160  0.253390  0.130800  1.0  -0.4629
  O  O1252  1  0.811840  0.746610  0.130800  1.0  -0.4615
  O  O1253  1  0.869200  0.811840  0.253390  1.0  -0.4667
  O  O1254  1  0.869200  0.188160  0.746610  1.0  -0.4679
  O  O1255  1  0.130800  0.188160  0.253390  1.0  -0.4674
  O  O1256  1  0.130800  0.811840  0.746610  1.0  -0.4673
  O  O1257  1  0.253390  0.869200  0.811840  1.0  -0.4644
  O  O1258  1  0.746610  0.869200  0.188160  1.0  -0.4665
  O  O1259  1  0.253390  0.130800  0.188160  1.0  -0.4636
  O  O1260  1  0.746610  0.130800  0.811840  1.0  -0.4661
  O  O1261  1  0.253390  0.811840  0.130800  1.0  -0.4637
  O  O1262  1  0.746610  0.188160  0.130800  1.0  -0.4668
  O  O1263  1  0.253390  0.188160  0.869200  1.0  -0.4646
  O  O1264  1  0.746610  0.811840  0.869200  1.0  -0.4669
  O  O1265  1  0.811840  0.869200  0.746610  1.0  -0.4679
  O  O1266  1  0.188160  0.869200  0.253390  1.0  -0.467
  O  O1267  1  0.188160  0.130800  0.746610  1.0  -0.4674
  O  O1268  1  0.811840  0.130800  0.253390  1.0  -0.4659
  O  O1269  1  0.869200  0.253390  0.188160  1.0  -0.4627
  O  O1270  1  0.869200  0.746610  0.811840  1.0  -0.4611
  O  O1271  1  0.130800  0.253390  0.811840  1.0  -0.4634
  O  O1272  1  0.130800  0.746610  0.188160  1.0  -0.4612
  O  O1273  1  0.688160  0.246610  0.630800  1.0  -0.4615
  O  O1274  1  0.311840  0.753390  0.630800  1.0  -0.4629
  O  O1275  1  0.311840  0.246610  0.369200  1.0  -0.4616
  O  O1276  1  0.688160  0.753390  0.369200  1.0  -0.4638
  O  O1277  1  0.630800  0.688160  0.246610  1.0  -0.4674
  O  O1278  1  0.630800  0.311840  0.753390  1.0  -0.4669
  O  O1279  1  0.369200  0.311840  0.246610  1.0  -0.468
  O  O1280  1  0.369200  0.688160  0.753390  1.0  -0.467
  O  O1281  1  0.246610  0.630800  0.688160  1.0  -0.4659
  O  O1282  1  0.753390  0.630800  0.311840  1.0  -0.4637
  O  O1283  1  0.246610  0.369200  0.311840  1.0  -0.4669
  O  O1284  1  0.753390  0.369200  0.688160  1.0  -0.4641
  O  O1285  1  0.246610  0.688160  0.369200  1.0  -0.467
  O  O1286  1  0.753390  0.311840  0.369200  1.0  -0.4645
  O  O1287  1  0.246610  0.311840  0.630800  1.0  -0.4668
  O  O1288  1  0.753390  0.688160  0.630800  1.0  -0.4636
  O  O1289  1  0.688160  0.630800  0.753390  1.0  -0.4661
  O  O1290  1  0.311840  0.630800  0.246610  1.0  -0.4679
  O  O1291  1  0.311840  0.369200  0.753390  1.0  -0.4671
  O  O1292  1  0.688160  0.369200  0.246610  1.0  -0.4673
  O  O1293  1  0.630800  0.246610  0.311840  1.0  -0.4614
  O  O1294  1  0.630800  0.753390  0.688160  1.0  -0.4632
  O  O1295  1  0.369200  0.246610  0.688160  1.0  -0.4611
  O  O1296  1  0.369200  0.753390  0.311840  1.0  -0.4628
  O  O1297  1  0.311840  0.753390  0.369200  1.0  -0.4641
  O  O1298  1  0.688160  0.246610  0.369200  1.0  -0.4615
  O  O1299  1  0.688160  0.753390  0.630800  1.0  -0.4629
  O  O1300  1  0.311840  0.246610  0.630800  1.0  -0.4615
  O  O1301  1  0.369200  0.311840  0.753390  1.0  -0.4667
  O  O1302  1  0.369200  0.688160  0.246610  1.0  -0.4679
  O  O1303  1  0.630800  0.688160  0.753390  1.0  -0.4674
  O  O1304  1  0.630800  0.311840  0.246610  1.0  -0.4673
  O  O1305  1  0.753390  0.369200  0.311840  1.0  -0.4644
  O  O1306  1  0.246610  0.369200  0.688160  1.0  -0.4665
  O  O1307  1  0.753390  0.630800  0.688160  1.0  -0.4636
  O  O1308  1  0.246610  0.630800  0.311840  1.0  -0.4661
  O  O1309  1  0.753390  0.311840  0.630800  1.0  -0.4637
  O  O1310  1  0.246610  0.688160  0.630800  1.0  -0.4668
  O  O1311  1  0.753390  0.688160  0.369200  1.0  -0.4646
  O  O1312  1  0.246610  0.311840  0.369200  1.0  -0.4669
  O  O1313  1  0.311840  0.369200  0.246610  1.0  -0.4679
  O  O1314  1  0.688160  0.369200  0.753390  1.0  -0.467
  O  O1315  1  0.688160  0.630800  0.246610  1.0  -0.4674
  O  O1316  1  0.311840  0.630800  0.753390  1.0  -0.4659
  O  O1317  1  0.369200  0.753390  0.688160  1.0  -0.4627
  O  O1318  1  0.369200  0.246610  0.311840  1.0  -0.4611
  O  O1319  1  0.630800  0.753390  0.311840  1.0  -0.4634
  O  O1320  1  0.630800  0.246610  0.688160  1.0  -0.4612
  O  O1321  1  0.169930  0.589600  0.058690  1.0  -0.5794
  O  O1322  1  0.830070  0.410400  0.058690  1.0  -0.5828
  O  O1323  1  0.830070  0.589600  0.941310  1.0  -0.5783
  O  O1324  1  0.169930  0.410400  0.941310  1.0  -0.578
  O  O1325  1  0.058690  0.169930  0.589600  1.0  -0.5804
  O  O1326  1  0.058690  0.830070  0.410400  1.0  -0.579
  O  O1327  1  0.941310  0.830070  0.589600  1.0  -0.5798
  O  O1328  1  0.941310  0.169930  0.410400  1.0  -0.5804
  O  O1329  1  0.589600  0.058690  0.169930  1.0  -0.5848
  O  O1330  1  0.410400  0.058690  0.830070  1.0  -0.5831
  O  O1331  1  0.589600  0.941310  0.830070  1.0  -0.5834
  O  O1332  1  0.410400  0.941310  0.169930  1.0  -0.5829
  O  O1333  1  0.589600  0.169930  0.941310  1.0  -0.5811
  O  O1334  1  0.410400  0.830070  0.941310  1.0  -0.5798
  O  O1335  1  0.589600  0.830070  0.058690  1.0  -0.5802
  O  O1336  1  0.410400  0.169930  0.058690  1.0  -0.58
  O  O1337  1  0.169930  0.058690  0.410400  1.0  -0.5826
  O  O1338  1  0.830070  0.058690  0.589600  1.0  -0.5832
  O  O1339  1  0.830070  0.941310  0.410400  1.0  -0.5825
  O  O1340  1  0.169930  0.941310  0.589600  1.0  -0.5829
  O  O1341  1  0.058690  0.589600  0.830070  1.0  -0.5783
  O  O1342  1  0.058690  0.410400  0.169930  1.0  -0.5801
  O  O1343  1  0.941310  0.589600  0.169930  1.0  -0.5789
  O  O1344  1  0.941310  0.410400  0.830070  1.0  -0.58
  O  O1345  1  0.830070  0.410400  0.941310  1.0  -0.5819
  O  O1346  1  0.169930  0.589600  0.941310  1.0  -0.5798
  O  O1347  1  0.169930  0.410400  0.058690  1.0  -0.5802
  O  O1348  1  0.830070  0.589600  0.058690  1.0  -0.5777
  O  O1349  1  0.941310  0.830070  0.410400  1.0  -0.5797
  O  O1350  1  0.941310  0.169930  0.589600  1.0  -0.5805
  O  O1351  1  0.058690  0.169930  0.410400  1.0  -0.5792
  O  O1352  1  0.058690  0.830070  0.589600  1.0  -0.5803
  O  O1353  1  0.410400  0.941310  0.830070  1.0  -0.5832
  O  O1354  1  0.589600  0.941310  0.169930  1.0  -0.5842
  O  O1355  1  0.410400  0.058690  0.169930  1.0  -0.5829
  O  O1356  1  0.589600  0.058690  0.830070  1.0  -0.5841
  O  O1357  1  0.410400  0.830070  0.058690  1.0  -0.5798
  O  O1358  1  0.589600  0.169930  0.058690  1.0  -0.5817
  O  O1359  1  0.410400  0.169930  0.941310  1.0  -0.5796
  O  O1360  1  0.589600  0.830070  0.941310  1.0  -0.5802
  O  O1361  1  0.830070  0.941310  0.589600  1.0  -0.5838
  O  O1362  1  0.169930  0.941310  0.410400  1.0  -0.5823
  O  O1363  1  0.169930  0.058690  0.589600  1.0  -0.5816
  O  O1364  1  0.830070  0.058690  0.410400  1.0  -0.5831
  O  O1365  1  0.941310  0.410400  0.169930  1.0  -0.5811
  O  O1366  1  0.941310  0.589600  0.830070  1.0  -0.5771
  O  O1367  1  0.058690  0.410400  0.830070  1.0  -0.5793
  O  O1368  1  0.058690  0.589600  0.169930  1.0  -0.579
  O  O1369  1  0.669930  0.089600  0.558690  1.0  -0.5794
  O  O1370  1  0.330070  0.910400  0.558690  1.0  -0.5828
  O  O1371  1  0.330070  0.089600  0.441310  1.0  -0.5783
  O  O1372  1  0.669930  0.910400  0.441310  1.0  -0.578
  O  O1373  1  0.558690  0.669930  0.089600  1.0  -0.5804
  O  O1374  1  0.558690  0.330070  0.910400  1.0  -0.579
  O  O1375  1  0.441310  0.330070  0.089600  1.0  -0.5798
  O  O1376  1  0.441310  0.669930  0.910400  1.0  -0.5804
  O  O1377  1  0.089600  0.558690  0.669930  1.0  -0.5848
  O  O1378  1  0.910400  0.558690  0.330070  1.0  -0.5831
  O  O1379  1  0.089600  0.441310  0.330070  1.0  -0.5834
  O  O1380  1  0.910400  0.441310  0.669930  1.0  -0.5829
  O  O1381  1  0.089600  0.669930  0.441310  1.0  -0.5811
  O  O1382  1  0.910400  0.330070  0.441310  1.0  -0.5798
  O  O1383  1  0.089600  0.330070  0.558690  1.0  -0.5802
  O  O1384  1  0.910400  0.669930  0.558690  1.0  -0.58
  O  O1385  1  0.669930  0.558690  0.910400  1.0  -0.5826
  O  O1386  1  0.330070  0.558690  0.089600  1.0  -0.5832
  O  O1387  1  0.330070  0.441310  0.910400  1.0  -0.5825
  O  O1388  1  0.669930  0.441310  0.089600  1.0  -0.5829
  O  O1389  1  0.558690  0.089600  0.330070  1.0  -0.5783
  O  O1390  1  0.558690  0.910400  0.669930  1.0  -0.5801
  O  O1391  1  0.441310  0.089600  0.669930  1.0  -0.5789
  O  O1392  1  0.441310  0.910400  0.330070  1.0  -0.58
  O  O1393  1  0.330070  0.910400  0.441310  1.0  -0.5819
  O  O1394  1  0.669930  0.089600  0.441310  1.0  -0.5798
  O  O1395  1  0.669930  0.910400  0.558690  1.0  -0.5802
  O  O1396  1  0.330070  0.089600  0.558690  1.0  -0.5777
  O  O1397  1  0.441310  0.330070  0.910400  1.0  -0.5797
  O  O1398  1  0.441310  0.669930  0.089600  1.0  -0.5805
  O  O1399  1  0.558690  0.669930  0.910400  1.0  -0.5792
  O  O1400  1  0.558690  0.330070  0.089600  1.0  -0.5803
  O  O1401  1  0.910400  0.441310  0.330070  1.0  -0.5832
  O  O1402  1  0.089600  0.441310  0.669930  1.0  -0.5842
  O  O1403  1  0.910400  0.558690  0.669930  1.0  -0.5829
  O  O1404  1  0.089600  0.558690  0.330070  1.0  -0.5841
  O  O1405  1  0.910400  0.330070  0.558690  1.0  -0.5798
  O  O1406  1  0.089600  0.669930  0.558690  1.0  -0.5817
  O  O1407  1  0.910400  0.669930  0.441310  1.0  -0.5796
  O  O1408  1  0.089600  0.330070  0.441310  1.0  -0.5802
  O  O1409  1  0.330070  0.441310  0.089600  1.0  -0.5838
  O  O1410  1  0.669930  0.441310  0.910400  1.0  -0.5823
  O  O1411  1  0.669930  0.558690  0.089600  1.0  -0.5816
  O  O1412  1  0.330070  0.558690  0.910400  1.0  -0.5831
  O  O1413  1  0.441310  0.910400  0.669930  1.0  -0.5811
  O  O1414  1  0.441310  0.089600  0.330070  1.0  -0.5771
  O  O1415  1  0.558690  0.910400  0.330070  1.0  -0.5793
  O  O1416  1  0.558690  0.089600  0.669930  1.0  -0.579
  O  O1417  1  0.123740  0.538150  0.059810  1.0  -0.473
  O  O1418  1  0.876260  0.461850  0.059810  1.0  -0.4733
  O  O1419  1  0.876260  0.538150  0.940190  1.0  -0.4744
  O  O1420  1  0.123740  0.461850  0.940190  1.0  -0.4724
  O  O1421  1  0.059810  0.123740  0.538150  1.0  -0.4662
  O  O1422  1  0.059810  0.876260  0.461850  1.0  -0.4677
  O  O1423  1  0.940190  0.876260  0.538150  1.0  -0.4667
  O  O1424  1  0.940190  0.123740  0.461850  1.0  -0.4661
  O  O1425  1  0.538150  0.059810  0.123740  1.0  -0.4721
  O  O1426  1  0.461850  0.059810  0.876260  1.0  -0.4711
  O  O1427  1  0.538150  0.940190  0.876260  1.0  -0.4708
  O  O1428  1  0.461850  0.940190  0.123740  1.0  -0.4737
  O  O1429  1  0.538150  0.123740  0.940190  1.0  -0.467
  O  O1430  1  0.461850  0.876260  0.940190  1.0  -0.4685
  O  O1431  1  0.538150  0.876260  0.059810  1.0  -0.4671
  O  O1432  1  0.461850  0.123740  0.059810  1.0  -0.4672
  O  O1433  1  0.123740  0.059810  0.461850  1.0  -0.473
  O  O1434  1  0.876260  0.059810  0.538150  1.0  -0.473
  O  O1435  1  0.876260  0.940190  0.461850  1.0  -0.4729
  O  O1436  1  0.123740  0.940190  0.538150  1.0  -0.4731
  O  O1437  1  0.059810  0.538150  0.876260  1.0  -0.4714
  O  O1438  1  0.059810  0.461850  0.123740  1.0  -0.4723
  O  O1439  1  0.940190  0.538150  0.123740  1.0  -0.471
  O  O1440  1  0.940190  0.461850  0.876260  1.0  -0.4694
  O  O1441  1  0.876260  0.461850  0.940190  1.0  -0.4742
  O  O1442  1  0.123740  0.538150  0.940190  1.0  -0.4736
  O  O1443  1  0.123740  0.461850  0.059810  1.0  -0.4721
  O  O1444  1  0.876260  0.538150  0.059810  1.0  -0.4729
  O  O1445  1  0.940190  0.876260  0.461850  1.0  -0.4669
  O  O1446  1  0.940190  0.123740  0.538150  1.0  -0.4656
  O  O1447  1  0.059810  0.123740  0.461850  1.0  -0.4672
  O  O1448  1  0.059810  0.876260  0.538150  1.0  -0.4677
  O  O1449  1  0.461850  0.940190  0.876260  1.0  -0.4715
  O  O1450  1  0.538150  0.940190  0.123740  1.0  -0.4722
  O  O1451  1  0.461850  0.059810  0.123740  1.0  -0.4734
  O  O1452  1  0.538150  0.059810  0.876260  1.0  -0.4707
  O  O1453  1  0.461850  0.876260  0.059810  1.0  -0.4684
  O  O1454  1  0.538150  0.123740  0.059810  1.0  -0.4671
  O  O1455  1  0.461850  0.123740  0.940190  1.0  -0.467
  O  O1456  1  0.538150  0.876260  0.940190  1.0  -0.4675
  O  O1457  1  0.876260  0.940190  0.538150  1.0  -0.4732
  O  O1458  1  0.123740  0.940190  0.461850  1.0  -0.4735
  O  O1459  1  0.123740  0.059810  0.538150  1.0  -0.4724
  O  O1460  1  0.876260  0.059810  0.461850  1.0  -0.4735
  O  O1461  1  0.940190  0.461850  0.123740  1.0  -0.4706
  O  O1462  1  0.940190  0.538150  0.876260  1.0  -0.4697
  O  O1463  1  0.059810  0.461850  0.876260  1.0  -0.4711
  O  O1464  1  0.059810  0.538150  0.123740  1.0  -0.4727
  O  O1465  1  0.623740  0.038150  0.559810  1.0  -0.473
  O  O1466  1  0.376260  0.961850  0.559810  1.0  -0.4733
  O  O1467  1  0.376260  0.038150  0.440190  1.0  -0.4744
  O  O1468  1  0.623740  0.961850  0.440190  1.0  -0.4724
  O  O1469  1  0.559810  0.623740  0.038150  1.0  -0.4662
  O  O1470  1  0.559810  0.376260  0.961850  1.0  -0.4677
  O  O1471  1  0.440190  0.376260  0.038150  1.0  -0.4667
  O  O1472  1  0.440190  0.623740  0.961850  1.0  -0.4661
  O  O1473  1  0.038150  0.559810  0.623740  1.0  -0.4721
  O  O1474  1  0.961850  0.559810  0.376260  1.0  -0.4711
  O  O1475  1  0.038150  0.440190  0.376260  1.0  -0.4708
  O  O1476  1  0.961850  0.440190  0.623740  1.0  -0.4737
  O  O1477  1  0.038150  0.623740  0.440190  1.0  -0.467
  O  O1478  1  0.961850  0.376260  0.440190  1.0  -0.4685
  O  O1479  1  0.038150  0.376260  0.559810  1.0  -0.4671
  O  O1480  1  0.961850  0.623740  0.559810  1.0  -0.4672
  O  O1481  1  0.623740  0.559810  0.961850  1.0  -0.473
  O  O1482  1  0.376260  0.559810  0.038150  1.0  -0.473
  O  O1483  1  0.376260  0.440190  0.961850  1.0  -0.4729
  O  O1484  1  0.623740  0.440190  0.038150  1.0  -0.4731
  O  O1485  1  0.559810  0.038150  0.376260  1.0  -0.4714
  O  O1486  1  0.559810  0.961850  0.623740  1.0  -0.4723
  O  O1487  1  0.440190  0.038150  0.623740  1.0  -0.471
  O  O1488  1  0.440190  0.961850  0.376260  1.0  -0.4694
  O  O1489  1  0.376260  0.961850  0.440190  1.0  -0.4742
  O  O1490  1  0.623740  0.038150  0.440190  1.0  -0.4736
  O  O1491  1  0.623740  0.961850  0.559810  1.0  -0.4721
  O  O1492  1  0.376260  0.038150  0.559810  1.0  -0.4729
  O  O1493  1  0.440190  0.376260  0.961850  1.0  -0.4669
  O  O1494  1  0.440190  0.623740  0.038150  1.0  -0.4656
  O  O1495  1  0.559810  0.623740  0.961850  1.0  -0.4672
  O  O1496  1  0.559810  0.376260  0.038150  1.0  -0.4677
  O  O1497  1  0.961850  0.440190  0.376260  1.0  -0.4715
  O  O1498  1  0.038150  0.440190  0.623740  1.0  -0.4722
  O  O1499  1  0.961850  0.559810  0.623740  1.0  -0.4734
  O  O1500  1  0.038150  0.559810  0.376260  1.0  -0.4707
  O  O1501  1  0.961850  0.376260  0.559810  1.0  -0.4684
  O  O1502  1  0.038150  0.623740  0.559810  1.0  -0.4671
  O  O1503  1  0.961850  0.623740  0.440190  1.0  -0.467
  O  O1504  1  0.038150  0.376260  0.440190  1.0  -0.4675
  O  O1505  1  0.376260  0.440190  0.038150  1.0  -0.4732
  O  O1506  1  0.623740  0.440190  0.961850  1.0  -0.4735
  O  O1507  1  0.623740  0.559810  0.038150  1.0  -0.4724
  O  O1508  1  0.376260  0.559810  0.961850  1.0  -0.4735
  O  O1509  1  0.440190  0.961850  0.623740  1.0  -0.4706
  O  O1510  1  0.440190  0.038150  0.376260  1.0  -0.4697
  O  O1511  1  0.559810  0.961850  0.376260  1.0  -0.4711
  O  O1512  1  0.559810  0.038150  0.623740  1.0  -0.4727
  O  O1513  1  0.180970  0.935270  0.180970  1.0  -0.7106
  O  O1514  1  0.819030  0.064730  0.180970  1.0  -0.7096
  O  O1515  1  0.819030  0.935270  0.819030  1.0  -0.7122
  O  O1516  1  0.180970  0.064730  0.819030  1.0  -0.7132
  O  O1517  1  0.180970  0.180970  0.935270  1.0  -0.7109
  O  O1518  1  0.180970  0.819030  0.064730  1.0  -0.7121
  O  O1519  1  0.819030  0.819030  0.935270  1.0  -0.7091
  O  O1520  1  0.819030  0.180970  0.064730  1.0  -0.7119
  O  O1521  1  0.935270  0.180970  0.180970  1.0  -0.7108
  O  O1522  1  0.064730  0.180970  0.819030  1.0  -0.7119
  O  O1523  1  0.935270  0.819030  0.819030  1.0  -0.7108
  O  O1524  1  0.064730  0.819030  0.180970  1.0  -0.7092
  O  O1525  1  0.935270  0.180970  0.819030  1.0  -0.7121
  O  O1526  1  0.064730  0.819030  0.819030  1.0  -0.7115
  O  O1527  1  0.935270  0.819030  0.180970  1.0  -0.7084
  O  O1528  1  0.064730  0.180970  0.180970  1.0  -0.71
  O  O1529  1  0.180970  0.180970  0.064730  1.0  -0.7133
  O  O1530  1  0.819030  0.180970  0.935270  1.0  -0.7101
  O  O1531  1  0.819030  0.819030  0.064730  1.0  -0.7109
  O  O1532  1  0.180970  0.819030  0.935270  1.0  -0.7095
  O  O1533  1  0.180970  0.935270  0.819030  1.0  -0.713
  O  O1534  1  0.180970  0.064730  0.180970  1.0  -0.711
  O  O1535  1  0.819030  0.935270  0.180970  1.0  -0.7099
  O  O1536  1  0.819030  0.064730  0.819030  1.0  -0.7117
  O  O1537  1  0.680970  0.435270  0.680970  1.0  -0.7106
  O  O1538  1  0.319030  0.564730  0.680970  1.0  -0.7096
  O  O1539  1  0.319030  0.435270  0.319030  1.0  -0.7122
  O  O1540  1  0.680970  0.564730  0.319030  1.0  -0.7132
  O  O1541  1  0.680970  0.680970  0.435270  1.0  -0.7109
  O  O1542  1  0.680970  0.319030  0.564730  1.0  -0.7121
  O  O1543  1  0.319030  0.319030  0.435270  1.0  -0.7091
  O  O1544  1  0.319030  0.680970  0.564730  1.0  -0.7119
  O  O1545  1  0.435270  0.680970  0.680970  1.0  -0.7108
  O  O1546  1  0.564730  0.680970  0.319030  1.0  -0.7119
  O  O1547  1  0.435270  0.319030  0.319030  1.0  -0.7108
  O  O1548  1  0.564730  0.319030  0.680970  1.0  -0.7092
  O  O1549  1  0.435270  0.680970  0.319030  1.0  -0.7121
  O  O1550  1  0.564730  0.319030  0.319030  1.0  -0.7115
  O  O1551  1  0.435270  0.319030  0.680970  1.0  -0.7084
  O  O1552  1  0.564730  0.680970  0.680970  1.0  -0.71
  O  O1553  1  0.680970  0.680970  0.564730  1.0  -0.7133
  O  O1554  1  0.319030  0.680970  0.435270  1.0  -0.7101
  O  O1555  1  0.319030  0.319030  0.564730  1.0  -0.7109
  O  O1556  1  0.680970  0.319030  0.435270  1.0  -0.7095
  O  O1557  1  0.680970  0.435270  0.319030  1.0  -0.713
  O  O1558  1  0.680970  0.564730  0.680970  1.0  -0.711
  O  O1559  1  0.319030  0.435270  0.680970  1.0  -0.7099
  O  O1560  1  0.319030  0.564730  0.319030  1.0  -0.7117
  O  O1561  1  0.168910  0.000000  0.239670  1.0  -0.6568
  O  O1562  1  0.831090  0.000000  0.239670  1.0  -0.6566
  O  O1563  1  0.831090  0.000000  0.760330  1.0  -0.6557
  O  O1564  1  0.168910  0.000000  0.760330  1.0  -0.6561
  O  O1565  1  0.239670  0.168910  0.000000  1.0  -0.6578
  O  O1566  1  0.239670  0.831090  0.000000  1.0  -0.6583
  O  O1567  1  0.760330  0.831090  0.000000  1.0  -0.6587
  O  O1568  1  0.760330  0.168910  0.000000  1.0  -0.6602
  O  O1569  1  0.000000  0.239670  0.168910  1.0  -0.6597
  O  O1570  1  0.000000  0.239670  0.831090  1.0  -0.6614
  O  O1571  1  0.000000  0.760330  0.831090  1.0  -0.662
  O  O1572  1  0.000000  0.760330  0.168910  1.0  -0.6597
  O  O1573  1  0.000000  0.168910  0.760330  1.0  -0.6558
  O  O1574  1  0.000000  0.831090  0.760330  1.0  -0.655
  O  O1575  1  0.000000  0.831090  0.239670  1.0  -0.6561
  O  O1576  1  0.000000  0.168910  0.239670  1.0  -0.6574
  O  O1577  1  0.168910  0.239670  0.000000  1.0  -0.6636
  O  O1578  1  0.831090  0.239670  0.000000  1.0  -0.6633
  O  O1579  1  0.831090  0.760330  0.000000  1.0  -0.664
  O  O1580  1  0.168910  0.760330  0.000000  1.0  -0.6634
  O  O1581  1  0.239670  0.000000  0.831090  1.0  -0.6571
  O  O1582  1  0.239670  0.000000  0.168910  1.0  -0.6547
  O  O1583  1  0.760330  0.000000  0.168910  1.0  -0.6565
  O  O1584  1  0.760330  0.000000  0.831090  1.0  -0.658
  O  O1585  1  0.668910  0.500000  0.739670  1.0  -0.6568
  O  O1586  1  0.331090  0.500000  0.739670  1.0  -0.6566
  O  O1587  1  0.331090  0.500000  0.260330  1.0  -0.6557
  O  O1588  1  0.668910  0.500000  0.260330  1.0  -0.6561
  O  O1589  1  0.739670  0.668910  0.500000  1.0  -0.6578
  O  O1590  1  0.739670  0.331090  0.500000  1.0  -0.6583
  O  O1591  1  0.260330  0.331090  0.500000  1.0  -0.6587
  O  O1592  1  0.260330  0.668910  0.500000  1.0  -0.6602
  O  O1593  1  0.500000  0.739670  0.668910  1.0  -0.6597
  O  O1594  1  0.500000  0.739670  0.331090  1.0  -0.6614
  O  O1595  1  0.500000  0.260330  0.331090  1.0  -0.662
  O  O1596  1  0.500000  0.260330  0.668910  1.0  -0.6597
  O  O1597  1  0.500000  0.668910  0.260330  1.0  -0.6558
  O  O1598  1  0.500000  0.331090  0.260330  1.0  -0.655
  O  O1599  1  0.500000  0.331090  0.739670  1.0  -0.6561
  O  O1600  1  0.500000  0.668910  0.739670  1.0  -0.6574
  O  O1601  1  0.668910  0.739670  0.500000  1.0  -0.6636
  O  O1602  1  0.331090  0.739670  0.500000  1.0  -0.6633
  O  O1603  1  0.331090  0.260330  0.500000  1.0  -0.664
  O  O1604  1  0.668910  0.260330  0.500000  1.0  -0.6634
  O  O1605  1  0.739670  0.500000  0.331090  1.0  -0.6571
  O  O1606  1  0.739670  0.500000  0.668910  1.0  -0.6547
  O  O1607  1  0.260330  0.500000  0.668910  1.0  -0.6565
  O  O1608  1  0.260330  0.500000  0.331090  1.0  -0.658
  O  O1609  1  0.168200  0.000000  0.109760  1.0  -0.6694
  O  O1610  1  0.831800  0.000000  0.109760  1.0  -0.6684
  O  O1611  1  0.831800  0.000000  0.890240  1.0  -0.6677
  O  O1612  1  0.168200  0.000000  0.890240  1.0  -0.6681
  O  O1613  1  0.109760  0.168200  0.000000  1.0  -0.6727
  O  O1614  1  0.109760  0.831800  0.000000  1.0  -0.6696
  O  O1615  1  0.890240  0.831800  0.000000  1.0  -0.6668
  O  O1616  1  0.890240  0.168200  0.000000  1.0  -0.6714
  O  O1617  1  0.000000  0.109760  0.168200  1.0  -0.6717
  O  O1618  1  0.000000  0.109760  0.831800  1.0  -0.6643
  O  O1619  1  0.000000  0.890240  0.831800  1.0  -0.6659
  O  O1620  1  0.000000  0.890240  0.168200  1.0  -0.6722
  O  O1621  1  0.000000  0.168200  0.890240  1.0  -0.6679
  O  O1622  1  0.000000  0.831800  0.890240  1.0  -0.665
  O  O1623  1  0.000000  0.831800  0.109760  1.0  -0.6664
  O  O1624  1  0.000000  0.168200  0.109760  1.0  -0.67
  O  O1625  1  0.168200  0.109760  0.000000  1.0  -0.6733
  O  O1626  1  0.831800  0.109760  0.000000  1.0  -0.67
  O  O1627  1  0.831800  0.890240  0.000000  1.0  -0.6728
  O  O1628  1  0.168200  0.890240  0.000000  1.0  -0.6738
  O  O1629  1  0.109760  0.000000  0.831800  1.0  -0.6651
  O  O1630  1  0.109760  0.000000  0.168200  1.0  -0.671
  O  O1631  1  0.890240  0.000000  0.168200  1.0  -0.6692
  O  O1632  1  0.890240  0.000000  0.831800  1.0  -0.6617
  O  O1633  1  0.668200  0.500000  0.609760  1.0  -0.6694
  O  O1634  1  0.331800  0.500000  0.609760  1.0  -0.6684
  O  O1635  1  0.331800  0.500000  0.390240  1.0  -0.6677
  O  O1636  1  0.668200  0.500000  0.390240  1.0  -0.6681
  O  O1637  1  0.609760  0.668200  0.500000  1.0  -0.6727
  O  O1638  1  0.609760  0.331800  0.500000  1.0  -0.6696
  O  O1639  1  0.390240  0.331800  0.500000  1.0  -0.6668
  O  O1640  1  0.390240  0.668200  0.500000  1.0  -0.6714
  O  O1641  1  0.500000  0.609760  0.668200  1.0  -0.6717
  O  O1642  1  0.500000  0.609760  0.331800  1.0  -0.6643
  O  O1643  1  0.500000  0.390240  0.331800  1.0  -0.6659
  O  O1644  1  0.500000  0.390240  0.668200  1.0  -0.6722
  O  O1645  1  0.500000  0.668200  0.390240  1.0  -0.6679
  O  O1646  1  0.500000  0.331800  0.390240  1.0  -0.665
  O  O1647  1  0.500000  0.331800  0.609760  1.0  -0.6664
  O  O1648  1  0.500000  0.668200  0.609760  1.0  -0.67
  O  O1649  1  0.668200  0.609760  0.500000  1.0  -0.6733
  O  O1650  1  0.331800  0.609760  0.500000  1.0  -0.67
  O  O1651  1  0.331800  0.390240  0.500000  1.0  -0.6728
  O  O1652  1  0.668200  0.390240  0.500000  1.0  -0.6738
  O  O1653  1  0.609760  0.500000  0.331800  1.0  -0.6651
  O  O1654  1  0.609760  0.500000  0.668200  1.0  -0.671
  O  O1655  1  0.390240  0.500000  0.668200  1.0  -0.6692
  O  O1656  1  0.390240  0.500000  0.331800  1.0  -0.6617
