# generated using pymatgen
data_V4Cd2H100C104N8O13
_symmetry_space_group_name_H-M   'P 1'
_cell_length_a   17.04600000
_cell_length_b   24.04620000
_cell_length_c   28.84420000
_cell_angle_alpha   90.00000000
_cell_angle_beta   90.00000000
_cell_angle_gamma   90.00000000
_symmetry_Int_Tables_number   1
_chemical_formula_structural   V4Cd2H100C104N8O13
_chemical_formula_sum   'V16 Cd8 H400 C416 N32 O52'
_cell_volume   11822.99313117
_cell_formula_units_Z   4
loop_
 _symmetry_equiv_pos_site_id
 _symmetry_equiv_pos_as_xyz
  1  'x, y, z'
loop_
 _atom_site_type_symbol
 _atom_site_label
 _atom_site_symmetry_multiplicity
 _atom_site_fract_x
 _atom_site_fract_y
 _atom_site_fract_z
 _atom_site_occupancy
 _atom_site_charge
  V  V1  1  0.644550  0.100300  0.705710  1.0  1.328
  V  V2  1  0.831930  0.165170  0.223450  1.0  1.3822
  V  V3  1  0.584000  0.096690  0.723220  1.0  1.3591
  V  V4  1  0.907600  0.174580  0.235780  1.0  1.3144
  V  V5  1  0.355450  0.100300  0.794290  1.0  1.3219
  V  V6  1  0.168070  0.165170  0.276550  1.0  1.38
  V  V7  1  0.416000  0.096690  0.776780  1.0  1.3682
  V  V8  1  0.092400  0.174580  0.264220  1.0  1.3159
  V  V9  1  0.355450  0.899700  0.205710  1.0  1.3276
  V  V10  1  0.168070  0.834830  0.723450  1.0  1.383
  V  V11  1  0.416000  0.903310  0.223220  1.0  1.3649
  V  V12  1  0.092400  0.825420  0.735780  1.0  1.3132
  V  V13  1  0.644550  0.899700  0.294290  1.0  1.3235
  V  V14  1  0.831930  0.834830  0.776550  1.0  1.3812
  V  V15  1  0.584000  0.903310  0.276780  1.0  1.3619
  V  V16  1  0.907600  0.825420  0.764220  1.0  1.3191
  Cd  Cd17  1  0.591460  0.598460  0.709020  1.0  0.999
  Cd  Cd18  1  0.909330  0.671070  0.209190  1.0  0.9643
  Cd  Cd19  1  0.408540  0.598460  0.790980  1.0  0.9974
  Cd  Cd20  1  0.090670  0.671070  0.290810  1.0  0.9662
  Cd  Cd21  1  0.408540  0.401540  0.209020  1.0  0.998
  Cd  Cd22  1  0.090670  0.328930  0.709190  1.0  0.9651
  Cd  Cd23  1  0.591460  0.401540  0.290980  1.0  1.0004
  Cd  Cd24  1  0.909330  0.328930  0.790810  1.0  0.9657
  H  H25  1  0.552500  0.323400  0.619200  1.0  0.1051
  H  H26  1  0.612400  0.309900  0.753100  1.0  0.1197
  H  H27  1  0.487600  0.150400  0.616000  1.0  0.0912
  H  H28  1  0.475300  0.160200  0.561600  1.0  0.1
  H  H29  1  0.432900  0.200100  0.598300  1.0  0.0935
  H  H30  1  0.480100  0.274300  0.555000  1.0  0.1014
  H  H31  1  0.542600  0.244700  0.521800  1.0  0.0976
  H  H32  1  0.570000  0.293300  0.556100  1.0  0.0923
  H  H33  1  0.671700  0.210500  0.571500  1.0  0.0979
  H  H34  1  0.617600  0.166100  0.545400  1.0  0.0992
  H  H35  1  0.641200  0.156400  0.598400  1.0  0.0966
  H  H36  1  0.520400  0.407300  0.636900  1.0  0.0844
  H  H37  1  0.641800  0.391500  0.753700  1.0  0.1287
  H  H38  1  0.629000  0.226900  0.789200  1.0  0.1013
  H  H39  1  0.600000  0.114800  0.825100  1.0  0.0664
  H  H40  1  0.664000  0.195600  0.853200  1.0  0.0655
  H  H41  1  0.745900  0.174100  0.832200  1.0  0.0727
  H  H42  1  0.738200  0.150100  0.912200  1.0  0.0682
  H  H43  1  0.658000  0.117200  0.903100  1.0  0.0628
  H  H44  1  0.761500  0.053600  0.908000  1.0  0.0686
  H  H45  1  0.807700  0.085400  0.867600  1.0  0.063
  H  H46  1  0.663100  0.026700  0.856200  1.0  0.0634
  H  H47  1  0.746200  0.007300  0.836000  1.0  0.0746
  H  H48  1  0.750300  0.084900  0.787200  1.0  0.0919
  H  H49  1  0.656000  0.973000  0.787900  1.0  0.0796
  H  H50  1  0.610000  0.888800  0.759200  1.0  0.1143
  H  H51  1  0.538600  0.872800  0.626900  1.0  0.101
  H  H52  1  0.678000  0.981700  0.582000  1.0  0.1199
  H  H53  1  0.640700  0.040500  0.595900  1.0  0.0937
  H  H54  1  0.628400  0.016200  0.544700  1.0  0.1014
  H  H55  1  0.574500  0.898700  0.562400  1.0  0.0956
  H  H56  1  0.544500  0.944700  0.526400  1.0  0.1011
  H  H57  1  0.484100  0.916600  0.561900  1.0  0.0948
  H  H58  1  0.487600  0.037500  0.564600  1.0  0.0928
  H  H59  1  0.490500  0.041300  0.620000  1.0  0.095
  H  H60  1  0.437900  0.994700  0.595400  1.0  0.0913
  H  H61  1  0.625600  0.805300  0.762800  1.0  0.1159
  H  H62  1  0.631900  0.709700  0.767200  1.0  0.0781
  H  H63  1  0.511800  0.694900  0.651100  1.0  0.0582
  H  H64  1  0.505800  0.790700  0.642200  1.0  0.1173
  H  H65  1  0.650200  0.487200  0.757200  1.0  0.0643
  H  H66  1  0.522900  0.503000  0.645800  1.0  0.0932
  H  H67  1  0.603700  0.613300  0.545800  1.0  0.0935
  H  H68  1  0.653400  0.628800  0.471900  1.0  0.1058
  H  H69  1  0.867800  0.665000  0.528500  1.0  0.1069
  H  H70  1  0.815200  0.648100  0.601800  1.0  0.0859
  H  H71  1  0.697100  0.683100  0.416000  1.0  0.0941
  H  H72  1  0.742400  0.688400  0.339600  1.0  0.0941
  H  H73  1  0.958900  0.643600  0.382100  1.0  0.0954
  H  H74  1  0.912300  0.636300  0.458000  1.0  0.0975
  H  H75  1  0.242800  0.626000  0.665300  1.0  0.0863
  H  H76  1  0.195700  0.640200  0.590500  1.0  0.0926
  H  H77  1  0.414700  0.621900  0.539100  1.0  0.108
  H  H78  1  0.460100  0.603100  0.614400  1.0  0.0818
  H  H79  1  0.162200  0.606300  0.521300  1.0  0.1054
  H  H80  1  0.107400  0.625500  0.449600  1.0  0.1008
  H  H81  1  0.311500  0.694500  0.408600  1.0  0.0941
  H  H82  1  0.358100  0.688200  0.484100  1.0  0.0974
  H  H83  1  0.851000  0.874400  0.262100  1.0  0.1146
  H  H84  1  0.850700  0.777600  0.263100  1.0  0.0678
  H  H85  1  0.991900  0.772100  0.156900  1.0  0.0727
  H  H86  1  0.993200  0.868500  0.150500  1.0  0.12
  H  H87  1  0.811500  0.566400  0.251300  1.0  0.0732
  H  H88  1  0.805900  0.469900  0.249500  1.0  0.0984
  H  H89  1  0.003500  0.468000  0.175700  1.0  0.1025
  H  H90  1  0.003500  0.565400  0.175800  1.0  0.0866
  H  H91  1  0.841000  0.381600  0.267500  1.0  0.0952
  H  H92  1  0.951300  0.393000  0.145100  1.0  0.1029
  H  H93  1  0.884000  0.217800  0.109800  1.0  0.0941
  H  H94  1  0.923100  0.236000  0.061700  1.0  0.0944
  H  H95  1  0.851900  0.271300  0.082800  1.0  0.1017
  H  H96  1  0.068700  0.276100  0.144200  1.0  0.0963
  H  H97  1  0.048000  0.231000  0.105400  1.0  0.092
  H  H98  1  0.011000  0.225600  0.156200  1.0  0.0964
  H  H99  1  0.949300  0.360900  0.080000  1.0  0.0907
  H  H100  1  0.994700  0.313600  0.051700  1.0  0.0925
  H  H101  1  0.037900  0.345600  0.093100  1.0  0.0935
  H  H102  1  0.796200  0.295900  0.297400  1.0  0.0851
  H  H103  1  0.726700  0.177500  0.301900  1.0  0.0776
  H  H104  1  0.719300  0.256400  0.347400  1.0  0.0677
  H  H105  1  0.805300  0.245400  0.368000  1.0  0.0646
  H  H106  1  0.715200  0.211700  0.423600  1.0  0.0916
  H  H107  1  0.668200  0.177300  0.385100  1.0  0.0561
  H  H108  1  0.743000  0.115100  0.428000  1.0  0.0825
  H  H109  1  0.820900  0.150700  0.419100  1.0  0.0801
  H  H110  1  0.818200  0.071800  0.367900  1.0  0.0699
  H  H111  1  0.736300  0.092800  0.346700  1.0  0.0665
  H  H112  1  0.879900  0.155500  0.341200  1.0  0.074
  H  H113  1  0.862400  0.043000  0.307400  1.0  0.1663
  H  H114  1  0.886300  0.959000  0.269800  1.0  0.1077
  H  H115  1  0.946000  0.949100  0.135500  1.0  0.1095
  H  H116  1  0.810800  0.058600  0.098200  1.0  0.1091
  H  H117  1  0.856900  0.096600  0.061700  1.0  0.1083
  H  H118  1  0.847700  0.116600  0.114400  1.0  0.096
  H  H119  1  0.993500  0.988300  0.076600  1.0  0.0828
  H  H120  1  0.962800  0.031700  0.038600  1.0  0.0983
  H  H121  1  0.903000  0.988600  0.061800  1.0  0.0993
  H  H122  1  0.986900  0.128900  0.125200  1.0  0.0869
  H  H123  1  0.005200  0.111000  0.072900  1.0  0.0985
  H  H124  1  0.047600  0.079600  0.114900  1.0  0.0984
  H  H125  1  0.447500  0.323400  0.880800  1.0  0.1042
  H  H126  1  0.387600  0.309900  0.746900  1.0  0.1202
  H  H127  1  0.512400  0.150400  0.884000  1.0  0.0912
  H  H128  1  0.524700  0.160200  0.938400  1.0  0.101
  H  H129  1  0.567100  0.200100  0.901700  1.0  0.0924
  H  H130  1  0.519900  0.274300  0.945000  1.0  0.1014
  H  H131  1  0.457400  0.244700  0.978200  1.0  0.0977
  H  H132  1  0.430000  0.293300  0.943900  1.0  0.0908
  H  H133  1  0.328300  0.210500  0.928500  1.0  0.0991
  H  H134  1  0.382400  0.166100  0.954600  1.0  0.0979
  H  H135  1  0.358800  0.156400  0.901600  1.0  0.0971
  H  H136  1  0.479600  0.407300  0.863100  1.0  0.0852
  H  H137  1  0.358200  0.391500  0.746300  1.0  0.1281
  H  H138  1  0.371000  0.226900  0.710800  1.0  0.1016
  H  H139  1  0.400000  0.114800  0.674900  1.0  0.0671
  H  H140  1  0.336000  0.195600  0.646800  1.0  0.0655
  H  H141  1  0.254100  0.174100  0.667800  1.0  0.0733
  H  H142  1  0.261800  0.150100  0.587800  1.0  0.0697
  H  H143  1  0.342000  0.117200  0.596900  1.0  0.0603
  H  H144  1  0.238500  0.053600  0.592000  1.0  0.0674
  H  H145  1  0.192300  0.085400  0.632400  1.0  0.063
  H  H146  1  0.336900  0.026700  0.643800  1.0  0.063
  H  H147  1  0.253800  0.007300  0.664000  1.0  0.074
  H  H148  1  0.249700  0.084900  0.712800  1.0  0.0906
  H  H149  1  0.344000  0.973000  0.712100  1.0  0.0787
  H  H150  1  0.390000  0.888800  0.740800  1.0  0.114
  H  H151  1  0.461400  0.872800  0.873100  1.0  0.1011
  H  H152  1  0.322000  0.981700  0.918000  1.0  0.1189
  H  H153  1  0.359300  0.040500  0.904100  1.0  0.0949
  H  H154  1  0.371600  0.016200  0.955300  1.0  0.1007
  H  H155  1  0.425500  0.898700  0.937600  1.0  0.095
  H  H156  1  0.455500  0.944700  0.973600  1.0  0.101
  H  H157  1  0.515900  0.916600  0.938100  1.0  0.0938
  H  H158  1  0.512400  0.037500  0.935400  1.0  0.0921
  H  H159  1  0.509500  0.041300  0.880000  1.0  0.0953
  H  H160  1  0.562100  0.994700  0.904600  1.0  0.0924
  H  H161  1  0.374400  0.805300  0.737200  1.0  0.1158
  H  H162  1  0.368100  0.709700  0.732800  1.0  0.0776
  H  H163  1  0.488200  0.694900  0.848900  1.0  0.0582
  H  H164  1  0.494200  0.790700  0.857800  1.0  0.1166
  H  H165  1  0.349800  0.487200  0.742800  1.0  0.0638
  H  H166  1  0.477100  0.503000  0.854200  1.0  0.0935
  H  H167  1  0.396300  0.613300  0.954200  1.0  0.0937
  H  H168  1  0.346600  0.628800  0.028100  1.0  0.1065
  H  H169  1  0.132200  0.665000  0.971500  1.0  0.1064
  H  H170  1  0.184800  0.648100  0.898200  1.0  0.0862
  H  H171  1  0.302900  0.683100  0.084000  1.0  0.0935
  H  H172  1  0.257600  0.688400  0.160400  1.0  0.0944
  H  H173  1  0.041100  0.643600  0.117900  1.0  0.0942
  H  H174  1  0.087700  0.636300  0.042000  1.0  0.0976
  H  H175  1  0.757200  0.626000  0.834700  1.0  0.0864
  H  H176  1  0.804300  0.640200  0.909500  1.0  0.093
  H  H177  1  0.585300  0.621900  0.960900  1.0  0.1082
  H  H178  1  0.539900  0.603100  0.885600  1.0  0.0817
  H  H179  1  0.837800  0.606300  0.978700  1.0  0.1052
  H  H180  1  0.892600  0.625500  0.050400  1.0  0.1005
  H  H181  1  0.688500  0.694500  0.091400  1.0  0.0941
  H  H182  1  0.641900  0.688200  0.015900  1.0  0.0976
  H  H183  1  0.149000  0.874400  0.237900  1.0  0.1148
  H  H184  1  0.149300  0.777600  0.236900  1.0  0.068
  H  H185  1  0.008100  0.772100  0.343100  1.0  0.0729
  H  H186  1  0.006800  0.868500  0.349500  1.0  0.1197
  H  H187  1  0.188500  0.566400  0.248700  1.0  0.0736
  H  H188  1  0.194100  0.469900  0.250500  1.0  0.0987
  H  H189  1  0.996500  0.468000  0.324300  1.0  0.1022
  H  H190  1  0.996500  0.565400  0.324200  1.0  0.0875
  H  H191  1  0.159000  0.381600  0.232500  1.0  0.0953
  H  H192  1  0.048700  0.393000  0.354900  1.0  0.1025
  H  H193  1  0.116000  0.217800  0.390200  1.0  0.095
  H  H194  1  0.076900  0.236000  0.438300  1.0  0.0937
  H  H195  1  0.148100  0.271300  0.417200  1.0  0.1006
  H  H196  1  0.931300  0.276100  0.355800  1.0  0.0964
  H  H197  1  0.952000  0.231000  0.394600  1.0  0.0926
  H  H198  1  0.989000  0.225600  0.343800  1.0  0.0971
  H  H199  1  0.050700  0.360900  0.420000  1.0  0.0895
  H  H200  1  0.005300  0.313600  0.448300  1.0  0.0921
  H  H201  1  0.962100  0.345600  0.406900  1.0  0.0916
  H  H202  1  0.203800  0.295900  0.202600  1.0  0.0846
  H  H203  1  0.273300  0.177500  0.198100  1.0  0.0777
  H  H204  1  0.280700  0.256400  0.152600  1.0  0.0657
  H  H205  1  0.194700  0.245400  0.132000  1.0  0.0663
  H  H206  1  0.284800  0.211700  0.076400  1.0  0.0901
  H  H207  1  0.331800  0.177300  0.114900  1.0  0.0597
  H  H208  1  0.257000  0.115100  0.072000  1.0  0.0822
  H  H209  1  0.179100  0.150700  0.080900  1.0  0.079
  H  H210  1  0.181800  0.071800  0.132100  1.0  0.0683
  H  H211  1  0.263700  0.092800  0.153300  1.0  0.0669
  H  H212  1  0.120100  0.155500  0.158800  1.0  0.0731
  H  H213  1  0.137600  0.043000  0.192600  1.0  0.1643
  H  H214  1  0.113700  0.959000  0.230200  1.0  0.1071
  H  H215  1  0.054000  0.949100  0.364500  1.0  0.1123
  H  H216  1  0.189200  0.058600  0.401800  1.0  0.1086
  H  H217  1  0.143100  0.096600  0.438300  1.0  0.1084
  H  H218  1  0.152300  0.116600  0.385600  1.0  0.098
  H  H219  1  0.006500  0.988300  0.423400  1.0  0.0828
  H  H220  1  0.037200  0.031700  0.461400  1.0  0.099
  H  H221  1  0.097000  0.988600  0.438200  1.0  0.1013
  H  H222  1  0.013100  0.128900  0.374800  1.0  0.0853
  H  H223  1  0.994800  0.111000  0.427100  1.0  0.0978
  H  H224  1  0.952400  0.079600  0.385100  1.0  0.0998
  H  H225  1  0.447500  0.676600  0.119200  1.0  0.1043
  H  H226  1  0.387600  0.690100  0.253100  1.0  0.1208
  H  H227  1  0.512400  0.849600  0.116000  1.0  0.0908
  H  H228  1  0.524700  0.839800  0.061600  1.0  0.1001
  H  H229  1  0.567100  0.799900  0.098300  1.0  0.0929
  H  H230  1  0.519900  0.725700  0.055000  1.0  0.1032
  H  H231  1  0.457400  0.755300  0.021800  1.0  0.0979
  H  H232  1  0.430000  0.706700  0.056100  1.0  0.0902
  H  H233  1  0.328300  0.789500  0.071500  1.0  0.0995
  H  H234  1  0.382400  0.833900  0.045400  1.0  0.0988
  H  H235  1  0.358800  0.843600  0.098400  1.0  0.0961
  H  H236  1  0.479600  0.592700  0.136900  1.0  0.0852
  H  H237  1  0.358200  0.608500  0.253700  1.0  0.1274
  H  H238  1  0.371000  0.773100  0.289200  1.0  0.101
  H  H239  1  0.400000  0.885200  0.325100  1.0  0.0672
  H  H240  1  0.336000  0.804400  0.353200  1.0  0.067
  H  H241  1  0.254100  0.825900  0.332200  1.0  0.0727
  H  H242  1  0.261800  0.849900  0.412200  1.0  0.0701
  H  H243  1  0.342000  0.882800  0.403100  1.0  0.0615
  H  H244  1  0.238500  0.946400  0.408000  1.0  0.0681
  H  H245  1  0.192300  0.914600  0.367600  1.0  0.0618
  H  H246  1  0.336900  0.973300  0.356200  1.0  0.062
  H  H247  1  0.253800  0.992700  0.336000  1.0  0.0757
  H  H248  1  0.249700  0.915100  0.287200  1.0  0.0907
  H  H249  1  0.344000  0.027000  0.287900  1.0  0.0793
  H  H250  1  0.390000  0.111200  0.259200  1.0  0.1138
  H  H251  1  0.461400  0.127200  0.126900  1.0  0.1008
  H  H252  1  0.322000  0.018300  0.082000  1.0  0.1172
  H  H253  1  0.359300  0.959500  0.095900  1.0  0.0945
  H  H254  1  0.371600  0.983800  0.044700  1.0  0.1011
  H  H255  1  0.425500  0.101300  0.062400  1.0  0.0963
  H  H256  1  0.455500  0.055300  0.026400  1.0  0.1017
  H  H257  1  0.515900  0.083400  0.061900  1.0  0.0948
  H  H258  1  0.512400  0.962500  0.064600  1.0  0.0924
  H  H259  1  0.509500  0.958700  0.120000  1.0  0.0955
  H  H260  1  0.562100  0.005300  0.095400  1.0  0.0927
  H  H261  1  0.374400  0.194700  0.262800  1.0  0.1157
  H  H262  1  0.368100  0.290300  0.267200  1.0  0.0779
  H  H263  1  0.488200  0.305100  0.151100  1.0  0.0582
  H  H264  1  0.494200  0.209300  0.142200  1.0  0.1179
  H  H265  1  0.349800  0.512800  0.257200  1.0  0.0642
  H  H266  1  0.477100  0.497000  0.145800  1.0  0.0938
  H  H267  1  0.396300  0.386700  0.045800  1.0  0.0935
  H  H268  1  0.346600  0.371200  0.971900  1.0  0.1057
  H  H269  1  0.132200  0.335000  0.028500  1.0  0.1065
  H  H270  1  0.184800  0.351900  0.101800  1.0  0.0858
  H  H271  1  0.302900  0.316900  0.916000  1.0  0.0938
  H  H272  1  0.257600  0.311600  0.839600  1.0  0.0943
  H  H273  1  0.041100  0.356400  0.882100  1.0  0.0947
  H  H274  1  0.087700  0.363700  0.958000  1.0  0.0972
  H  H275  1  0.757200  0.374000  0.165300  1.0  0.0865
  H  H276  1  0.804300  0.359800  0.090500  1.0  0.0928
  H  H277  1  0.585300  0.378100  0.039100  1.0  0.1077
  H  H278  1  0.539900  0.396900  0.114400  1.0  0.0815
  H  H279  1  0.837800  0.393700  0.021300  1.0  0.1056
  H  H280  1  0.892600  0.374500  0.949600  1.0  0.101
  H  H281  1  0.688500  0.305500  0.908600  1.0  0.0938
  H  H282  1  0.641900  0.311800  0.984100  1.0  0.0981
  H  H283  1  0.149000  0.125600  0.762100  1.0  0.1157
  H  H284  1  0.149300  0.222400  0.763100  1.0  0.0682
  H  H285  1  0.008100  0.227900  0.656900  1.0  0.0735
  H  H286  1  0.006800  0.131500  0.650500  1.0  0.1193
  H  H287  1  0.188500  0.433600  0.751300  1.0  0.0735
  H  H288  1  0.194100  0.530100  0.749500  1.0  0.0988
  H  H289  1  0.996500  0.532000  0.675700  1.0  0.1019
  H  H290  1  0.996500  0.434600  0.675800  1.0  0.0869
  H  H291  1  0.159000  0.618400  0.767500  1.0  0.0954
  H  H292  1  0.048700  0.607000  0.645100  1.0  0.1024
  H  H293  1  0.116000  0.782200  0.609800  1.0  0.0946
  H  H294  1  0.076900  0.764000  0.561700  1.0  0.0947
  H  H295  1  0.148100  0.728700  0.582800  1.0  0.1016
  H  H296  1  0.931300  0.723900  0.644200  1.0  0.0974
  H  H297  1  0.952000  0.769000  0.605400  1.0  0.0922
  H  H298  1  0.989000  0.774400  0.656200  1.0  0.0964
  H  H299  1  0.050700  0.639100  0.580000  1.0  0.0888
  H  H300  1  0.005300  0.686400  0.551700  1.0  0.0926
  H  H301  1  0.962100  0.654400  0.593100  1.0  0.0926
  H  H302  1  0.203800  0.704100  0.797400  1.0  0.0858
  H  H303  1  0.273300  0.822500  0.801900  1.0  0.0773
  H  H304  1  0.280700  0.743600  0.847400  1.0  0.0671
  H  H305  1  0.194700  0.754600  0.868000  1.0  0.0662
  H  H306  1  0.284800  0.788300  0.923600  1.0  0.0919
  H  H307  1  0.331800  0.822700  0.885100  1.0  0.0579
  H  H308  1  0.257000  0.884900  0.928000  1.0  0.0827
  H  H309  1  0.179100  0.849300  0.919100  1.0  0.08
  H  H310  1  0.181800  0.928200  0.867900  1.0  0.0674
  H  H311  1  0.263700  0.907200  0.846700  1.0  0.0662
  H  H312  1  0.120100  0.844500  0.841200  1.0  0.0728
  H  H313  1  0.137600  0.957000  0.807400  1.0  0.1661
  H  H314  1  0.113700  0.041000  0.769800  1.0  0.1072
  H  H315  1  0.054000  0.050900  0.635500  1.0  0.1099
  H  H316  1  0.189200  0.941400  0.598200  1.0  0.1097
  H  H317  1  0.143100  0.903400  0.561700  1.0  0.1107
  H  H318  1  0.152300  0.883400  0.614400  1.0  0.097
  H  H319  1  0.006500  0.011700  0.576600  1.0  0.0803
  H  H320  1  0.037200  0.968300  0.538600  1.0  0.0978
  H  H321  1  0.097000  0.011400  0.561800  1.0  0.1005
  H  H322  1  0.013100  0.871100  0.625200  1.0  0.0867
  H  H323  1  0.994800  0.889000  0.572900  1.0  0.0987
  H  H324  1  0.952400  0.920400  0.614900  1.0  0.0993
  H  H325  1  0.552500  0.676600  0.380800  1.0  0.1053
  H  H326  1  0.612400  0.690100  0.246900  1.0  0.12
  H  H327  1  0.487600  0.849600  0.384000  1.0  0.0903
  H  H328  1  0.475300  0.839800  0.438400  1.0  0.1017
  H  H329  1  0.432900  0.799900  0.401700  1.0  0.0932
  H  H330  1  0.480100  0.725700  0.445000  1.0  0.103
  H  H331  1  0.542600  0.755300  0.478200  1.0  0.0983
  H  H332  1  0.570000  0.706700  0.443900  1.0  0.0916
  H  H333  1  0.671700  0.789500  0.428500  1.0  0.0977
  H  H334  1  0.617600  0.833900  0.454600  1.0  0.0969
  H  H335  1  0.641200  0.843600  0.401600  1.0  0.0973
  H  H336  1  0.520400  0.592700  0.363100  1.0  0.0852
  H  H337  1  0.641800  0.608500  0.246300  1.0  0.1268
  H  H338  1  0.629000  0.773100  0.210800  1.0  0.1
  H  H339  1  0.600000  0.885200  0.174900  1.0  0.0667
  H  H340  1  0.664000  0.804400  0.146800  1.0  0.0661
  H  H341  1  0.745900  0.825900  0.167800  1.0  0.0732
  H  H342  1  0.738200  0.849900  0.087800  1.0  0.0692
  H  H343  1  0.658000  0.882800  0.096900  1.0  0.0614
  H  H344  1  0.761500  0.946400  0.092000  1.0  0.0678
  H  H345  1  0.807700  0.914600  0.132400  1.0  0.0635
  H  H346  1  0.663100  0.973300  0.143800  1.0  0.0634
  H  H347  1  0.746200  0.992700  0.164000  1.0  0.0735
  H  H348  1  0.750300  0.915100  0.212800  1.0  0.092
  H  H349  1  0.656000  0.027000  0.212100  1.0  0.0788
  H  H350  1  0.610000  0.111200  0.240800  1.0  0.1134
  H  H351  1  0.538600  0.127200  0.373100  1.0  0.1018
  H  H352  1  0.678000  0.018300  0.418000  1.0  0.1199
  H  H353  1  0.640700  0.959500  0.404100  1.0  0.0952
  H  H354  1  0.628400  0.983800  0.455300  1.0  0.1002
  H  H355  1  0.574500  0.101300  0.437600  1.0  0.0944
  H  H356  1  0.544500  0.055300  0.473600  1.0  0.1012
  H  H357  1  0.484100  0.083400  0.438100  1.0  0.0937
  H  H358  1  0.487600  0.962500  0.435400  1.0  0.093
  H  H359  1  0.490500  0.958700  0.380000  1.0  0.0965
  H  H360  1  0.437900  0.005300  0.404600  1.0  0.0921
  H  H361  1  0.625600  0.194700  0.237200  1.0  0.1158
  H  H362  1  0.631900  0.290300  0.232800  1.0  0.0776
  H  H363  1  0.511800  0.305100  0.348900  1.0  0.0581
  H  H364  1  0.505800  0.209300  0.357800  1.0  0.1175
  H  H365  1  0.650200  0.512800  0.242800  1.0  0.0641
  H  H366  1  0.522900  0.497000  0.354200  1.0  0.094
  H  H367  1  0.603700  0.386700  0.454200  1.0  0.0934
  H  H368  1  0.653400  0.371200  0.528100  1.0  0.1056
  H  H369  1  0.867800  0.335000  0.471500  1.0  0.1066
  H  H370  1  0.815200  0.351900  0.398200  1.0  0.0862
  H  H371  1  0.697100  0.316900  0.584000  1.0  0.0942
  H  H372  1  0.742400  0.311600  0.660400  1.0  0.0942
  H  H373  1  0.958900  0.356400  0.617900  1.0  0.0954
  H  H374  1  0.912300  0.363700  0.542000  1.0  0.0982
  H  H375  1  0.242800  0.374000  0.334700  1.0  0.0862
  H  H376  1  0.195700  0.359800  0.409500  1.0  0.0931
  H  H377  1  0.414700  0.378100  0.460900  1.0  0.1082
  H  H378  1  0.460100  0.396900  0.385600  1.0  0.0808
  H  H379  1  0.162200  0.393700  0.478700  1.0  0.106
  H  H380  1  0.107400  0.374500  0.550400  1.0  0.1005
  H  H381  1  0.311500  0.305500  0.591400  1.0  0.0939
  H  H382  1  0.358100  0.311800  0.515900  1.0  0.0981
  H  H383  1  0.851000  0.125600  0.737900  1.0  0.1149
  H  H384  1  0.850700  0.222400  0.736900  1.0  0.0675
  H  H385  1  0.991900  0.227900  0.843100  1.0  0.0732
  H  H386  1  0.993200  0.131500  0.849500  1.0  0.119
  H  H387  1  0.811500  0.433600  0.748700  1.0  0.0736
  H  H388  1  0.805900  0.530100  0.750500  1.0  0.0984
  H  H389  1  0.003500  0.532000  0.824300  1.0  0.1031
  H  H390  1  0.003500  0.434600  0.824200  1.0  0.0872
  H  H391  1  0.841000  0.618400  0.732500  1.0  0.0956
  H  H392  1  0.951300  0.607000  0.854900  1.0  0.1021
  H  H393  1  0.884000  0.782200  0.890200  1.0  0.0958
  H  H394  1  0.923100  0.764000  0.938300  1.0  0.0939
  H  H395  1  0.851900  0.728700  0.917200  1.0  0.1041
  H  H396  1  0.068700  0.723900  0.855800  1.0  0.096
  H  H397  1  0.048000  0.769000  0.894600  1.0  0.0924
  H  H398  1  0.011000  0.774400  0.843800  1.0  0.0962
  H  H399  1  0.949300  0.639100  0.920000  1.0  0.0906
  H  H400  1  0.994700  0.686400  0.948300  1.0  0.0927
  H  H401  1  0.037900  0.654400  0.906900  1.0  0.0922
  H  H402  1  0.796200  0.704100  0.702600  1.0  0.0843
  H  H403  1  0.726700  0.822500  0.698100  1.0  0.0782
  H  H404  1  0.719300  0.743600  0.652600  1.0  0.0663
  H  H405  1  0.805300  0.754600  0.632000  1.0  0.0649
  H  H406  1  0.715200  0.788300  0.576400  1.0  0.0889
  H  H407  1  0.668200  0.822700  0.614900  1.0  0.0571
  H  H408  1  0.743000  0.884900  0.572000  1.0  0.0829
  H  H409  1  0.820900  0.849300  0.580900  1.0  0.0798
  H  H410  1  0.818200  0.928200  0.632100  1.0  0.0679
  H  H411  1  0.736300  0.907200  0.653300  1.0  0.066
  H  H412  1  0.879900  0.844500  0.658800  1.0  0.0743
  H  H413  1  0.862400  0.957000  0.692600  1.0  0.1645
  H  H414  1  0.886300  0.041000  0.730200  1.0  0.1073
  H  H415  1  0.946000  0.050900  0.864500  1.0  0.1105
  H  H416  1  0.810800  0.941400  0.901800  1.0  0.1114
  H  H417  1  0.856900  0.903400  0.938300  1.0  0.1097
  H  H418  1  0.847700  0.883400  0.885600  1.0  0.0976
  H  H419  1  0.993500  0.011700  0.923400  1.0  0.0828
  H  H420  1  0.962800  0.968300  0.961400  1.0  0.0989
  H  H421  1  0.903000  0.011400  0.938200  1.0  0.1
  H  H422  1  0.986900  0.871100  0.874800  1.0  0.0877
  H  H423  1  0.005200  0.889000  0.927100  1.0  0.0978
  H  H424  1  0.047600  0.920400  0.885100  1.0  0.0984
  C  C425  1  0.582200  0.209000  0.677100  1.0  0.2588
  C  C426  1  0.566100  0.243300  0.638400  1.0  -0.0261
  C  C427  1  0.564800  0.300500  0.645000  1.0  -0.1618
  C  C428  1  0.580400  0.326000  0.687200  1.0  -0.0992
  C  C429  1  0.599800  0.293200  0.724200  1.0  -0.1396
  C  C430  1  0.601100  0.234400  0.719900  1.0  -0.0462
  C  C431  1  0.551700  0.217500  0.591100  1.0  0.1002
  C  C432  1  0.480400  0.178500  0.591800  1.0  -0.3684
  C  C433  1  0.534500  0.261600  0.552400  1.0  -0.3824
  C  C434  1  0.627800  0.184400  0.575100  1.0  -0.3655
  C  C435  1  0.580000  0.388100  0.692400  1.0  0.0782
  C  C436  1  0.546900  0.422500  0.663000  1.0  -0.1622
  C  C437  1  0.618100  0.413500  0.730200  1.0  -0.2136
  C  C438  1  0.622600  0.205500  0.761800  1.0  0.0261
  C  C439  1  0.651000  0.126100  0.810800  1.0  0.0305
  C  C440  1  0.695200  0.162100  0.845600  1.0  -0.1413
  C  C441  1  0.709100  0.127400  0.889300  1.0  -0.1274
  C  C442  1  0.754900  0.075300  0.879100  1.0  -0.1293
  C  C443  1  0.713500  0.040100  0.843400  1.0  -0.1594
  C  C444  1  0.698200  0.072900  0.799600  1.0  0.0478
  C  C445  1  0.642700  0.993500  0.760900  1.0  0.0874
  C  C446  1  0.608800  0.962800  0.723300  1.0  -0.0428
  C  C447  1  0.598600  0.904600  0.729800  1.0  -0.1782
  C  C448  1  0.573000  0.870800  0.694800  1.0  -0.0494
  C  C449  1  0.557300  0.895600  0.651400  1.0  -0.148
  C  C450  1  0.568100  0.952300  0.643100  1.0  0.0026
  C  C451  1  0.590800  0.986500  0.680300  1.0  0.2779
  C  C452  1  0.555900  0.976400  0.594000  1.0  0.1006
  C  C453  1  0.633000  0.006500  0.577600  1.0  -0.3627
  C  C454  1  0.538100  0.929800  0.557800  1.0  -0.3875
  C  C455  1  0.486900  0.016000  0.593400  1.0  -0.3834
  C  C456  1  0.568100  0.810100  0.701200  1.0  0.0527
  C  C457  1  0.603000  0.783600  0.738700  1.0  -0.1536
  C  C458  1  0.605600  0.726400  0.741700  1.0  0.1734
  C  C459  1  0.536100  0.717800  0.673900  1.0  0.1717
  C  C460  1  0.532300  0.775200  0.668100  1.0  -0.2058
  C  C461  1  0.620800  0.471000  0.732700  1.0  0.1716
  C  C462  1  0.548600  0.480300  0.668000  1.0  0.0938
  C  C463  1  0.671800  0.617900  0.628500  1.0  0.641
  C  C464  1  0.705100  0.629900  0.581500  1.0  -0.1187
  C  C465  1  0.657100  0.623800  0.542100  1.0  -0.0614
  C  C466  1  0.686800  0.633000  0.498100  1.0  -0.1415
  C  C467  1  0.766200  0.648300  0.491500  1.0  0.0091
  C  C468  1  0.814400  0.654400  0.531600  1.0  -0.1758
  C  C469  1  0.782500  0.644500  0.575400  1.0  -0.0207
  C  C470  1  0.798100  0.656100  0.444100  1.0  0.0185
  C  C471  1  0.750000  0.673600  0.409200  1.0  -0.1601
  C  C472  1  0.777100  0.677800  0.363800  1.0  -0.0544
  C  C473  1  0.854100  0.666500  0.354100  1.0  -0.1368
  C  C474  1  0.905300  0.650900  0.388900  1.0  -0.0712
  C  C475  1  0.877300  0.646300  0.433800  1.0  -0.1262
  C  C476  1  0.879700  0.669300  0.304100  1.0  0.6481
  C  C477  1  0.384000  0.599600  0.695100  1.0  0.6463
  C  C478  1  0.356300  0.611100  0.646500  1.0  -0.1648
  C  C479  1  0.277600  0.623800  0.639600  1.0  -0.0428
  C  C480  1  0.250000  0.633300  0.595200  1.0  -0.1499
  C  C481  1  0.300000  0.633000  0.557200  1.0  0.0335
  C  C482  1  0.379100  0.622000  0.564400  1.0  -0.1542
  C  C483  1  0.406100  0.610900  0.609500  1.0  -0.02
  C  C484  1  0.266800  0.643000  0.509400  1.0  0.0443
  C  C485  1  0.192100  0.625800  0.498800  1.0  -0.1795
  C  C486  1  0.159900  0.636500  0.455900  1.0  -0.109
  C  C487  1  0.203000  0.662900  0.422000  1.0  -0.1248
  C  C488  1  0.279400  0.679000  0.432200  1.0  -0.0605
  C  C489  1  0.308700  0.672400  0.476300  1.0  -0.1675
  C  C490  1  0.918700  0.945300  0.203600  1.0  -0.0541
  C  C491  1  0.923400  0.883300  0.206700  1.0  0.0814
  C  C492  1  0.880500  0.854600  0.239600  1.0  -0.2073
  C  C493  1  0.880400  0.796200  0.239900  1.0  0.1623
  C  C494  1  0.961700  0.793200  0.178200  1.0  0.1597
  C  C495  1  0.964100  0.851200  0.174600  1.0  -0.233
  C  C496  1  0.850600  0.546500  0.234800  1.0  0.156
  C  C497  1  0.847300  0.488500  0.234000  1.0  -0.1579
  C  C498  1  0.902400  0.458500  0.211300  1.0  0.0445
  C  C499  1  0.962100  0.487600  0.190600  1.0  -0.19
  C  C500  1  0.962600  0.546000  0.191200  1.0  0.1411
  C  C501  1  0.895900  0.397300  0.207400  1.0  0.0082
  C  C502  1  0.861900  0.364800  0.240400  1.0  -0.2012
  C  C503  1  0.857200  0.306200  0.234900  1.0  -0.1371
  C  C504  1  0.886000  0.279700  0.195400  1.0  0.2886
  C  C505  1  0.921600  0.313600  0.159900  1.0  0.0172
  C  C506  1  0.926100  0.370600  0.167900  1.0  -0.1513
  C  C507  1  0.957900  0.286500  0.116900  1.0  0.1382
  C  C508  1  0.898800  0.249500  0.090400  1.0  -0.371
  C  C509  1  0.027600  0.251700  0.132000  1.0  -0.3774
  C  C510  1  0.987700  0.330700  0.082300  1.0  -0.3792
  C  C511  1  0.819700  0.275300  0.273000  1.0  0.0885
  C  C512  1  0.777100  0.192600  0.314300  1.0  0.0108
  C  C513  1  0.757200  0.227100  0.356200  1.0  -0.1496
  C  C514  1  0.721100  0.189500  0.394900  1.0  -0.1248
  C  C515  1  0.770500  0.138900  0.405200  1.0  -0.1065
  C  C516  1  0.786600  0.105200  0.360500  1.0  -0.156
  C  C517  1  0.830700  0.141700  0.326200  1.0  0.0495
  C  C518  1  0.866600  0.064000  0.279600  1.0  0.023
  C  C519  1  0.891000  0.035400  0.237800  1.0  -0.0835
  C  C520  1  0.897200  0.976800  0.241100  1.0  -0.1581
  C  C521  1  0.931500  0.971200  0.161400  1.0  -0.1496
  C  C522  1  0.924100  0.028500  0.155600  1.0  -0.0459
  C  C523  1  0.905600  0.061100  0.193900  1.0  0.2511
  C  C524  1  0.931200  0.054900  0.106500  1.0  0.0838
  C  C525  1  0.854800  0.084300  0.094100  1.0  -0.3903
  C  C526  1  0.949300  0.011900  0.067200  1.0  -0.3753
  C  C527  1  0.998900  0.097500  0.104700  1.0  -0.3852
  C  C528  1  0.168500  0.670100  0.373900  1.0  0.7069
  C  C529  1  0.417800  0.209000  0.822900  1.0  0.2582
  C  C530  1  0.433900  0.243300  0.861600  1.0  -0.0256
  C  C531  1  0.435200  0.300500  0.855000  1.0  -0.162
  C  C532  1  0.419600  0.326000  0.812800  1.0  -0.0996
  C  C533  1  0.400200  0.293200  0.775800  1.0  -0.1394
  C  C534  1  0.398900  0.234400  0.780100  1.0  -0.0462
  C  C535  1  0.448300  0.217500  0.908900  1.0  0.1005
  C  C536  1  0.519600  0.178500  0.908200  1.0  -0.3689
  C  C537  1  0.465500  0.261600  0.947600  1.0  -0.3847
  C  C538  1  0.372200  0.184400  0.924900  1.0  -0.3648
  C  C539  1  0.420000  0.388100  0.807600  1.0  0.0784
  C  C540  1  0.453100  0.422500  0.837000  1.0  -0.1599
  C  C541  1  0.381900  0.413500  0.769800  1.0  -0.2143
  C  C542  1  0.377400  0.205500  0.738200  1.0  0.0256
  C  C543  1  0.349000  0.126100  0.689200  1.0  0.0321
  C  C544  1  0.304800  0.162100  0.654400  1.0  -0.1426
  C  C545  1  0.290900  0.127400  0.610700  1.0  -0.1302
  C  C546  1  0.245100  0.075300  0.620900  1.0  -0.1302
  C  C547  1  0.286500  0.040100  0.656600  1.0  -0.16
  C  C548  1  0.301800  0.072900  0.700400  1.0  0.0489
  C  C549  1  0.357300  0.993500  0.739100  1.0  0.0888
  C  C550  1  0.391200  0.962800  0.776700  1.0  -0.0429
  C  C551  1  0.401400  0.904600  0.770200  1.0  -0.1786
  C  C552  1  0.427000  0.870800  0.805200  1.0  -0.048
  C  C553  1  0.442700  0.895600  0.848600  1.0  -0.1466
  C  C554  1  0.431900  0.952300  0.856900  1.0  0.0051
  C  C555  1  0.409200  0.986500  0.819700  1.0  0.2789
  C  C556  1  0.444100  0.976400  0.906000  1.0  0.1016
  C  C557  1  0.367000  0.006500  0.922400  1.0  -0.3626
  C  C558  1  0.461900  0.929800  0.942200  1.0  -0.3883
  C  C559  1  0.513100  0.016000  0.906600  1.0  -0.3813
  C  C560  1  0.431900  0.810100  0.798800  1.0  0.0532
  C  C561  1  0.397000  0.783600  0.761300  1.0  -0.1537
  C  C562  1  0.394400  0.726400  0.758300  1.0  0.1729
  C  C563  1  0.463900  0.717800  0.826100  1.0  0.1723
  C  C564  1  0.467700  0.775200  0.831900  1.0  -0.2043
  C  C565  1  0.379200  0.471000  0.767300  1.0  0.1723
  C  C566  1  0.451400  0.480300  0.832000  1.0  0.0947
  C  C567  1  0.328200  0.617900  0.871500  1.0  0.6387
  C  C568  1  0.294900  0.629900  0.918500  1.0  -0.1179
  C  C569  1  0.342900  0.623800  0.957900  1.0  -0.0612
  C  C570  1  0.313200  0.633000  0.001900  1.0  -0.141
  C  C571  1  0.233800  0.648300  0.008500  1.0  0.0086
  C  C572  1  0.185600  0.654400  0.968400  1.0  -0.1761
  C  C573  1  0.217500  0.644500  0.924600  1.0  -0.0184
  C  C574  1  0.201900  0.656100  0.055900  1.0  0.0187
  C  C575  1  0.250000  0.673600  0.090800  1.0  -0.1613
  C  C576  1  0.222900  0.677800  0.136200  1.0  -0.055
  C  C577  1  0.145900  0.666500  0.145900  1.0  -0.1369
  C  C578  1  0.094700  0.650900  0.111100  1.0  -0.0732
  C  C579  1  0.122700  0.646300  0.066200  1.0  -0.1262
  C  C580  1  0.120300  0.669300  0.195900  1.0  0.6486
  C  C581  1  0.616000  0.599600  0.804900  1.0  0.6463
  C  C582  1  0.643700  0.611100  0.853500  1.0  -0.1649
  C  C583  1  0.722400  0.623800  0.860400  1.0  -0.0446
  C  C584  1  0.750000  0.633300  0.904800  1.0  -0.1525
  C  C585  1  0.700000  0.633000  0.942800  1.0  0.0335
  C  C586  1  0.620900  0.622000  0.935600  1.0  -0.1536
  C  C587  1  0.593900  0.610900  0.890500  1.0  -0.0201
  C  C588  1  0.733200  0.643000  0.990600  1.0  0.0438
  C  C589  1  0.807900  0.625800  0.001200  1.0  -0.1795
  C  C590  1  0.840100  0.636500  0.044100  1.0  -0.108
  C  C591  1  0.797000  0.662900  0.078000  1.0  -0.126
  C  C592  1  0.720600  0.679000  0.067800  1.0  -0.0611
  C  C593  1  0.691300  0.672400  0.023700  1.0  -0.1671
  C  C594  1  0.081300  0.945300  0.296400  1.0  -0.0552
  C  C595  1  0.076600  0.883300  0.293300  1.0  0.0806
  C  C596  1  0.119500  0.854600  0.260400  1.0  -0.2094
  C  C597  1  0.119600  0.796200  0.260100  1.0  0.1615
  C  C598  1  0.038300  0.793200  0.321800  1.0  0.1607
  C  C599  1  0.035900  0.851200  0.325400  1.0  -0.235
  C  C600  1  0.149400  0.546500  0.265200  1.0  0.1554
  C  C601  1  0.152700  0.488500  0.266000  1.0  -0.1567
  C  C602  1  0.097600  0.458500  0.288700  1.0  0.0452
  C  C603  1  0.037900  0.487600  0.309400  1.0  -0.1918
  C  C604  1  0.037400  0.546000  0.308800  1.0  0.1393
  C  C605  1  0.104100  0.397300  0.292600  1.0  0.0086
  C  C606  1  0.138100  0.364800  0.259600  1.0  -0.1985
  C  C607  1  0.142800  0.306200  0.265100  1.0  -0.1375
  C  C608  1  0.114000  0.279700  0.304600  1.0  0.2905
  C  C609  1  0.078400  0.313600  0.340100  1.0  0.0204
  C  C610  1  0.073900  0.370600  0.332100  1.0  -0.1529
  C  C611  1  0.042100  0.286500  0.383100  1.0  0.138
  C  C612  1  0.101200  0.249500  0.409600  1.0  -0.3711
  C  C613  1  0.972400  0.251700  0.368000  1.0  -0.3769
  C  C614  1  0.012300  0.330700  0.417700  1.0  -0.3793
  C  C615  1  0.180300  0.275300  0.227000  1.0  0.0897
  C  C616  1  0.222900  0.192600  0.185700  1.0  0.0117
  C  C617  1  0.242800  0.227100  0.143800  1.0  -0.1491
  C  C618  1  0.278900  0.189500  0.105100  1.0  -0.1211
  C  C619  1  0.229500  0.138900  0.094800  1.0  -0.1109
  C  C620  1  0.213400  0.105200  0.139500  1.0  -0.1554
  C  C621  1  0.169300  0.141700  0.173800  1.0  0.0503
  C  C622  1  0.133400  0.064000  0.220400  1.0  0.0229
  C  C623  1  0.109000  0.035400  0.262200  1.0  -0.084
  C  C624  1  0.102800  0.976800  0.258900  1.0  -0.1569
  C  C625  1  0.068500  0.971200  0.338600  1.0  -0.151
  C  C626  1  0.075900  0.028500  0.344400  1.0  -0.0445
  C  C627  1  0.094400  0.061100  0.306100  1.0  0.2515
  C  C628  1  0.068800  0.054900  0.393500  1.0  0.0848
  C  C629  1  0.145200  0.084300  0.405900  1.0  -0.3901
  C  C630  1  0.050700  0.011900  0.432800  1.0  -0.3734
  C  C631  1  0.001100  0.097500  0.395300  1.0  -0.3864
  C  C632  1  0.831500  0.670100  0.126100  1.0  0.7091
  C  C633  1  0.417800  0.791000  0.177100  1.0  0.2576
  C  C634  1  0.433900  0.756700  0.138400  1.0  -0.0271
  C  C635  1  0.435200  0.699500  0.145000  1.0  -0.161
  C  C636  1  0.419600  0.674000  0.187200  1.0  -0.0999
  C  C637  1  0.400200  0.706800  0.224200  1.0  -0.1396
  C  C638  1  0.398900  0.765600  0.219900  1.0  -0.0461
  C  C639  1  0.448300  0.782500  0.091100  1.0  0.1002
  C  C640  1  0.519600  0.821500  0.091800  1.0  -0.3683
  C  C641  1  0.465500  0.738400  0.052400  1.0  -0.3865
  C  C642  1  0.372200  0.815600  0.075100  1.0  -0.3642
  C  C643  1  0.420000  0.611900  0.192400  1.0  0.0787
  C  C644  1  0.453100  0.577500  0.163000  1.0  -0.161
  C  C645  1  0.381900  0.586500  0.230200  1.0  -0.2123
  C  C646  1  0.377400  0.794500  0.261800  1.0  0.0264
  C  C647  1  0.349000  0.873900  0.310800  1.0  0.031
  C  C648  1  0.304800  0.837900  0.345600  1.0  -0.1392
  C  C649  1  0.290900  0.872600  0.389300  1.0  -0.1274
  C  C650  1  0.245100  0.924700  0.379100  1.0  -0.1303
  C  C651  1  0.286500  0.959900  0.343400  1.0  -0.1581
  C  C652  1  0.301800  0.927100  0.299600  1.0  0.049
  C  C653  1  0.357300  0.006500  0.260900  1.0  0.0867
  C  C654  1  0.391200  0.037200  0.223300  1.0  -0.0432
  C  C655  1  0.401400  0.095400  0.229800  1.0  -0.1793
  C  C656  1  0.427000  0.129200  0.194800  1.0  -0.048
  C  C657  1  0.442700  0.104400  0.151400  1.0  -0.1463
  C  C658  1  0.431900  0.047700  0.143100  1.0  0.003
  C  C659  1  0.409200  0.013500  0.180300  1.0  0.2769
  C  C660  1  0.444100  0.023600  0.094000  1.0  0.1006
  C  C661  1  0.367000  0.993500  0.077600  1.0  -0.362
  C  C662  1  0.461900  0.070200  0.057800  1.0  -0.3895
  C  C663  1  0.513100  0.984000  0.093400  1.0  -0.3828
  C  C664  1  0.431900  0.189900  0.201200  1.0  0.0526
  C  C665  1  0.397000  0.216400  0.238700  1.0  -0.1538
  C  C666  1  0.394400  0.273600  0.241700  1.0  0.1716
  C  C667  1  0.463900  0.282200  0.173900  1.0  0.1714
  C  C668  1  0.467700  0.224800  0.168100  1.0  -0.2057
  C  C669  1  0.379200  0.529000  0.232700  1.0  0.1723
  C  C670  1  0.451400  0.519700  0.168000  1.0  0.0938
  C  C671  1  0.328200  0.382100  0.128500  1.0  0.6399
  C  C672  1  0.294900  0.370100  0.081500  1.0  -0.1191
  C  C673  1  0.342900  0.376200  0.042100  1.0  -0.0608
  C  C674  1  0.313200  0.367000  0.998100  1.0  -0.1415
  C  C675  1  0.233800  0.351700  0.991500  1.0  0.0096
  C  C676  1  0.185600  0.345600  0.031600  1.0  -0.177
  C  C677  1  0.217500  0.355500  0.075400  1.0  -0.0193
  C  C678  1  0.201900  0.343900  0.944100  1.0  0.019
  C  C679  1  0.250000  0.326400  0.909200  1.0  -0.1611
  C  C680  1  0.222900  0.322200  0.863800  1.0  -0.0547
  C  C681  1  0.145900  0.333500  0.854100  1.0  -0.1376
  C  C682  1  0.094700  0.349100  0.888900  1.0  -0.0735
  C  C683  1  0.122700  0.353700  0.933800  1.0  -0.1274
  C  C684  1  0.120300  0.330700  0.804100  1.0  0.6488
  C  C685  1  0.616000  0.400400  0.195100  1.0  0.6462
  C  C686  1  0.643700  0.388900  0.146500  1.0  -0.1637
  C  C687  1  0.722400  0.376200  0.139600  1.0  -0.0438
  C  C688  1  0.750000  0.366700  0.095200  1.0  -0.1516
  C  C689  1  0.700000  0.367000  0.057200  1.0  0.0331
  C  C690  1  0.620900  0.378000  0.064400  1.0  -0.1536
  C  C691  1  0.593900  0.389100  0.109500  1.0  -0.0202
  C  C692  1  0.733200  0.357000  0.009400  1.0  0.0431
  C  C693  1  0.807900  0.374200  0.998800  1.0  -0.1783
  C  C694  1  0.840100  0.363500  0.955900  1.0  -0.1067
  C  C695  1  0.797000  0.337100  0.922000  1.0  -0.1248
  C  C696  1  0.720600  0.321000  0.932200  1.0  -0.0613
  C  C697  1  0.691300  0.327600  0.976300  1.0  -0.1671
  C  C698  1  0.081300  0.054700  0.703600  1.0  -0.0549
  C  C699  1  0.076600  0.116700  0.706700  1.0  0.0803
  C  C700  1  0.119500  0.145400  0.739600  1.0  -0.2076
  C  C701  1  0.119600  0.203800  0.739900  1.0  0.1626
  C  C702  1  0.038300  0.206800  0.678200  1.0  0.1612
  C  C703  1  0.035900  0.148800  0.674600  1.0  -0.2324
  C  C704  1  0.149400  0.453500  0.734800  1.0  0.1554
  C  C705  1  0.152700  0.511500  0.734000  1.0  -0.1565
  C  C706  1  0.097600  0.541500  0.711300  1.0  0.0455
  C  C707  1  0.037900  0.512400  0.690600  1.0  -0.1891
  C  C708  1  0.037400  0.454000  0.691200  1.0  0.1398
  C  C709  1  0.104100  0.602700  0.707400  1.0  0.0086
  C  C710  1  0.138100  0.635200  0.740400  1.0  -0.1983
  C  C711  1  0.142800  0.693800  0.734900  1.0  -0.1377
  C  C712  1  0.114000  0.720300  0.695400  1.0  0.2894
  C  C713  1  0.078400  0.686400  0.659900  1.0  0.0174
  C  C714  1  0.073900  0.629400  0.667900  1.0  -0.1523
  C  C715  1  0.042100  0.713500  0.616900  1.0  0.1375
  C  C716  1  0.101200  0.750500  0.590400  1.0  -0.3725
  C  C717  1  0.972400  0.748300  0.632000  1.0  -0.3777
  C  C718  1  0.012300  0.669300  0.582300  1.0  -0.3777
  C  C719  1  0.180300  0.724700  0.773000  1.0  0.0884
  C  C720  1  0.222900  0.807400  0.814300  1.0  0.0106
  C  C721  1  0.242800  0.772900  0.856200  1.0  -0.1479
  C  C722  1  0.278900  0.810500  0.894900  1.0  -0.1222
  C  C723  1  0.229500  0.861100  0.905200  1.0  -0.1094
  C  C724  1  0.213400  0.894800  0.860500  1.0  -0.1579
  C  C725  1  0.169300  0.858300  0.826200  1.0  0.0509
  C  C726  1  0.133400  0.936000  0.779600  1.0  0.0233
  C  C727  1  0.109000  0.964600  0.737800  1.0  -0.0839
  C  C728  1  0.102800  0.023200  0.741100  1.0  -0.1561
  C  C729  1  0.068500  0.028800  0.661400  1.0  -0.1508
  C  C730  1  0.075900  0.971500  0.655600  1.0  -0.0462
  C  C731  1  0.094400  0.938900  0.693900  1.0  0.2511
  C  C732  1  0.068800  0.945100  0.606500  1.0  0.0845
  C  C733  1  0.145200  0.915700  0.594100  1.0  -0.3926
  C  C734  1  0.050700  0.988100  0.567200  1.0  -0.3732
  C  C735  1  0.001100  0.902500  0.604700  1.0  -0.3858
  C  C736  1  0.831500  0.329900  0.873900  1.0  0.707
  C  C737  1  0.582200  0.791000  0.322900  1.0  0.2591
  C  C738  1  0.566100  0.756700  0.361600  1.0  -0.0242
  C  C739  1  0.564800  0.699500  0.355000  1.0  -0.1626
  C  C740  1  0.580400  0.674000  0.312800  1.0  -0.0999
  C  C741  1  0.599800  0.706800  0.275800  1.0  -0.1397
  C  C742  1  0.601100  0.765600  0.280100  1.0  -0.0456
  C  C743  1  0.551700  0.782500  0.408900  1.0  0.1003
  C  C744  1  0.480400  0.821500  0.408200  1.0  -0.3686
  C  C745  1  0.534500  0.738400  0.447600  1.0  -0.3846
  C  C746  1  0.627800  0.815600  0.424900  1.0  -0.3627
  C  C747  1  0.580000  0.611900  0.307600  1.0  0.0788
  C  C748  1  0.546900  0.577500  0.337000  1.0  -0.1614
  C  C749  1  0.618100  0.586500  0.269800  1.0  -0.2137
  C  C750  1  0.622600  0.794500  0.238200  1.0  0.0275
  C  C751  1  0.651000  0.873900  0.189200  1.0  0.0304
  C  C752  1  0.695200  0.837900  0.154400  1.0  -0.1407
  C  C753  1  0.709100  0.872600  0.110700  1.0  -0.1294
  C  C754  1  0.754900  0.924700  0.120900  1.0  -0.1303
  C  C755  1  0.713500  0.959900  0.156600  1.0  -0.1609
  C  C756  1  0.698200  0.927100  0.200400  1.0  0.0485
  C  C757  1  0.642700  0.006500  0.239100  1.0  0.0881
  C  C758  1  0.608800  0.037200  0.276700  1.0  -0.0431
  C  C759  1  0.598600  0.095400  0.270200  1.0  -0.178
  C  C760  1  0.573000  0.129200  0.305200  1.0  -0.0492
  C  C761  1  0.557300  0.104400  0.348600  1.0  -0.1476
  C  C762  1  0.568100  0.047700  0.356900  1.0  0.0045
  C  C763  1  0.590800  0.013500  0.319700  1.0  0.2775
  C  C764  1  0.555900  0.023600  0.406000  1.0  0.1017
  C  C765  1  0.633000  0.993500  0.422400  1.0  -0.3614
  C  C766  1  0.538100  0.070200  0.442200  1.0  -0.3855
  C  C767  1  0.486900  0.984000  0.406600  1.0  -0.3829
  C  C768  1  0.568100  0.189900  0.298800  1.0  0.0522
  C  C769  1  0.603000  0.216400  0.261300  1.0  -0.154
  C  C770  1  0.605600  0.273600  0.258300  1.0  0.1726
  C  C771  1  0.536100  0.282200  0.326100  1.0  0.1714
  C  C772  1  0.532300  0.224800  0.331900  1.0  -0.205
  C  C773  1  0.620800  0.529000  0.267300  1.0  0.1716
  C  C774  1  0.548600  0.519700  0.332000  1.0  0.0943
  C  C775  1  0.671800  0.382100  0.371500  1.0  0.6388
  C  C776  1  0.705100  0.370100  0.418500  1.0  -0.1191
  C  C777  1  0.657100  0.376200  0.457900  1.0  -0.0615
  C  C778  1  0.686800  0.367000  0.501900  1.0  -0.1428
  C  C779  1  0.766200  0.351700  0.508500  1.0  0.0089
  C  C780  1  0.814400  0.345600  0.468400  1.0  -0.1754
  C  C781  1  0.782500  0.355500  0.424600  1.0  -0.0193
  C  C782  1  0.798100  0.343900  0.555900  1.0  0.0189
  C  C783  1  0.750000  0.326400  0.590800  1.0  -0.1601
  C  C784  1  0.777100  0.322200  0.636200  1.0  -0.0543
  C  C785  1  0.854100  0.333500  0.645900  1.0  -0.1368
  C  C786  1  0.905300  0.349100  0.611100  1.0  -0.072
  C  C787  1  0.877300  0.353700  0.566200  1.0  -0.1266
  C  C788  1  0.879700  0.330700  0.695900  1.0  0.6482
  C  C789  1  0.384000  0.400400  0.304900  1.0  0.6462
  C  C790  1  0.356300  0.388900  0.353500  1.0  -0.165
  C  C791  1  0.277600  0.376200  0.360400  1.0  -0.043
  C  C792  1  0.250000  0.366700  0.404800  1.0  -0.1496
  C  C793  1  0.300000  0.367000  0.442800  1.0  0.0336
  C  C794  1  0.379100  0.378000  0.435600  1.0  -0.1548
  C  C795  1  0.406100  0.389100  0.390500  1.0  -0.0206
  C  C796  1  0.266800  0.357000  0.490600  1.0  0.044
  C  C797  1  0.192100  0.374200  0.501200  1.0  -0.1792
  C  C798  1  0.159900  0.363500  0.544100  1.0  -0.11
  C  C799  1  0.203000  0.337100  0.578000  1.0  -0.1253
  C  C800  1  0.279400  0.321000  0.567800  1.0  -0.0615
  C  C801  1  0.308700  0.327600  0.523700  1.0  -0.1675
  C  C802  1  0.918700  0.054700  0.796400  1.0  -0.0539
  C  C803  1  0.923400  0.116700  0.793300  1.0  0.0808
  C  C804  1  0.880500  0.145400  0.760400  1.0  -0.2083
  C  C805  1  0.880400  0.203800  0.760100  1.0  0.1627
  C  C806  1  0.961700  0.206800  0.821800  1.0  0.1604
  C  C807  1  0.964100  0.148800  0.825400  1.0  -0.2339
  C  C808  1  0.850600  0.453500  0.765200  1.0  0.1553
  C  C809  1  0.847300  0.511500  0.766000  1.0  -0.1578
  C  C810  1  0.902400  0.541500  0.788700  1.0  0.0445
  C  C811  1  0.962100  0.512400  0.809400  1.0  -0.1905
  C  C812  1  0.962600  0.454000  0.808800  1.0  0.1402
  C  C813  1  0.895900  0.602700  0.792600  1.0  0.0082
  C  C814  1  0.861900  0.635200  0.759600  1.0  -0.199
  C  C815  1  0.857200  0.693800  0.765100  1.0  -0.1374
  C  C816  1  0.886000  0.720300  0.804600  1.0  0.2909
  C  C817  1  0.921600  0.686400  0.840100  1.0  0.0194
  C  C818  1  0.926100  0.629400  0.832100  1.0  -0.152
  C  C819  1  0.957900  0.713500  0.883100  1.0  0.1381
  C  C820  1  0.898800  0.750500  0.909600  1.0  -0.3719
  C  C821  1  0.027600  0.748300  0.868000  1.0  -0.376
  C  C822  1  0.987700  0.669300  0.917700  1.0  -0.379
  C  C823  1  0.819700  0.724700  0.727000  1.0  0.089
  C  C824  1  0.777100  0.807400  0.685700  1.0  0.0109
  C  C825  1  0.757200  0.772900  0.643800  1.0  -0.1481
  C  C826  1  0.721100  0.810500  0.605100  1.0  -0.122
  C  C827  1  0.770500  0.861100  0.594800  1.0  -0.1102
  C  C828  1  0.786600  0.894800  0.639500  1.0  -0.1582
  C  C829  1  0.830700  0.858300  0.673800  1.0  0.0508
  C  C830  1  0.866600  0.936000  0.720400  1.0  0.0224
  C  C831  1  0.891000  0.964600  0.762200  1.0  -0.0847
  C  C832  1  0.897200  0.023200  0.758900  1.0  -0.1572
  C  C833  1  0.931500  0.028800  0.838600  1.0  -0.1496
  C  C834  1  0.924100  0.971500  0.844400  1.0  -0.0445
  C  C835  1  0.905600  0.938900  0.806100  1.0  0.2509
  C  C836  1  0.931200  0.945100  0.893500  1.0  0.0843
  C  C837  1  0.854800  0.915700  0.905900  1.0  -0.3922
  C  C838  1  0.949300  0.988100  0.932800  1.0  -0.3746
  C  C839  1  0.998900  0.902500  0.895300  1.0  -0.3862
  C  C840  1  0.168500  0.329900  0.626100  1.0  0.7081
  N  N841  1  0.633700  0.152400  0.764600  1.0  -0.3503
  N  N842  1  0.656500  0.044900  0.761700  1.0  -0.3214
  N  N843  1  0.571900  0.693100  0.709400  1.0  -0.3699
  N  N844  1  0.586100  0.504300  0.704000  1.0  -0.3379
  N  N845  1  0.919700  0.766000  0.209500  1.0  -0.3553
  N  N846  1  0.906900  0.574800  0.213100  1.0  -0.3475
  N  N847  1  0.817300  0.222500  0.275100  1.0  -0.3555
  N  N848  1  0.850700  0.115300  0.281200  1.0  -0.311
  N  N849  1  0.366300  0.152400  0.735400  1.0  -0.3491
  N  N850  1  0.343500  0.044900  0.738300  1.0  -0.3217
  N  N851  1  0.428100  0.693100  0.790600  1.0  -0.3698
  N  N852  1  0.413900  0.504300  0.796000  1.0  -0.338
  N  N853  1  0.080300  0.766000  0.290500  1.0  -0.3544
  N  N854  1  0.093100  0.574800  0.286900  1.0  -0.3456
  N  N855  1  0.182700  0.222500  0.224900  1.0  -0.3538
  N  N856  1  0.149300  0.115300  0.218800  1.0  -0.3107
  N  N857  1  0.366300  0.847600  0.264600  1.0  -0.3514
  N  N858  1  0.343500  0.955100  0.261700  1.0  -0.3206
  N  N859  1  0.428100  0.306900  0.209400  1.0  -0.3701
  N  N860  1  0.413900  0.495700  0.204000  1.0  -0.3379
  N  N861  1  0.080300  0.234000  0.709500  1.0  -0.3555
  N  N862  1  0.093100  0.425200  0.713100  1.0  -0.3456
  N  N863  1  0.182700  0.777500  0.775100  1.0  -0.3548
  N  N864  1  0.149300  0.884700  0.781200  1.0  -0.3113
  N  N865  1  0.633700  0.847600  0.235400  1.0  -0.3511
  N  N866  1  0.656500  0.955100  0.238300  1.0  -0.3203
  N  N867  1  0.571900  0.306900  0.290600  1.0  -0.3703
  N  N868  1  0.586100  0.495700  0.296000  1.0  -0.338
  N  N869  1  0.919700  0.234000  0.790500  1.0  -0.3545
  N  N870  1  0.906900  0.425200  0.786900  1.0  -0.3466
  N  N871  1  0.817300  0.777500  0.724900  1.0  -0.3538
  N  N872  1  0.850700  0.884700  0.718800  1.0  -0.3106
  O  O873  1  0.580700  0.154100  0.673300  1.0  -0.6835
  O  O874  1  0.594300  0.041200  0.673000  1.0  -0.6814
  O  O875  1  0.714100  0.620700  0.663470  1.0  -0.6127
  O  O876  1  0.599600  0.603400  0.629330  1.0  -0.6179
  O  O877  1  0.828800  0.674400  0.272860  1.0  -0.5921
  O  O878  1  0.455000  0.592900  0.703400  1.0  -0.6889
  O  O879  1  0.332300  0.598700  0.725900  1.0  -0.5997
  O  O880  1  0.884100  0.225400  0.190000  1.0  -0.6412
  O  O881  1  0.900500  0.116000  0.191000  1.0  -0.6622
  O  O882  1  0.094200  0.668200  0.371200  1.0  -0.6112
  O  O883  1  0.212100  0.675800  0.340000  1.0  -0.6103
  O  O884  1  0.952700  0.666200  0.295400  1.0  -0.7333
  O  O885  1  0.419300  0.154100  0.826700  1.0  -0.6865
  O  O886  1  0.405700  0.041200  0.827000  1.0  -0.6817
  O  O887  1  0.285900  0.620700  0.836530  1.0  -0.6132
  O  O888  1  0.400400  0.603400  0.870670  1.0  -0.6184
  O  O889  1  0.171200  0.674400  0.227140  1.0  -0.5902
  O  O890  1  0.545000  0.592900  0.796600  1.0  -0.6891
  O  O891  1  0.667700  0.598700  0.774100  1.0  -0.6011
  O  O892  1  0.115900  0.225400  0.310000  1.0  -0.6413
  O  O893  1  0.099500  0.116000  0.309000  1.0  -0.6644
  O  O894  1  0.905800  0.668200  0.128800  1.0  -0.6133
  O  O895  1  0.787900  0.675800  0.160000  1.0  -0.6123
  O  O896  1  0.047300  0.666200  0.204600  1.0  -0.7337
  O  O897  1  0.500000  0.088900  0.750000  1.0  -0.9765
  O  O898  1  0.000000  0.184800  0.250000  1.0  -0.9197
  O  O899  1  0.419300  0.845900  0.173300  1.0  -0.687
  O  O900  1  0.405700  0.958800  0.173000  1.0  -0.6818
  O  O901  1  0.285900  0.379300  0.163470  1.0  -0.6122
  O  O902  1  0.400400  0.396600  0.129330  1.0  -0.6171
  O  O903  1  0.171200  0.325600  0.772860  1.0  -0.5915
  O  O904  1  0.545000  0.407100  0.203400  1.0  -0.6888
  O  O905  1  0.667700  0.401300  0.225900  1.0  -0.6002
  O  O906  1  0.115900  0.774600  0.690000  1.0  -0.6411
  O  O907  1  0.099500  0.884000  0.691000  1.0  -0.6647
  O  O908  1  0.905800  0.331800  0.871200  1.0  -0.6133
  O  O909  1  0.787900  0.324200  0.840000  1.0  -0.6092
  O  O910  1  0.047300  0.333800  0.795400  1.0  -0.7333
  O  O911  1  0.580700  0.845900  0.326700  1.0  -0.6855
  O  O912  1  0.594300  0.958800  0.327000  1.0  -0.6823
  O  O913  1  0.714100  0.379300  0.336530  1.0  -0.6133
  O  O914  1  0.599600  0.396600  0.370670  1.0  -0.6165
  O  O915  1  0.828800  0.325600  0.727140  1.0  -0.5914
  O  O916  1  0.455000  0.407100  0.296600  1.0  -0.6883
  O  O917  1  0.332300  0.401300  0.274100  1.0  -0.5998
  O  O918  1  0.884100  0.774600  0.810000  1.0  -0.641
  O  O919  1  0.900500  0.884000  0.809000  1.0  -0.6637
  O  O920  1  0.094200  0.331800  0.628800  1.0  -0.6118
  O  O921  1  0.212100  0.324200  0.660000  1.0  -0.6146
  O  O922  1  0.952700  0.333800  0.704600  1.0  -0.7341
  O  O923  1  0.500000  0.911100  0.250000  1.0  -0.9758
  O  O924  1  0.000000  0.815200  0.750000  1.0  -0.9197
