# generated using pymatgen
data_Zn2H47C50(NO)8
_symmetry_space_group_name_H-M   'P 1'
_cell_length_a   18.70770000
_cell_length_b   21.52640000
_cell_length_c   24.81140000
_cell_angle_alpha   90.00000000
_cell_angle_beta   90.00000000
_cell_angle_gamma   90.00000000
_symmetry_Int_Tables_number   1
_chemical_formula_structural   Zn2H47C50(NO)8
_chemical_formula_sum   'Zn16 H376 C400 N64 O64'
_cell_volume   9991.78483288
_cell_formula_units_Z   8
loop_
 _symmetry_equiv_pos_site_id
 _symmetry_equiv_pos_as_xyz
  1  'x, y, z'
loop_
 _atom_site_type_symbol
 _atom_site_label
 _atom_site_symmetry_multiplicity
 _atom_site_fract_x
 _atom_site_fract_y
 _atom_site_fract_z
 _atom_site_occupancy
 _atom_site_charge
  Zn  Zn1  1  0.761280  0.855890  0.964420  1.0  0.9265
  Zn  Zn2  1  0.738720  0.355890  0.035580  1.0  0.9275
  Zn  Zn3  1  0.238720  0.144110  0.464420  1.0  0.9258
  Zn  Zn4  1  0.261280  0.644110  0.535580  1.0  0.9276
  Zn  Zn5  1  0.238720  0.144110  0.035580  1.0  0.9271
  Zn  Zn6  1  0.261280  0.644110  0.964420  1.0  0.9262
  Zn  Zn7  1  0.761280  0.855890  0.535580  1.0  0.9279
  Zn  Zn8  1  0.738720  0.355890  0.464420  1.0  0.9261
  Zn  Zn9  1  0.271810  0.843980  0.250000  1.0  0.8738
  Zn  Zn10  1  0.770610  0.029450  0.250000  1.0  0.8979
  Zn  Zn11  1  0.228190  0.343980  0.750000  1.0  0.873
  Zn  Zn12  1  0.729390  0.529450  0.750000  1.0  0.8977
  Zn  Zn13  1  0.728190  0.156020  0.750000  1.0  0.873
  Zn  Zn14  1  0.229390  0.970550  0.750000  1.0  0.8981
  Zn  Zn15  1  0.771810  0.656020  0.250000  1.0  0.8737
  Zn  Zn16  1  0.270610  0.470550  0.250000  1.0  0.8984
  H  H17  1  0.155400  0.809700  0.022500  1.0  0.0927
  H  H18  1  0.107200  0.768900  0.060200  1.0  0.0883
  H  H19  1  0.074200  0.008800  0.044600  1.0  0.104
  H  H20  1  0.911500  0.936000  0.167700  1.0  0.0932
  H  H21  1  0.919700  0.863400  0.167200  1.0  0.1054
  H  H22  1  0.278600  0.763200  0.059500  1.0  0.1264
  H  H23  1  0.340200  0.771900  0.145700  1.0  0.0913
  H  H24  1  0.887600  0.876900  0.036800  1.0  0.0933
  H  H25  1  0.764700  0.908200  0.162700  1.0  0.1216
  H  H26  1  0.688900  0.889200  0.084800  1.0  0.1073
  H  H27  1  0.375800  0.080200  0.416600  1.0  0.1015
  H  H28  1  0.255700  0.975300  0.323900  1.0  0.1233
  H  H29  1  0.178700  0.038900  0.380700  1.0  0.1011
  H  H30  1  0.398900  0.954900  0.324000  1.0  0.092
  H  H31  1  0.412500  0.022400  0.302300  1.0  0.0909
  H  H32  1  0.826500  0.132700  0.339400  1.0  0.1003
  H  H33  1  0.620500  0.133700  0.447400  1.0  0.09
  H  H34  1  0.580600  0.157800  0.395700  1.0  0.0778
  H  H35  1  0.554800  0.679700  0.820800  1.0  0.1203
  H  H36  1  0.957000  0.794400  0.137400  1.0  0.1103
  H  H37  1  0.993800  0.764000  0.087100  1.0  0.1109
  H  H38  1  0.037200  0.773700  0.140500  1.0  0.1024
  H  H39  1  0.915000  0.012600  0.121300  1.0  0.1133
  H  H40  1  0.984000  0.053600  0.117300  1.0  0.1183
  H  H41  1  0.939200  0.039200  0.065400  1.0  0.1026
  H  H42  1  0.198900  0.891000  0.013400  1.0  0.1093
  H  H43  1  0.162500  0.945500  0.981800  1.0  0.1038
  H  H44  1  0.203500  0.959000  0.035600  1.0  0.1098
  H  H45  1  0.409900  0.895200  0.377000  1.0  0.1143
  H  H46  1  0.480300  0.860200  0.392800  1.0  0.1121
  H  H47  1  0.427900  0.883400  0.437900  1.0  0.1163
  H  H48  1  0.449900  0.099700  0.312000  1.0  0.1095
  H  H49  1  0.477900  0.148100  0.354200  1.0  0.1105
  H  H50  1  0.530500  0.119600  0.311800  1.0  0.105
  H  H51  1  0.649200  0.981800  0.499900  1.0  0.1208
  H  H52  1  0.687100  0.027500  0.459900  1.0  0.118
  H  H53  1  0.637100  0.053500  0.505200  1.0  0.1161
  H  H54  1  0.638000  0.047000  0.329100  1.0  0.099
  H  H55  1  0.502200  0.772100  0.981400  1.0  0.1546
  H  H56  1  0.640000  0.739300  0.866600  1.0  0.1019
  H  H57  1  0.443000  0.670000  0.854900  1.0  0.0991
  H  H58  1  0.731000  0.173000  0.408000  1.0  0.2558
  H  H59  1  0.153000  0.839000  0.162700  1.0  0.2514
  H  H60  1  0.344600  0.309700  0.977500  1.0  0.0928
  H  H61  1  0.392800  0.268900  0.939800  1.0  0.0882
  H  H62  1  0.425800  0.508800  0.955400  1.0  0.1036
  H  H63  1  0.588500  0.436000  0.832300  1.0  0.0941
  H  H64  1  0.580300  0.363400  0.832800  1.0  0.1054
  H  H65  1  0.221400  0.263200  0.940500  1.0  0.1259
  H  H66  1  0.159800  0.271900  0.854300  1.0  0.0909
  H  H67  1  0.612400  0.376900  0.963200  1.0  0.0936
  H  H68  1  0.735300  0.408200  0.837300  1.0  0.1222
  H  H69  1  0.811100  0.389200  0.915200  1.0  0.1053
  H  H70  1  0.124200  0.580200  0.583400  1.0  0.101
  H  H71  1  0.244300  0.475300  0.676100  1.0  0.124
  H  H72  1  0.321300  0.538900  0.619300  1.0  0.1009
  H  H73  1  0.101100  0.454900  0.676000  1.0  0.092
  H  H74  1  0.087500  0.522400  0.697700  1.0  0.0912
  H  H75  1  0.673500  0.632700  0.660600  1.0  0.1005
  H  H76  1  0.879500  0.633700  0.552600  1.0  0.09
  H  H77  1  0.919400  0.657800  0.604300  1.0  0.077
  H  H78  1  0.945200  0.179700  0.179200  1.0  0.1203
  H  H79  1  0.543000  0.294400  0.862600  1.0  0.1099
  H  H80  1  0.506200  0.264000  0.912900  1.0  0.1111
  H  H81  1  0.462800  0.273700  0.859500  1.0  0.1018
  H  H82  1  0.585000  0.512600  0.878700  1.0  0.1131
  H  H83  1  0.516000  0.553600  0.882700  1.0  0.1188
  H  H84  1  0.560800  0.539200  0.934600  1.0  0.1019
  H  H85  1  0.301100  0.391000  0.986600  1.0  0.1099
  H  H86  1  0.337500  0.445500  0.018200  1.0  0.1041
  H  H87  1  0.296500  0.459000  0.964400  1.0  0.1108
  H  H88  1  0.090100  0.395200  0.623000  1.0  0.1149
  H  H89  1  0.019700  0.360200  0.607200  1.0  0.1127
  H  H90  1  0.072100  0.383400  0.562100  1.0  0.1158
  H  H91  1  0.050100  0.599700  0.688000  1.0  0.1081
  H  H92  1  0.022100  0.648100  0.645800  1.0  0.1118
  H  H93  1  0.969500  0.619600  0.688200  1.0  0.1054
  H  H94  1  0.850800  0.481800  0.500100  1.0  0.1209
  H  H95  1  0.812900  0.527500  0.540100  1.0  0.1155
  H  H96  1  0.862900  0.553500  0.494800  1.0  0.1166
  H  H97  1  0.862000  0.547000  0.670900  1.0  0.0985
  H  H98  1  0.997800  0.272100  0.018600  1.0  0.1543
  H  H99  1  0.860000  0.239300  0.133400  1.0  0.1014
  H  H100  1  0.057000  0.170000  0.145100  1.0  0.0996
  H  H101  1  0.769000  0.673000  0.592000  1.0  0.2563
  H  H102  1  0.347000  0.339000  0.837300  1.0  0.2503
  H  H103  1  0.844600  0.190300  0.522500  1.0  0.0925
  H  H104  1  0.892800  0.231100  0.560200  1.0  0.0878
  H  H105  1  0.925800  0.991200  0.544600  1.0  0.1045
  H  H106  1  0.088500  0.064000  0.667700  1.0  0.0938
  H  H107  1  0.080300  0.136600  0.667200  1.0  0.1042
  H  H108  1  0.721400  0.236800  0.559500  1.0  0.1261
  H  H109  1  0.659800  0.228100  0.645700  1.0  0.0908
  H  H110  1  0.112400  0.123100  0.536800  1.0  0.0935
  H  H111  1  0.235300  0.091800  0.662700  1.0  0.1213
  H  H112  1  0.311100  0.110800  0.584800  1.0  0.105
  H  H113  1  0.624200  0.919800  0.916600  1.0  0.1008
  H  H114  1  0.744300  0.024700  0.823900  1.0  0.1232
  H  H115  1  0.821300  0.961100  0.880700  1.0  0.1005
  H  H116  1  0.601100  0.045100  0.824000  1.0  0.0919
  H  H117  1  0.587500  0.977600  0.802300  1.0  0.0912
  H  H118  1  0.173500  0.867300  0.839400  1.0  0.1
  H  H119  1  0.379500  0.866300  0.947400  1.0  0.0899
  H  H120  1  0.419400  0.842200  0.895700  1.0  0.0785
  H  H121  1  0.445200  0.320300  0.320800  1.0  0.1202
  H  H122  1  0.043000  0.205600  0.637400  1.0  0.1103
  H  H123  1  0.006200  0.236000  0.587100  1.0  0.1104
  H  H124  1  0.962800  0.226300  0.640500  1.0  0.102
  H  H125  1  0.085000  0.987400  0.621300  1.0  0.1122
  H  H126  1  0.016000  0.946400  0.617300  1.0  0.1191
  H  H127  1  0.060800  0.960800  0.565400  1.0  0.102
  H  H128  1  0.801100  0.109000  0.513400  1.0  0.1104
  H  H129  1  0.837500  0.054500  0.481800  1.0  0.104
  H  H130  1  0.796500  0.041000  0.535600  1.0  0.1108
  H  H131  1  0.590100  0.104800  0.877000  1.0  0.114
  H  H132  1  0.519700  0.139800  0.892800  1.0  0.1131
  H  H133  1  0.572100  0.116600  0.937900  1.0  0.1167
  H  H134  1  0.550100  0.900300  0.812000  1.0  0.1077
  H  H135  1  0.522100  0.851900  0.854200  1.0  0.1109
  H  H136  1  0.469500  0.880400  0.811800  1.0  0.1057
  H  H137  1  0.350800  0.018200  0.999900  1.0  0.1208
  H  H138  1  0.312900  0.972500  0.959900  1.0  0.1151
  H  H139  1  0.362900  0.946500  0.005200  1.0  0.1165
  H  H140  1  0.362000  0.953000  0.829100  1.0  0.0979
  H  H141  1  0.497800  0.227900  0.481400  1.0  0.1556
  H  H142  1  0.360000  0.260700  0.366600  1.0  0.101
  H  H143  1  0.557000  0.330000  0.354900  1.0  0.0994
  H  H144  1  0.269000  0.827000  0.908000  1.0  0.2568
  H  H145  1  0.847000  0.161000  0.662700  1.0  0.2509
  H  H146  1  0.655400  0.690300  0.477500  1.0  0.0922
  H  H147  1  0.607200  0.731100  0.439800  1.0  0.088
  H  H148  1  0.574200  0.491200  0.455400  1.0  0.1039
  H  H149  1  0.411500  0.564000  0.332300  1.0  0.0936
  H  H150  1  0.419700  0.636600  0.332800  1.0  0.1049
  H  H151  1  0.778600  0.736800  0.440500  1.0  0.1255
  H  H152  1  0.840200  0.728100  0.354300  1.0  0.0912
  H  H153  1  0.387600  0.623100  0.463200  1.0  0.094
  H  H154  1  0.264700  0.591800  0.337300  1.0  0.1226
  H  H155  1  0.188900  0.610800  0.415200  1.0  0.1071
  H  H156  1  0.875800  0.419800  0.083400  1.0  0.1009
  H  H157  1  0.755700  0.524700  0.176100  1.0  0.1233
  H  H158  1  0.678700  0.461100  0.119300  1.0  0.1015
  H  H159  1  0.898900  0.545100  0.176000  1.0  0.0922
  H  H160  1  0.912500  0.477600  0.197700  1.0  0.0904
  H  H161  1  0.326500  0.367300  0.160600  1.0  0.1005
  H  H162  1  0.120500  0.366300  0.052600  1.0  0.0901
  H  H163  1  0.080600  0.342200  0.104300  1.0  0.0785
  H  H164  1  0.054800  0.820300  0.679200  1.0  0.1212
  H  H165  1  0.457000  0.705600  0.362600  1.0  0.1105
  H  H166  1  0.493800  0.736000  0.412900  1.0  0.11
  H  H167  1  0.537200  0.726300  0.359500  1.0  0.1019
  H  H168  1  0.415000  0.487400  0.378700  1.0  0.1128
  H  H169  1  0.484000  0.446400  0.382700  1.0  0.1184
  H  H170  1  0.439200  0.460800  0.434600  1.0  0.1023
  H  H171  1  0.698900  0.609000  0.486600  1.0  0.1098
  H  H172  1  0.662500  0.554500  0.518200  1.0  0.1039
  H  H173  1  0.703500  0.541000  0.464400  1.0  0.1107
  H  H174  1  0.909900  0.604800  0.123000  1.0  0.1148
  H  H175  1  0.980300  0.639800  0.107200  1.0  0.1127
  H  H176  1  0.927900  0.616600  0.062100  1.0  0.1159
  H  H177  1  0.949900  0.400300  0.188000  1.0  0.109
  H  H178  1  0.977900  0.351900  0.145800  1.0  0.1125
  H  H179  1  0.030500  0.380400  0.188200  1.0  0.1055
  H  H180  1  0.149200  0.518200  0.000100  1.0  0.1223
  H  H181  1  0.187100  0.472500  0.040100  1.0  0.1182
  H  H182  1  0.137100  0.446500  0.994800  1.0  0.116
  H  H183  1  0.138000  0.453000  0.170900  1.0  0.0989
  H  H184  1  0.002200  0.727900  0.518600  1.0  0.1551
  H  H185  1  0.140000  0.760700  0.633400  1.0  0.1024
  H  H186  1  0.943000  0.830000  0.645100  1.0  0.099
  H  H187  1  0.231000  0.327000  0.092000  1.0  0.2552
  H  H188  1  0.653000  0.661000  0.337300  1.0  0.2511
  H  H189  1  0.844600  0.190300  0.977500  1.0  0.092
  H  H190  1  0.892800  0.231100  0.939800  1.0  0.0876
  H  H191  1  0.925800  0.991200  0.955400  1.0  0.1042
  H  H192  1  0.088500  0.064000  0.832300  1.0  0.0942
  H  H193  1  0.080300  0.136600  0.832800  1.0  0.1048
  H  H194  1  0.721400  0.236800  0.940500  1.0  0.1253
  H  H195  1  0.659800  0.228100  0.854300  1.0  0.0909
  H  H196  1  0.112400  0.123100  0.963200  1.0  0.0939
  H  H197  1  0.235300  0.091800  0.837300  1.0  0.1225
  H  H198  1  0.311100  0.110800  0.915200  1.0  0.1057
  H  H199  1  0.624200  0.919800  0.583400  1.0  0.1003
  H  H200  1  0.744300  0.024700  0.676100  1.0  0.1235
  H  H201  1  0.821300  0.961100  0.619300  1.0  0.1007
  H  H202  1  0.601100  0.045100  0.676000  1.0  0.0919
  H  H203  1  0.587500  0.977600  0.697700  1.0  0.0914
  H  H204  1  0.173500  0.867300  0.660600  1.0  0.1001
  H  H205  1  0.379500  0.866300  0.552600  1.0  0.0901
  H  H206  1  0.419400  0.842200  0.604300  1.0  0.0786
  H  H207  1  0.445200  0.320300  0.179200  1.0  0.1208
  H  H208  1  0.043000  0.205600  0.862600  1.0  0.1103
  H  H209  1  0.006200  0.236000  0.912900  1.0  0.1111
  H  H210  1  0.962800  0.226300  0.859500  1.0  0.1024
  H  H211  1  0.085000  0.987400  0.878700  1.0  0.1124
  H  H212  1  0.016000  0.946400  0.882700  1.0  0.1185
  H  H213  1  0.060800  0.960800  0.934600  1.0  0.1023
  H  H214  1  0.801100  0.109000  0.986600  1.0  0.1101
  H  H215  1  0.837500  0.054500  0.018200  1.0  0.1043
  H  H216  1  0.796500  0.041000  0.964400  1.0  0.1109
  H  H217  1  0.590100  0.104800  0.623000  1.0  0.1142
  H  H218  1  0.519700  0.139800  0.607200  1.0  0.1134
  H  H219  1  0.572100  0.116600  0.562100  1.0  0.116
  H  H220  1  0.550100  0.900300  0.688000  1.0  0.1081
  H  H221  1  0.522100  0.851900  0.645800  1.0  0.1122
  H  H222  1  0.469500  0.880400  0.688200  1.0  0.1061
  H  H223  1  0.350800  0.018200  0.500100  1.0  0.1225
  H  H224  1  0.312900  0.972500  0.540100  1.0  0.1152
  H  H225  1  0.362900  0.946500  0.494800  1.0  0.1159
  H  H226  1  0.362000  0.953000  0.670900  1.0  0.0981
  H  H227  1  0.497800  0.227900  0.018600  1.0  0.1544
  H  H228  1  0.360000  0.260700  0.133400  1.0  0.1017
  H  H229  1  0.557000  0.330000  0.145100  1.0  0.0996
  H  H230  1  0.269000  0.827000  0.592000  1.0  0.2564
  H  H231  1  0.847000  0.161000  0.837300  1.0  0.2506
  H  H232  1  0.655400  0.690300  0.022500  1.0  0.0924
  H  H233  1  0.607200  0.731100  0.060200  1.0  0.0882
  H  H234  1  0.574200  0.491200  0.044600  1.0  0.1042
  H  H235  1  0.411500  0.564000  0.167700  1.0  0.0936
  H  H236  1  0.419700  0.636600  0.167200  1.0  0.1044
  H  H237  1  0.778600  0.736800  0.059500  1.0  0.1261
  H  H238  1  0.840200  0.728100  0.145700  1.0  0.0909
  H  H239  1  0.387600  0.623100  0.036800  1.0  0.0934
  H  H240  1  0.264700  0.591800  0.162700  1.0  0.1216
  H  H241  1  0.188900  0.610800  0.084800  1.0  0.1081
  H  H242  1  0.875800  0.419800  0.416600  1.0  0.1017
  H  H243  1  0.755700  0.524700  0.323900  1.0  0.123
  H  H244  1  0.678700  0.461100  0.380700  1.0  0.1011
  H  H245  1  0.898900  0.545100  0.324000  1.0  0.0926
  H  H246  1  0.912500  0.477600  0.302300  1.0  0.0902
  H  H247  1  0.326500  0.367300  0.339400  1.0  0.1001
  H  H248  1  0.120500  0.366300  0.447400  1.0  0.0898
  H  H249  1  0.080600  0.342200  0.395700  1.0  0.0782
  H  H250  1  0.054800  0.820300  0.820800  1.0  0.1205
  H  H251  1  0.457000  0.705600  0.137400  1.0  0.1102
  H  H252  1  0.493800  0.736000  0.087100  1.0  0.111
  H  H253  1  0.537200  0.726300  0.140500  1.0  0.102
  H  H254  1  0.415000  0.487400  0.121300  1.0  0.1127
  H  H255  1  0.484000  0.446400  0.117300  1.0  0.119
  H  H256  1  0.439200  0.460800  0.065400  1.0  0.1023
  H  H257  1  0.698900  0.609000  0.013400  1.0  0.1102
  H  H258  1  0.662500  0.554500  0.981800  1.0  0.1038
  H  H259  1  0.703500  0.541000  0.035600  1.0  0.1106
  H  H260  1  0.909900  0.604800  0.377000  1.0  0.1148
  H  H261  1  0.980300  0.639800  0.392800  1.0  0.1123
  H  H262  1  0.927900  0.616600  0.437900  1.0  0.1164
  H  H263  1  0.949900  0.400300  0.312000  1.0  0.1086
  H  H264  1  0.977900  0.351900  0.354200  1.0  0.1105
  H  H265  1  0.030500  0.380400  0.311800  1.0  0.1049
  H  H266  1  0.149200  0.518200  0.499900  1.0  0.1219
  H  H267  1  0.187100  0.472500  0.459900  1.0  0.1179
  H  H268  1  0.137100  0.446500  0.505200  1.0  0.1164
  H  H269  1  0.138000  0.453000  0.329100  1.0  0.0988
  H  H270  1  0.002200  0.727900  0.981400  1.0  0.1552
  H  H271  1  0.140000  0.760700  0.866600  1.0  0.1018
  H  H272  1  0.943000  0.830000  0.854900  1.0  0.0989
  H  H273  1  0.231000  0.327000  0.408000  1.0  0.2555
  H  H274  1  0.653000  0.661000  0.162700  1.0  0.2514
  H  H275  1  0.155400  0.809700  0.477500  1.0  0.0928
  H  H276  1  0.107200  0.768900  0.439800  1.0  0.0882
  H  H277  1  0.074200  0.008800  0.455400  1.0  0.1034
  H  H278  1  0.911500  0.936000  0.332300  1.0  0.0936
  H  H279  1  0.919700  0.863400  0.332800  1.0  0.1053
  H  H280  1  0.278600  0.763200  0.440500  1.0  0.1262
  H  H281  1  0.340200  0.771900  0.354300  1.0  0.0914
  H  H282  1  0.887600  0.876900  0.463200  1.0  0.0939
  H  H283  1  0.764700  0.908200  0.337300  1.0  0.1223
  H  H284  1  0.688900  0.889200  0.415200  1.0  0.1078
  H  H285  1  0.375800  0.080200  0.083400  1.0  0.101
  H  H286  1  0.255700  0.975300  0.176100  1.0  0.1236
  H  H287  1  0.178700  0.038900  0.119300  1.0  0.1014
  H  H288  1  0.398900  0.954900  0.176000  1.0  0.0925
  H  H289  1  0.412500  0.022400  0.197700  1.0  0.09
  H  H290  1  0.826500  0.132700  0.160600  1.0  0.1007
  H  H291  1  0.620500  0.133700  0.052600  1.0  0.09
  H  H292  1  0.580600  0.157800  0.104300  1.0  0.0773
  H  H293  1  0.554800  0.679700  0.679200  1.0  0.1207
  H  H294  1  0.957000  0.794400  0.362600  1.0  0.1098
  H  H295  1  0.993800  0.764000  0.412900  1.0  0.1096
  H  H296  1  0.037200  0.773700  0.359500  1.0  0.1016
  H  H297  1  0.915000  0.012600  0.378700  1.0  0.1142
  H  H298  1  0.984000  0.053600  0.382700  1.0  0.1184
  H  H299  1  0.939200  0.039200  0.434600  1.0  0.102
  H  H300  1  0.198900  0.891000  0.486600  1.0  0.1098
  H  H301  1  0.162500  0.945500  0.518200  1.0  0.1037
  H  H302  1  0.203500  0.959000  0.464400  1.0  0.1105
  H  H303  1  0.409900  0.895200  0.123000  1.0  0.1148
  H  H304  1  0.480300  0.860200  0.107200  1.0  0.1126
  H  H305  1  0.427900  0.883400  0.062100  1.0  0.1154
  H  H306  1  0.449900  0.099700  0.188000  1.0  0.1093
  H  H307  1  0.477900  0.148100  0.145800  1.0  0.1123
  H  H308  1  0.530500  0.119600  0.188200  1.0  0.1045
  H  H309  1  0.649200  0.981800  0.000100  1.0  0.1217
  H  H310  1  0.687100  0.027500  0.040100  1.0  0.1185
  H  H311  1  0.637100  0.053500  0.994800  1.0  0.1169
  H  H312  1  0.638000  0.047000  0.170900  1.0  0.0989
  H  H313  1  0.502200  0.772100  0.518600  1.0  0.1549
  H  H314  1  0.640000  0.739300  0.633400  1.0  0.1022
  H  H315  1  0.443000  0.670000  0.645100  1.0  0.0991
  H  H316  1  0.731000  0.173000  0.092000  1.0  0.2557
  H  H317  1  0.153000  0.839000  0.337300  1.0  0.2516
  H  H318  1  0.344600  0.309700  0.522500  1.0  0.0926
  H  H319  1  0.392800  0.268900  0.560200  1.0  0.0883
  H  H320  1  0.425800  0.508800  0.544600  1.0  0.1041
  H  H321  1  0.588500  0.436000  0.667700  1.0  0.0933
  H  H322  1  0.580300  0.363400  0.667200  1.0  0.1054
  H  H323  1  0.221400  0.263200  0.559500  1.0  0.1261
  H  H324  1  0.159800  0.271900  0.645700  1.0  0.0909
  H  H325  1  0.612400  0.376900  0.536800  1.0  0.0931
  H  H326  1  0.735300  0.408200  0.662700  1.0  0.1212
  H  H327  1  0.811100  0.389200  0.584800  1.0  0.106
  H  H328  1  0.124200  0.580200  0.916600  1.0  0.1012
  H  H329  1  0.244300  0.475300  0.823900  1.0  0.1236
  H  H330  1  0.321300  0.538900  0.880700  1.0  0.1008
  H  H331  1  0.101100  0.454900  0.824000  1.0  0.0914
  H  H332  1  0.087500  0.522400  0.802300  1.0  0.0915
  H  H333  1  0.673500  0.632700  0.839400  1.0  0.1005
  H  H334  1  0.879500  0.633700  0.947400  1.0  0.09
  H  H335  1  0.919400  0.657800  0.895700  1.0  0.0775
  H  H336  1  0.945200  0.179700  0.320800  1.0  0.1205
  H  H337  1  0.543000  0.294400  0.637400  1.0  0.1105
  H  H338  1  0.506200  0.264000  0.587100  1.0  0.1095
  H  H339  1  0.462800  0.273700  0.640500  1.0  0.1024
  H  H340  1  0.585000  0.512600  0.621300  1.0  0.1128
  H  H341  1  0.516000  0.553600  0.617300  1.0  0.1183
  H  H342  1  0.560800  0.539200  0.565400  1.0  0.1021
  H  H343  1  0.301100  0.391000  0.513400  1.0  0.1092
  H  H344  1  0.337500  0.445500  0.481800  1.0  0.1039
  H  H345  1  0.296500  0.459000  0.535600  1.0  0.1098
  H  H346  1  0.090100  0.395200  0.877000  1.0  0.114
  H  H347  1  0.019700  0.360200  0.892800  1.0  0.1123
  H  H348  1  0.072100  0.383400  0.937900  1.0  0.1167
  H  H349  1  0.050100  0.599700  0.812000  1.0  0.1087
  H  H350  1  0.022100  0.648100  0.854200  1.0  0.1106
  H  H351  1  0.969500  0.619600  0.811800  1.0  0.1062
  H  H352  1  0.850800  0.481800  0.999900  1.0  0.1214
  H  H353  1  0.812900  0.527500  0.959900  1.0  0.1151
  H  H354  1  0.862900  0.553500  0.005200  1.0  0.1162
  H  H355  1  0.862000  0.547000  0.829100  1.0  0.0984
  H  H356  1  0.997800  0.272100  0.481400  1.0  0.1551
  H  H357  1  0.860000  0.239300  0.366600  1.0  0.101
  H  H358  1  0.057000  0.170000  0.354900  1.0  0.0996
  H  H359  1  0.769000  0.673000  0.908000  1.0  0.2565
  H  H360  1  0.347000  0.339000  0.662700  1.0  0.2502
  H  H361  1  0.688000  0.842000  0.250000  1.0  0.0953
  H  H362  1  0.120000  0.122000  0.250000  1.0  0.1322
  H  H363  1  0.007000  0.132000  0.250000  1.0  0.119
  H  H364  1  0.187000  0.033000  0.250000  1.0  0.1095
  H  H365  1  0.995000  0.943000  0.250000  1.0  0.106
  H  H366  1  0.634000  0.742000  0.250000  1.0  0.0873
  H  H367  1  0.506000  0.927000  0.250000  1.0  0.1679
  H  H368  1  0.508000  0.736000  0.250000  1.0  0.1005
  H  H369  1  0.812000  0.342000  0.750000  1.0  0.0952
  H  H370  1  0.380000  0.622000  0.750000  1.0  0.1338
  H  H371  1  0.493000  0.632000  0.750000  1.0  0.1198
  H  H372  1  0.313000  0.533000  0.750000  1.0  0.1109
  H  H373  1  0.505000  0.443000  0.750000  1.0  0.1061
  H  H374  1  0.866000  0.242000  0.750000  1.0  0.0874
  H  H375  1  0.994000  0.427000  0.750000  1.0  0.1687
  H  H376  1  0.992000  0.236000  0.750000  1.0  0.1001
  H  H377  1  0.312000  0.158000  0.750000  1.0  0.0954
  H  H378  1  0.880000  0.878000  0.750000  1.0  0.1372
  H  H379  1  0.993000  0.868000  0.750000  1.0  0.1192
  H  H380  1  0.813000  0.967000  0.750000  1.0  0.1107
  H  H381  1  0.005000  0.057000  0.750000  1.0  0.1051
  H  H382  1  0.366000  0.258000  0.750000  1.0  0.0855
  H  H383  1  0.494000  0.073000  0.750000  1.0  0.1668
  H  H384  1  0.492000  0.264000  0.750000  1.0  0.0993
  H  H385  1  0.188000  0.658000  0.250000  1.0  0.0952
  H  H386  1  0.620000  0.378000  0.250000  1.0  0.1349
  H  H387  1  0.507000  0.368000  0.250000  1.0  0.1186
  H  H388  1  0.687000  0.467000  0.250000  1.0  0.1097
  H  H389  1  0.495000  0.557000  0.250000  1.0  0.105
  H  H390  1  0.134000  0.758000  0.250000  1.0  0.0855
  H  H391  1  0.006000  0.573000  0.250000  1.0  0.1661
  H  H392  1  0.008000  0.764000  0.250000  1.0  0.0999
  C  C393  1  0.135000  0.806800  0.058400  1.0  -0.0534
  C  C394  1  0.087100  0.861400  0.067950  1.0  -0.0715
  C  C395  1  0.106100  0.919600  0.048300  1.0  0.0678
  C  C396  1  0.062100  0.970100  0.058600  1.0  -0.1155
  C  C397  1  0.000600  0.964200  0.089400  1.0  0.0216
  C  C398  1  0.981500  0.905900  0.110100  1.0  -0.0439
  C  C399  1  0.023900  0.854300  0.098290  1.0  0.0775
  C  C400  1  0.915500  0.899900  0.144500  1.0  -0.0704
  C  C401  1  0.189800  0.821600  0.149800  1.0  0.1768
  C  C402  1  0.260100  0.779700  0.091200  1.0  -0.1645
  C  C403  1  0.293500  0.784500  0.139000  1.0  0.0535
  C  C404  1  0.847500  0.882400  0.058400  1.0  0.1489
  C  C405  1  0.780200  0.899500  0.127900  1.0  -0.1513
  C  C406  1  0.738600  0.889300  0.084700  1.0  0.0355
  C  C407  1  0.335900  0.062000  0.400950  1.0  0.1399
  C  C408  1  0.270500  0.004300  0.349400  1.0  -0.1595
  C  C409  1  0.228400  0.039100  0.381300  1.0  0.0394
  C  C410  1  0.404700  0.998000  0.334600  1.0  -0.0305
  C  C411  1  0.468500  0.004000  0.371460  1.0  -0.0879
  C  C412  1  0.487600  0.954500  0.405400  1.0  0.0563
  C  C413  1  0.581600  0.015700  0.442800  1.0  0.0701
  C  C414  1  0.543800  0.960800  0.440200  1.0  -0.0018
  C  C415  1  0.563100  0.065200  0.409700  1.0  -0.0665
  C  C416  1  0.507000  0.059400  0.372640  1.0  0.0925
  C  C417  1  0.779500  0.120600  0.345500  1.0  0.0543
  C  C418  1  0.736700  0.144200  0.383800  1.0  -0.0239
  C  C419  1  0.680200  0.074300  0.338400  1.0  0.1282
  C  C420  1  0.607900  0.123400  0.410500  1.0  -0.089
  C  C421  1  0.634600  0.798900  0.958700  1.0  0.6435
  C  C422  1  0.579600  0.759850  0.930340  1.0  -0.2
  C  C423  1  0.595300  0.731900  0.881600  1.0  -0.1097
  C  C424  1  0.544400  0.697000  0.854200  1.0  -0.1446
  C  C425  1  0.388700  0.706300  0.950500  1.0  0.634
  C  C426  1  0.461400  0.715980  0.925910  1.0  -0.1088
  C  C427  1  0.511200  0.752500  0.951500  1.0  -0.0458
  C  C428  1  0.477800  0.688400  0.877600  1.0  -0.111
  C  C429  1  0.000900  0.790800  0.117600  1.0  -0.3644
  C  C430  1  0.955500  0.022900  0.099300  1.0  -0.3569
  C  C431  1  0.173900  0.929700  0.017000  1.0  -0.393
  C  C432  1  0.447700  0.892600  0.403100  1.0  -0.3781
  C  C433  1  0.489800  0.111400  0.334200  1.0  -0.363
  C  C434  1  0.644400  0.020000  0.480300  1.0  -0.4014
  C  C435  1  0.365000  0.306800  0.941600  1.0  -0.0554
  C  C436  1  0.412900  0.361400  0.932050  1.0  -0.071
  C  C437  1  0.393900  0.419600  0.951700  1.0  0.0692
  C  C438  1  0.437900  0.470100  0.941400  1.0  -0.1182
  C  C439  1  0.499400  0.464200  0.910600  1.0  0.0214
  C  C440  1  0.518500  0.405900  0.889900  1.0  -0.0442
  C  C441  1  0.476100  0.354300  0.901710  1.0  0.0771
  C  C442  1  0.584500  0.399900  0.855500  1.0  -0.0693
  C  C443  1  0.310200  0.321600  0.850200  1.0  0.1764
  C  C444  1  0.239900  0.279700  0.908800  1.0  -0.1648
  C  C445  1  0.206500  0.284500  0.861000  1.0  0.0521
  C  C446  1  0.652500  0.382400  0.941600  1.0  0.1498
  C  C447  1  0.719800  0.399500  0.872100  1.0  -0.152
  C  C448  1  0.761400  0.389300  0.915300  1.0  0.0357
  C  C449  1  0.164100  0.562000  0.599050  1.0  0.1399
  C  C450  1  0.229500  0.504300  0.650600  1.0  -0.1602
  C  C451  1  0.271600  0.539100  0.618700  1.0  0.0399
  C  C452  1  0.095300  0.498000  0.665400  1.0  -0.0351
  C  C453  1  0.031500  0.504000  0.628540  1.0  -0.0867
  C  C454  1  0.012400  0.454500  0.594600  1.0  0.0578
  C  C455  1  0.918400  0.515700  0.557200  1.0  0.0708
  C  C456  1  0.956200  0.460800  0.559800  1.0  -0.0023
  C  C457  1  0.936900  0.565200  0.590300  1.0  -0.0653
  C  C458  1  0.993000  0.559400  0.627360  1.0  0.0915
  C  C459  1  0.720500  0.620600  0.654500  1.0  0.0521
  C  C460  1  0.763300  0.644200  0.616200  1.0  -0.0198
  C  C461  1  0.819800  0.574300  0.661600  1.0  0.1291
  C  C462  1  0.892100  0.623400  0.589500  1.0  -0.0904
  C  C463  1  0.865400  0.298900  0.041300  1.0  0.6432
  C  C464  1  0.920400  0.259850  0.069660  1.0  -0.199
  C  C465  1  0.904700  0.231900  0.118400  1.0  -0.1078
  C  C466  1  0.955600  0.197000  0.145800  1.0  -0.1451
  C  C467  1  0.111300  0.206300  0.049500  1.0  0.6346
  C  C468  1  0.038600  0.215980  0.074090  1.0  -0.107
  C  C469  1  0.988800  0.252500  0.048500  1.0  -0.0452
  C  C470  1  0.022200  0.188400  0.122400  1.0  -0.1129
  C  C471  1  0.499100  0.290800  0.882400  1.0  -0.3635
  C  C472  1  0.544500  0.522900  0.900700  1.0  -0.3563
  C  C473  1  0.326100  0.429700  0.983000  1.0  -0.3921
  C  C474  1  0.052300  0.392600  0.596900  1.0  -0.3798
  C  C475  1  0.010200  0.611400  0.665800  1.0  -0.363
  C  C476  1  0.855600  0.520000  0.519700  1.0  -0.4006
  C  C477  1  0.865000  0.193200  0.558400  1.0  -0.0529
  C  C478  1  0.912900  0.138600  0.567950  1.0  -0.0714
  C  C479  1  0.893900  0.080400  0.548300  1.0  0.0685
  C  C480  1  0.937900  0.029900  0.558600  1.0  -0.1175
  C  C481  1  0.999400  0.035800  0.589400  1.0  0.0219
  C  C482  1  0.018500  0.094100  0.610100  1.0  -0.0444
  C  C483  1  0.976100  0.145700  0.598290  1.0  0.0772
  C  C484  1  0.084500  0.100100  0.644500  1.0  -0.0692
  C  C485  1  0.810200  0.178400  0.649800  1.0  0.1761
  C  C486  1  0.739900  0.220300  0.591200  1.0  -0.1644
  C  C487  1  0.706500  0.215500  0.639000  1.0  0.0524
  C  C488  1  0.152500  0.117600  0.558400  1.0  0.1499
  C  C489  1  0.219800  0.100500  0.627900  1.0  -0.1509
  C  C490  1  0.261400  0.110700  0.584700  1.0  0.0353
  C  C491  1  0.664100  0.938000  0.900950  1.0  0.1413
  C  C492  1  0.729500  0.995700  0.849400  1.0  -0.1601
  C  C493  1  0.771600  0.960900  0.881300  1.0  0.039
  C  C494  1  0.595300  0.002000  0.834600  1.0  -0.0299
  C  C495  1  0.531500  0.996000  0.871460  1.0  -0.087
  C  C496  1  0.512400  0.045500  0.905400  1.0  0.0583
  C  C497  1  0.418400  0.984300  0.942800  1.0  0.0733
  C  C498  1  0.456200  0.039200  0.940200  1.0  -0.0025
  C  C499  1  0.436900  0.934800  0.909700  1.0  -0.0655
  C  C500  1  0.493000  0.940600  0.872640  1.0  0.0925
  C  C501  1  0.220500  0.879400  0.845500  1.0  0.0519
  C  C502  1  0.263300  0.855800  0.883800  1.0  -0.0242
  C  C503  1  0.319800  0.925700  0.838400  1.0  0.128
  C  C504  1  0.392100  0.876600  0.910500  1.0  -0.0906
  C  C505  1  0.365400  0.201100  0.458700  1.0  0.6441
  C  C506  1  0.420400  0.240150  0.430340  1.0  -0.2008
  C  C507  1  0.404700  0.268100  0.381600  1.0  -0.1081
  C  C508  1  0.455600  0.303000  0.354200  1.0  -0.1451
  C  C509  1  0.611300  0.293700  0.450500  1.0  0.6349
  C  C510  1  0.538600  0.284020  0.425910  1.0  -0.1077
  C  C511  1  0.488800  0.247500  0.451500  1.0  -0.0451
  C  C512  1  0.522200  0.311600  0.377600  1.0  -0.1125
  C  C513  1  0.999100  0.209200  0.617600  1.0  -0.3632
  C  C514  1  0.044500  0.977100  0.599300  1.0  -0.357
  C  C515  1  0.826100  0.070300  0.517000  1.0  -0.3919
  C  C516  1  0.552300  0.107400  0.903100  1.0  -0.3783
  C  C517  1  0.510200  0.888600  0.834200  1.0  -0.3636
  C  C518  1  0.355600  0.980000  0.980300  1.0  -0.4
  C  C519  1  0.635000  0.693200  0.441600  1.0  -0.0535
  C  C520  1  0.587100  0.638600  0.432050  1.0  -0.0714
  C  C521  1  0.606100  0.580400  0.451700  1.0  0.0681
  C  C522  1  0.562100  0.529900  0.441400  1.0  -0.1162
  C  C523  1  0.500600  0.535800  0.410600  1.0  0.022
  C  C524  1  0.481500  0.594100  0.389900  1.0  -0.0437
  C  C525  1  0.523900  0.645700  0.401710  1.0  0.077
  C  C526  1  0.415500  0.600100  0.355500  1.0  -0.0695
  C  C527  1  0.689800  0.678400  0.350200  1.0  0.1776
  C  C528  1  0.760100  0.720300  0.408800  1.0  -0.1653
  C  C529  1  0.793500  0.715500  0.361000  1.0  0.053
  C  C530  1  0.347500  0.617600  0.441600  1.0  0.1494
  C  C531  1  0.280200  0.600500  0.372100  1.0  -0.1523
  C  C532  1  0.238600  0.610700  0.415300  1.0  0.0361
  C  C533  1  0.835900  0.438000  0.099050  1.0  0.1399
  C  C534  1  0.770500  0.495700  0.150600  1.0  -0.1605
  C  C535  1  0.728400  0.460900  0.118700  1.0  0.0399
  C  C536  1  0.904700  0.502000  0.165400  1.0  -0.0348
  C  C537  1  0.968500  0.496000  0.128540  1.0  -0.0868
  C  C538  1  0.987600  0.545500  0.094600  1.0  0.059
  C  C539  1  0.081600  0.484300  0.057200  1.0  0.0729
  C  C540  1  0.043800  0.539200  0.059800  1.0  -0.0033
  C  C541  1  0.063100  0.434800  0.090300  1.0  -0.0658
  C  C542  1  0.007000  0.440600  0.127360  1.0  0.0916
  C  C543  1  0.279500  0.379400  0.154500  1.0  0.0545
  C  C544  1  0.236700  0.355800  0.116200  1.0  -0.0241
  C  C545  1  0.180200  0.425700  0.161600  1.0  0.1288
  C  C546  1  0.107900  0.376600  0.089500  1.0  -0.0897
  C  C547  1  0.134600  0.701100  0.541300  1.0  0.6432
  C  C548  1  0.079600  0.740150  0.569660  1.0  -0.1988
  C  C549  1  0.095300  0.768100  0.618400  1.0  -0.1088
  C  C550  1  0.044400  0.803000  0.645800  1.0  -0.1442
  C  C551  1  0.888700  0.793700  0.549500  1.0  0.6336
  C  C552  1  0.961400  0.784020  0.574090  1.0  -0.1079
  C  C553  1  0.011200  0.747500  0.548500  1.0  -0.0455
  C  C554  1  0.977800  0.811600  0.622400  1.0  -0.1111
  C  C555  1  0.500900  0.709200  0.382400  1.0  -0.3639
  C  C556  1  0.455500  0.477100  0.400700  1.0  -0.3576
  C  C557  1  0.673900  0.570300  0.483000  1.0  -0.3926
  C  C558  1  0.947700  0.607400  0.096900  1.0  -0.3781
  C  C559  1  0.989800  0.388600  0.165800  1.0  -0.364
  C  C560  1  0.144400  0.480000  0.019700  1.0  -0.401
  C  C561  1  0.865000  0.193200  0.941600  1.0  -0.0543
  C  C562  1  0.912900  0.138600  0.932050  1.0  -0.0713
  C  C563  1  0.893900  0.080400  0.951700  1.0  0.0692
  C  C564  1  0.937900  0.029900  0.941400  1.0  -0.1181
  C  C565  1  0.999400  0.035800  0.910600  1.0  0.0215
  C  C566  1  0.018500  0.094100  0.889900  1.0  -0.0442
  C  C567  1  0.976100  0.145700  0.901710  1.0  0.077
  C  C568  1  0.084500  0.100100  0.855500  1.0  -0.07
  C  C569  1  0.810200  0.178400  0.850200  1.0  0.1768
  C  C570  1  0.739900  0.220300  0.908800  1.0  -0.165
  C  C571  1  0.706500  0.215500  0.861000  1.0  0.052
  C  C572  1  0.152500  0.117600  0.941600  1.0  0.1497
  C  C573  1  0.219800  0.100500  0.872100  1.0  -0.1518
  C  C574  1  0.261400  0.110700  0.915300  1.0  0.0355
  C  C575  1  0.664100  0.938000  0.599050  1.0  0.1405
  C  C576  1  0.729500  0.995700  0.650600  1.0  -0.1608
  C  C577  1  0.771600  0.960900  0.618700  1.0  0.0394
  C  C578  1  0.595300  0.002000  0.665400  1.0  -0.0338
  C  C579  1  0.531500  0.996000  0.628540  1.0  -0.0864
  C  C580  1  0.512400  0.045500  0.594600  1.0  0.0596
  C  C581  1  0.418400  0.984300  0.557200  1.0  0.0732
  C  C582  1  0.456200  0.039200  0.559800  1.0  -0.0033
  C  C583  1  0.436900  0.934800  0.590300  1.0  -0.0649
  C  C584  1  0.493000  0.940600  0.627360  1.0  0.0919
  C  C585  1  0.220500  0.879400  0.654500  1.0  0.0522
  C  C586  1  0.263300  0.855800  0.616200  1.0  -0.0224
  C  C587  1  0.319800  0.925700  0.661600  1.0  0.129
  C  C588  1  0.392100  0.876600  0.589500  1.0  -0.0907
  C  C589  1  0.365400  0.201100  0.041300  1.0  0.6431
  C  C590  1  0.420400  0.240150  0.069660  1.0  -0.1994
  C  C591  1  0.404700  0.268100  0.118400  1.0  -0.1071
  C  C592  1  0.455600  0.303000  0.145800  1.0  -0.1452
  C  C593  1  0.611300  0.293700  0.049500  1.0  0.6347
  C  C594  1  0.538600  0.284020  0.074090  1.0  -0.1071
  C  C595  1  0.488800  0.247500  0.048500  1.0  -0.0451
  C  C596  1  0.522200  0.311600  0.122400  1.0  -0.1126
  C  C597  1  0.999100  0.209200  0.882400  1.0  -0.363
  C  C598  1  0.044500  0.977100  0.900700  1.0  -0.3573
  C  C599  1  0.826100  0.070300  0.983000  1.0  -0.392
  C  C600  1  0.552300  0.107400  0.596900  1.0  -0.3784
  C  C601  1  0.510200  0.888600  0.665800  1.0  -0.3636
  C  C602  1  0.355600  0.980000  0.519700  1.0  -0.4002
  C  C603  1  0.635000  0.693200  0.058400  1.0  -0.0525
  C  C604  1  0.587100  0.638600  0.067950  1.0  -0.0717
  C  C605  1  0.606100  0.580400  0.048300  1.0  0.0674
  C  C606  1  0.562100  0.529900  0.058600  1.0  -0.1157
  C  C607  1  0.500600  0.535800  0.089400  1.0  0.0224
  C  C608  1  0.481500  0.594100  0.110100  1.0  -0.0439
  C  C609  1  0.523900  0.645700  0.098290  1.0  0.0773
  C  C610  1  0.415500  0.600100  0.144500  1.0  -0.0703
  C  C611  1  0.689800  0.678400  0.149800  1.0  0.1765
  C  C612  1  0.760100  0.720300  0.091200  1.0  -0.1646
  C  C613  1  0.793500  0.715500  0.139000  1.0  0.0535
  C  C614  1  0.347500  0.617600  0.058400  1.0  0.1494
  C  C615  1  0.280200  0.600500  0.127900  1.0  -0.1511
  C  C616  1  0.238600  0.610700  0.084700  1.0  0.0355
  C  C617  1  0.835900  0.438000  0.400950  1.0  0.1402
  C  C618  1  0.770500  0.495700  0.349400  1.0  -0.1596
  C  C619  1  0.728400  0.460900  0.381300  1.0  0.0393
  C  C620  1  0.904700  0.502000  0.334600  1.0  -0.03
  C  C621  1  0.968500  0.496000  0.371460  1.0  -0.0874
  C  C622  1  0.987600  0.545500  0.405400  1.0  0.0568
  C  C623  1  0.081600  0.484300  0.442800  1.0  0.0726
  C  C624  1  0.043800  0.539200  0.440200  1.0  -0.0028
  C  C625  1  0.063100  0.434800  0.409700  1.0  -0.0664
  C  C626  1  0.007000  0.440600  0.372640  1.0  0.0923
  C  C627  1  0.279500  0.379400  0.345500  1.0  0.0537
  C  C628  1  0.236700  0.355800  0.383800  1.0  -0.0255
  C  C629  1  0.180200  0.425700  0.338400  1.0  0.1274
  C  C630  1  0.107900  0.376600  0.410500  1.0  -0.0898
  C  C631  1  0.134600  0.701100  0.958700  1.0  0.6441
  C  C632  1  0.079600  0.740150  0.930340  1.0  -0.2
  C  C633  1  0.095300  0.768100  0.881600  1.0  -0.1095
  C  C634  1  0.044400  0.803000  0.854200  1.0  -0.1443
  C  C635  1  0.888700  0.793700  0.950500  1.0  0.634
  C  C636  1  0.961400  0.784020  0.925910  1.0  -0.1084
  C  C637  1  0.011200  0.747500  0.951500  1.0  -0.0459
  C  C638  1  0.977800  0.811600  0.877600  1.0  -0.1109
  C  C639  1  0.500900  0.709200  0.117600  1.0  -0.3644
  C  C640  1  0.455500  0.477100  0.099300  1.0  -0.3572
  C  C641  1  0.673900  0.570300  0.017000  1.0  -0.3932
  C  C642  1  0.947700  0.607400  0.403100  1.0  -0.3779
  C  C643  1  0.989800  0.388600  0.334200  1.0  -0.3631
  C  C644  1  0.144400  0.480000  0.480300  1.0  -0.4006
  C  C645  1  0.135000  0.806800  0.441600  1.0  -0.0545
  C  C646  1  0.087100  0.861400  0.432050  1.0  -0.0713
  C  C647  1  0.106100  0.919600  0.451700  1.0  0.0683
  C  C648  1  0.062100  0.970100  0.441400  1.0  -0.1162
  C  C649  1  0.000600  0.964200  0.410600  1.0  0.0214
  C  C650  1  0.981500  0.905900  0.389900  1.0  -0.0438
  C  C651  1  0.023900  0.854300  0.401710  1.0  0.0772
  C  C652  1  0.915500  0.899900  0.355500  1.0  -0.069
  C  C653  1  0.189800  0.821600  0.350200  1.0  0.1776
  C  C654  1  0.260100  0.779700  0.408800  1.0  -0.1651
  C  C655  1  0.293500  0.784500  0.361000  1.0  0.0528
  C  C656  1  0.847500  0.882400  0.441600  1.0  0.1495
  C  C657  1  0.780200  0.899500  0.372100  1.0  -0.1525
  C  C658  1  0.738600  0.889300  0.415300  1.0  0.0361
  C  C659  1  0.335900  0.062000  0.099050  1.0  0.1404
  C  C660  1  0.270500  0.004300  0.150600  1.0  -0.1599
  C  C661  1  0.228400  0.039100  0.118700  1.0  0.0397
  C  C662  1  0.404700  0.998000  0.165400  1.0  -0.036
  C  C663  1  0.468500  0.004000  0.128540  1.0  -0.0873
  C  C664  1  0.487600  0.954500  0.094600  1.0  0.0574
  C  C665  1  0.581600  0.015700  0.057200  1.0  0.07
  C  C666  1  0.543800  0.960800  0.059800  1.0  -0.0013
  C  C667  1  0.563100  0.065200  0.090300  1.0  -0.066
  C  C668  1  0.507000  0.059400  0.127360  1.0  0.0913
  C  C669  1  0.779500  0.120600  0.154500  1.0  0.0549
  C  C670  1  0.736700  0.144200  0.116200  1.0  -0.0218
  C  C671  1  0.680200  0.074300  0.161600  1.0  0.1292
  C  C672  1  0.607900  0.123400  0.089500  1.0  -0.0894
  C  C673  1  0.634600  0.798900  0.541300  1.0  0.6429
  C  C674  1  0.579600  0.759850  0.569660  1.0  -0.1987
  C  C675  1  0.595300  0.731900  0.618400  1.0  -0.109
  C  C676  1  0.544400  0.697000  0.645800  1.0  -0.1443
  C  C677  1  0.388700  0.706300  0.549500  1.0  0.6336
  C  C678  1  0.461400  0.715980  0.574090  1.0  -0.1086
  C  C679  1  0.511200  0.752500  0.548500  1.0  -0.0456
  C  C680  1  0.477800  0.688400  0.622400  1.0  -0.111
  C  C681  1  0.000900  0.790800  0.382400  1.0  -0.3642
  C  C682  1  0.955500  0.022900  0.400700  1.0  -0.3567
  C  C683  1  0.173900  0.929700  0.483000  1.0  -0.3925
  C  C684  1  0.447700  0.892600  0.096900  1.0  -0.3788
  C  C685  1  0.489800  0.111400  0.165800  1.0  -0.364
  C  C686  1  0.644400  0.020000  0.019700  1.0  -0.4015
  C  C687  1  0.365000  0.306800  0.558400  1.0  -0.054
  C  C688  1  0.412900  0.361400  0.567950  1.0  -0.0711
  C  C689  1  0.393900  0.419600  0.548300  1.0  0.0687
  C  C690  1  0.437900  0.470100  0.558600  1.0  -0.1175
  C  C691  1  0.499400  0.464200  0.589400  1.0  0.0216
  C  C692  1  0.518500  0.405900  0.610100  1.0  -0.0444
  C  C693  1  0.476100  0.354300  0.598290  1.0  0.0773
  C  C694  1  0.584500  0.399900  0.644500  1.0  -0.0693
  C  C695  1  0.310200  0.321600  0.649800  1.0  0.176
  C  C696  1  0.239900  0.279700  0.591200  1.0  -0.1644
  C  C697  1  0.206500  0.284500  0.639000  1.0  0.0528
  C  C698  1  0.652500  0.382400  0.558400  1.0  0.1495
  C  C699  1  0.719800  0.399500  0.627900  1.0  -0.151
  C  C700  1  0.761400  0.389300  0.584700  1.0  0.0354
  C  C701  1  0.164100  0.562000  0.900950  1.0  0.1398
  C  C702  1  0.229500  0.504300  0.849400  1.0  -0.1598
  C  C703  1  0.271600  0.539100  0.881300  1.0  0.04
  C  C704  1  0.095300  0.498000  0.834600  1.0  -0.0305
  C  C705  1  0.031500  0.504000  0.871460  1.0  -0.0872
  C  C706  1  0.012400  0.454500  0.905400  1.0  0.0575
  C  C707  1  0.918400  0.515700  0.942800  1.0  0.0712
  C  C708  1  0.956200  0.460800  0.940200  1.0  -0.0021
  C  C709  1  0.936900  0.565200  0.909700  1.0  -0.0659
  C  C710  1  0.993000  0.559400  0.872640  1.0  0.0926
  C  C711  1  0.720500  0.620600  0.845500  1.0  0.0522
  C  C712  1  0.763300  0.644200  0.883800  1.0  -0.0221
  C  C713  1  0.819800  0.574300  0.838400  1.0  0.1287
  C  C714  1  0.892100  0.623400  0.910500  1.0  -0.09
  C  C715  1  0.865400  0.298900  0.458700  1.0  0.6438
  C  C716  1  0.920400  0.259850  0.430340  1.0  -0.2004
  C  C717  1  0.904700  0.231900  0.381600  1.0  -0.1087
  C  C718  1  0.955600  0.197000  0.354200  1.0  -0.145
  C  C719  1  0.111300  0.206300  0.450500  1.0  0.6349
  C  C720  1  0.038600  0.215980  0.425910  1.0  -0.1077
  C  C721  1  0.988800  0.252500  0.451500  1.0  -0.045
  C  C722  1  0.022200  0.188400  0.377600  1.0  -0.1128
  C  C723  1  0.499100  0.290800  0.617600  1.0  -0.3634
  C  C724  1  0.544500  0.522900  0.599300  1.0  -0.3565
  C  C725  1  0.326100  0.429700  0.517000  1.0  -0.3917
  C  C726  1  0.052300  0.392600  0.903100  1.0  -0.3791
  C  C727  1  0.010200  0.611400  0.834200  1.0  -0.3631
  C  C728  1  0.855600  0.520000  0.980300  1.0  -0.4005
  C  C729  1  0.909900  0.044800  0.250000  1.0  0.6665
  C  C730  1  0.989400  0.037800  0.250000  1.0  -0.125
  C  C731  1  0.030500  0.091800  0.250000  1.0  -0.1803
  C  C732  1  0.103700  0.088900  0.250000  1.0  -0.0444
  C  C733  1  0.138100  0.033400  0.250000  1.0  -0.1041
  C  C734  1  0.099700  0.978200  0.250000  1.0  -0.14
  C  C735  1  0.024600  0.980800  0.250000  1.0  -0.0823
  C  C736  1  0.137600  0.916600  0.250000  1.0  0.6455
  C  C737  1  0.638500  0.955900  0.250000  1.0  0.6645
  C  C738  1  0.602100  0.894000  0.250000  1.0  -0.1818
  C  C739  1  0.639500  0.839900  0.250000  1.0  -0.0645
  C  C740  1  0.604500  0.783100  0.250000  1.0  -0.1338
  C  C741  1  0.531300  0.781600  0.250000  1.0  -0.1308
  C  C742  1  0.490700  0.835600  0.250000  1.0  -0.1117
  C  C743  1  0.527300  0.892100  0.250000  1.0  -0.0593
  C  C744  1  0.409700  0.830100  0.250000  1.0  0.6502
  C  C745  1  0.590100  0.544800  0.750000  1.0  0.667
  C  C746  1  0.510600  0.537800  0.750000  1.0  -0.1255
  C  C747  1  0.469500  0.591800  0.750000  1.0  -0.1771
  C  C748  1  0.396300  0.588900  0.750000  1.0  -0.0451
  C  C749  1  0.361900  0.533400  0.750000  1.0  -0.1044
  C  C750  1  0.400300  0.478200  0.750000  1.0  -0.1407
  C  C751  1  0.475400  0.480800  0.750000  1.0  -0.0823
  C  C752  1  0.362400  0.416600  0.750000  1.0  0.6455
  C  C753  1  0.861500  0.455900  0.750000  1.0  0.6644
  C  C754  1  0.897900  0.394000  0.750000  1.0  -0.1815
  C  C755  1  0.860500  0.339900  0.750000  1.0  -0.0647
  C  C756  1  0.895500  0.283100  0.750000  1.0  -0.1326
  C  C757  1  0.968700  0.281600  0.750000  1.0  -0.1262
  C  C758  1  0.009300  0.335600  0.750000  1.0  -0.111
  C  C759  1  0.972700  0.392100  0.750000  1.0  -0.0613
  C  C760  1  0.090300  0.330100  0.750000  1.0  0.6497
  C  C761  1  0.090100  0.955200  0.750000  1.0  0.667
  C  C762  1  0.010600  0.962200  0.750000  1.0  -0.1249
  C  C763  1  0.969500  0.908200  0.750000  1.0  -0.1779
  C  C764  1  0.896300  0.911100  0.750000  1.0  -0.0458
  C  C765  1  0.861900  0.966600  0.750000  1.0  -0.1043
  C  C766  1  0.900300  0.021800  0.750000  1.0  -0.1406
  C  C767  1  0.975400  0.019200  0.750000  1.0  -0.0818
  C  C768  1  0.862400  0.083400  0.750000  1.0  0.6458
  C  C769  1  0.361500  0.044100  0.750000  1.0  0.6636
  C  C770  1  0.397900  0.106000  0.750000  1.0  -0.1817
  C  C771  1  0.360500  0.160100  0.750000  1.0  -0.0646
  C  C772  1  0.395500  0.216900  0.750000  1.0  -0.132
  C  C773  1  0.468700  0.218400  0.750000  1.0  -0.1282
  C  C774  1  0.509300  0.164400  0.750000  1.0  -0.1113
  C  C775  1  0.472700  0.107900  0.750000  1.0  -0.0608
  C  C776  1  0.590300  0.169900  0.750000  1.0  0.6493
  C  C777  1  0.409900  0.455200  0.250000  1.0  0.6663
  C  C778  1  0.489400  0.462200  0.250000  1.0  -0.125
  C  C779  1  0.530500  0.408200  0.250000  1.0  -0.1814
  C  C780  1  0.603700  0.411100  0.250000  1.0  -0.0437
  C  C781  1  0.638100  0.466600  0.250000  1.0  -0.1038
  C  C782  1  0.599700  0.521800  0.250000  1.0  -0.1403
  C  C783  1  0.524600  0.519200  0.250000  1.0  -0.0821
  C  C784  1  0.637600  0.583400  0.250000  1.0  0.6457
  C  C785  1  0.138500  0.544100  0.250000  1.0  0.6636
  C  C786  1  0.102100  0.606000  0.250000  1.0  -0.1817
  C  C787  1  0.139500  0.660100  0.250000  1.0  -0.0646
  C  C788  1  0.104500  0.716900  0.250000  1.0  -0.1328
  C  C789  1  0.031300  0.718400  0.250000  1.0  -0.1329
  C  C790  1  0.990700  0.664400  0.250000  1.0  -0.1116
  C  C791  1  0.027300  0.607900  0.250000  1.0  -0.0593
  C  C792  1  0.909700  0.669900  0.250000  1.0  0.6496
  N  N793  1  0.249300  0.810300  0.176030  1.0  -0.3856
  N  N794  1  0.780910  0.879120  0.040670  1.0  -0.3892
  N  N795  1  0.744100  0.076600  0.317080  1.0  -0.3999
  N  N796  1  0.269470  0.074880  0.414740  1.0  -0.4023
  N  N797  1  0.193600  0.804000  0.098560  1.0  0.052
  N  N798  1  0.850100  0.894700  0.110900  1.0  0.0254
  N  N799  1  0.338860  0.019700  0.361950  1.0  0.043
  N  N800  1  0.673200  0.114190  0.378600  1.0  0.0249
  N  N801  1  0.250700  0.310300  0.823970  1.0  -0.3884
  N  N802  1  0.719090  0.379120  0.959330  1.0  -0.3873
  N  N803  1  0.755900  0.576600  0.682920  1.0  -0.4004
  N  N804  1  0.230530  0.574880  0.585260  1.0  -0.4013
  N  N805  1  0.306400  0.304000  0.901440  1.0  0.0516
  N  N806  1  0.649900  0.394700  0.889100  1.0  0.0256
  N  N807  1  0.161140  0.519700  0.638050  1.0  0.0436
  N  N808  1  0.826800  0.614190  0.621400  1.0  0.0241
  N  N809  1  0.750700  0.189700  0.676030  1.0  -0.3876
  N  N810  1  0.219090  0.120880  0.540670  1.0  -0.3883
  N  N811  1  0.255900  0.923400  0.817080  1.0  -0.3998
  N  N812  1  0.730530  0.925120  0.914740  1.0  -0.4
  N  N813  1  0.806400  0.196000  0.598560  1.0  0.052
  N  N814  1  0.149900  0.105300  0.610900  1.0  0.0252
  N  N815  1  0.661140  0.980300  0.861950  1.0  0.0435
  N  N816  1  0.326800  0.885810  0.878600  1.0  0.0229
  N  N817  1  0.749300  0.689700  0.323970  1.0  -0.3878
  N  N818  1  0.280910  0.620880  0.459330  1.0  -0.3896
  N  N819  1  0.244100  0.423400  0.182920  1.0  -0.3994
  N  N820  1  0.769470  0.425120  0.085260  1.0  -0.4016
  N  N821  1  0.693600  0.696000  0.401440  1.0  0.0524
  N  N822  1  0.350100  0.605300  0.389100  1.0  0.0257
  N  N823  1  0.838860  0.480300  0.138050  1.0  0.0429
  N  N824  1  0.173200  0.385810  0.121400  1.0  0.0237
  N  N825  1  0.750700  0.189700  0.823970  1.0  -0.3882
  N  N826  1  0.219090  0.120880  0.959330  1.0  -0.3878
  N  N827  1  0.255900  0.923400  0.682920  1.0  -0.4004
  N  N828  1  0.730530  0.925120  0.585260  1.0  -0.4006
  N  N829  1  0.806400  0.196000  0.901440  1.0  0.052
  N  N830  1  0.149900  0.105300  0.889100  1.0  0.0256
  N  N831  1  0.661140  0.980300  0.638050  1.0  0.0435
  N  N832  1  0.326800  0.885810  0.621400  1.0  0.0231
  N  N833  1  0.749300  0.689700  0.176030  1.0  -0.3859
  N  N834  1  0.280910  0.620880  0.040670  1.0  -0.3892
  N  N835  1  0.244100  0.423400  0.317080  1.0  -0.3992
  N  N836  1  0.769470  0.425120  0.414740  1.0  -0.4016
  N  N837  1  0.693600  0.696000  0.098560  1.0  0.0522
  N  N838  1  0.350100  0.605300  0.110900  1.0  0.0255
  N  N839  1  0.838860  0.480300  0.361950  1.0  0.0427
  N  N840  1  0.173200  0.385810  0.378600  1.0  0.0233
  N  N841  1  0.249300  0.810300  0.323970  1.0  -0.388
  N  N842  1  0.780910  0.879120  0.459330  1.0  -0.3891
  N  N843  1  0.744100  0.076600  0.182920  1.0  -0.3995
  N  N844  1  0.269470  0.074880  0.085260  1.0  -0.4021
  N  N845  1  0.193600  0.804000  0.401440  1.0  0.052
  N  N846  1  0.850100  0.894700  0.389100  1.0  0.0256
  N  N847  1  0.338860  0.019700  0.138050  1.0  0.0429
  N  N848  1  0.673200  0.114190  0.121400  1.0  0.0242
  N  N849  1  0.250700  0.310300  0.676030  1.0  -0.3874
  N  N850  1  0.719090  0.379120  0.540670  1.0  -0.3883
  N  N851  1  0.755900  0.576600  0.817080  1.0  -0.4003
  N  N852  1  0.230530  0.574880  0.914740  1.0  -0.401
  N  N853  1  0.306400  0.304000  0.598560  1.0  0.0517
  N  N854  1  0.649900  0.394700  0.610900  1.0  0.0252
  N  N855  1  0.161140  0.519700  0.861950  1.0  0.0436
  N  N856  1  0.826800  0.614190  0.878600  1.0  0.0246
  O  O857  1  0.698750  0.788020  0.943810  1.0  -0.6135
  O  O858  1  0.616780  0.837890  0.991760  1.0  -0.5534
  O  O859  1  0.355450  0.658040  0.932990  1.0  -0.6132
  O  O860  1  0.366070  0.742370  0.984670  1.0  -0.5507
  O  O861  1  0.801250  0.288020  0.056190  1.0  -0.6131
  O  O862  1  0.883220  0.337890  0.008240  1.0  -0.5537
  O  O863  1  0.144550  0.158040  0.067010  1.0  -0.6117
  O  O864  1  0.133930  0.242370  0.015330  1.0  -0.5496
  O  O865  1  0.301250  0.211980  0.443810  1.0  -0.6137
  O  O866  1  0.383220  0.162110  0.491760  1.0  -0.5538
  O  O867  1  0.644550  0.341960  0.432990  1.0  -0.6127
  O  O868  1  0.633930  0.257630  0.484670  1.0  -0.5492
  O  O869  1  0.198750  0.711980  0.556190  1.0  -0.6126
  O  O870  1  0.116780  0.662110  0.508240  1.0  -0.5547
  O  O871  1  0.855450  0.841960  0.567010  1.0  -0.6122
  O  O872  1  0.866070  0.757630  0.515330  1.0  -0.5509
  O  O873  1  0.301250  0.211980  0.056190  1.0  -0.6132
  O  O874  1  0.383220  0.162110  0.008240  1.0  -0.5546
  O  O875  1  0.644550  0.341960  0.067010  1.0  -0.6118
  O  O876  1  0.633930  0.257630  0.015330  1.0  -0.5494
  O  O877  1  0.198750  0.711980  0.943810  1.0  -0.6133
  O  O878  1  0.116780  0.662110  0.991760  1.0  -0.5536
  O  O879  1  0.855450  0.841960  0.932990  1.0  -0.6134
  O  O880  1  0.866070  0.757630  0.984670  1.0  -0.5506
  O  O881  1  0.698750  0.788020  0.556190  1.0  -0.6129
  O  O882  1  0.616780  0.837890  0.508240  1.0  -0.5537
  O  O883  1  0.355450  0.658040  0.567010  1.0  -0.6115
  O  O884  1  0.366070  0.742370  0.515330  1.0  -0.5509
  O  O885  1  0.801250  0.288020  0.443810  1.0  -0.6142
  O  O886  1  0.883220  0.337890  0.491760  1.0  -0.5535
  O  O887  1  0.144550  0.158040  0.432990  1.0  -0.6129
  O  O888  1  0.133930  0.242370  0.484670  1.0  -0.5495
  O  O889  1  0.883900  0.097800  0.250000  1.0  -0.5892
  O  O890  1  0.871000  0.995340  0.250000  1.0  -0.5946
  O  O891  1  0.102300  0.868470  0.250000  1.0  -0.557
  O  O892  1  0.206300  0.918860  0.250000  1.0  -0.5921
  O  O893  1  0.708300  0.954360  0.250000  1.0  -0.6089
  O  O894  1  0.603400  0.004440  0.250000  1.0  -0.5934
  O  O895  1  0.372700  0.879660  0.250000  1.0  -0.599
  O  O896  1  0.383600  0.777900  0.250000  1.0  -0.5965
  O  O897  1  0.616100  0.597800  0.750000  1.0  -0.5885
  O  O898  1  0.629000  0.495340  0.750000  1.0  -0.5958
  O  O899  1  0.397700  0.368470  0.750000  1.0  -0.5577
  O  O900  1  0.293700  0.418860  0.750000  1.0  -0.5936
  O  O901  1  0.791700  0.454360  0.750000  1.0  -0.609
  O  O902  1  0.896600  0.504440  0.750000  1.0  -0.5933
  O  O903  1  0.127300  0.379660  0.750000  1.0  -0.5993
  O  O904  1  0.116400  0.277900  0.750000  1.0  -0.5962
  O  O905  1  0.116100  0.902200  0.750000  1.0  -0.5878
  O  O906  1  0.129000  0.004660  0.750000  1.0  -0.5951
  O  O907  1  0.897700  0.131530  0.750000  1.0  -0.5585
  O  O908  1  0.793700  0.081140  0.750000  1.0  -0.5937
  O  O909  1  0.291700  0.045640  0.750000  1.0  -0.6083
  O  O910  1  0.396600  0.995560  0.750000  1.0  -0.5919
  O  O911  1  0.627300  0.120340  0.750000  1.0  -0.5996
  O  O912  1  0.616400  0.222100  0.750000  1.0  -0.5955
  O  O913  1  0.383900  0.402200  0.250000  1.0  -0.5884
  O  O914  1  0.371000  0.504660  0.250000  1.0  -0.5942
  O  O915  1  0.602300  0.631530  0.250000  1.0  -0.5577
  O  O916  1  0.706300  0.581140  0.250000  1.0  -0.5922
  O  O917  1  0.208300  0.545640  0.250000  1.0  -0.6085
  O  O918  1  0.103400  0.495560  0.250000  1.0  -0.5925
  O  O919  1  0.872700  0.620340  0.250000  1.0  -0.5992
  O  O920  1  0.883600  0.722100  0.250000  1.0  -0.5958
