# generated using pymatgen
data_CoH16C26(SN5)2
_symmetry_space_group_name_H-M   'P 1'
_cell_length_a   53.01320000
_cell_length_b   53.01320000
_cell_length_c   53.01320000
_cell_angle_alpha   60.00000000
_cell_angle_beta   60.00000000
_cell_angle_gamma   60.00000000
_symmetry_Int_Tables_number   1
_chemical_formula_structural   CoH16C26(SN5)2
_chemical_formula_sum   'Co48 H768 C1248 S96 N480'
_cell_volume   105350.61186689
_cell_formula_units_Z   48
loop_
 _symmetry_equiv_pos_site_id
 _symmetry_equiv_pos_as_xyz
  1  'x, y, z'
loop_
 _atom_site_type_symbol
 _atom_site_label
 _atom_site_symmetry_multiplicity
 _atom_site_fract_x
 _atom_site_fract_y
 _atom_site_fract_z
 _atom_site_occupancy
 _atom_site_charge
  Co  Co1  1  0.750400  0.499600  0.750400  1.0  0.6473
  Co  Co2  1  0.499600  0.750400  0.499600  1.0  0.6485
  Co  Co3  1  0.750400  0.750400  0.499600  1.0  0.6478
  Co  Co4  1  0.499600  0.499600  0.750400  1.0  0.6485
  Co  Co5  1  0.499600  0.750400  0.750400  1.0  0.6474
  Co  Co6  1  0.750400  0.499600  0.499600  1.0  0.6483
  Co  Co7  1  0.749600  0.000400  0.000400  1.0  0.6474
  Co  Co8  1  0.000400  0.749600  0.749600  1.0  0.6483
  Co  Co9  1  0.749600  0.749600  0.000400  1.0  0.6485
  Co  Co10  1  0.000400  0.000400  0.749600  1.0  0.6478
  Co  Co11  1  0.000400  0.749600  0.000400  1.0  0.6473
  Co  Co12  1  0.749600  0.000400  0.749600  1.0  0.6485
  Co  Co13  1  0.249600  0.500400  0.249600  1.0  0.6485
  Co  Co14  1  0.500400  0.249600  0.500400  1.0  0.6473
  Co  Co15  1  0.249600  0.249600  0.500400  1.0  0.6485
  Co  Co16  1  0.500400  0.500400  0.249600  1.0  0.6478
  Co  Co17  1  0.500400  0.249600  0.249600  1.0  0.6483
  Co  Co18  1  0.249600  0.500400  0.500400  1.0  0.6474
  Co  Co19  1  0.250400  0.999600  0.999600  1.0  0.6483
  Co  Co20  1  0.999600  0.250400  0.250400  1.0  0.6474
  Co  Co21  1  0.250400  0.250400  0.999600  1.0  0.6478
  Co  Co22  1  0.999600  0.999600  0.250400  1.0  0.6485
  Co  Co23  1  0.999600  0.250400  0.999600  1.0  0.6485
  Co  Co24  1  0.250400  0.999600  0.250400  1.0  0.6473
  Co  Co25  1  0.750000  0.250000  0.989240  1.0  0.6516
  Co  Co26  1  0.250000  0.750000  0.510760  1.0  0.6516
  Co  Co27  1  0.989240  0.510760  0.750000  1.0  0.6508
  Co  Co28  1  0.510760  0.989240  0.250000  1.0  0.6505
  Co  Co29  1  0.989240  0.750000  0.250000  1.0  0.6515
  Co  Co30  1  0.510760  0.250000  0.750000  1.0  0.651
  Co  Co31  1  0.750000  0.989240  0.510760  1.0  0.6514
  Co  Co32  1  0.250000  0.510760  0.989240  1.0  0.6509
  Co  Co33  1  0.250000  0.989240  0.750000  1.0  0.6513
  Co  Co34  1  0.750000  0.510760  0.250000  1.0  0.6511
  Co  Co35  1  0.510760  0.750000  0.989240  1.0  0.6509
  Co  Co36  1  0.989240  0.250000  0.510760  1.0  0.6518
  Co  Co37  1  0.250000  0.750000  0.010760  1.0  0.6516
  Co  Co38  1  0.750000  0.250000  0.489240  1.0  0.6516
  Co  Co39  1  0.010760  0.489240  0.250000  1.0  0.6505
  Co  Co40  1  0.489240  0.010760  0.750000  1.0  0.6508
  Co  Co41  1  0.010760  0.250000  0.750000  1.0  0.651
  Co  Co42  1  0.489240  0.750000  0.250000  1.0  0.6515
  Co  Co43  1  0.250000  0.010760  0.489240  1.0  0.6509
  Co  Co44  1  0.750000  0.489240  0.010760  1.0  0.6514
  Co  Co45  1  0.750000  0.010760  0.250000  1.0  0.6511
  Co  Co46  1  0.250000  0.489240  0.750000  1.0  0.6513
  Co  Co47  1  0.489240  0.250000  0.010760  1.0  0.6518
  Co  Co48  1  0.010760  0.750000  0.489240  1.0  0.6509
  H  H49  1  0.768100  0.479300  0.695700  1.0  0.0905
  H  H50  1  0.745800  0.475000  0.670800  1.0  0.1256
  H  H51  1  0.663600  0.498400  0.735400  1.0  0.1334
  H  H52  1  0.688000  0.504800  0.757000  1.0  0.094
  H  H53  1  0.801900  0.444300  0.729300  1.0  0.0904
  H  H54  1  0.828400  0.392400  0.748200  1.0  0.133
  H  H55  1  0.770600  0.394200  0.834600  1.0  0.1315
  H  H56  1  0.748100  0.446500  0.813300  1.0  0.0929
  H  H57  1  0.736400  0.298600  0.930200  1.0  0.0981
  H  H58  1  0.760600  0.322400  0.878600  1.0  0.1257
  H  H59  1  0.841800  0.256400  0.887800  1.0  0.1305
  H  H60  1  0.815400  0.234400  0.938800  1.0  0.1005
  H  H61  1  0.951600  0.234400  0.794200  1.0  0.0912
  H  H62  1  0.899500  0.255500  0.817300  1.0  0.1323
  H  H63  1  0.906800  0.340200  0.759600  1.0  0.1293
  H  H64  1  0.959500  0.316300  0.740100  1.0  0.0973
  H  H65  1  0.479300  0.768100  0.556900  1.0  0.0911
  H  H66  1  0.475000  0.745800  0.608400  1.0  0.1266
  H  H67  1  0.498400  0.663600  0.602600  1.0  0.1345
  H  H68  1  0.504800  0.688000  0.550200  1.0  0.0948
  H  H69  1  0.444300  0.801900  0.524500  1.0  0.0913
  H  H70  1  0.392400  0.828400  0.531000  1.0  0.1334
  H  H71  1  0.394200  0.770600  0.500600  1.0  0.1311
  H  H72  1  0.446500  0.748100  0.492100  1.0  0.0921
  H  H73  1  0.298600  0.736400  0.534800  1.0  0.0983
  H  H74  1  0.322400  0.760600  0.538400  1.0  0.1262
  H  H75  1  0.256400  0.841800  0.514000  1.0  0.1302
  H  H76  1  0.234400  0.815400  0.511400  1.0  0.1007
  H  H77  1  0.234400  0.951600  0.519800  1.0  0.092
  H  H78  1  0.255500  0.899500  0.527700  1.0  0.1327
  H  H79  1  0.340200  0.906800  0.493400  1.0  0.13
  H  H80  1  0.316300  0.959500  0.484100  1.0  0.0972
  H  H81  1  0.695700  0.556900  0.768100  1.0  0.0892
  H  H82  1  0.670800  0.608400  0.745800  1.0  0.1251
  H  H83  1  0.735400  0.602600  0.663600  1.0  0.1336
  H  H84  1  0.757000  0.550200  0.688000  1.0  0.0939
  H  H85  1  0.729300  0.524500  0.801900  1.0  0.0912
  H  H86  1  0.748200  0.531000  0.828400  1.0  0.1339
  H  H87  1  0.834600  0.500600  0.770600  1.0  0.1313
  H  H88  1  0.813300  0.492100  0.748100  1.0  0.0929
  H  H89  1  0.930200  0.534800  0.736400  1.0  0.0996
  H  H90  1  0.878600  0.538400  0.760600  1.0  0.1255
  H  H91  1  0.887800  0.514000  0.841800  1.0  0.1293
  H  H92  1  0.938800  0.511400  0.815400  1.0  0.1016
  H  H93  1  0.794200  0.519800  0.951600  1.0  0.0918
  H  H94  1  0.817300  0.527700  0.899500  1.0  0.1325
  H  H95  1  0.759600  0.493400  0.906800  1.0  0.129
  H  H96  1  0.740100  0.484100  0.959500  1.0  0.0974
  H  H97  1  0.556900  0.695700  0.479300  1.0  0.089
  H  H98  1  0.608400  0.670800  0.475000  1.0  0.1249
  H  H99  1  0.602600  0.735400  0.498400  1.0  0.134
  H  H100  1  0.550200  0.757000  0.504800  1.0  0.094
  H  H101  1  0.524500  0.729300  0.444300  1.0  0.0924
  H  H102  1  0.531000  0.748200  0.392400  1.0  0.1335
  H  H103  1  0.500600  0.834600  0.394200  1.0  0.1314
  H  H104  1  0.492100  0.813300  0.446500  1.0  0.0935
  H  H105  1  0.534800  0.930200  0.298600  1.0  0.0992
  H  H106  1  0.538400  0.878600  0.322400  1.0  0.1255
  H  H107  1  0.514000  0.887800  0.256400  1.0  0.1293
  H  H108  1  0.511400  0.938800  0.234400  1.0  0.1015
  H  H109  1  0.519800  0.794200  0.234400  1.0  0.092
  H  H110  1  0.527700  0.817300  0.255500  1.0  0.1328
  H  H111  1  0.493400  0.759600  0.340200  1.0  0.1289
  H  H112  1  0.484100  0.740100  0.316300  1.0  0.0976
  H  H113  1  0.695700  0.768100  0.479300  1.0  0.0906
  H  H114  1  0.670800  0.745800  0.475000  1.0  0.126
  H  H115  1  0.735400  0.663600  0.498400  1.0  0.134
  H  H116  1  0.757000  0.688000  0.504800  1.0  0.0968
  H  H117  1  0.729300  0.801900  0.444300  1.0  0.0914
  H  H118  1  0.748200  0.828400  0.392400  1.0  0.1331
  H  H119  1  0.834600  0.770600  0.394200  1.0  0.1314
  H  H120  1  0.813300  0.748100  0.446500  1.0  0.0924
  H  H121  1  0.930200  0.736400  0.298600  1.0  0.097
  H  H122  1  0.878600  0.760600  0.322400  1.0  0.1264
  H  H123  1  0.887800  0.841800  0.256400  1.0  0.1299
  H  H124  1  0.938800  0.815400  0.234400  1.0  0.1006
  H  H125  1  0.794200  0.951600  0.234400  1.0  0.0914
  H  H126  1  0.817300  0.899500  0.255500  1.0  0.1322
  H  H127  1  0.759600  0.906800  0.340200  1.0  0.1295
  H  H128  1  0.740100  0.959500  0.316300  1.0  0.0966
  H  H129  1  0.556900  0.479300  0.768100  1.0  0.0898
  H  H130  1  0.608400  0.475000  0.745800  1.0  0.1251
  H  H131  1  0.602600  0.498400  0.663600  1.0  0.1335
  H  H132  1  0.550200  0.504800  0.688000  1.0  0.098
  H  H133  1  0.524500  0.444300  0.801900  1.0  0.0925
  H  H134  1  0.531000  0.392400  0.828400  1.0  0.133
  H  H135  1  0.500600  0.394200  0.770600  1.0  0.131
  H  H136  1  0.492100  0.446500  0.748100  1.0  0.0951
  H  H137  1  0.534800  0.298600  0.736400  1.0  0.0966
  H  H138  1  0.538400  0.322400  0.760600  1.0  0.1268
  H  H139  1  0.514000  0.256400  0.841800  1.0  0.1307
  H  H140  1  0.511400  0.234400  0.815400  1.0  0.1005
  H  H141  1  0.519800  0.234400  0.951600  1.0  0.0937
  H  H142  1  0.527700  0.255500  0.899500  1.0  0.1328
  H  H143  1  0.493400  0.340200  0.906800  1.0  0.1298
  H  H144  1  0.484100  0.316300  0.959500  1.0  0.096
  H  H145  1  0.768100  0.695700  0.556900  1.0  0.0898
  H  H146  1  0.745800  0.670800  0.608400  1.0  0.1246
  H  H147  1  0.663600  0.735400  0.602600  1.0  0.1339
  H  H148  1  0.688000  0.757000  0.550200  1.0  0.0939
  H  H149  1  0.801900  0.729300  0.524500  1.0  0.0919
  H  H150  1  0.828400  0.748200  0.531000  1.0  0.1333
  H  H151  1  0.770600  0.834600  0.500600  1.0  0.1318
  H  H152  1  0.748100  0.813300  0.492100  1.0  0.0938
  H  H153  1  0.736400  0.930200  0.534800  1.0  0.0972
  H  H154  1  0.760600  0.878600  0.538400  1.0  0.1264
  H  H155  1  0.841800  0.887800  0.514000  1.0  0.1305
  H  H156  1  0.815400  0.938800  0.511400  1.0  0.1022
  H  H157  1  0.951600  0.794200  0.519800  1.0  0.0928
  H  H158  1  0.899500  0.817300  0.527700  1.0  0.1323
  H  H159  1  0.906800  0.759600  0.493400  1.0  0.1286
  H  H160  1  0.959500  0.740100  0.484100  1.0  0.095
  H  H161  1  0.479300  0.556900  0.695700  1.0  0.0901
  H  H162  1  0.475000  0.608400  0.670800  1.0  0.1258
  H  H163  1  0.498400  0.602600  0.735400  1.0  0.1333
  H  H164  1  0.504800  0.550200  0.757000  1.0  0.097
  H  H165  1  0.444300  0.524500  0.729300  1.0  0.0906
  H  H166  1  0.392400  0.531000  0.748200  1.0  0.1326
  H  H167  1  0.394200  0.500600  0.834600  1.0  0.1311
  H  H168  1  0.446500  0.492100  0.813300  1.0  0.097
  H  H169  1  0.298600  0.534800  0.930200  1.0  0.0971
  H  H170  1  0.322400  0.538400  0.878600  1.0  0.1259
  H  H171  1  0.256400  0.514000  0.887800  1.0  0.1305
  H  H172  1  0.234400  0.511400  0.938800  1.0  0.1026
  H  H173  1  0.234400  0.519800  0.794200  1.0  0.092
  H  H174  1  0.255500  0.527700  0.817300  1.0  0.133
  H  H175  1  0.340200  0.493400  0.759600  1.0  0.1296
  H  H176  1  0.316300  0.484100  0.740100  1.0  0.0966
  H  H177  1  0.479300  0.695700  0.768100  1.0  0.089
  H  H178  1  0.475000  0.670800  0.745800  1.0  0.1251
  H  H179  1  0.498400  0.735400  0.663600  1.0  0.1339
  H  H180  1  0.504800  0.757000  0.688000  1.0  0.0975
  H  H181  1  0.444300  0.729300  0.801900  1.0  0.0904
  H  H182  1  0.392400  0.748200  0.828400  1.0  0.1336
  H  H183  1  0.394200  0.834600  0.770600  1.0  0.1313
  H  H184  1  0.446500  0.813300  0.748100  1.0  0.0945
  H  H185  1  0.298600  0.930200  0.736400  1.0  0.0971
  H  H186  1  0.322400  0.878600  0.760600  1.0  0.1252
  H  H187  1  0.256400  0.887800  0.841800  1.0  0.1309
  H  H188  1  0.234400  0.938800  0.815400  1.0  0.1022
  H  H189  1  0.234400  0.794200  0.951600  1.0  0.0927
  H  H190  1  0.255500  0.817300  0.899500  1.0  0.1324
  H  H191  1  0.340200  0.759600  0.906800  1.0  0.1296
  H  H192  1  0.316300  0.740100  0.959500  1.0  0.0964
  H  H193  1  0.768100  0.556900  0.479300  1.0  0.0907
  H  H194  1  0.745800  0.608400  0.475000  1.0  0.1243
  H  H195  1  0.663600  0.602600  0.498400  1.0  0.1335
  H  H196  1  0.688000  0.550200  0.504800  1.0  0.0937
  H  H197  1  0.801900  0.524500  0.444300  1.0  0.0907
  H  H198  1  0.828400  0.531000  0.392400  1.0  0.1337
  H  H199  1  0.770600  0.500600  0.394200  1.0  0.1308
  H  H200  1  0.748100  0.492100  0.446500  1.0  0.0949
  H  H201  1  0.736400  0.534800  0.298600  1.0  0.0981
  H  H202  1  0.760600  0.538400  0.322400  1.0  0.1265
  H  H203  1  0.841800  0.514000  0.256400  1.0  0.1301
  H  H204  1  0.815400  0.511400  0.234400  1.0  0.1035
  H  H205  1  0.951600  0.519800  0.234400  1.0  0.0929
  H  H206  1  0.899500  0.527700  0.255500  1.0  0.1325
  H  H207  1  0.906800  0.493400  0.340200  1.0  0.1293
  H  H208  1  0.959500  0.484100  0.316300  1.0  0.098
  H  H209  1  0.556900  0.768100  0.695700  1.0  0.0897
  H  H210  1  0.608400  0.745800  0.670800  1.0  0.1247
  H  H211  1  0.602600  0.663600  0.735400  1.0  0.1334
  H  H212  1  0.550200  0.688000  0.757000  1.0  0.0971
  H  H213  1  0.524500  0.801900  0.729300  1.0  0.0907
  H  H214  1  0.531000  0.828400  0.748200  1.0  0.1341
  H  H215  1  0.500600  0.770600  0.834600  1.0  0.1309
  H  H216  1  0.492100  0.748100  0.813300  1.0  0.0951
  H  H217  1  0.534800  0.736400  0.930200  1.0  0.0985
  H  H218  1  0.538400  0.760600  0.878600  1.0  0.1266
  H  H219  1  0.514000  0.841800  0.887800  1.0  0.1303
  H  H220  1  0.511400  0.815400  0.938800  1.0  0.1022
  H  H221  1  0.519800  0.951600  0.794200  1.0  0.093
  H  H222  1  0.527700  0.899500  0.817300  1.0  0.1322
  H  H223  1  0.493400  0.906800  0.759600  1.0  0.129
  H  H224  1  0.484100  0.959500  0.740100  1.0  0.0975
  H  H225  1  0.695700  0.479300  0.556900  1.0  0.0898
  H  H226  1  0.670800  0.475000  0.608400  1.0  0.1247
  H  H227  1  0.735400  0.498400  0.602600  1.0  0.1337
  H  H228  1  0.757000  0.504800  0.550200  1.0  0.0956
  H  H229  1  0.729300  0.444300  0.524500  1.0  0.0902
  H  H230  1  0.748200  0.392400  0.531000  1.0  0.1341
  H  H231  1  0.834600  0.394200  0.500600  1.0  0.1315
  H  H232  1  0.813300  0.446500  0.492100  1.0  0.0926
  H  H233  1  0.930200  0.298600  0.534800  1.0  0.0984
  H  H234  1  0.878600  0.322400  0.538400  1.0  0.1262
  H  H235  1  0.887800  0.256400  0.514000  1.0  0.1301
  H  H236  1  0.938800  0.234400  0.511400  1.0  0.0983
  H  H237  1  0.794200  0.234400  0.519800  1.0  0.0925
  H  H238  1  0.817300  0.255500  0.527700  1.0  0.1321
  H  H239  1  0.759600  0.340200  0.493400  1.0  0.1298
  H  H240  1  0.740100  0.316300  0.484100  1.0  0.097
  H  H241  1  0.731900  0.020700  0.943100  1.0  0.0898
  H  H242  1  0.754200  0.025000  0.891600  1.0  0.1253
  H  H243  1  0.836400  0.001600  0.897400  1.0  0.1335
  H  H244  1  0.812000  0.995200  0.949800  1.0  0.0949
  H  H245  1  0.698100  0.055700  0.975500  1.0  0.0901
  H  H246  1  0.671600  0.107600  0.969000  1.0  0.1327
  H  H247  1  0.729400  0.105800  0.999400  1.0  0.1311
  H  H248  1  0.751900  0.053500  0.007900  1.0  0.0927
  H  H249  1  0.763600  0.201400  0.965200  1.0  0.0985
  H  H250  1  0.739400  0.177600  0.961600  1.0  0.125
  H  H251  1  0.658200  0.243600  0.986000  1.0  0.1305
  H  H252  1  0.684600  0.265600  0.988600  1.0  0.1007
  H  H253  1  0.548400  0.265600  0.980200  1.0  0.0923
  H  H254  1  0.600500  0.244500  0.972300  1.0  0.1322
  H  H255  1  0.593200  0.159800  0.006600  1.0  0.129
  H  H256  1  0.540500  0.183700  0.015900  1.0  0.0969
  H  H257  1  0.020700  0.731900  0.804300  1.0  0.0909
  H  H258  1  0.025000  0.754200  0.829200  1.0  0.1263
  H  H259  1  0.001600  0.836400  0.764600  1.0  0.1341
  H  H260  1  0.995200  0.812000  0.743000  1.0  0.0946
  H  H261  1  0.055700  0.698100  0.770700  1.0  0.091
  H  H262  1  0.107600  0.671600  0.751800  1.0  0.1333
  H  H263  1  0.105800  0.729400  0.665400  1.0  0.1313
  H  H264  1  0.053500  0.751900  0.686700  1.0  0.0928
  H  H265  1  0.201400  0.763600  0.569800  1.0  0.0987
  H  H266  1  0.177600  0.739400  0.621400  1.0  0.1265
  H  H267  1  0.243600  0.658200  0.612200  1.0  0.1307
  H  H268  1  0.265600  0.684600  0.561200  1.0  0.1002
  H  H269  1  0.265600  0.548400  0.705800  1.0  0.0924
  H  H270  1  0.244500  0.600500  0.682700  1.0  0.1326
  H  H271  1  0.159800  0.593200  0.740400  1.0  0.1298
  H  H272  1  0.183700  0.540500  0.759900  1.0  0.097
  H  H273  1  0.804300  0.943100  0.020700  1.0  0.089
  H  H274  1  0.829200  0.891600  0.025000  1.0  0.1248
  H  H275  1  0.764600  0.897400  0.001600  1.0  0.1337
  H  H276  1  0.743000  0.949800  0.995200  1.0  0.0932
  H  H277  1  0.770700  0.975500  0.055700  1.0  0.0917
  H  H278  1  0.751800  0.969000  0.107600  1.0  0.1338
  H  H279  1  0.665400  0.999400  0.105800  1.0  0.1317
  H  H280  1  0.686700  0.007900  0.053500  1.0  0.0924
  H  H281  1  0.569800  0.965200  0.201400  1.0  0.0994
  H  H282  1  0.621400  0.961600  0.177600  1.0  0.1256
  H  H283  1  0.612200  0.986000  0.243600  1.0  0.1294
  H  H284  1  0.561200  0.988600  0.265600  1.0  0.1018
  H  H285  1  0.705800  0.980200  0.265600  1.0  0.092
  H  H286  1  0.682700  0.972300  0.244500  1.0  0.1333
  H  H287  1  0.740400  0.006600  0.159800  1.0  0.1294
  H  H288  1  0.759900  0.015900  0.183700  1.0  0.0987
  H  H289  1  0.943100  0.804300  0.731900  1.0  0.0892
  H  H290  1  0.891600  0.829200  0.754200  1.0  0.1257
  H  H291  1  0.897400  0.764600  0.836400  1.0  0.1343
  H  H292  1  0.949800  0.743000  0.812000  1.0  0.0936
  H  H293  1  0.975500  0.770700  0.698100  1.0  0.0926
  H  H294  1  0.969000  0.751800  0.671600  1.0  0.134
  H  H295  1  0.999400  0.665400  0.729400  1.0  0.1319
  H  H296  1  0.007900  0.686700  0.751900  1.0  0.0939
  H  H297  1  0.965200  0.569800  0.763600  1.0  0.0994
  H  H298  1  0.961600  0.621400  0.739400  1.0  0.1254
  H  H299  1  0.986000  0.612200  0.658200  1.0  0.1292
  H  H300  1  0.988600  0.561200  0.684600  1.0  0.1016
  H  H301  1  0.980200  0.705800  0.548400  1.0  0.0912
  H  H302  1  0.972300  0.682700  0.600500  1.0  0.1323
  H  H303  1  0.006600  0.740400  0.593200  1.0  0.1288
  H  H304  1  0.015900  0.759900  0.540500  1.0  0.0974
  H  H305  1  0.804300  0.731900  0.943100  1.0  0.0901
  H  H306  1  0.829200  0.754200  0.891600  1.0  0.125
  H  H307  1  0.764600  0.836400  0.897400  1.0  0.134
  H  H308  1  0.743000  0.812000  0.949800  1.0  0.0958
  H  H309  1  0.770700  0.698100  0.975500  1.0  0.0915
  H  H310  1  0.751800  0.671600  0.969000  1.0  0.1324
  H  H311  1  0.665400  0.729400  0.999400  1.0  0.1316
  H  H312  1  0.686700  0.751900  0.007900  1.0  0.0924
  H  H313  1  0.569800  0.763600  0.965200  1.0  0.0976
  H  H314  1  0.621400  0.739400  0.961600  1.0  0.1262
  H  H315  1  0.612200  0.658200  0.986000  1.0  0.1301
  H  H316  1  0.561200  0.684600  0.988600  1.0  0.0999
  H  H317  1  0.705800  0.548400  0.980200  1.0  0.0907
  H  H318  1  0.682700  0.600500  0.972300  1.0  0.1323
  H  H319  1  0.740400  0.593200  0.006600  1.0  0.129
  H  H320  1  0.759900  0.540500  0.015900  1.0  0.0958
  H  H321  1  0.943100  0.020700  0.804300  1.0  0.0892
  H  H322  1  0.891600  0.025000  0.829200  1.0  0.1252
  H  H323  1  0.897400  0.001600  0.764600  1.0  0.1334
  H  H324  1  0.949800  0.995200  0.743000  1.0  0.0988
  H  H325  1  0.975500  0.055700  0.770700  1.0  0.0924
  H  H326  1  0.969000  0.107600  0.751800  1.0  0.1329
  H  H327  1  0.999400  0.105800  0.665400  1.0  0.1306
  H  H328  1  0.007900  0.053500  0.686700  1.0  0.0952
  H  H329  1  0.965200  0.201400  0.569800  1.0  0.0963
  H  H330  1  0.961600  0.177600  0.621400  1.0  0.1262
  H  H331  1  0.986000  0.243600  0.612200  1.0  0.1306
  H  H332  1  0.988600  0.265600  0.561200  1.0  0.1013
  H  H333  1  0.980200  0.265600  0.705800  1.0  0.0941
  H  H334  1  0.972300  0.244500  0.682700  1.0  0.1337
  H  H335  1  0.006600  0.159800  0.740400  1.0  0.1297
  H  H336  1  0.015900  0.183700  0.759900  1.0  0.0965
  H  H337  1  0.731900  0.804300  0.020700  1.0  0.0896
  H  H338  1  0.754200  0.829200  0.025000  1.0  0.1252
  H  H339  1  0.836400  0.764600  0.001600  1.0  0.1333
  H  H340  1  0.812000  0.743000  0.995200  1.0  0.0941
  H  H341  1  0.698100  0.770700  0.055700  1.0  0.0919
  H  H342  1  0.671600  0.751800  0.107600  1.0  0.1336
  H  H343  1  0.729400  0.665400  0.105800  1.0  0.1319
  H  H344  1  0.751900  0.686700  0.053500  1.0  0.0939
  H  H345  1  0.763600  0.569800  0.201400  1.0  0.0982
  H  H346  1  0.739400  0.621400  0.177600  1.0  0.1264
  H  H347  1  0.658200  0.612200  0.243600  1.0  0.1302
  H  H348  1  0.684600  0.561200  0.265600  1.0  0.1024
  H  H349  1  0.548400  0.705800  0.265600  1.0  0.0923
  H  H350  1  0.600500  0.682700  0.244500  1.0  0.133
  H  H351  1  0.593200  0.740400  0.159800  1.0  0.1292
  H  H352  1  0.540500  0.759900  0.183700  1.0  0.0961
  H  H353  1  0.020700  0.943100  0.731900  1.0  0.0898
  H  H354  1  0.025000  0.891600  0.754200  1.0  0.1258
  H  H355  1  0.001600  0.897400  0.836400  1.0  0.1338
  H  H356  1  0.995200  0.949800  0.812000  1.0  0.0968
  H  H357  1  0.055700  0.975500  0.698100  1.0  0.0906
  H  H358  1  0.107600  0.969000  0.671600  1.0  0.1324
  H  H359  1  0.105800  0.999400  0.729400  1.0  0.1313
  H  H360  1  0.053500  0.007900  0.751900  1.0  0.0964
  H  H361  1  0.201400  0.965200  0.763600  1.0  0.0969
  H  H362  1  0.177600  0.961600  0.739400  1.0  0.1273
  H  H363  1  0.243600  0.986000  0.658200  1.0  0.1306
  H  H364  1  0.265600  0.988600  0.684600  1.0  0.1035
  H  H365  1  0.265600  0.980200  0.548400  1.0  0.0918
  H  H366  1  0.244500  0.972300  0.600500  1.0  0.1324
  H  H367  1  0.159800  0.006600  0.593200  1.0  0.1296
  H  H368  1  0.183700  0.015900  0.540500  1.0  0.0971
  H  H369  1  0.020700  0.804300  0.943100  1.0  0.0884
  H  H370  1  0.025000  0.829200  0.891600  1.0  0.1247
  H  H371  1  0.001600  0.764600  0.897400  1.0  0.1341
  H  H372  1  0.995200  0.743000  0.949800  1.0  0.0964
  H  H373  1  0.055700  0.770700  0.975500  1.0  0.0902
  H  H374  1  0.107600  0.751800  0.969000  1.0  0.1334
  H  H375  1  0.105800  0.665400  0.999400  1.0  0.1315
  H  H376  1  0.053500  0.686700  0.007900  1.0  0.0945
  H  H377  1  0.201400  0.569800  0.965200  1.0  0.0967
  H  H378  1  0.177600  0.621400  0.961600  1.0  0.1253
  H  H379  1  0.243600  0.612200  0.986000  1.0  0.1309
  H  H380  1  0.265600  0.561200  0.988600  1.0  0.1016
  H  H381  1  0.265600  0.705800  0.980200  1.0  0.0925
  H  H382  1  0.244500  0.682700  0.972300  1.0  0.1319
  H  H383  1  0.159800  0.740400  0.006600  1.0  0.1296
  H  H384  1  0.183700  0.759900  0.015900  1.0  0.097
  H  H385  1  0.731900  0.943100  0.804300  1.0  0.0903
  H  H386  1  0.754200  0.891600  0.829200  1.0  0.1245
  H  H387  1  0.836400  0.897400  0.764600  1.0  0.1332
  H  H388  1  0.812000  0.949800  0.743000  1.0  0.0948
  H  H389  1  0.698100  0.975500  0.770700  1.0  0.0909
  H  H390  1  0.671600  0.969000  0.751800  1.0  0.1344
  H  H391  1  0.729400  0.999400  0.665400  1.0  0.1309
  H  H392  1  0.751900  0.007900  0.686700  1.0  0.0953
  H  H393  1  0.763600  0.965200  0.569800  1.0  0.0981
  H  H394  1  0.739400  0.961600  0.621400  1.0  0.1261
  H  H395  1  0.658200  0.986000  0.612200  1.0  0.13
  H  H396  1  0.684600  0.988600  0.561200  1.0  0.1044
  H  H397  1  0.548400  0.980200  0.705800  1.0  0.0929
  H  H398  1  0.600500  0.972300  0.682700  1.0  0.1324
  H  H399  1  0.593200  0.006600  0.740400  1.0  0.1294
  H  H400  1  0.540500  0.015900  0.759900  1.0  0.0977
  H  H401  1  0.943100  0.731900  0.020700  1.0  0.0888
  H  H402  1  0.891600  0.754200  0.025000  1.0  0.1241
  H  H403  1  0.897400  0.836400  0.001600  1.0  0.1331
  H  H404  1  0.949800  0.812000  0.995200  1.0  0.0969
  H  H405  1  0.975500  0.698100  0.055700  1.0  0.09
  H  H406  1  0.969000  0.671600  0.107600  1.0  0.1338
  H  H407  1  0.999400  0.729400  0.105800  1.0  0.1308
  H  H408  1  0.007900  0.751900  0.053500  1.0  0.0952
  H  H409  1  0.965200  0.763600  0.201400  1.0  0.0988
  H  H410  1  0.961600  0.739400  0.177600  1.0  0.1268
  H  H411  1  0.986000  0.658200  0.243600  1.0  0.1302
  H  H412  1  0.988600  0.684600  0.265600  1.0  0.102
  H  H413  1  0.980200  0.548400  0.265600  1.0  0.0926
  H  H414  1  0.972300  0.600500  0.244500  1.0  0.1322
  H  H415  1  0.006600  0.593200  0.159800  1.0  0.1288
  H  H416  1  0.015900  0.540500  0.183700  1.0  0.0972
  H  H417  1  0.804300  0.020700  0.731900  1.0  0.0906
  H  H418  1  0.829200  0.025000  0.754200  1.0  0.125
  H  H419  1  0.764600  0.001600  0.836400  1.0  0.1343
  H  H420  1  0.743000  0.995200  0.812000  1.0  0.0959
  H  H421  1  0.770700  0.055700  0.698100  1.0  0.0912
  H  H422  1  0.751800  0.107600  0.671600  1.0  0.1338
  H  H423  1  0.665400  0.105800  0.729400  1.0  0.1315
  H  H424  1  0.686700  0.053500  0.751900  1.0  0.0921
  H  H425  1  0.569800  0.201400  0.763600  1.0  0.099
  H  H426  1  0.621400  0.177600  0.739400  1.0  0.126
  H  H427  1  0.612200  0.243600  0.658200  1.0  0.1303
  H  H428  1  0.561200  0.265600  0.684600  1.0  0.0992
  H  H429  1  0.705800  0.265600  0.548400  1.0  0.093
  H  H430  1  0.682700  0.244500  0.600500  1.0  0.1325
  H  H431  1  0.740400  0.159800  0.593200  1.0  0.1295
  H  H432  1  0.759900  0.183700  0.540500  1.0  0.0964
  H  H433  1  0.231900  0.520700  0.304300  1.0  0.0904
  H  H434  1  0.254200  0.525000  0.329200  1.0  0.126
  H  H435  1  0.336400  0.501600  0.264600  1.0  0.1333
  H  H436  1  0.312000  0.495200  0.243000  1.0  0.0949
  H  H437  1  0.198100  0.555700  0.270700  1.0  0.0909
  H  H438  1  0.171600  0.607600  0.251800  1.0  0.1331
  H  H439  1  0.229400  0.605800  0.165400  1.0  0.1309
  H  H440  1  0.251900  0.553500  0.186700  1.0  0.0925
  H  H441  1  0.263600  0.701400  0.069800  1.0  0.0988
  H  H442  1  0.239400  0.677600  0.121400  1.0  0.1248
  H  H443  1  0.158200  0.743600  0.112200  1.0  0.1304
  H  H444  1  0.184600  0.765600  0.061200  1.0  0.1008
  H  H445  1  0.048400  0.765600  0.205800  1.0  0.0923
  H  H446  1  0.100500  0.744500  0.182700  1.0  0.1326
  H  H447  1  0.093200  0.659800  0.240400  1.0  0.129
  H  H448  1  0.040500  0.683700  0.259900  1.0  0.0978
  H  H449  1  0.520700  0.231900  0.443100  1.0  0.0911
  H  H450  1  0.525000  0.254200  0.391600  1.0  0.1255
  H  H451  1  0.501600  0.336400  0.397400  1.0  0.1338
  H  H452  1  0.495200  0.312000  0.449800  1.0  0.0949
  H  H453  1  0.555700  0.198100  0.475500  1.0  0.0904
  H  H454  1  0.607600  0.171600  0.469000  1.0  0.1325
  H  H455  1  0.605800  0.229400  0.499400  1.0  0.1316
  H  H456  1  0.553500  0.251900  0.507900  1.0  0.0935
  H  H457  1  0.701400  0.263600  0.465200  1.0  0.0989
  H  H458  1  0.677600  0.239400  0.461600  1.0  0.1267
  H  H459  1  0.743600  0.158200  0.486000  1.0  0.1307
  H  H460  1  0.765600  0.184600  0.488600  1.0  0.1003
  H  H461  1  0.765600  0.048400  0.480200  1.0  0.0924
  H  H462  1  0.744500  0.100500  0.472300  1.0  0.1323
  H  H463  1  0.659800  0.093200  0.506600  1.0  0.13
  H  H464  1  0.683700  0.040500  0.515900  1.0  0.0965
  H  H465  1  0.304300  0.443100  0.231900  1.0  0.0894
  H  H466  1  0.329200  0.391600  0.254200  1.0  0.1249
  H  H467  1  0.264600  0.397400  0.336400  1.0  0.1338
  H  H468  1  0.243000  0.449800  0.312000  1.0  0.094
  H  H469  1  0.270700  0.475500  0.198100  1.0  0.0917
  H  H470  1  0.251800  0.469000  0.171600  1.0  0.1336
  H  H471  1  0.165400  0.499400  0.229400  1.0  0.1311
  H  H472  1  0.186700  0.507900  0.251900  1.0  0.0928
  H  H473  1  0.069800  0.465200  0.263600  1.0  0.0997
  H  H474  1  0.121400  0.461600  0.239400  1.0  0.1259
  H  H475  1  0.112200  0.486000  0.158200  1.0  0.1293
  H  H476  1  0.061200  0.488600  0.184600  1.0  0.1023
  H  H477  1  0.205800  0.480200  0.048400  1.0  0.0919
  H  H478  1  0.182700  0.472300  0.100500  1.0  0.133
  H  H479  1  0.240400  0.506600  0.093200  1.0  0.129
  H  H480  1  0.259900  0.515900  0.040500  1.0  0.0972
  H  H481  1  0.443100  0.304300  0.520700  1.0  0.089
  H  H482  1  0.391600  0.329200  0.525000  1.0  0.1254
  H  H483  1  0.397400  0.264600  0.501600  1.0  0.1339
  H  H484  1  0.449800  0.243000  0.495200  1.0  0.0928
  H  H485  1  0.475500  0.270700  0.555700  1.0  0.0937
  H  H486  1  0.469000  0.251800  0.607600  1.0  0.1346
  H  H487  1  0.499400  0.165400  0.605800  1.0  0.1324
  H  H488  1  0.507900  0.186700  0.553500  1.0  0.0931
  H  H489  1  0.465200  0.069800  0.701400  1.0  0.0989
  H  H490  1  0.461600  0.121400  0.677600  1.0  0.125
  H  H491  1  0.486000  0.112200  0.743600  1.0  0.1294
  H  H492  1  0.488600  0.061200  0.765600  1.0  0.1012
  H  H493  1  0.480200  0.205800  0.765600  1.0  0.0912
  H  H494  1  0.472300  0.182700  0.744500  1.0  0.1327
  H  H495  1  0.506600  0.240400  0.659800  1.0  0.129
  H  H496  1  0.515900  0.259900  0.683700  1.0  0.0979
  H  H497  1  0.304300  0.231900  0.520700  1.0  0.0901
  H  H498  1  0.329200  0.254200  0.525000  1.0  0.1253
  H  H499  1  0.264600  0.336400  0.501600  1.0  0.1339
  H  H500  1  0.243000  0.312000  0.495200  1.0  0.0959
  H  H501  1  0.270700  0.198100  0.555700  1.0  0.0916
  H  H502  1  0.251800  0.171600  0.607600  1.0  0.1323
  H  H503  1  0.165400  0.229400  0.605800  1.0  0.1318
  H  H504  1  0.186700  0.251900  0.553500  1.0  0.0923
  H  H505  1  0.069800  0.263600  0.701400  1.0  0.0978
  H  H506  1  0.121400  0.239400  0.677600  1.0  0.1269
  H  H507  1  0.112200  0.158200  0.743600  1.0  0.13
  H  H508  1  0.061200  0.184600  0.765600  1.0  0.0999
  H  H509  1  0.205800  0.048400  0.765600  1.0  0.0915
  H  H510  1  0.182700  0.100500  0.744500  1.0  0.1324
  H  H511  1  0.240400  0.093200  0.659800  1.0  0.129
  H  H512  1  0.259900  0.040500  0.683700  1.0  0.0957
  H  H513  1  0.443100  0.520700  0.231900  1.0  0.0899
  H  H514  1  0.391600  0.525000  0.254200  1.0  0.1259
  H  H515  1  0.397400  0.501600  0.336400  1.0  0.1336
  H  H516  1  0.449800  0.495200  0.312000  1.0  0.0982
  H  H517  1  0.475500  0.555700  0.198100  1.0  0.091
  H  H518  1  0.469000  0.607600  0.171600  1.0  0.1326
  H  H519  1  0.499400  0.605800  0.229400  1.0  0.131
  H  H520  1  0.507900  0.553500  0.251900  1.0  0.0959
  H  H521  1  0.465200  0.701400  0.263600  1.0  0.0964
  H  H522  1  0.461600  0.677600  0.239400  1.0  0.1266
  H  H523  1  0.486000  0.743600  0.158200  1.0  0.1303
  H  H524  1  0.488600  0.765600  0.184600  1.0  0.1005
  H  H525  1  0.480200  0.765600  0.048400  1.0  0.0934
  H  H526  1  0.472300  0.744500  0.100500  1.0  0.1337
  H  H527  1  0.506600  0.659800  0.093200  1.0  0.1296
  H  H528  1  0.515900  0.683700  0.040500  1.0  0.0958
  H  H529  1  0.231900  0.304300  0.443100  1.0  0.09
  H  H530  1  0.254200  0.329200  0.391600  1.0  0.1251
  H  H531  1  0.336400  0.264600  0.397400  1.0  0.1335
  H  H532  1  0.312000  0.243000  0.449800  1.0  0.0941
  H  H533  1  0.198100  0.270700  0.475500  1.0  0.0923
  H  H534  1  0.171600  0.251800  0.469000  1.0  0.1338
  H  H535  1  0.229400  0.165400  0.499400  1.0  0.1318
  H  H536  1  0.251900  0.186700  0.507900  1.0  0.0943
  H  H537  1  0.263600  0.069800  0.465200  1.0  0.0981
  H  H538  1  0.239400  0.121400  0.461600  1.0  0.1257
  H  H539  1  0.158200  0.112200  0.486000  1.0  0.1302
  H  H540  1  0.184600  0.061200  0.488600  1.0  0.1021
  H  H541  1  0.048400  0.205800  0.480200  1.0  0.0914
  H  H542  1  0.100500  0.182700  0.472300  1.0  0.1324
  H  H543  1  0.093200  0.240400  0.506600  1.0  0.1295
  H  H544  1  0.040500  0.259900  0.515900  1.0  0.0962
  H  H545  1  0.520700  0.443100  0.304300  1.0  0.0893
  H  H546  1  0.525000  0.391600  0.329200  1.0  0.125
  H  H547  1  0.501600  0.397400  0.264600  1.0  0.1338
  H  H548  1  0.495200  0.449800  0.243000  1.0  0.0969
  H  H549  1  0.555700  0.475500  0.270700  1.0  0.092
  H  H550  1  0.607600  0.469000  0.251800  1.0  0.1328
  H  H551  1  0.605800  0.499400  0.165400  1.0  0.1311
  H  H552  1  0.553500  0.507900  0.186700  1.0  0.0958
  H  H553  1  0.701400  0.465200  0.069800  1.0  0.0967
  H  H554  1  0.677600  0.461600  0.121400  1.0  0.1271
  H  H555  1  0.743600  0.486000  0.112200  1.0  0.1307
  H  H556  1  0.765600  0.488600  0.061200  1.0  0.1037
  H  H557  1  0.765600  0.480200  0.205800  1.0  0.0922
  H  H558  1  0.744500  0.472300  0.182700  1.0  0.1326
  H  H559  1  0.659800  0.506600  0.240400  1.0  0.1295
  H  H560  1  0.683700  0.515900  0.259900  1.0  0.0969
  H  H561  1  0.520700  0.304300  0.231900  1.0  0.0894
  H  H562  1  0.525000  0.329200  0.254200  1.0  0.1252
  H  H563  1  0.501600  0.264600  0.336400  1.0  0.1347
  H  H564  1  0.495200  0.243000  0.312000  1.0  0.096
  H  H565  1  0.555700  0.270700  0.198100  1.0  0.0903
  H  H566  1  0.607600  0.251800  0.171600  1.0  0.1338
  H  H567  1  0.605800  0.165400  0.229400  1.0  0.1315
  H  H568  1  0.553500  0.186700  0.251900  1.0  0.0947
  H  H569  1  0.701400  0.069800  0.263600  1.0  0.0978
  H  H570  1  0.677600  0.121400  0.239400  1.0  0.1255
  H  H571  1  0.743600  0.112200  0.158200  1.0  0.1305
  H  H572  1  0.765600  0.061200  0.184600  1.0  0.1013
  H  H573  1  0.765600  0.205800  0.048400  1.0  0.0923
  H  H574  1  0.744500  0.182700  0.100500  1.0  0.1313
  H  H575  1  0.659800  0.240400  0.093200  1.0  0.1296
  H  H576  1  0.683700  0.259900  0.040500  1.0  0.0968
  H  H577  1  0.231900  0.443100  0.520700  1.0  0.0905
  H  H578  1  0.254200  0.391600  0.525000  1.0  0.1242
  H  H579  1  0.336400  0.397400  0.501600  1.0  0.1331
  H  H580  1  0.312000  0.449800  0.495200  1.0  0.0951
  H  H581  1  0.198100  0.475500  0.555700  1.0  0.0907
  H  H582  1  0.171600  0.469000  0.607600  1.0  0.1342
  H  H583  1  0.229400  0.499400  0.605800  1.0  0.1306
  H  H584  1  0.251900  0.507900  0.553500  1.0  0.0947
  H  H585  1  0.263600  0.465200  0.701400  1.0  0.0984
  H  H586  1  0.239400  0.461600  0.677600  1.0  0.1261
  H  H587  1  0.158200  0.486000  0.743600  1.0  0.1298
  H  H588  1  0.184600  0.488600  0.765600  1.0  0.1043
  H  H589  1  0.048400  0.480200  0.765600  1.0  0.0931
  H  H590  1  0.100500  0.472300  0.744500  1.0  0.1323
  H  H591  1  0.093200  0.506600  0.659800  1.0  0.1291
  H  H592  1  0.040500  0.515900  0.683700  1.0  0.0983
  H  H593  1  0.443100  0.231900  0.304300  1.0  0.0891
  H  H594  1  0.391600  0.254200  0.329200  1.0  0.1244
  H  H595  1  0.397400  0.336400  0.264600  1.0  0.1336
  H  H596  1  0.449800  0.312000  0.243000  1.0  0.0966
  H  H597  1  0.475500  0.198100  0.270700  1.0  0.0901
  H  H598  1  0.469000  0.171600  0.251800  1.0  0.1341
  H  H599  1  0.499400  0.229400  0.165400  1.0  0.1309
  H  H600  1  0.507900  0.251900  0.186700  1.0  0.095
  H  H601  1  0.465200  0.263600  0.069800  1.0  0.0986
  H  H602  1  0.461600  0.239400  0.121400  1.0  0.1271
  H  H603  1  0.486000  0.158200  0.112200  1.0  0.1302
  H  H604  1  0.488600  0.184600  0.061200  1.0  0.1021
  H  H605  1  0.480200  0.048400  0.205800  1.0  0.0925
  H  H606  1  0.472300  0.100500  0.182700  1.0  0.1323
  H  H607  1  0.506600  0.093200  0.240400  1.0  0.1291
  H  H608  1  0.515900  0.040500  0.259900  1.0  0.0969
  H  H609  1  0.304300  0.520700  0.443100  1.0  0.0892
  H  H610  1  0.329200  0.525000  0.391600  1.0  0.1245
  H  H611  1  0.264600  0.501600  0.397400  1.0  0.1338
  H  H612  1  0.243000  0.495200  0.449800  1.0  0.0953
  H  H613  1  0.270700  0.555700  0.475500  1.0  0.0915
  H  H614  1  0.251800  0.607600  0.469000  1.0  0.1334
  H  H615  1  0.165400  0.605800  0.499400  1.0  0.1316
  H  H616  1  0.186700  0.553500  0.507900  1.0  0.0923
  H  H617  1  0.069800  0.701400  0.465200  1.0  0.098
  H  H618  1  0.121400  0.677600  0.461600  1.0  0.1255
  H  H619  1  0.112200  0.743600  0.486000  1.0  0.1307
  H  H620  1  0.061200  0.765600  0.488600  1.0  0.1003
  H  H621  1  0.205800  0.765600  0.480200  1.0  0.0932
  H  H622  1  0.182700  0.744500  0.472300  1.0  0.1334
  H  H623  1  0.240400  0.659800  0.506600  1.0  0.1295
  H  H624  1  0.259900  0.683700  0.515900  1.0  0.0969
  H  H625  1  0.268100  0.979300  0.056900  1.0  0.0905
  H  H626  1  0.245800  0.975000  0.108400  1.0  0.1255
  H  H627  1  0.163600  0.998400  0.102600  1.0  0.1336
  H  H628  1  0.188000  0.004800  0.050200  1.0  0.0936
  H  H629  1  0.301900  0.944300  0.024500  1.0  0.0908
  H  H630  1  0.328400  0.892400  0.031000  1.0  0.1333
  H  H631  1  0.270600  0.894200  0.000600  1.0  0.131
  H  H632  1  0.248100  0.946500  0.992100  1.0  0.0922
  H  H633  1  0.236400  0.798600  0.034800  1.0  0.098
  H  H634  1  0.260600  0.822400  0.038400  1.0  0.1256
  H  H635  1  0.341800  0.756400  0.014000  1.0  0.1304
  H  H636  1  0.315400  0.734400  0.011400  1.0  0.1005
  H  H637  1  0.451600  0.734400  0.019800  1.0  0.0908
  H  H638  1  0.399500  0.755500  0.027700  1.0  0.1322
  H  H639  1  0.406800  0.840200  0.993400  1.0  0.1292
  H  H640  1  0.459500  0.816300  0.984100  1.0  0.0972
  H  H641  1  0.979300  0.268100  0.195700  1.0  0.0909
  H  H642  1  0.975000  0.245800  0.170800  1.0  0.1259
  H  H643  1  0.998400  0.163600  0.235400  1.0  0.1344
  H  H644  1  0.004800  0.188000  0.257000  1.0  0.0957
  H  H645  1  0.944300  0.301900  0.229300  1.0  0.0908
  H  H646  1  0.892400  0.328400  0.248200  1.0  0.133
  H  H647  1  0.894200  0.270600  0.334600  1.0  0.1314
  H  H648  1  0.946500  0.248100  0.313300  1.0  0.0928
  H  H649  1  0.798600  0.236400  0.430200  1.0  0.0987
  H  H650  1  0.822400  0.260600  0.378600  1.0  0.1258
  H  H651  1  0.756400  0.341800  0.387800  1.0  0.1302
  H  H652  1  0.734400  0.315400  0.438800  1.0  0.1008
  H  H653  1  0.734400  0.451600  0.294200  1.0  0.0922
  H  H654  1  0.755500  0.399500  0.317300  1.0  0.1325
  H  H655  1  0.840200  0.406800  0.259600  1.0  0.1301
  H  H656  1  0.816300  0.459500  0.240100  1.0  0.0969
  H  H657  1  0.195700  0.056900  0.979300  1.0  0.0891
  H  H658  1  0.170800  0.108400  0.975000  1.0  0.1253
  H  H659  1  0.235400  0.102600  0.998400  1.0  0.1334
  H  H660  1  0.257000  0.050200  0.004800  1.0  0.094
  H  H661  1  0.229300  0.024500  0.944300  1.0  0.0904
  H  H662  1  0.248200  0.031000  0.892400  1.0  0.1336
  H  H663  1  0.334600  0.000600  0.894200  1.0  0.131
  H  H664  1  0.313300  0.992100  0.946500  1.0  0.0927
  H  H665  1  0.430200  0.034800  0.798600  1.0  0.0999
  H  H666  1  0.378600  0.038400  0.822400  1.0  0.1254
  H  H667  1  0.387800  0.014000  0.756400  1.0  0.1292
  H  H668  1  0.438800  0.011400  0.734400  1.0  0.1024
  H  H669  1  0.294200  0.019800  0.734400  1.0  0.0926
  H  H670  1  0.317300  0.027700  0.755500  1.0  0.1329
  H  H671  1  0.259600  0.993400  0.840200  1.0  0.1294
  H  H672  1  0.240100  0.984100  0.816300  1.0  0.0978
  H  H673  1  0.056900  0.195700  0.268100  1.0  0.0893
  H  H674  1  0.108400  0.170800  0.245800  1.0  0.1253
  H  H675  1  0.102600  0.235400  0.163600  1.0  0.1338
  H  H676  1  0.050200  0.257000  0.188000  1.0  0.0937
  H  H677  1  0.024500  0.229300  0.301900  1.0  0.0925
  H  H678  1  0.031000  0.248200  0.328400  1.0  0.1343
  H  H679  1  0.000600  0.334600  0.270600  1.0  0.1321
  H  H680  1  0.992100  0.313300  0.248100  1.0  0.0931
  H  H681  1  0.034800  0.430200  0.236400  1.0  0.0988
  H  H682  1  0.038400  0.378600  0.260600  1.0  0.1253
  H  H683  1  0.014000  0.387800  0.341800  1.0  0.1294
  H  H684  1  0.011400  0.438800  0.315400  1.0  0.1017
  H  H685  1  0.019800  0.294200  0.451600  1.0  0.0915
  H  H686  1  0.027700  0.317300  0.399500  1.0  0.1324
  H  H687  1  0.993400  0.259600  0.406800  1.0  0.1286
  H  H688  1  0.984100  0.240100  0.459500  1.0  0.0978
  H  H689  1  0.195700  0.268100  0.056900  1.0  0.0905
  H  H690  1  0.170800  0.245800  0.108400  1.0  0.126
  H  H691  1  0.235400  0.163600  0.102600  1.0  0.1339
  H  H692  1  0.257000  0.188000  0.050200  1.0  0.0964
  H  H693  1  0.229300  0.301900  0.024500  1.0  0.0912
  H  H694  1  0.248200  0.328400  0.031000  1.0  0.133
  H  H695  1  0.334600  0.270600  0.000600  1.0  0.1313
  H  H696  1  0.313300  0.248100  0.992100  1.0  0.0925
  H  H697  1  0.430200  0.236400  0.034800  1.0  0.0966
  H  H698  1  0.378600  0.260600  0.038400  1.0  0.1265
  H  H699  1  0.387800  0.341800  0.014000  1.0  0.1301
  H  H700  1  0.438800  0.315400  0.011400  1.0  0.1016
  H  H701  1  0.294200  0.451600  0.019800  1.0  0.0913
  H  H702  1  0.317300  0.399500  0.027700  1.0  0.1325
  H  H703  1  0.259600  0.406800  0.993400  1.0  0.1288
  H  H704  1  0.240100  0.459500  0.984100  1.0  0.0959
  H  H705  1  0.056900  0.979300  0.195700  1.0  0.0904
  H  H706  1  0.108400  0.975000  0.170800  1.0  0.1258
  H  H707  1  0.102600  0.998400  0.235400  1.0  0.1333
  H  H708  1  0.050200  0.004800  0.257000  1.0  0.0979
  H  H709  1  0.024500  0.944300  0.229300  1.0  0.0911
  H  H710  1  0.031000  0.892400  0.248200  1.0  0.1325
  H  H711  1  0.000600  0.894200  0.334600  1.0  0.1314
  H  H712  1  0.992100  0.946500  0.313300  1.0  0.0961
  H  H713  1  0.034800  0.798600  0.430200  1.0  0.0962
  H  H714  1  0.038400  0.822400  0.378600  1.0  0.1265
  H  H715  1  0.014000  0.756400  0.387800  1.0  0.1303
  H  H716  1  0.011400  0.734400  0.438800  1.0  0.1005
  H  H717  1  0.019800  0.734400  0.294200  1.0  0.0928
  H  H718  1  0.027700  0.755500  0.317300  1.0  0.1332
  H  H719  1  0.993400  0.840200  0.259600  1.0  0.1298
  H  H720  1  0.984100  0.816300  0.240100  1.0  0.0971
  H  H721  1  0.268100  0.195700  0.979300  1.0  0.0898
  H  H722  1  0.245800  0.170800  0.975000  1.0  0.1245
  H  H723  1  0.163600  0.235400  0.998400  1.0  0.1339
  H  H724  1  0.188000  0.257000  0.004800  1.0  0.094
  H  H725  1  0.301900  0.229300  0.944300  1.0  0.0916
  H  H726  1  0.328400  0.248200  0.892400  1.0  0.133
  H  H727  1  0.270600  0.334600  0.894200  1.0  0.1315
  H  H728  1  0.248100  0.313300  0.946500  1.0  0.094
  H  H729  1  0.236400  0.430200  0.798600  1.0  0.0973
  H  H730  1  0.260600  0.378600  0.822400  1.0  0.1263
  H  H731  1  0.341800  0.387800  0.756400  1.0  0.1303
  H  H732  1  0.315400  0.438800  0.734400  1.0  0.1019
  H  H733  1  0.451600  0.294200  0.734400  1.0  0.092
  H  H734  1  0.399500  0.317300  0.755500  1.0  0.1325
  H  H735  1  0.406800  0.259600  0.840200  1.0  0.129
  H  H736  1  0.459500  0.240100  0.816300  1.0  0.0959
  H  H737  1  0.979300  0.056900  0.268100  1.0  0.0895
  H  H738  1  0.975000  0.108400  0.245800  1.0  0.1249
  H  H739  1  0.998400  0.102600  0.163600  1.0  0.1335
  H  H740  1  0.004800  0.050200  0.188000  1.0  0.0974
  H  H741  1  0.944300  0.024500  0.301900  1.0  0.0919
  H  H742  1  0.892400  0.031000  0.328400  1.0  0.1328
  H  H743  1  0.894200  0.000600  0.270600  1.0  0.1306
  H  H744  1  0.946500  0.992100  0.248100  1.0  0.0961
  H  H745  1  0.798600  0.034800  0.236400  1.0  0.0977
  H  H746  1  0.822400  0.038400  0.260600  1.0  0.1262
  H  H747  1  0.756400  0.014000  0.341800  1.0  0.1309
  H  H748  1  0.734400  0.011400  0.315400  1.0  0.1035
  H  H749  1  0.734400  0.019800  0.451600  1.0  0.0919
  H  H750  1  0.755500  0.027700  0.399500  1.0  0.1329
  H  H751  1  0.840200  0.993400  0.406800  1.0  0.1299
  H  H752  1  0.816300  0.984100  0.459500  1.0  0.0963
  H  H753  1  0.979300  0.195700  0.056900  1.0  0.0893
  H  H754  1  0.975000  0.170800  0.108400  1.0  0.1242
  H  H755  1  0.998400  0.235400  0.102600  1.0  0.1339
  H  H756  1  0.004800  0.257000  0.050200  1.0  0.0966
  H  H757  1  0.944300  0.229300  0.024500  1.0  0.0898
  H  H758  1  0.892400  0.248200  0.031000  1.0  0.1334
  H  H759  1  0.894200  0.334600  0.000600  1.0  0.1314
  H  H760  1  0.946500  0.313300  0.992100  1.0  0.0941
  H  H761  1  0.798600  0.430200  0.034800  1.0  0.0974
  H  H762  1  0.822400  0.378600  0.038400  1.0  0.1255
  H  H763  1  0.756400  0.387800  0.014000  1.0  0.1305
  H  H764  1  0.734400  0.438800  0.011400  1.0  0.1017
  H  H765  1  0.734400  0.294200  0.019800  1.0  0.0925
  H  H766  1  0.755500  0.317300  0.027700  1.0  0.1316
  H  H767  1  0.840200  0.259600  0.993400  1.0  0.1295
  H  H768  1  0.816300  0.240100  0.984100  1.0  0.0961
  H  H769  1  0.268100  0.056900  0.195700  1.0  0.0909
  H  H770  1  0.245800  0.108400  0.170800  1.0  0.1248
  H  H771  1  0.163600  0.102600  0.235400  1.0  0.1331
  H  H772  1  0.188000  0.050200  0.257000  1.0  0.094
  H  H773  1  0.301900  0.024500  0.229300  1.0  0.0915
  H  H774  1  0.328400  0.031000  0.248200  1.0  0.1341
  H  H775  1  0.270600  0.000600  0.334600  1.0  0.1312
  H  H776  1  0.248100  0.992100  0.313300  1.0  0.0956
  H  H777  1  0.236400  0.034800  0.430200  1.0  0.0978
  H  H778  1  0.260600  0.038400  0.378600  1.0  0.1261
  H  H779  1  0.341800  0.014000  0.387800  1.0  0.1303
  H  H780  1  0.315400  0.011400  0.438800  1.0  0.103
  H  H781  1  0.451600  0.019800  0.294200  1.0  0.093
  H  H782  1  0.399500  0.027700  0.317300  1.0  0.1323
  H  H783  1  0.406800  0.993400  0.259600  1.0  0.1287
  H  H784  1  0.459500  0.984100  0.240100  1.0  0.0979
  H  H785  1  0.056900  0.268100  0.979300  1.0  0.0893
  H  H786  1  0.108400  0.245800  0.975000  1.0  0.1241
  H  H787  1  0.102600  0.163600  0.998400  1.0  0.1336
  H  H788  1  0.050200  0.188000  0.004800  1.0  0.0963
  H  H789  1  0.024500  0.301900  0.944300  1.0  0.0899
  H  H790  1  0.031000  0.328400  0.892400  1.0  0.1338
  H  H791  1  0.000600  0.270600  0.894200  1.0  0.1307
  H  H792  1  0.992100  0.248100  0.946500  1.0  0.0951
  H  H793  1  0.034800  0.236400  0.798600  1.0  0.0981
  H  H794  1  0.038400  0.260600  0.822400  1.0  0.1271
  H  H795  1  0.014000  0.341800  0.756400  1.0  0.1304
  H  H796  1  0.011400  0.315400  0.734400  1.0  0.1015
  H  H797  1  0.019800  0.451600  0.734400  1.0  0.0928
  H  H798  1  0.027700  0.399500  0.755500  1.0  0.1323
  H  H799  1  0.993400  0.406800  0.840200  1.0  0.1295
  H  H800  1  0.984100  0.459500  0.816300  1.0  0.0974
  H  H801  1  0.195700  0.979300  0.268100  1.0  0.0897
  H  H802  1  0.170800  0.975000  0.245800  1.0  0.1251
  H  H803  1  0.235400  0.998400  0.163600  1.0  0.1338
  H  H804  1  0.257000  0.004800  0.188000  1.0  0.0969
  H  H805  1  0.229300  0.944300  0.301900  1.0  0.0908
  H  H806  1  0.248200  0.892400  0.328400  1.0  0.1342
  H  H807  1  0.334600  0.894200  0.270600  1.0  0.1314
  H  H808  1  0.313300  0.946500  0.248100  1.0  0.0926
  H  H809  1  0.430200  0.798600  0.236400  1.0  0.0978
  H  H810  1  0.378600  0.822400  0.260600  1.0  0.1263
  H  H811  1  0.387800  0.756400  0.341800  1.0  0.1307
  H  H812  1  0.438800  0.734400  0.315400  1.0  0.0986
  H  H813  1  0.294200  0.734400  0.451600  1.0  0.093
  H  H814  1  0.317300  0.755500  0.399500  1.0  0.1322
  H  H815  1  0.259600  0.840200  0.406800  1.0  0.1296
  H  H816  1  0.240100  0.816300  0.459500  1.0  0.0967
  C  C817  1  0.686610  0.483050  0.686270  1.0  0.2083
  C  C818  1  0.746360  0.483680  0.703760  1.0  0.1773
  C  C819  1  0.733430  0.480470  0.688970  1.0  -0.1434
  C  C820  1  0.702670  0.485230  0.700850  1.0  -0.0658
  C  C821  1  0.685220  0.494540  0.726740  1.0  -0.118
  C  C822  1  0.700010  0.498050  0.739550  1.0  0.1719
  C  C823  1  0.808740  0.510380  0.689920  1.0  0.2531
  C  C824  1  0.795940  0.434020  0.751000  1.0  0.1799
  C  C825  1  0.811760  0.403000  0.762000  1.0  -0.1483
  C  C826  1  0.802990  0.387790  0.793330  1.0  -0.0748
  C  C827  1  0.777930  0.404230  0.812930  1.0  -0.1362
  C  C828  1  0.764380  0.435020  0.799980  1.0  0.182
  C  C829  1  0.820220  0.310320  0.846860  1.0  0.344
  C  C830  1  0.819660  0.355060  0.807140  1.0  0.2634
  C  C831  1  0.863740  0.314340  0.806360  1.0  0.3052
  C  C832  1  0.758180  0.290340  0.921520  1.0  0.174
  C  C833  1  0.772400  0.304620  0.890820  1.0  -0.1213
  C  C834  1  0.804140  0.292740  0.878080  1.0  -0.1096
  C  C835  1  0.820170  0.265850  0.896190  1.0  -0.1229
  C  C836  1  0.804250  0.252950  0.926570  1.0  0.1787
  C  C837  1  0.942390  0.256250  0.787790  1.0  0.1776
  C  C838  1  0.911330  0.268530  0.801430  1.0  -0.1253
  C  C839  1  0.897400  0.300360  0.791740  1.0  -0.097
  C  C840  1  0.915770  0.318410  0.767670  1.0  -0.1328
  C  C841  1  0.947030  0.303950  0.755950  1.0  0.1853
  C  C842  1  0.709220  0.319120  0.976920  1.0  0.1778
  C  C843  1  0.483050  0.686610  0.644070  1.0  0.2069
  C  C844  1  0.483680  0.746360  0.566200  1.0  0.1741
  C  C845  1  0.480470  0.733430  0.597130  1.0  -0.1451
  C  C846  1  0.485230  0.702670  0.611250  1.0  -0.0662
  C  C847  1  0.494540  0.685220  0.593500  1.0  -0.1195
  C  C848  1  0.498050  0.700010  0.562390  1.0  0.1704
  C  C849  1  0.510380  0.808740  0.490960  1.0  0.2503
  C  C850  1  0.434020  0.795940  0.519040  1.0  0.1801
  C  C851  1  0.403000  0.811760  0.523240  1.0  -0.1495
  C  C852  1  0.387790  0.802990  0.515890  1.0  -0.0761
  C  C853  1  0.404230  0.777930  0.504910  1.0  -0.1379
  C  C854  1  0.435020  0.764380  0.500620  1.0  0.1794
  C  C855  1  0.310320  0.820220  0.522600  1.0  0.3445
  C  C856  1  0.355060  0.819660  0.518140  1.0  0.2627
  C  C857  1  0.314340  0.863740  0.515560  1.0  0.3046
  C  C858  1  0.290340  0.758180  0.529960  1.0  0.1745
  C  C859  1  0.304620  0.772400  0.532160  1.0  -0.1205
  C  C860  1  0.292740  0.804140  0.525040  1.0  -0.1114
  C  C861  1  0.265850  0.820170  0.517790  1.0  -0.1236
  C  C862  1  0.252950  0.804250  0.516230  1.0  0.1774
  C  C863  1  0.256250  0.942390  0.513570  1.0  0.1758
  C  C864  1  0.268530  0.911330  0.518710  1.0  -0.1243
  C  C865  1  0.300360  0.897400  0.510500  1.0  -0.0958
  C  C866  1  0.318410  0.915770  0.498150  1.0  -0.1336
  C  C867  1  0.303950  0.947030  0.493070  1.0  0.1898
  C  C868  1  0.319120  0.709220  0.494740  1.0  0.1729
  C  C869  1  0.686270  0.644070  0.686610  1.0  0.208
  C  C870  1  0.703760  0.566200  0.746360  1.0  0.1789
  C  C871  1  0.688970  0.597130  0.733430  1.0  -0.1461
  C  C872  1  0.700850  0.611250  0.702670  1.0  -0.0645
  C  C873  1  0.726740  0.593500  0.685220  1.0  -0.1206
  C  C874  1  0.739550  0.562390  0.700010  1.0  0.1705
  C  C875  1  0.689920  0.490960  0.808740  1.0  0.2553
  C  C876  1  0.751000  0.519040  0.795940  1.0  0.1814
  C  C877  1  0.762000  0.523240  0.811760  1.0  -0.1464
  C  C878  1  0.793330  0.515890  0.802990  1.0  -0.0749
  C  C879  1  0.812930  0.504910  0.777930  1.0  -0.1331
  C  C880  1  0.799980  0.500620  0.764380  1.0  0.1825
  C  C881  1  0.846860  0.522600  0.820220  1.0  0.3446
  C  C882  1  0.807140  0.518140  0.819660  1.0  0.2625
  C  C883  1  0.806360  0.515560  0.863740  1.0  0.3047
  C  C884  1  0.921520  0.529960  0.758180  1.0  0.1695
  C  C885  1  0.890820  0.532160  0.772400  1.0  -0.124
  C  C886  1  0.878080  0.525040  0.804140  1.0  -0.1118
  C  C887  1  0.896190  0.517790  0.820170  1.0  -0.1258
  C  C888  1  0.926570  0.516230  0.804250  1.0  0.1763
  C  C889  1  0.787790  0.513570  0.942390  1.0  0.1799
  C  C890  1  0.801430  0.518710  0.911330  1.0  -0.1239
  C  C891  1  0.791740  0.510500  0.897400  1.0  -0.0957
  C  C892  1  0.767670  0.498150  0.915770  1.0  -0.135
  C  C893  1  0.755950  0.493070  0.947030  1.0  0.1854
  C  C894  1  0.976920  0.494740  0.709220  1.0  0.172
  C  C895  1  0.644070  0.686270  0.483050  1.0  0.2066
  C  C896  1  0.566200  0.703760  0.483680  1.0  0.1763
  C  C897  1  0.597130  0.688970  0.480470  1.0  -0.1461
  C  C898  1  0.611250  0.700850  0.485230  1.0  -0.0655
  C  C899  1  0.593500  0.726740  0.494540  1.0  -0.1205
  C  C900  1  0.562390  0.739550  0.498050  1.0  0.1697
  C  C901  1  0.490960  0.689920  0.510380  1.0  0.2501
  C  C902  1  0.519040  0.751000  0.434020  1.0  0.1798
  C  C903  1  0.523240  0.762000  0.403000  1.0  -0.1488
  C  C904  1  0.515890  0.793330  0.387790  1.0  -0.0756
  C  C905  1  0.504910  0.812930  0.404230  1.0  -0.137
  C  C906  1  0.500620  0.799980  0.435020  1.0  0.1797
  C  C907  1  0.522600  0.846860  0.310320  1.0  0.3445
  C  C908  1  0.518140  0.807140  0.355060  1.0  0.2626
  C  C909  1  0.515560  0.806360  0.314340  1.0  0.3046
  C  C910  1  0.529960  0.921520  0.290340  1.0  0.169
  C  C911  1  0.532160  0.890820  0.304620  1.0  -0.1216
  C  C912  1  0.525040  0.878080  0.292740  1.0  -0.1113
  C  C913  1  0.517790  0.896190  0.265850  1.0  -0.1236
  C  C914  1  0.516230  0.926570  0.252950  1.0  0.1766
  C  C915  1  0.513570  0.787790  0.256250  1.0  0.1784
  C  C916  1  0.518710  0.801430  0.268530  1.0  -0.1248
  C  C917  1  0.510500  0.791740  0.300360  1.0  -0.0969
  C  C918  1  0.498150  0.767670  0.318410  1.0  -0.1359
  C  C919  1  0.493070  0.755950  0.303950  1.0  0.1843
  C  C920  1  0.494740  0.976920  0.319120  1.0  0.1721
  C  C921  1  0.686270  0.686610  0.483050  1.0  0.2077
  C  C922  1  0.703760  0.746360  0.483680  1.0  0.1795
  C  C923  1  0.688970  0.733430  0.480470  1.0  -0.1449
  C  C924  1  0.700850  0.702670  0.485230  1.0  -0.0655
  C  C925  1  0.726740  0.685220  0.494540  1.0  -0.1197
  C  C926  1  0.739550  0.700010  0.498050  1.0  0.1703
  C  C927  1  0.689920  0.808740  0.510380  1.0  0.251
  C  C928  1  0.751000  0.795940  0.434020  1.0  0.1833
  C  C929  1  0.762000  0.811760  0.403000  1.0  -0.1463
  C  C930  1  0.793330  0.802990  0.387790  1.0  -0.0755
  C  C931  1  0.812930  0.777930  0.404230  1.0  -0.1348
  C  C932  1  0.799980  0.764380  0.435020  1.0  0.183
  C  C933  1  0.846860  0.820220  0.310320  1.0  0.3438
  C  C934  1  0.807140  0.819660  0.355060  1.0  0.2627
  C  C935  1  0.806360  0.863740  0.314340  1.0  0.3048
  C  C936  1  0.921520  0.758180  0.290340  1.0  0.1756
  C  C937  1  0.890820  0.772400  0.304620  1.0  -0.1198
  C  C938  1  0.878080  0.804140  0.292740  1.0  -0.1116
  C  C939  1  0.896190  0.820170  0.265850  1.0  -0.1236
  C  C940  1  0.926570  0.804250  0.252950  1.0  0.1768
  C  C941  1  0.787790  0.942390  0.256250  1.0  0.175
  C  C942  1  0.801430  0.911330  0.268530  1.0  -0.1272
  C  C943  1  0.791740  0.897400  0.300360  1.0  -0.0955
  C  C944  1  0.767670  0.915770  0.318410  1.0  -0.1369
  C  C945  1  0.755950  0.947030  0.303950  1.0  0.1845
  C  C946  1  0.976920  0.709220  0.319120  1.0  0.162
  C  C947  1  0.644070  0.483050  0.686610  1.0  0.2076
  C  C948  1  0.566200  0.483680  0.746360  1.0  0.1772
  C  C949  1  0.597130  0.480470  0.733430  1.0  -0.145
  C  C950  1  0.611250  0.485230  0.702670  1.0  -0.0661
  C  C951  1  0.593500  0.494540  0.685220  1.0  -0.1209
  C  C952  1  0.562390  0.498050  0.700010  1.0  0.1682
  C  C953  1  0.490960  0.510380  0.808740  1.0  0.2534
  C  C954  1  0.519040  0.434020  0.795940  1.0  0.179
  C  C955  1  0.523240  0.403000  0.811760  1.0  -0.1463
  C  C956  1  0.515890  0.387790  0.802990  1.0  -0.0754
  C  C957  1  0.504910  0.404230  0.777930  1.0  -0.1371
  C  C958  1  0.500620  0.435020  0.764380  1.0  0.1771
  C  C959  1  0.522600  0.310320  0.820220  1.0  0.3439
  C  C960  1  0.518140  0.355060  0.819660  1.0  0.2632
  C  C961  1  0.515560  0.314340  0.863740  1.0  0.3037
  C  C962  1  0.529960  0.290340  0.758180  1.0  0.1758
  C  C963  1  0.532160  0.304620  0.772400  1.0  -0.1179
  C  C964  1  0.525040  0.292740  0.804140  1.0  -0.1134
  C  C965  1  0.517790  0.265850  0.820170  1.0  -0.1254
  C  C966  1  0.516230  0.252950  0.804250  1.0  0.1756
  C  C967  1  0.513570  0.256250  0.942390  1.0  0.1726
  C  C968  1  0.518710  0.268530  0.911330  1.0  -0.1269
  C  C969  1  0.510500  0.300360  0.897400  1.0  -0.0961
  C  C970  1  0.498150  0.318410  0.915770  1.0  -0.133
  C  C971  1  0.493070  0.303950  0.947030  1.0  0.1847
  C  C972  1  0.494740  0.319120  0.709220  1.0  0.1783
  C  C973  1  0.686610  0.686270  0.644070  1.0  0.208
  C  C974  1  0.746360  0.703760  0.566200  1.0  0.1779
  C  C975  1  0.733430  0.688970  0.597130  1.0  -0.1445
  C  C976  1  0.702670  0.700850  0.611250  1.0  -0.0648
  C  C977  1  0.685220  0.726740  0.593500  1.0  -0.1186
  C  C978  1  0.700010  0.739550  0.562390  1.0  0.1709
  C  C979  1  0.808740  0.689920  0.490960  1.0  0.2498
  C  C980  1  0.795940  0.751000  0.519040  1.0  0.1831
  C  C981  1  0.811760  0.762000  0.523240  1.0  -0.148
  C  C982  1  0.802990  0.793330  0.515890  1.0  -0.0771
  C  C983  1  0.777930  0.812930  0.504910  1.0  -0.137
  C  C984  1  0.764380  0.799980  0.500620  1.0  0.1782
  C  C985  1  0.820220  0.846860  0.522600  1.0  0.3448
  C  C986  1  0.819660  0.807140  0.518140  1.0  0.2625
  C  C987  1  0.863740  0.806360  0.515560  1.0  0.3045
  C  C988  1  0.758180  0.921520  0.529960  1.0  0.1727
  C  C989  1  0.772400  0.890820  0.532160  1.0  -0.1209
  C  C990  1  0.804140  0.878080  0.525040  1.0  -0.1106
  C  C991  1  0.820170  0.896190  0.517790  1.0  -0.1214
  C  C992  1  0.804250  0.926570  0.516230  1.0  0.1798
  C  C993  1  0.942390  0.787790  0.513570  1.0  0.1765
  C  C994  1  0.911330  0.801430  0.518710  1.0  -0.1286
  C  C995  1  0.897400  0.791740  0.510500  1.0  -0.0968
  C  C996  1  0.915770  0.767670  0.498150  1.0  -0.1365
  C  C997  1  0.947030  0.755950  0.493070  1.0  0.1852
  C  C998  1  0.709220  0.976920  0.494740  1.0  0.1732
  C  C999  1  0.483050  0.644070  0.686270  1.0  0.207
  C  C1000  1  0.483680  0.566200  0.703760  1.0  0.1755
  C  C1001  1  0.480470  0.597130  0.688970  1.0  -0.1436
  C  C1002  1  0.485230  0.611250  0.700850  1.0  -0.0649
  C  C1003  1  0.494540  0.593500  0.726740  1.0  -0.1216
  C  C1004  1  0.498050  0.562390  0.739550  1.0  0.168
  C  C1005  1  0.510380  0.490960  0.689920  1.0  0.2553
  C  C1006  1  0.434020  0.519040  0.751000  1.0  0.1781
  C  C1007  1  0.403000  0.523240  0.762000  1.0  -0.1476
  C  C1008  1  0.387790  0.515890  0.793330  1.0  -0.0756
  C  C1009  1  0.404230  0.504910  0.812930  1.0  -0.1379
  C  C1010  1  0.435020  0.500620  0.799980  1.0  0.1779
  C  C1011  1  0.310320  0.522600  0.846860  1.0  0.3446
  C  C1012  1  0.355060  0.518140  0.807140  1.0  0.2631
  C  C1013  1  0.314340  0.515560  0.806360  1.0  0.3049
  C  C1014  1  0.290340  0.529960  0.921520  1.0  0.1765
  C  C1015  1  0.304620  0.532160  0.890820  1.0  -0.1179
  C  C1016  1  0.292740  0.525040  0.878080  1.0  -0.1094
  C  C1017  1  0.265850  0.517790  0.896190  1.0  -0.1232
  C  C1018  1  0.252950  0.516230  0.926570  1.0  0.1769
  C  C1019  1  0.256250  0.513570  0.787790  1.0  0.1757
  C  C1020  1  0.268530  0.518710  0.801430  1.0  -0.1265
  C  C1021  1  0.300360  0.510500  0.791740  1.0  -0.0987
  C  C1022  1  0.318410  0.498150  0.767670  1.0  -0.1328
  C  C1023  1  0.303950  0.493070  0.755950  1.0  0.1884
  C  C1024  1  0.319120  0.494740  0.976920  1.0  0.1749
  C  C1025  1  0.483050  0.686270  0.686610  1.0  0.2074
  C  C1026  1  0.483680  0.703760  0.746360  1.0  0.1815
  C  C1027  1  0.480470  0.688970  0.733430  1.0  -0.1426
  C  C1028  1  0.485230  0.700850  0.702670  1.0  -0.0666
  C  C1029  1  0.494540  0.726740  0.685220  1.0  -0.1211
  C  C1030  1  0.498050  0.739550  0.700010  1.0  0.1673
  C  C1031  1  0.510380  0.689920  0.808740  1.0  0.2454
  C  C1032  1  0.434020  0.751000  0.795940  1.0  0.1835
  C  C1033  1  0.403000  0.762000  0.811760  1.0  -0.1468
  C  C1034  1  0.387790  0.793330  0.802990  1.0  -0.0761
  C  C1035  1  0.404230  0.812930  0.777930  1.0  -0.1374
  C  C1036  1  0.435020  0.799980  0.764380  1.0  0.1773
  C  C1037  1  0.310320  0.846860  0.820220  1.0  0.3448
  C  C1038  1  0.355060  0.807140  0.819660  1.0  0.2628
  C  C1039  1  0.314340  0.806360  0.863740  1.0  0.3044
  C  C1040  1  0.290340  0.921520  0.758180  1.0  0.1705
  C  C1041  1  0.304620  0.890820  0.772400  1.0  -0.1212
  C  C1042  1  0.292740  0.878080  0.804140  1.0  -0.1107
  C  C1043  1  0.265850  0.896190  0.820170  1.0  -0.1259
  C  C1044  1  0.252950  0.926570  0.804250  1.0  0.1784
  C  C1045  1  0.256250  0.787790  0.942390  1.0  0.1778
  C  C1046  1  0.268530  0.801430  0.911330  1.0  -0.1256
  C  C1047  1  0.300360  0.791740  0.897400  1.0  -0.098
  C  C1048  1  0.318410  0.767670  0.915770  1.0  -0.1334
  C  C1049  1  0.303950  0.755950  0.947030  1.0  0.1897
  C  C1050  1  0.319120  0.976920  0.709220  1.0  0.1752
  C  C1051  1  0.686610  0.644070  0.483050  1.0  0.2079
  C  C1052  1  0.746360  0.566200  0.483680  1.0  0.1788
  C  C1053  1  0.733430  0.597130  0.480470  1.0  -0.1434
  C  C1054  1  0.702670  0.611250  0.485230  1.0  -0.064
  C  C1055  1  0.685220  0.593500  0.494540  1.0  -0.119
  C  C1056  1  0.700010  0.562390  0.498050  1.0  0.1697
  C  C1057  1  0.808740  0.490960  0.510380  1.0  0.252
  C  C1058  1  0.795940  0.519040  0.434020  1.0  0.1837
  C  C1059  1  0.811760  0.523240  0.403000  1.0  -0.1439
  C  C1060  1  0.802990  0.515890  0.387790  1.0  -0.0751
  C  C1061  1  0.777930  0.504910  0.404230  1.0  -0.1347
  C  C1062  1  0.764380  0.500620  0.435020  1.0  0.1773
  C  C1063  1  0.820220  0.522600  0.310320  1.0  0.3441
  C  C1064  1  0.819660  0.518140  0.355060  1.0  0.2627
  C  C1065  1  0.863740  0.515560  0.314340  1.0  0.3053
  C  C1066  1  0.758180  0.529960  0.290340  1.0  0.1707
  C  C1067  1  0.772400  0.532160  0.304620  1.0  -0.1223
  C  C1068  1  0.804140  0.525040  0.292740  1.0  -0.1138
  C  C1069  1  0.820170  0.517790  0.265850  1.0  -0.1204
  C  C1070  1  0.804250  0.516230  0.252950  1.0  0.1791
  C  C1071  1  0.942390  0.513570  0.256250  1.0  0.1738
  C  C1072  1  0.911330  0.518710  0.268530  1.0  -0.1288
  C  C1073  1  0.897400  0.510500  0.300360  1.0  -0.0966
  C  C1074  1  0.915770  0.498150  0.318410  1.0  -0.1373
  C  C1075  1  0.947030  0.493070  0.303950  1.0  0.1838
  C  C1076  1  0.709220  0.494740  0.319120  1.0  0.171
  C  C1077  1  0.644070  0.686610  0.686270  1.0  0.2065
  C  C1078  1  0.566200  0.746360  0.703760  1.0  0.1807
  C  C1079  1  0.597130  0.733430  0.688970  1.0  -0.1428
  C  C1080  1  0.611250  0.702670  0.700850  1.0  -0.0672
  C  C1081  1  0.593500  0.685220  0.726740  1.0  -0.1187
  C  C1082  1  0.562390  0.700010  0.739550  1.0  0.169
  C  C1083  1  0.490960  0.808740  0.689920  1.0  0.2515
  C  C1084  1  0.519040  0.795940  0.751000  1.0  0.183
  C  C1085  1  0.523240  0.811760  0.762000  1.0  -0.1453
  C  C1086  1  0.515890  0.802990  0.793330  1.0  -0.0766
  C  C1087  1  0.504910  0.777930  0.812930  1.0  -0.1365
  C  C1088  1  0.500620  0.764380  0.799980  1.0  0.1787
  C  C1089  1  0.522600  0.820220  0.846860  1.0  0.3445
  C  C1090  1  0.518140  0.819660  0.807140  1.0  0.2625
  C  C1091  1  0.515560  0.863740  0.806360  1.0  0.3049
  C  C1092  1  0.529960  0.758180  0.921520  1.0  0.1703
  C  C1093  1  0.532160  0.772400  0.890820  1.0  -0.1218
  C  C1094  1  0.525040  0.804140  0.878080  1.0  -0.1131
  C  C1095  1  0.517790  0.820170  0.896190  1.0  -0.1237
  C  C1096  1  0.516230  0.804250  0.926570  1.0  0.1785
  C  C1097  1  0.513570  0.942390  0.787790  1.0  0.1754
  C  C1098  1  0.518710  0.911330  0.801430  1.0  -0.1274
  C  C1099  1  0.510500  0.897400  0.791740  1.0  -0.0956
  C  C1100  1  0.498150  0.915770  0.767670  1.0  -0.1367
  C  C1101  1  0.493070  0.947030  0.755950  1.0  0.1852
  C  C1102  1  0.494740  0.709220  0.976920  1.0  0.1685
  C  C1103  1  0.686270  0.483050  0.644070  1.0  0.2078
  C  C1104  1  0.703760  0.483680  0.566200  1.0  0.1813
  C  C1105  1  0.688970  0.480470  0.597130  1.0  -0.1415
  C  C1106  1  0.700850  0.485230  0.611250  1.0  -0.0642
  C  C1107  1  0.726740  0.494540  0.593500  1.0  -0.1202
  C  C1108  1  0.739550  0.498050  0.562390  1.0  0.169
  C  C1109  1  0.689920  0.510380  0.490960  1.0  0.2535
  C  C1110  1  0.751000  0.434020  0.519040  1.0  0.1833
  C  C1111  1  0.762000  0.403000  0.523240  1.0  -0.1455
  C  C1112  1  0.793330  0.387790  0.515890  1.0  -0.0754
  C  C1113  1  0.812930  0.404230  0.504910  1.0  -0.1344
  C  C1114  1  0.799980  0.435020  0.500620  1.0  0.1826
  C  C1115  1  0.846860  0.310320  0.522600  1.0  0.3438
  C  C1116  1  0.807140  0.355060  0.518140  1.0  0.263
  C  C1117  1  0.806360  0.314340  0.515560  1.0  0.305
  C  C1118  1  0.921520  0.290340  0.529960  1.0  0.1703
  C  C1119  1  0.890820  0.304620  0.532160  1.0  -0.1232
  C  C1120  1  0.878080  0.292740  0.525040  1.0  -0.1113
  C  C1121  1  0.896190  0.265850  0.517790  1.0  -0.1257
  C  C1122  1  0.926570  0.252950  0.516230  1.0  0.178
  C  C1123  1  0.787790  0.256250  0.513570  1.0  0.1778
  C  C1124  1  0.801430  0.268530  0.518710  1.0  -0.1265
  C  C1125  1  0.791740  0.300360  0.510500  1.0  -0.0978
  C  C1126  1  0.767670  0.318410  0.498150  1.0  -0.1329
  C  C1127  1  0.755950  0.303950  0.493070  1.0  0.1863
  C  C1128  1  0.976920  0.319120  0.494740  1.0  0.1782
  C  C1129  1  0.813390  0.016950  0.855930  1.0  0.2073
  C  C1130  1  0.753640  0.016320  0.933800  1.0  0.1778
  C  C1131  1  0.766570  0.019530  0.902870  1.0  -0.1428
  C  C1132  1  0.797330  0.014770  0.888750  1.0  -0.0658
  C  C1133  1  0.814780  0.005460  0.906500  1.0  -0.1145
  C  C1134  1  0.799990  0.001950  0.937610  1.0  0.1727
  C  C1135  1  0.691260  0.989620  0.009040  1.0  0.2548
  C  C1136  1  0.704060  0.065980  0.980960  1.0  0.1809
  C  C1137  1  0.688240  0.097000  0.976760  1.0  -0.1482
  C  C1138  1  0.697010  0.112210  0.984110  1.0  -0.0742
  C  C1139  1  0.722070  0.095770  0.995090  1.0  -0.1363
  C  C1140  1  0.735620  0.064980  0.999380  1.0  0.1805
  C  C1141  1  0.679780  0.189680  0.977400  1.0  0.3447
  C  C1142  1  0.680340  0.144940  0.981860  1.0  0.2628
  C  C1143  1  0.636260  0.185660  0.984440  1.0  0.3054
  C  C1144  1  0.741820  0.209660  0.970040  1.0  0.1732
  C  C1145  1  0.727600  0.195380  0.967840  1.0  -0.1195
  C  C1146  1  0.695860  0.207260  0.974960  1.0  -0.1101
  C  C1147  1  0.679830  0.234150  0.982210  1.0  -0.124
  C  C1148  1  0.695750  0.247050  0.983770  1.0  0.1783
  C  C1149  1  0.557610  0.243750  0.986430  1.0  0.178
  C  C1150  1  0.588670  0.231470  0.981290  1.0  -0.1244
  C  C1151  1  0.602600  0.199640  0.989500  1.0  -0.0976
  C  C1152  1  0.584230  0.181590  0.001850  1.0  -0.1332
  C  C1153  1  0.552970  0.196050  0.006930  1.0  0.1872
  C  C1154  1  0.790780  0.180880  0.005260  1.0  0.1742
  C  C1155  1  0.016950  0.813390  0.813730  1.0  0.2076
  C  C1156  1  0.016320  0.753640  0.796240  1.0  0.1748
  C  C1157  1  0.019530  0.766570  0.811030  1.0  -0.1454
  C  C1158  1  0.014770  0.797330  0.799150  1.0  -0.0666
  C  C1159  1  0.005460  0.814780  0.773260  1.0  -0.1192
  C  C1160  1  0.001950  0.799990  0.760450  1.0  0.17
  C  C1161  1  0.989620  0.691260  0.810080  1.0  0.2494
  C  C1162  1  0.065980  0.704060  0.749000  1.0  0.1794
  C  C1163  1  0.097000  0.688240  0.738000  1.0  -0.1477
  C  C1164  1  0.112210  0.697010  0.706670  1.0  -0.0768
  C  C1165  1  0.095770  0.722070  0.687070  1.0  -0.1383
  C  C1166  1  0.064980  0.735620  0.700020  1.0  0.179
  C  C1167  1  0.189680  0.679780  0.653140  1.0  0.3445
  C  C1168  1  0.144940  0.680340  0.692860  1.0  0.2629
  C  C1169  1  0.185660  0.636260  0.693640  1.0  0.3045
  C  C1170  1  0.209660  0.741820  0.578480  1.0  0.1731
  C  C1171  1  0.195380  0.727600  0.609180  1.0  -0.1233
  C  C1172  1  0.207260  0.695860  0.621920  1.0  -0.1108
  C  C1173  1  0.234150  0.679830  0.603810  1.0  -0.1237
  C  C1174  1  0.247050  0.695750  0.573430  1.0  0.177
  C  C1175  1  0.243750  0.557610  0.712210  1.0  0.177
  C  C1176  1  0.231470  0.588670  0.698570  1.0  -0.123
  C  C1177  1  0.199640  0.602600  0.708260  1.0  -0.096
  C  C1178  1  0.181590  0.584230  0.732330  1.0  -0.1357
  C  C1179  1  0.196050  0.552970  0.744050  1.0  0.1883
  C  C1180  1  0.180880  0.790780  0.523080  1.0  0.1737
  C  C1181  1  0.813730  0.855930  0.016950  1.0  0.2078
  C  C1182  1  0.796240  0.933800  0.016320  1.0  0.1779
  C  C1183  1  0.811030  0.902870  0.019530  1.0  -0.1446
  C  C1184  1  0.799150  0.888750  0.014770  1.0  -0.0659
  C  C1185  1  0.773260  0.906500  0.005460  1.0  -0.1193
  C  C1186  1  0.760450  0.937610  0.001950  1.0  0.1717
  C  C1187  1  0.810080  0.009040  0.989620  1.0  0.2536
  C  C1188  1  0.749000  0.980960  0.065980  1.0  0.182
  C  C1189  1  0.738000  0.976760  0.097000  1.0  -0.1448
  C  C1190  1  0.706670  0.984110  0.112210  1.0  -0.0747
  C  C1191  1  0.687070  0.995090  0.095770  1.0  -0.1361
  C  C1192  1  0.700020  0.999380  0.064980  1.0  0.1846
  C  C1193  1  0.653140  0.977400  0.189680  1.0  0.3447
  C  C1194  1  0.692860  0.981860  0.144940  1.0  0.2624
  C  C1195  1  0.693640  0.984440  0.185660  1.0  0.3046
  C  C1196  1  0.578480  0.970040  0.209660  1.0  0.1701
  C  C1197  1  0.609180  0.967840  0.195380  1.0  -0.1241
  C  C1198  1  0.621920  0.974960  0.207260  1.0  -0.1122
  C  C1199  1  0.603810  0.982210  0.234150  1.0  -0.1257
  C  C1200  1  0.573430  0.983770  0.247050  1.0  0.1757
  C  C1201  1  0.712210  0.986430  0.243750  1.0  0.1799
  C  C1202  1  0.698570  0.981290  0.231470  1.0  -0.1256
  C  C1203  1  0.708260  0.989500  0.199640  1.0  -0.0964
  C  C1204  1  0.732330  0.001850  0.181590  1.0  -0.1354
  C  C1205  1  0.744050  0.006930  0.196050  1.0  0.1862
  C  C1206  1  0.523080  0.005260  0.180880  1.0  0.1721
  C  C1207  1  0.855930  0.813730  0.813390  1.0  0.2072
  C  C1208  1  0.933800  0.796240  0.753640  1.0  0.1768
  C  C1209  1  0.902870  0.811030  0.766570  1.0  -0.1451
  C  C1210  1  0.888750  0.799150  0.797330  1.0  -0.0669
  C  C1211  1  0.906500  0.773260  0.814780  1.0  -0.1209
  C  C1212  1  0.937610  0.760450  0.799990  1.0  0.1698
  C  C1213  1  0.009040  0.810080  0.691260  1.0  0.2505
  C  C1214  1  0.980960  0.749000  0.704060  1.0  0.1794
  C  C1215  1  0.976760  0.738000  0.688240  1.0  -0.1481
  C  C1216  1  0.984110  0.706670  0.697010  1.0  -0.0758
  C  C1217  1  0.995090  0.687070  0.722070  1.0  -0.1365
  C  C1218  1  0.999380  0.700020  0.735620  1.0  0.1825
  C  C1219  1  0.977400  0.653140  0.679780  1.0  0.3441
  C  C1220  1  0.981860  0.692860  0.680340  1.0  0.2629
  C  C1221  1  0.984440  0.693640  0.636260  1.0  0.3047
  C  C1222  1  0.970040  0.578480  0.741820  1.0  0.1688
  C  C1223  1  0.967840  0.609180  0.727600  1.0  -0.1238
  C  C1224  1  0.974960  0.621920  0.695860  1.0  -0.1105
  C  C1225  1  0.982210  0.603810  0.679830  1.0  -0.1242
  C  C1226  1  0.983770  0.573430  0.695750  1.0  0.1766
  C  C1227  1  0.986430  0.712210  0.557610  1.0  0.1784
  C  C1228  1  0.981290  0.698570  0.588670  1.0  -0.1264
  C  C1229  1  0.989500  0.708260  0.602600  1.0  -0.0974
  C  C1230  1  0.001850  0.732330  0.584230  1.0  -0.135
  C  C1231  1  0.006930  0.744050  0.552970  1.0  0.1834
  C  C1232  1  0.005260  0.523080  0.790780  1.0  0.1736
  C  C1233  1  0.813730  0.813390  0.855930  1.0  0.2067
  C  C1234  1  0.796240  0.753640  0.933800  1.0  0.1795
  C  C1235  1  0.811030  0.766570  0.902870  1.0  -0.1449
  C  C1236  1  0.799150  0.797330  0.888750  1.0  -0.0644
  C  C1237  1  0.773260  0.814780  0.906500  1.0  -0.1187
  C  C1238  1  0.760450  0.799990  0.937610  1.0  0.1691
  C  C1239  1  0.810080  0.691260  0.009040  1.0  0.2504
  C  C1240  1  0.749000  0.704060  0.980960  1.0  0.183
  C  C1241  1  0.738000  0.688240  0.976760  1.0  -0.1466
  C  C1242  1  0.706670  0.697010  0.984110  1.0  -0.0762
  C  C1243  1  0.687070  0.722070  0.995090  1.0  -0.1369
  C  C1244  1  0.700020  0.735620  0.999380  1.0  0.1834
  C  C1245  1  0.653140  0.679780  0.977400  1.0  0.3441
  C  C1246  1  0.692860  0.680340  0.981860  1.0  0.2633
  C  C1247  1  0.693640  0.636260  0.984440  1.0  0.3048
  C  C1248  1  0.578480  0.741820  0.970040  1.0  0.1759
  C  C1249  1  0.609180  0.727600  0.967840  1.0  -0.1187
  C  C1250  1  0.621920  0.695860  0.974960  1.0  -0.1116
  C  C1251  1  0.603810  0.679830  0.982210  1.0  -0.1229
  C  C1252  1  0.573430  0.695750  0.983770  1.0  0.1772
  C  C1253  1  0.712210  0.557610  0.986430  1.0  0.1753
  C  C1254  1  0.698570  0.588670  0.981290  1.0  -0.1263
  C  C1255  1  0.708260  0.602600  0.989500  1.0  -0.0957
  C  C1256  1  0.732330  0.584230  0.001850  1.0  -0.136
  C  C1257  1  0.744050  0.552970  0.006930  1.0  0.1844
  C  C1258  1  0.523080  0.790780  0.005260  1.0  0.1694
  C  C1259  1  0.855930  0.016950  0.813730  1.0  0.2083
  C  C1260  1  0.933800  0.016320  0.796240  1.0  0.1764
  C  C1261  1  0.902870  0.019530  0.811030  1.0  -0.1456
  C  C1262  1  0.888750  0.014770  0.799150  1.0  -0.0672
  C  C1263  1  0.906500  0.005460  0.773260  1.0  -0.1202
  C  C1264  1  0.937610  0.001950  0.760450  1.0  0.1673
  C  C1265  1  0.009040  0.989620  0.810080  1.0  0.2539
  C  C1266  1  0.980960  0.065980  0.749000  1.0  0.1793
  C  C1267  1  0.976760  0.097000  0.738000  1.0  -0.1475
  C  C1268  1  0.984110  0.112210  0.706670  1.0  -0.0744
  C  C1269  1  0.995090  0.095770  0.687070  1.0  -0.1395
  C  C1270  1  0.999380  0.064980  0.700020  1.0  0.1752
  C  C1271  1  0.977400  0.189680  0.653140  1.0  0.3442
  C  C1272  1  0.981860  0.144940  0.692860  1.0  0.2627
  C  C1273  1  0.984440  0.185660  0.693640  1.0  0.3038
  C  C1274  1  0.970040  0.209660  0.578480  1.0  0.1755
  C  C1275  1  0.967840  0.195380  0.609180  1.0  -0.1203
  C  C1276  1  0.974960  0.207260  0.621920  1.0  -0.1133
  C  C1277  1  0.982210  0.234150  0.603810  1.0  -0.1262
  C  C1278  1  0.983770  0.247050  0.573430  1.0  0.1752
  C  C1279  1  0.986430  0.243750  0.712210  1.0  0.1726
  C  C1280  1  0.981290  0.231470  0.698570  1.0  -0.127
  C  C1281  1  0.989500  0.199640  0.708260  1.0  -0.097
  C  C1282  1  0.001850  0.181590  0.732330  1.0  -0.133
  C  C1283  1  0.006930  0.196050  0.744050  1.0  0.1875
  C  C1284  1  0.005260  0.180880  0.523080  1.0  0.1742
  C  C1285  1  0.813390  0.813730  0.016950  1.0  0.2066
  C  C1286  1  0.753640  0.796240  0.016320  1.0  0.1781
  C  C1287  1  0.766570  0.811030  0.019530  1.0  -0.1447
  C  C1288  1  0.797330  0.799150  0.014770  1.0  -0.0644
  C  C1289  1  0.814780  0.773260  0.005460  1.0  -0.1166
  C  C1290  1  0.799990  0.760450  0.001950  1.0  0.1725
  C  C1291  1  0.691260  0.810080  0.989620  1.0  0.2514
  C  C1292  1  0.704060  0.749000  0.065980  1.0  0.1825
  C  C1293  1  0.688240  0.738000  0.097000  1.0  -0.148
  C  C1294  1  0.697010  0.706670  0.112210  1.0  -0.0769
  C  C1295  1  0.722070  0.687070  0.095770  1.0  -0.1365
  C  C1296  1  0.735620  0.700020  0.064980  1.0  0.18
  C  C1297  1  0.679780  0.653140  0.189680  1.0  0.3445
  C  C1298  1  0.680340  0.692860  0.144940  1.0  0.2628
  C  C1299  1  0.636260  0.693640  0.185660  1.0  0.3045
  C  C1300  1  0.741820  0.578480  0.209660  1.0  0.174
  C  C1301  1  0.727600  0.609180  0.195380  1.0  -0.1191
  C  C1302  1  0.695860  0.621920  0.207260  1.0  -0.1102
  C  C1303  1  0.679830  0.603810  0.234150  1.0  -0.1239
  C  C1304  1  0.695750  0.573430  0.247050  1.0  0.1779
  C  C1305  1  0.557610  0.712210  0.243750  1.0  0.1769
  C  C1306  1  0.588670  0.698570  0.231470  1.0  -0.1277
  C  C1307  1  0.602600  0.708260  0.199640  1.0  -0.098
  C  C1308  1  0.584230  0.732330  0.181590  1.0  -0.1371
  C  C1309  1  0.552970  0.744050  0.196050  1.0  0.1851
  C  C1310  1  0.790780  0.523080  0.180880  1.0  0.1731
  C  C1311  1  0.016950  0.855930  0.813390  1.0  0.2074
  C  C1312  1  0.016320  0.933800  0.753640  1.0  0.1741
  C  C1313  1  0.019530  0.902870  0.766570  1.0  -0.1442
  C  C1314  1  0.014770  0.888750  0.797330  1.0  -0.0662
  C  C1315  1  0.005460  0.906500  0.814780  1.0  -0.1211
  C  C1316  1  0.001950  0.937610  0.799990  1.0  0.1672
  C  C1317  1  0.989620  0.009040  0.691260  1.0  0.2565
  C  C1318  1  0.065980  0.980960  0.704060  1.0  0.1785
  C  C1319  1  0.097000  0.976760  0.688240  1.0  -0.147
  C  C1320  1  0.112210  0.984110  0.697010  1.0  -0.0759
  C  C1321  1  0.095770  0.995090  0.722070  1.0  -0.1375
  C  C1322  1  0.064980  0.999380  0.735620  1.0  0.177
  C  C1323  1  0.189680  0.977400  0.679780  1.0  0.3445
  C  C1324  1  0.144940  0.981860  0.680340  1.0  0.2627
  C  C1325  1  0.185660  0.984440  0.636260  1.0  0.3049
  C  C1326  1  0.209660  0.970040  0.741820  1.0  0.1768
  C  C1327  1  0.195380  0.967840  0.727600  1.0  -0.12
  C  C1328  1  0.207260  0.974960  0.695860  1.0  -0.1109
  C  C1329  1  0.234150  0.982210  0.679830  1.0  -0.123
  C  C1330  1  0.247050  0.983770  0.695750  1.0  0.1763
  C  C1331  1  0.243750  0.986430  0.557610  1.0  0.1756
  C  C1332  1  0.231470  0.981290  0.588670  1.0  -0.1257
  C  C1333  1  0.199640  0.989500  0.602600  1.0  -0.0983
  C  C1334  1  0.181590  0.001850  0.584230  1.0  -0.1342
  C  C1335  1  0.196050  0.006930  0.552970  1.0  0.1888
  C  C1336  1  0.180880  0.005260  0.790780  1.0  0.1758
  C  C1337  1  0.016950  0.813730  0.855930  1.0  0.2078
  C  C1338  1  0.016320  0.796240  0.933800  1.0  0.1797
  C  C1339  1  0.019530  0.811030  0.902870  1.0  -0.1425
  C  C1340  1  0.014770  0.799150  0.888750  1.0  -0.0665
  C  C1341  1  0.005460  0.773260  0.906500  1.0  -0.1208
  C  C1342  1  0.001950  0.760450  0.937610  1.0  0.1675
  C  C1343  1  0.989620  0.810080  0.009040  1.0  0.2518
  C  C1344  1  0.065980  0.749000  0.980960  1.0  0.1838
  C  C1345  1  0.097000  0.738000  0.976760  1.0  -0.1456
  C  C1346  1  0.112210  0.706670  0.984110  1.0  -0.0769
  C  C1347  1  0.095770  0.687070  0.995090  1.0  -0.1369
  C  C1348  1  0.064980  0.700020  0.999380  1.0  0.1789
  C  C1349  1  0.189680  0.653140  0.977400  1.0  0.3446
  C  C1350  1  0.144940  0.692860  0.981860  1.0  0.2628
  C  C1351  1  0.185660  0.693640  0.984440  1.0  0.3045
  C  C1352  1  0.209660  0.578480  0.970040  1.0  0.1711
  C  C1353  1  0.195380  0.609180  0.967840  1.0  -0.1219
  C  C1354  1  0.207260  0.621920  0.974960  1.0  -0.1107
  C  C1355  1  0.234150  0.603810  0.982210  1.0  -0.1249
  C  C1356  1  0.247050  0.573430  0.983770  1.0  0.1782
  C  C1357  1  0.243750  0.712210  0.986430  1.0  0.1779
  C  C1358  1  0.231470  0.698570  0.981290  1.0  -0.1273
  C  C1359  1  0.199640  0.708260  0.989500  1.0  -0.0985
  C  C1360  1  0.181590  0.732330  0.001850  1.0  -0.1359
  C  C1361  1  0.196050  0.744050  0.006930  1.0  0.1887
  C  C1362  1  0.180880  0.523080  0.005260  1.0  0.1762
  C  C1363  1  0.813390  0.855930  0.813730  1.0  0.2078
  C  C1364  1  0.753640  0.933800  0.796240  1.0  0.1795
  C  C1365  1  0.766570  0.902870  0.811030  1.0  -0.145
  C  C1366  1  0.797330  0.888750  0.799150  1.0  -0.065
  C  C1367  1  0.814780  0.906500  0.773260  1.0  -0.1167
  C  C1368  1  0.799990  0.937610  0.760450  1.0  0.1717
  C  C1369  1  0.691260  0.009040  0.810080  1.0  0.2532
  C  C1370  1  0.704060  0.980960  0.749000  1.0  0.1855
  C  C1371  1  0.688240  0.976760  0.738000  1.0  -0.1447
  C  C1372  1  0.697010  0.984110  0.706670  1.0  -0.0747
  C  C1373  1  0.722070  0.995090  0.687070  1.0  -0.136
  C  C1374  1  0.735620  0.999380  0.700020  1.0  0.1772
  C  C1375  1  0.679780  0.977400  0.653140  1.0  0.3442
  C  C1376  1  0.680340  0.981860  0.692860  1.0  0.2628
  C  C1377  1  0.636260  0.984440  0.693640  1.0  0.3053
  C  C1378  1  0.741820  0.970040  0.578480  1.0  0.1713
  C  C1379  1  0.727600  0.967840  0.609180  1.0  -0.1204
  C  C1380  1  0.695860  0.974960  0.621920  1.0  -0.1146
  C  C1381  1  0.679830  0.982210  0.603810  1.0  -0.1219
  C  C1382  1  0.695750  0.983770  0.573430  1.0  0.1792
  C  C1383  1  0.557610  0.986430  0.712210  1.0  0.1748
  C  C1384  1  0.588670  0.981290  0.698570  1.0  -0.1288
  C  C1385  1  0.602600  0.989500  0.708260  1.0  -0.0974
  C  C1386  1  0.584230  0.001850  0.732330  1.0  -0.1363
  C  C1387  1  0.552970  0.006930  0.744050  1.0  0.1841
  C  C1388  1  0.790780  0.005260  0.523080  1.0  0.1712
  C  C1389  1  0.855930  0.813390  0.016950  1.0  0.2075
  C  C1390  1  0.933800  0.753640  0.016320  1.0  0.1797
  C  C1391  1  0.902870  0.766570  0.019530  1.0  -0.1438
  C  C1392  1  0.888750  0.797330  0.014770  1.0  -0.0668
  C  C1393  1  0.906500  0.814780  0.005460  1.0  -0.119
  C  C1394  1  0.937610  0.799990  0.001950  1.0  0.1687
  C  C1395  1  0.009040  0.691260  0.989620  1.0  0.2511
  C  C1396  1  0.980960  0.704060  0.065980  1.0  0.1834
  C  C1397  1  0.976760  0.688240  0.097000  1.0  -0.146
  C  C1398  1  0.984110  0.697010  0.112210  1.0  -0.0763
  C  C1399  1  0.995090  0.722070  0.095770  1.0  -0.1367
  C  C1400  1  0.999380  0.735620  0.064980  1.0  0.1776
  C  C1401  1  0.977400  0.679780  0.189680  1.0  0.3443
  C  C1402  1  0.981860  0.680340  0.144940  1.0  0.2626
  C  C1403  1  0.984440  0.636260  0.185660  1.0  0.3047
  C  C1404  1  0.970040  0.741820  0.209660  1.0  0.1693
  C  C1405  1  0.967840  0.727600  0.195380  1.0  -0.1219
  C  C1406  1  0.974960  0.695860  0.207260  1.0  -0.1135
  C  C1407  1  0.982210  0.679830  0.234150  1.0  -0.1227
  C  C1408  1  0.983770  0.695750  0.247050  1.0  0.1804
  C  C1409  1  0.986430  0.557610  0.243750  1.0  0.1748
  C  C1410  1  0.981290  0.588670  0.231470  1.0  -0.1287
  C  C1411  1  0.989500  0.602600  0.199640  1.0  -0.0957
  C  C1412  1  0.001850  0.584230  0.181590  1.0  -0.1382
  C  C1413  1  0.006930  0.552970  0.196050  1.0  0.1842
  C  C1414  1  0.005260  0.790780  0.180880  1.0  0.165
  C  C1415  1  0.813730  0.016950  0.813390  1.0  0.2072
  C  C1416  1  0.796240  0.016320  0.753640  1.0  0.1814
  C  C1417  1  0.811030  0.019530  0.766570  1.0  -0.1398
  C  C1418  1  0.799150  0.014770  0.797330  1.0  -0.0651
  C  C1419  1  0.773260  0.005460  0.814780  1.0  -0.1201
  C  C1420  1  0.760450  0.001950  0.799990  1.0  0.167
  C  C1421  1  0.810080  0.989620  0.691260  1.0  0.2526
  C  C1422  1  0.749000  0.065980  0.704060  1.0  0.1833
  C  C1423  1  0.738000  0.097000  0.688240  1.0  -0.1439
  C  C1424  1  0.706670  0.112210  0.697010  1.0  -0.0744
  C  C1425  1  0.687070  0.095770  0.722070  1.0  -0.1375
  C  C1426  1  0.700020  0.064980  0.735620  1.0  0.1807
  C  C1427  1  0.653140  0.189680  0.679780  1.0  0.3443
  C  C1428  1  0.692860  0.144940  0.680340  1.0  0.2631
  C  C1429  1  0.693640  0.185660  0.636260  1.0  0.3047
  C  C1430  1  0.578480  0.209660  0.741820  1.0  0.1705
  C  C1431  1  0.609180  0.195380  0.727600  1.0  -0.1208
  C  C1432  1  0.621920  0.207260  0.695860  1.0  -0.1111
  C  C1433  1  0.603810  0.234150  0.679830  1.0  -0.1259
  C  C1434  1  0.573430  0.247050  0.695750  1.0  0.1788
  C  C1435  1  0.712210  0.243750  0.557610  1.0  0.1768
  C  C1436  1  0.698570  0.231470  0.588670  1.0  -0.1268
  C  C1437  1  0.708260  0.199640  0.602600  1.0  -0.0968
  C  C1438  1  0.732330  0.181590  0.584230  1.0  -0.1329
  C  C1439  1  0.744050  0.196050  0.552970  1.0  0.1874
  C  C1440  1  0.523080  0.180880  0.790780  1.0  0.1732
  C  C1441  1  0.313390  0.516950  0.313730  1.0  0.2071
  C  C1442  1  0.253640  0.516320  0.296240  1.0  0.176
  C  C1443  1  0.266570  0.519530  0.311030  1.0  -0.1442
  C  C1444  1  0.297330  0.514770  0.299150  1.0  -0.0659
  C  C1445  1  0.314780  0.505460  0.273260  1.0  -0.1146
  C  C1446  1  0.299990  0.501950  0.260450  1.0  0.1716
  C  C1447  1  0.191260  0.489620  0.310080  1.0  0.2561
  C  C1448  1  0.204060  0.565980  0.249000  1.0  0.1809
  C  C1449  1  0.188240  0.597000  0.238000  1.0  -0.1487
  C  C1450  1  0.197010  0.612210  0.206670  1.0  -0.0744
  C  C1451  1  0.222070  0.595770  0.187070  1.0  -0.1381
  C  C1452  1  0.235620  0.564980  0.200020  1.0  0.1795
  C  C1453  1  0.179780  0.689680  0.153140  1.0  0.3445
  C  C1454  1  0.180340  0.644940  0.192860  1.0  0.263
  C  C1455  1  0.136260  0.685660  0.193640  1.0  0.3049
  C  C1456  1  0.241820  0.709660  0.078480  1.0  0.1735
  C  C1457  1  0.227600  0.695380  0.109180  1.0  -0.1195
  C  C1458  1  0.195860  0.707260  0.121920  1.0  -0.1112
  C  C1459  1  0.179830  0.734150  0.103810  1.0  -0.124
  C  C1460  1  0.195750  0.747050  0.073430  1.0  0.1789
  C  C1461  1  0.057610  0.743750  0.212210  1.0  0.1778
  C  C1462  1  0.088670  0.731470  0.198570  1.0  -0.124
  C  C1463  1  0.102600  0.699640  0.208260  1.0  -0.0977
  C  C1464  1  0.084230  0.681590  0.232330  1.0  -0.1337
  C  C1465  1  0.052970  0.696050  0.244050  1.0  0.1867
  C  C1466  1  0.290780  0.680880  0.023080  1.0  0.1741
  C  C1467  1  0.516950  0.313390  0.355930  1.0  0.2077
  C  C1468  1  0.516320  0.253640  0.433800  1.0  0.1749
  C  C1469  1  0.519530  0.266570  0.402870  1.0  -0.1456
  C  C1470  1  0.514770  0.297330  0.388750  1.0  -0.0665
  C  C1471  1  0.505460  0.314780  0.406500  1.0  -0.1192
  C  C1472  1  0.501950  0.299990  0.437610  1.0  0.1699
  C  C1473  1  0.489620  0.191260  0.509040  1.0  0.2505
  C  C1474  1  0.565980  0.204060  0.480960  1.0  0.1791
  C  C1475  1  0.597000  0.188240  0.476760  1.0  -0.1499
  C  C1476  1  0.612210  0.197010  0.484110  1.0  -0.0766
  C  C1477  1  0.595770  0.222070  0.495090  1.0  -0.1367
  C  C1478  1  0.564980  0.235620  0.499380  1.0  0.1795
  C  C1479  1  0.689680  0.179780  0.477400  1.0  0.3446
  C  C1480  1  0.644940  0.180340  0.481860  1.0  0.2629
  C  C1481  1  0.685660  0.136260  0.484440  1.0  0.3049
  C  C1482  1  0.709660  0.241820  0.470040  1.0  0.1727
  C  C1483  1  0.695380  0.227600  0.467840  1.0  -0.1221
  C  C1484  1  0.707260  0.195860  0.474960  1.0  -0.1103
  C  C1485  1  0.734150  0.179830  0.482210  1.0  -0.1241
  C  C1486  1  0.747050  0.195750  0.483770  1.0  0.1767
  C  C1487  1  0.743750  0.057610  0.486430  1.0  0.1772
  C  C1488  1  0.731470  0.088670  0.481290  1.0  -0.1233
  C  C1489  1  0.699640  0.102600  0.489500  1.0  -0.0961
  C  C1490  1  0.681590  0.084230  0.501850  1.0  -0.1352
  C  C1491  1  0.696050  0.052970  0.506930  1.0  0.1883
  C  C1492  1  0.680880  0.290780  0.505260  1.0  0.1739
  C  C1493  1  0.313730  0.355930  0.313390  1.0  0.2076
  C  C1494  1  0.296240  0.433800  0.253640  1.0  0.177
  C  C1495  1  0.311030  0.402870  0.266570  1.0  -0.1443
  C  C1496  1  0.299150  0.388750  0.297330  1.0  -0.0654
  C  C1497  1  0.273260  0.406500  0.314780  1.0  -0.1201
  C  C1498  1  0.260450  0.437610  0.299990  1.0  0.1715
  C  C1499  1  0.310080  0.509040  0.191260  1.0  0.253
  C  C1500  1  0.249000  0.480960  0.204060  1.0  0.1822
  C  C1501  1  0.238000  0.476760  0.188240  1.0  -0.1457
  C  C1502  1  0.206670  0.484110  0.197010  1.0  -0.0741
  C  C1503  1  0.187070  0.495090  0.222070  1.0  -0.1361
  C  C1504  1  0.200020  0.499380  0.235620  1.0  0.1843
  C  C1505  1  0.153140  0.477400  0.179780  1.0  0.3449
  C  C1506  1  0.192860  0.481860  0.180340  1.0  0.2626
  C  C1507  1  0.193640  0.484440  0.136260  1.0  0.3049
  C  C1508  1  0.078480  0.470040  0.241820  1.0  0.1695
  C  C1509  1  0.109180  0.467840  0.227600  1.0  -0.123
  C  C1510  1  0.121920  0.474960  0.195860  1.0  -0.112
  C  C1511  1  0.103810  0.482210  0.179830  1.0  -0.1244
  C  C1512  1  0.073430  0.483770  0.195750  1.0  0.1755
  C  C1513  1  0.212210  0.486430  0.057610  1.0  0.179
  C  C1514  1  0.198570  0.481290  0.088670  1.0  -0.126
  C  C1515  1  0.208260  0.489500  0.102600  1.0  -0.0973
  C  C1516  1  0.232330  0.501850  0.084230  1.0  -0.134
  C  C1517  1  0.244050  0.506930  0.052970  1.0  0.1859
  C  C1518  1  0.023080  0.505260  0.290780  1.0  0.1738
  C  C1519  1  0.355930  0.313730  0.516950  1.0  0.2074
  C  C1520  1  0.433800  0.296240  0.516320  1.0  0.1772
  C  C1521  1  0.402870  0.311030  0.519530  1.0  -0.1456
  C  C1522  1  0.388750  0.299150  0.514770  1.0  -0.0672
  C  C1523  1  0.406500  0.273260  0.505460  1.0  -0.1207
  C  C1524  1  0.437610  0.260450  0.501950  1.0  0.1694
  C  C1525  1  0.509040  0.310080  0.489620  1.0  0.2508
  C  C1526  1  0.480960  0.249000  0.565980  1.0  0.1792
  C  C1527  1  0.476760  0.238000  0.597000  1.0  -0.1478
  C  C1528  1  0.484110  0.206670  0.612210  1.0  -0.0763
  C  C1529  1  0.495090  0.187070  0.595770  1.0  -0.1366
  C  C1530  1  0.499380  0.200020  0.564980  1.0  0.1824
  C  C1531  1  0.477400  0.153140  0.689680  1.0  0.344
  C  C1532  1  0.481860  0.192860  0.644940  1.0  0.2627
  C  C1533  1  0.484440  0.193640  0.685660  1.0  0.3044
  C  C1534  1  0.470040  0.078480  0.709660  1.0  0.1696
  C  C1535  1  0.467840  0.109180  0.695380  1.0  -0.1225
  C  C1536  1  0.474960  0.121920  0.707260  1.0  -0.1106
  C  C1537  1  0.482210  0.103810  0.734150  1.0  -0.1257
  C  C1538  1  0.483770  0.073430  0.747050  1.0  0.1765
  C  C1539  1  0.486430  0.212210  0.743750  1.0  0.1791
  C  C1540  1  0.481290  0.198570  0.731470  1.0  -0.126
  C  C1541  1  0.489500  0.208260  0.699640  1.0  -0.0969
  C  C1542  1  0.501850  0.232330  0.681590  1.0  -0.1363
  C  C1543  1  0.506930  0.244050  0.696050  1.0  0.1837
  C  C1544  1  0.505260  0.023080  0.680880  1.0  0.1716
  C  C1545  1  0.313730  0.313390  0.516950  1.0  0.2067
  C  C1546  1  0.296240  0.253640  0.516320  1.0  0.1792
  C  C1547  1  0.311030  0.266570  0.519530  1.0  -0.145
  C  C1548  1  0.299150  0.297330  0.514770  1.0  -0.0644
  C  C1549  1  0.273260  0.314780  0.505460  1.0  -0.1187
  C  C1550  1  0.260450  0.299990  0.501950  1.0  0.1699
  C  C1551  1  0.310080  0.191260  0.489620  1.0  0.2502
  C  C1552  1  0.249000  0.204060  0.565980  1.0  0.183
  C  C1553  1  0.238000  0.188240  0.597000  1.0  -0.146
  C  C1554  1  0.206670  0.197010  0.612210  1.0  -0.0768
  C  C1555  1  0.187070  0.222070  0.595770  1.0  -0.1369
  C  C1556  1  0.200020  0.235620  0.564980  1.0  0.1831
  C  C1557  1  0.153140  0.179780  0.689680  1.0  0.3445
  C  C1558  1  0.192860  0.180340  0.644940  1.0  0.263
  C  C1559  1  0.193640  0.136260  0.685660  1.0  0.3047
  C  C1560  1  0.078480  0.241820  0.709660  1.0  0.1756
  C  C1561  1  0.109180  0.227600  0.695380  1.0  -0.1187
  C  C1562  1  0.121920  0.195860  0.707260  1.0  -0.1115
  C  C1563  1  0.103810  0.179830  0.734150  1.0  -0.1229
  C  C1564  1  0.073430  0.195750  0.747050  1.0  0.1776
  C  C1565  1  0.212210  0.057610  0.743750  1.0  0.1759
  C  C1566  1  0.198570  0.088670  0.731470  1.0  -0.1268
  C  C1567  1  0.208260  0.102600  0.699640  1.0  -0.0951
  C  C1568  1  0.232330  0.084230  0.681590  1.0  -0.1372
  C  C1569  1  0.244050  0.052970  0.696050  1.0  0.1849
  C  C1570  1  0.023080  0.290780  0.680880  1.0  0.1663
  C  C1571  1  0.355930  0.516950  0.313390  1.0  0.2084
  C  C1572  1  0.433800  0.516320  0.253640  1.0  0.176
  C  C1573  1  0.402870  0.519530  0.266570  1.0  -0.1447
  C  C1574  1  0.388750  0.514770  0.297330  1.0  -0.0675
  C  C1575  1  0.406500  0.505460  0.314780  1.0  -0.1217
  C  C1576  1  0.437610  0.501950  0.299990  1.0  0.1672
  C  C1577  1  0.509040  0.489620  0.191260  1.0  0.2555
  C  C1578  1  0.480960  0.565980  0.204060  1.0  0.1788
  C  C1579  1  0.476760  0.597000  0.188240  1.0  -0.1466
  C  C1580  1  0.484110  0.612210  0.197010  1.0  -0.0742
  C  C1581  1  0.495090  0.595770  0.222070  1.0  -0.1382
  C  C1582  1  0.499380  0.564980  0.235620  1.0  0.1779
  C  C1583  1  0.477400  0.689680  0.179780  1.0  0.3447
  C  C1584  1  0.481860  0.644940  0.180340  1.0  0.2628
  C  C1585  1  0.484440  0.685660  0.136260  1.0  0.3047
  C  C1586  1  0.470040  0.709660  0.241820  1.0  0.1753
  C  C1587  1  0.467840  0.695380  0.227600  1.0  -0.12
  C  C1588  1  0.474960  0.707260  0.195860  1.0  -0.1115
  C  C1589  1  0.482210  0.734150  0.179830  1.0  -0.1254
  C  C1590  1  0.483770  0.747050  0.195750  1.0  0.1767
  C  C1591  1  0.486430  0.743750  0.057610  1.0  0.1733
  C  C1592  1  0.481290  0.731470  0.088670  1.0  -0.1274
  C  C1593  1  0.489500  0.699640  0.102600  1.0  -0.0966
  C  C1594  1  0.501850  0.681590  0.084230  1.0  -0.1329
  C  C1595  1  0.506930  0.696050  0.052970  1.0  0.187
  C  C1596  1  0.505260  0.680880  0.290780  1.0  0.173
  C  C1597  1  0.313390  0.313730  0.355930  1.0  0.2066
  C  C1598  1  0.253640  0.296240  0.433800  1.0  0.179
  C  C1599  1  0.266570  0.311030  0.402870  1.0  -0.1437
  C  C1600  1  0.297330  0.299150  0.388750  1.0  -0.0646
  C  C1601  1  0.314780  0.273260  0.406500  1.0  -0.1166
  C  C1602  1  0.299990  0.260450  0.437610  1.0  0.1722
  C  C1603  1  0.191260  0.310080  0.509040  1.0  0.2517
  C  C1604  1  0.204060  0.249000  0.480960  1.0  0.183
  C  C1605  1  0.188240  0.238000  0.476760  1.0  -0.148
  C  C1606  1  0.197010  0.206670  0.484110  1.0  -0.0763
  C  C1607  1  0.222070  0.187070  0.495090  1.0  -0.1366
  C  C1608  1  0.235620  0.200020  0.499380  1.0  0.1805
  C  C1609  1  0.179780  0.153140  0.477400  1.0  0.3441
  C  C1610  1  0.180340  0.192860  0.481860  1.0  0.2632
  C  C1611  1  0.136260  0.193640  0.484440  1.0  0.3047
  C  C1612  1  0.241820  0.078480  0.470040  1.0  0.1742
  C  C1613  1  0.227600  0.109180  0.467840  1.0  -0.1189
  C  C1614  1  0.195860  0.121920  0.474960  1.0  -0.1101
  C  C1615  1  0.179830  0.103810  0.482210  1.0  -0.1242
  C  C1616  1  0.195750  0.073430  0.483770  1.0  0.1779
  C  C1617  1  0.057610  0.212210  0.486430  1.0  0.1757
  C  C1618  1  0.088670  0.198570  0.481290  1.0  -0.1288
  C  C1619  1  0.102600  0.208260  0.489500  1.0  -0.0985
  C  C1620  1  0.084230  0.232330  0.501850  1.0  -0.1359
  C  C1621  1  0.052970  0.244050  0.506930  1.0  0.1836
  C  C1622  1  0.290780  0.023080  0.505260  1.0  0.1728
  C  C1623  1  0.516950  0.355930  0.313730  1.0  0.2072
  C  C1624  1  0.516320  0.433800  0.296240  1.0  0.1756
  C  C1625  1  0.519530  0.402870  0.311030  1.0  -0.1439
  C  C1626  1  0.514770  0.388750  0.299150  1.0  -0.0659
  C  C1627  1  0.505460  0.406500  0.273260  1.0  -0.1198
  C  C1628  1  0.501950  0.437610  0.260450  1.0  0.1673
  C  C1629  1  0.489620  0.509040  0.310080  1.0  0.2536
  C  C1630  1  0.565980  0.480960  0.249000  1.0  0.1797
  C  C1631  1  0.597000  0.476760  0.238000  1.0  -0.1468
  C  C1632  1  0.612210  0.484110  0.206670  1.0  -0.076
  C  C1633  1  0.595770  0.495090  0.187070  1.0  -0.138
  C  C1634  1  0.564980  0.499380  0.200020  1.0  0.1756
  C  C1635  1  0.689680  0.477400  0.153140  1.0  0.3442
  C  C1636  1  0.644940  0.481860  0.192860  1.0  0.2627
  C  C1637  1  0.685660  0.484440  0.193640  1.0  0.3039
  C  C1638  1  0.709660  0.470040  0.078480  1.0  0.1769
  C  C1639  1  0.695380  0.467840  0.109180  1.0  -0.1204
  C  C1640  1  0.707260  0.474960  0.121920  1.0  -0.1123
  C  C1641  1  0.734150  0.482210  0.103810  1.0  -0.124
  C  C1642  1  0.747050  0.483770  0.073430  1.0  0.1757
  C  C1643  1  0.743750  0.486430  0.212210  1.0  0.1744
  C  C1644  1  0.731470  0.481290  0.198570  1.0  -0.1265
  C  C1645  1  0.699640  0.489500  0.208260  1.0  -0.0978
  C  C1646  1  0.681590  0.501850  0.232330  1.0  -0.1342
  C  C1647  1  0.696050  0.506930  0.244050  1.0  0.1884
  C  C1648  1  0.680880  0.505260  0.023080  1.0  0.1759
  C  C1649  1  0.516950  0.313730  0.313390  1.0  0.2075
  C  C1650  1  0.516320  0.296240  0.253640  1.0  0.1797
  C  C1651  1  0.519530  0.311030  0.266570  1.0  -0.1425
  C  C1652  1  0.514770  0.299150  0.297330  1.0  -0.0658
  C  C1653  1  0.505460  0.273260  0.314780  1.0  -0.1214
  C  C1654  1  0.501950  0.260450  0.299990  1.0  0.1671
  C  C1655  1  0.489620  0.310080  0.191260  1.0  0.251
  C  C1656  1  0.565980  0.249000  0.204060  1.0  0.1838
  C  C1657  1  0.597000  0.238000  0.188240  1.0  -0.146
  C  C1658  1  0.612210  0.206670  0.197010  1.0  -0.0768
  C  C1659  1  0.595770  0.187070  0.222070  1.0  -0.1367
  C  C1660  1  0.564980  0.200020  0.235620  1.0  0.1798
  C  C1661  1  0.689680  0.153140  0.179780  1.0  0.3446
  C  C1662  1  0.644940  0.192860  0.180340  1.0  0.2626
  C  C1663  1  0.685660  0.193640  0.136260  1.0  0.3047
  C  C1664  1  0.709660  0.078480  0.241820  1.0  0.1709
  C  C1665  1  0.695380  0.109180  0.227600  1.0  -0.1226
  C  C1666  1  0.707260  0.121920  0.195860  1.0  -0.1108
  C  C1667  1  0.734150  0.103810  0.179830  1.0  -0.1245
  C  C1668  1  0.747050  0.073430  0.195750  1.0  0.1786
  C  C1669  1  0.743750  0.212210  0.057610  1.0  0.1786
  C  C1670  1  0.731470  0.198570  0.088670  1.0  -0.1268
  C  C1671  1  0.699640  0.208260  0.102600  1.0  -0.0982
  C  C1672  1  0.681590  0.232330  0.084230  1.0  -0.1361
  C  C1673  1  0.696050  0.244050  0.052970  1.0  0.1894
  C  C1674  1  0.680880  0.023080  0.290780  1.0  0.1762
  C  C1675  1  0.313390  0.355930  0.516950  1.0  0.2077
  C  C1676  1  0.253640  0.433800  0.516320  1.0  0.1792
  C  C1677  1  0.266570  0.402870  0.519530  1.0  -0.145
  C  C1678  1  0.297330  0.388750  0.514770  1.0  -0.0656
  C  C1679  1  0.314780  0.406500  0.505460  1.0  -0.1168
  C  C1680  1  0.299990  0.437610  0.501950  1.0  0.1711
  C  C1681  1  0.191260  0.509040  0.489620  1.0  0.2529
  C  C1682  1  0.204060  0.480960  0.565980  1.0  0.1852
  C  C1683  1  0.188240  0.476760  0.597000  1.0  -0.1456
  C  C1684  1  0.197010  0.484110  0.612210  1.0  -0.0749
  C  C1685  1  0.222070  0.495090  0.595770  1.0  -0.1351
  C  C1686  1  0.235620  0.499380  0.564980  1.0  0.1787
  C  C1687  1  0.179780  0.477400  0.689680  1.0  0.3447
  C  C1688  1  0.180340  0.481860  0.644940  1.0  0.2623
  C  C1689  1  0.136260  0.484440  0.685660  1.0  0.3053
  C  C1690  1  0.241820  0.470040  0.709660  1.0  0.171
  C  C1691  1  0.227600  0.467840  0.695380  1.0  -0.1212
  C  C1692  1  0.195860  0.474960  0.707260  1.0  -0.1148
  C  C1693  1  0.179830  0.482210  0.734150  1.0  -0.1214
  C  C1694  1  0.195750  0.483770  0.747050  1.0  0.1792
  C  C1695  1  0.057610  0.486430  0.743750  1.0  0.1759
  C  C1696  1  0.088670  0.481290  0.731470  1.0  -0.1284
  C  C1697  1  0.102600  0.489500  0.699640  1.0  -0.0973
  C  C1698  1  0.084230  0.501850  0.681590  1.0  -0.1375
  C  C1699  1  0.052970  0.506930  0.696050  1.0  0.1854
  C  C1700  1  0.290780  0.505260  0.680880  1.0  0.1722
  C  C1701  1  0.355930  0.313390  0.313730  1.0  0.2074
  C  C1702  1  0.433800  0.253640  0.296240  1.0  0.1799
  C  C1703  1  0.402870  0.266570  0.311030  1.0  -0.1438
  C  C1704  1  0.388750  0.297330  0.299150  1.0  -0.0664
  C  C1705  1  0.406500  0.314780  0.273260  1.0  -0.1187
  C  C1706  1  0.437610  0.299990  0.260450  1.0  0.1694
  C  C1707  1  0.509040  0.191260  0.310080  1.0  0.2472
  C  C1708  1  0.480960  0.204060  0.249000  1.0  0.1841
  C  C1709  1  0.476760  0.188240  0.238000  1.0  -0.1454
  C  C1710  1  0.484110  0.197010  0.206670  1.0  -0.0759
  C  C1711  1  0.495090  0.222070  0.187070  1.0  -0.1377
  C  C1712  1  0.499380  0.235620  0.200020  1.0  0.1763
  C  C1713  1  0.477400  0.179780  0.153140  1.0  0.3437
  C  C1714  1  0.481860  0.180340  0.192860  1.0  0.2629
  C  C1715  1  0.484440  0.136260  0.193640  1.0  0.3047
  C  C1716  1  0.470040  0.241820  0.078480  1.0  0.1694
  C  C1717  1  0.467840  0.227600  0.109180  1.0  -0.1233
  C  C1718  1  0.474960  0.195860  0.121920  1.0  -0.1132
  C  C1719  1  0.482210  0.179830  0.103810  1.0  -0.1235
  C  C1720  1  0.483770  0.195750  0.073430  1.0  0.1798
  C  C1721  1  0.486430  0.057610  0.212210  1.0  0.1741
  C  C1722  1  0.481290  0.088670  0.198570  1.0  -0.1273
  C  C1723  1  0.489500  0.102600  0.208260  1.0  -0.0959
  C  C1724  1  0.501850  0.084230  0.232330  1.0  -0.1369
  C  C1725  1  0.506930  0.052970  0.244050  1.0  0.184
  C  C1726  1  0.505260  0.290780  0.023080  1.0  0.1687
  C  C1727  1  0.313730  0.516950  0.355930  1.0  0.2078
  C  C1728  1  0.296240  0.516320  0.433800  1.0  0.1816
  C  C1729  1  0.311030  0.519530  0.402870  1.0  -0.1397
  C  C1730  1  0.299150  0.514770  0.388750  1.0  -0.0656
  C  C1731  1  0.273260  0.505460  0.406500  1.0  -0.1189
  C  C1732  1  0.260450  0.501950  0.437610  1.0  0.1684
  C  C1733  1  0.310080  0.489620  0.509040  1.0  0.2519
  C  C1734  1  0.249000  0.565980  0.480960  1.0  0.1834
  C  C1735  1  0.238000  0.597000  0.476760  1.0  -0.1438
  C  C1736  1  0.206670  0.612210  0.484110  1.0  -0.0746
  C  C1737  1  0.187070  0.595770  0.495090  1.0  -0.1376
  C  C1738  1  0.200020  0.564980  0.499380  1.0  0.1803
  C  C1739  1  0.153140  0.689680  0.477400  1.0  0.3444
  C  C1740  1  0.192860  0.644940  0.481860  1.0  0.2633
  C  C1741  1  0.193640  0.685660  0.484440  1.0  0.3046
  C  C1742  1  0.078480  0.709660  0.470040  1.0  0.1705
  C  C1743  1  0.109180  0.695380  0.467840  1.0  -0.1217
  C  C1744  1  0.121920  0.707260  0.474960  1.0  -0.1111
  C  C1745  1  0.103810  0.734150  0.482210  1.0  -0.1262
  C  C1746  1  0.073430  0.747050  0.483770  1.0  0.1777
  C  C1747  1  0.212210  0.743750  0.486430  1.0  0.1759
  C  C1748  1  0.198570  0.731470  0.481290  1.0  -0.1264
  C  C1749  1  0.208260  0.699640  0.489500  1.0  -0.0974
  C  C1750  1  0.232330  0.681590  0.501850  1.0  -0.1327
  C  C1751  1  0.244050  0.696050  0.506930  1.0  0.1873
  C  C1752  1  0.023080  0.680880  0.505260  1.0  0.1743
  C  C1753  1  0.186610  0.983050  0.144070  1.0  0.2081
  C  C1754  1  0.246360  0.983680  0.066200  1.0  0.1766
  C  C1755  1  0.233430  0.980470  0.097130  1.0  -0.1437
  C  C1756  1  0.202670  0.985230  0.111250  1.0  -0.0651
  C  C1757  1  0.185220  0.994540  0.093500  1.0  -0.1182
  C  C1758  1  0.200010  0.998050  0.062390  1.0  0.1714
  C  C1759  1  0.308740  0.010380  0.990960  1.0  0.2539
  C  C1760  1  0.295940  0.934020  0.019040  1.0  0.1807
  C  C1761  1  0.311760  0.903000  0.023240  1.0  -0.1467
  C  C1762  1  0.302990  0.887790  0.015890  1.0  -0.0752
  C  C1763  1  0.277930  0.904230  0.004910  1.0  -0.1364
  C  C1764  1  0.264380  0.935020  0.000620  1.0  0.1817
  C  C1765  1  0.320220  0.810320  0.022600  1.0  0.3439
  C  C1766  1  0.319660  0.855060  0.018140  1.0  0.2633
  C  C1767  1  0.363740  0.814340  0.015560  1.0  0.3047
  C  C1768  1  0.258180  0.790340  0.029960  1.0  0.1741
  C  C1769  1  0.272400  0.804620  0.032160  1.0  -0.1221
  C  C1770  1  0.304140  0.792740  0.025040  1.0  -0.1108
  C  C1771  1  0.320170  0.765850  0.017790  1.0  -0.1227
  C  C1772  1  0.304250  0.752950  0.016230  1.0  0.1791
  C  C1773  1  0.442390  0.756250  0.013570  1.0  0.1772
  C  C1774  1  0.411330  0.768530  0.018710  1.0  -0.125
  C  C1775  1  0.397400  0.800360  0.010500  1.0  -0.0971
  C  C1776  1  0.415770  0.818410  0.998150  1.0  -0.1333
  C  C1777  1  0.447030  0.803950  0.993070  1.0  0.1849
  C  C1778  1  0.209220  0.819120  0.994740  1.0  0.1777
  C  C1779  1  0.983050  0.186610  0.186270  1.0  0.2071
  C  C1780  1  0.983680  0.246360  0.203760  1.0  0.1758
  C  C1781  1  0.980470  0.233430  0.188970  1.0  -0.1437
  C  C1782  1  0.985230  0.202670  0.200850  1.0  -0.067
  C  C1783  1  0.994540  0.185220  0.226740  1.0  -0.1189
  C  C1784  1  0.998050  0.200010  0.239550  1.0  0.1714
  C  C1785  1  0.010380  0.308740  0.189920  1.0  0.2494
  C  C1786  1  0.934020  0.295940  0.251000  1.0  0.1797
  C  C1787  1  0.903000  0.311760  0.262000  1.0  -0.1495
  C  C1788  1  0.887790  0.302990  0.293330  1.0  -0.0759
  C  C1789  1  0.904230  0.277930  0.312930  1.0  -0.1372
  C  C1790  1  0.935020  0.264380  0.299980  1.0  0.1802
  C  C1791  1  0.810320  0.320220  0.346860  1.0  0.3444
  C  C1792  1  0.855060  0.319660  0.307140  1.0  0.2626
  C  C1793  1  0.814340  0.363740  0.306360  1.0  0.3051
  C  C1794  1  0.790340  0.258180  0.421520  1.0  0.1747
  C  C1795  1  0.804620  0.272400  0.390820  1.0  -0.1205
  C  C1796  1  0.792740  0.304140  0.378080  1.0  -0.1098
  C  C1797  1  0.765850  0.320170  0.396190  1.0  -0.124
  C  C1798  1  0.752950  0.304250  0.426570  1.0  0.1766
  C  C1799  1  0.756250  0.442390  0.287790  1.0  0.1762
  C  C1800  1  0.768530  0.411330  0.301430  1.0  -0.1246
  C  C1801  1  0.800360  0.397400  0.291740  1.0  -0.0958
  C  C1802  1  0.818410  0.415770  0.267670  1.0  -0.1334
  C  C1803  1  0.803950  0.447030  0.255950  1.0  0.19
  C  C1804  1  0.819120  0.209220  0.476920  1.0  0.1735
  C  C1805  1  0.186270  0.144070  0.983050  1.0  0.2078
  C  C1806  1  0.203760  0.066200  0.983680  1.0  0.178
  C  C1807  1  0.188970  0.097130  0.980470  1.0  -0.1449
  C  C1808  1  0.200850  0.111250  0.985230  1.0  -0.0641
  C  C1809  1  0.226740  0.093500  0.994540  1.0  -0.1204
  C  C1810  1  0.239550  0.062390  0.998050  1.0  0.1707
  C  C1811  1  0.189920  0.990960  0.010380  1.0  0.2544
  C  C1812  1  0.251000  0.019040  0.934020  1.0  0.1819
  C  C1813  1  0.262000  0.023240  0.903000  1.0  -0.1459
  C  C1814  1  0.293330  0.015890  0.887790  1.0  -0.0741
  C  C1815  1  0.312930  0.004910  0.904230  1.0  -0.1332
  C  C1816  1  0.299980  0.000620  0.935020  1.0  0.1836
  C  C1817  1  0.346860  0.022600  0.810320  1.0  0.3447
  C  C1818  1  0.307140  0.018140  0.855060  1.0  0.2627
  C  C1819  1  0.306360  0.015560  0.814340  1.0  0.3051
  C  C1820  1  0.421520  0.029960  0.790340  1.0  0.1689
  C  C1821  1  0.390820  0.032160  0.804620  1.0  -0.1252
  C  C1822  1  0.378080  0.025040  0.792740  1.0  -0.1117
  C  C1823  1  0.396190  0.017790  0.765850  1.0  -0.1239
  C  C1824  1  0.426570  0.016230  0.752950  1.0  0.1767
  C  C1825  1  0.287790  0.013570  0.756250  1.0  0.1793
  C  C1826  1  0.301430  0.018710  0.768530  1.0  -0.1239
  C  C1827  1  0.291740  0.010500  0.800360  1.0  -0.0969
  C  C1828  1  0.267670  0.998150  0.818410  1.0  -0.1348
  C  C1829  1  0.255950  0.993070  0.803950  1.0  0.1845
  C  C1830  1  0.476920  0.994740  0.819120  1.0  0.1723
  C  C1831  1  0.144070  0.186270  0.186610  1.0  0.2069
  C  C1832  1  0.066200  0.203760  0.246360  1.0  0.177
  C  C1833  1  0.097130  0.188970  0.233430  1.0  -0.1462
  C  C1834  1  0.111250  0.200850  0.202670  1.0  -0.066
  C  C1835  1  0.093500  0.226740  0.185220  1.0  -0.1208
  C  C1836  1  0.062390  0.239550  0.200010  1.0  0.1699
  C  C1837  1  0.990960  0.189920  0.308740  1.0  0.249
  C  C1838  1  0.019040  0.251000  0.295940  1.0  0.1801
  C  C1839  1  0.023240  0.262000  0.311760  1.0  -0.1482
  C  C1840  1  0.015890  0.293330  0.302990  1.0  -0.0765
  C  C1841  1  0.004910  0.312930  0.277930  1.0  -0.1367
  C  C1842  1  0.000620  0.299980  0.264380  1.0  0.1795
  C  C1843  1  0.022600  0.346860  0.320220  1.0  0.3444
  C  C1844  1  0.018140  0.307140  0.319660  1.0  0.2624
  C  C1845  1  0.015560  0.306360  0.363740  1.0  0.3042
  C  C1846  1  0.029960  0.421520  0.258180  1.0  0.1685
  C  C1847  1  0.032160  0.390820  0.272400  1.0  -0.1223
  C  C1848  1  0.025040  0.378080  0.304140  1.0  -0.1113
  C  C1849  1  0.017790  0.396190  0.320170  1.0  -0.125
  C  C1850  1  0.016230  0.426570  0.304250  1.0  0.1764
  C  C1851  1  0.013570  0.287790  0.442390  1.0  0.1786
  C  C1852  1  0.018710  0.301430  0.411330  1.0  -0.1246
  C  C1853  1  0.010500  0.291740  0.397400  1.0  -0.0955
  C  C1854  1  0.998150  0.267670  0.415770  1.0  -0.1357
  C  C1855  1  0.993070  0.255950  0.447030  1.0  0.1846
  C  C1856  1  0.994740  0.476920  0.209220  1.0  0.1722
  C  C1857  1  0.186270  0.186610  0.144070  1.0  0.2076
  C  C1858  1  0.203760  0.246360  0.066200  1.0  0.1794
  C  C1859  1  0.188970  0.233430  0.097130  1.0  -0.1458
  C  C1860  1  0.200850  0.202670  0.111250  1.0  -0.0645
  C  C1861  1  0.226740  0.185220  0.093500  1.0  -0.1195
  C  C1862  1  0.239550  0.200010  0.062390  1.0  0.1705
  C  C1863  1  0.189920  0.308740  0.990960  1.0  0.2509
  C  C1864  1  0.251000  0.295940  0.019040  1.0  0.1831
  C  C1865  1  0.262000  0.311760  0.023240  1.0  -0.1467
  C  C1866  1  0.293330  0.302990  0.015890  1.0  -0.0765
  C  C1867  1  0.312930  0.277930  0.004910  1.0  -0.1348
  C  C1868  1  0.299980  0.264380  0.000620  1.0  0.1816
  C  C1869  1  0.346860  0.320220  0.022600  1.0  0.3441
  C  C1870  1  0.307140  0.319660  0.018140  1.0  0.2624
  C  C1871  1  0.306360  0.363740  0.015560  1.0  0.3047
  C  C1872  1  0.421520  0.258180  0.029960  1.0  0.1746
  C  C1873  1  0.390820  0.272400  0.032160  1.0  -0.1197
  C  C1874  1  0.378080  0.304140  0.025040  1.0  -0.1117
  C  C1875  1  0.396190  0.320170  0.017790  1.0  -0.1232
  C  C1876  1  0.426570  0.304250  0.016230  1.0  0.1757
  C  C1877  1  0.287790  0.442390  0.013570  1.0  0.1764
  C  C1878  1  0.301430  0.411330  0.018710  1.0  -0.1265
  C  C1879  1  0.291740  0.397400  0.010500  1.0  -0.0952
  C  C1880  1  0.267670  0.415770  0.998150  1.0  -0.1364
  C  C1881  1  0.255950  0.447030  0.993070  1.0  0.1859
  C  C1882  1  0.476920  0.209220  0.994740  1.0  0.1683
  C  C1883  1  0.144070  0.983050  0.186270  1.0  0.2078
  C  C1884  1  0.066200  0.983680  0.203760  1.0  0.1764
  C  C1885  1  0.097130  0.980470  0.188970  1.0  -0.1448
  C  C1886  1  0.111250  0.985230  0.200850  1.0  -0.0664
  C  C1887  1  0.093500  0.994540  0.226740  1.0  -0.1209
  C  C1888  1  0.062390  0.998050  0.239550  1.0  0.1687
  C  C1889  1  0.990960  0.010380  0.189920  1.0  0.2558
  C  C1890  1  0.019040  0.934020  0.251000  1.0  0.1771
  C  C1891  1  0.023240  0.903000  0.262000  1.0  -0.1468
  C  C1892  1  0.015890  0.887790  0.293330  1.0  -0.0753
  C  C1893  1  0.004910  0.904230  0.312930  1.0  -0.1377
  C  C1894  1  0.000620  0.935020  0.299980  1.0  0.1778
  C  C1895  1  0.022600  0.810320  0.346860  1.0  0.3443
  C  C1896  1  0.018140  0.855060  0.307140  1.0  0.2632
  C  C1897  1  0.015560  0.814340  0.306360  1.0  0.3047
  C  C1898  1  0.029960  0.790340  0.421520  1.0  0.1754
  C  C1899  1  0.032160  0.804620  0.390820  1.0  -0.1182
  C  C1900  1  0.025040  0.792740  0.378080  1.0  -0.1112
  C  C1901  1  0.017790  0.765850  0.396190  1.0  -0.1242
  C  C1902  1  0.016230  0.752950  0.426570  1.0  0.1759
  C  C1903  1  0.013570  0.756250  0.287790  1.0  0.174
  C  C1904  1  0.018710  0.768530  0.301430  1.0  -0.1265
  C  C1905  1  0.010500  0.800360  0.291740  1.0  -0.0972
  C  C1906  1  0.998150  0.818410  0.267670  1.0  -0.1328
  C  C1907  1  0.993070  0.803950  0.255950  1.0  0.1853
  C  C1908  1  0.994740  0.819120  0.476920  1.0  0.1787
  C  C1909  1  0.186610  0.186270  0.983050  1.0  0.2082
  C  C1910  1  0.246360  0.203760  0.983680  1.0  0.1779
  C  C1911  1  0.233430  0.188970  0.980470  1.0  -0.1444
  C  C1912  1  0.202670  0.200850  0.985230  1.0  -0.0654
  C  C1913  1  0.185220  0.226740  0.994540  1.0  -0.1187
  C  C1914  1  0.200010  0.239550  0.998050  1.0  0.1702
  C  C1915  1  0.308740  0.189920  0.010380  1.0  0.25
  C  C1916  1  0.295940  0.251000  0.934020  1.0  0.1834
  C  C1917  1  0.311760  0.262000  0.903000  1.0  -0.1482
  C  C1918  1  0.302990  0.293330  0.887790  1.0  -0.0761
  C  C1919  1  0.277930  0.312930  0.904230  1.0  -0.1372
  C  C1920  1  0.264380  0.299980  0.935020  1.0  0.179
  C  C1921  1  0.320220  0.346860  0.810320  1.0  0.3447
  C  C1922  1  0.319660  0.307140  0.855060  1.0  0.2628
  C  C1923  1  0.363740  0.306360  0.814340  1.0  0.3046
  C  C1924  1  0.258180  0.421520  0.790340  1.0  0.1732
  C  C1925  1  0.272400  0.390820  0.804620  1.0  -0.121
  C  C1926  1  0.304140  0.378080  0.792740  1.0  -0.1108
  C  C1927  1  0.320170  0.396190  0.765850  1.0  -0.1216
  C  C1928  1  0.304250  0.426570  0.752950  1.0  0.18
  C  C1929  1  0.442390  0.287790  0.756250  1.0  0.1756
  C  C1930  1  0.411330  0.301430  0.768530  1.0  -0.1288
  C  C1931  1  0.397400  0.291740  0.800360  1.0  -0.097
  C  C1932  1  0.415770  0.267670  0.818410  1.0  -0.1373
  C  C1933  1  0.447030  0.255950  0.803950  1.0  0.1842
  C  C1934  1  0.209220  0.476920  0.819120  1.0  0.1721
  C  C1935  1  0.983050  0.144070  0.186610  1.0  0.2069
  C  C1936  1  0.983680  0.066200  0.246360  1.0  0.1759
  C  C1937  1  0.980470  0.097130  0.233430  1.0  -0.145
  C  C1938  1  0.985230  0.111250  0.202670  1.0  -0.0646
  C  C1939  1  0.994540  0.093500  0.185220  1.0  -0.1216
  C  C1940  1  0.998050  0.062390  0.200010  1.0  0.1668
  C  C1941  1  0.010380  0.990960  0.308740  1.0  0.2536
  C  C1942  1  0.934020  0.019040  0.295940  1.0  0.1787
  C  C1943  1  0.903000  0.023240  0.311760  1.0  -0.1487
  C  C1944  1  0.887790  0.015890  0.302990  1.0  -0.0757
  C  C1945  1  0.904230  0.004910  0.277930  1.0  -0.1371
  C  C1946  1  0.935020  0.000620  0.264380  1.0  0.1768
  C  C1947  1  0.810320  0.022600  0.320220  1.0  0.3443
  C  C1948  1  0.855060  0.018140  0.319660  1.0  0.2631
  C  C1949  1  0.814340  0.015560  0.363740  1.0  0.3038
  C  C1950  1  0.790340  0.029960  0.258180  1.0  0.1762
  C  C1951  1  0.804620  0.032160  0.272400  1.0  -0.118
  C  C1952  1  0.792740  0.025040  0.304140  1.0  -0.1116
  C  C1953  1  0.765850  0.017790  0.320170  1.0  -0.1247
  C  C1954  1  0.752950  0.016230  0.304250  1.0  0.1762
  C  C1955  1  0.756250  0.013570  0.442390  1.0  0.1753
  C  C1956  1  0.768530  0.018710  0.411330  1.0  -0.1261
  C  C1957  1  0.800360  0.010500  0.397400  1.0  -0.0978
  C  C1958  1  0.818410  0.998150  0.415770  1.0  -0.1329
  C  C1959  1  0.803950  0.993070  0.447030  1.0  0.1891
  C  C1960  1  0.819120  0.994740  0.209220  1.0  0.1753
  C  C1961  1  0.983050  0.186270  0.144070  1.0  0.2069
  C  C1962  1  0.983680  0.203760  0.066200  1.0  0.1807
  C  C1963  1  0.980470  0.188970  0.097130  1.0  -0.1428
  C  C1964  1  0.985230  0.200850  0.111250  1.0  -0.0655
  C  C1965  1  0.994540  0.226740  0.093500  1.0  -0.1208
  C  C1966  1  0.998050  0.239550  0.062390  1.0  0.1669
  C  C1967  1  0.010380  0.189920  0.990960  1.0  0.2497
  C  C1968  1  0.934020  0.251000  0.019040  1.0  0.1829
  C  C1969  1  0.903000  0.262000  0.023240  1.0  -0.1469
  C  C1970  1  0.887790  0.293330  0.015890  1.0  -0.076
  C  C1971  1  0.904230  0.312930  0.004910  1.0  -0.1371
  C  C1972  1  0.935020  0.299980  0.000620  1.0  0.1778
  C  C1973  1  0.810320  0.346860  0.022600  1.0  0.3446
  C  C1974  1  0.855060  0.307140  0.018140  1.0  0.2627
  C  C1975  1  0.814340  0.306360  0.015560  1.0  0.3045
  C  C1976  1  0.790340  0.421520  0.029960  1.0  0.1711
  C  C1977  1  0.804620  0.390820  0.032160  1.0  -0.1204
  C  C1978  1  0.792740  0.378080  0.025040  1.0  -0.1111
  C  C1979  1  0.765850  0.396190  0.017790  1.0  -0.1251
  C  C1980  1  0.752950  0.426570  0.016230  1.0  0.1786
  C  C1981  1  0.756250  0.287790  0.013570  1.0  0.1785
  C  C1982  1  0.768530  0.301430  0.018710  1.0  -0.1257
  C  C1983  1  0.800360  0.291740  0.010500  1.0  -0.0983
  C  C1984  1  0.818410  0.267670  0.998150  1.0  -0.1338
  C  C1985  1  0.803950  0.255950  0.993070  1.0  0.1893
  C  C1986  1  0.819120  0.476920  0.994740  1.0  0.1753
  C  C1987  1  0.186610  0.144070  0.186270  1.0  0.2079
  C  C1988  1  0.246360  0.066200  0.203760  1.0  0.1789
  C  C1989  1  0.233430  0.097130  0.188970  1.0  -0.1432
  C  C1990  1  0.202670  0.111250  0.200850  1.0  -0.0644
  C  C1991  1  0.185220  0.093500  0.226740  1.0  -0.119
  C  C1992  1  0.200010  0.062390  0.239550  1.0  0.1694
  C  C1993  1  0.308740  0.990960  0.189920  1.0  0.2516
  C  C1994  1  0.295940  0.019040  0.251000  1.0  0.1834
  C  C1995  1  0.311760  0.023240  0.262000  1.0  -0.1444
  C  C1996  1  0.302990  0.015890  0.293330  1.0  -0.0757
  C  C1997  1  0.277930  0.004910  0.312930  1.0  -0.1347
  C  C1998  1  0.264380  0.000620  0.299980  1.0  0.1775
  C  C1999  1  0.320220  0.022600  0.346860  1.0  0.3446
  C  C2000  1  0.319660  0.018140  0.307140  1.0  0.2623
  C  C2001  1  0.363740  0.015560  0.306360  1.0  0.3053
  C  C2002  1  0.258180  0.029960  0.421520  1.0  0.1716
  C  C2003  1  0.272400  0.032160  0.390820  1.0  -0.1208
  C  C2004  1  0.304140  0.025040  0.378080  1.0  -0.1133
  C  C2005  1  0.320170  0.017790  0.396190  1.0  -0.1195
  C  C2006  1  0.304250  0.016230  0.426570  1.0  0.1795
  C  C2007  1  0.442390  0.013570  0.287790  1.0  0.1747
  C  C2008  1  0.411330  0.018710  0.301430  1.0  -0.1302
  C  C2009  1  0.397400  0.010500  0.291740  1.0  -0.0966
  C  C2010  1  0.415770  0.998150  0.267670  1.0  -0.1366
  C  C2011  1  0.447030  0.993070  0.255950  1.0  0.1853
  C  C2012  1  0.209220  0.994740  0.476920  1.0  0.1731
  C  C2013  1  0.144070  0.186610  0.983050  1.0  0.2065
  C  C2014  1  0.066200  0.246360  0.983680  1.0  0.1807
  C  C2015  1  0.097130  0.233430  0.980470  1.0  -0.1431
  C  C2016  1  0.111250  0.202670  0.985230  1.0  -0.0668
  C  C2017  1  0.093500  0.185220  0.994540  1.0  -0.1189
  C  C2018  1  0.062390  0.200010  0.998050  1.0  0.1692
  C  C2019  1  0.990960  0.308740  0.010380  1.0  0.2522
  C  C2020  1  0.019040  0.295940  0.934020  1.0  0.183
  C  C2021  1  0.023240  0.311760  0.903000  1.0  -0.1451
  C  C2022  1  0.015890  0.302990  0.887790  1.0  -0.0758
  C  C2023  1  0.004910  0.277930  0.904230  1.0  -0.1369
  C  C2024  1  0.000620  0.264380  0.935020  1.0  0.1777
  C  C2025  1  0.022600  0.320220  0.810320  1.0  0.3441
  C  C2026  1  0.018140  0.319660  0.855060  1.0  0.2629
  C  C2027  1  0.015560  0.363740  0.814340  1.0  0.3049
  C  C2028  1  0.029960  0.258180  0.790340  1.0  0.1706
  C  C2029  1  0.032160  0.272400  0.804620  1.0  -0.121
  C  C2030  1  0.025040  0.304140  0.792740  1.0  -0.1138
  C  C2031  1  0.017790  0.320170  0.765850  1.0  -0.1242
  C  C2032  1  0.016230  0.304250  0.752950  1.0  0.179
  C  C2033  1  0.013570  0.442390  0.756250  1.0  0.1737
  C  C2034  1  0.018710  0.411330  0.768530  1.0  -0.1281
  C  C2035  1  0.010500  0.397400  0.800360  1.0  -0.0957
  C  C2036  1  0.998150  0.415770  0.818410  1.0  -0.1377
  C  C2037  1  0.993070  0.447030  0.803950  1.0  0.1833
  C  C2038  1  0.994740  0.209220  0.819120  1.0  0.1626
  C  C2039  1  0.186270  0.983050  0.186610  1.0  0.2083
  C  C2040  1  0.203760  0.983680  0.246360  1.0  0.182
  C  C2041  1  0.188970  0.980470  0.233430  1.0  -0.1412
  C  C2042  1  0.200850  0.985230  0.202670  1.0  -0.0658
  C  C2043  1  0.226740  0.994540  0.185220  1.0  -0.1203
  C  C2044  1  0.239550  0.998050  0.200010  1.0  0.1688
  C  C2045  1  0.189920  0.010380  0.308740  1.0  0.2533
  C  C2046  1  0.251000  0.934020  0.295940  1.0  0.1835
  C  C2047  1  0.262000  0.903000  0.311760  1.0  -0.1454
  C  C2048  1  0.293330  0.887790  0.302990  1.0  -0.0754
  C  C2049  1  0.312930  0.904230  0.277930  1.0  -0.1348
  C  C2050  1  0.299980  0.935020  0.264380  1.0  0.1817
  C  C2051  1  0.346860  0.810320  0.320220  1.0  0.3438
  C  C2052  1  0.307140  0.855060  0.319660  1.0  0.2633
  C  C2053  1  0.306360  0.814340  0.363740  1.0  0.3048
  C  C2054  1  0.421520  0.790340  0.258180  1.0  0.1704
  C  C2055  1  0.390820  0.804620  0.272400  1.0  -0.1229
  C  C2056  1  0.378080  0.792740  0.304140  1.0  -0.111
  C  C2057  1  0.396190  0.765850  0.320170  1.0  -0.1263
  C  C2058  1  0.426570  0.752950  0.304250  1.0  0.1785
  C  C2059  1  0.287790  0.756250  0.442390  1.0  0.1771
  C  C2060  1  0.301430  0.768530  0.411330  1.0  -0.1264
  C  C2061  1  0.291740  0.800360  0.397400  1.0  -0.0976
  C  C2062  1  0.267670  0.818410  0.415770  1.0  -0.1326
  C  C2063  1  0.255950  0.803950  0.447030  1.0  0.1855
  C  C2064  1  0.476920  0.819120  0.209220  1.0  0.1783
  S  S2065  1  0.834260  0.525760  0.659340  1.0  -0.1739
  S  S2066  1  0.702470  0.356050  0.963770  1.0  -0.1864
  S  S2067  1  0.525760  0.834260  0.480640  1.0  -0.1778
  S  S2068  1  0.356050  0.702470  0.477710  1.0  -0.1858
  S  S2069  1  0.659340  0.480640  0.834260  1.0  -0.1748
  S  S2070  1  0.963770  0.477710  0.702470  1.0  -0.1867
  S  S2071  1  0.480640  0.659340  0.525760  1.0  -0.1717
  S  S2072  1  0.477710  0.963770  0.356050  1.0  -0.1866
  S  S2073  1  0.659340  0.834260  0.525760  1.0  -0.1791
  S  S2074  1  0.963770  0.702470  0.356050  1.0  -0.1876
  S  S2075  1  0.480640  0.525760  0.834260  1.0  -0.176
  S  S2076  1  0.477710  0.356050  0.702470  1.0  -0.1862
  S  S2077  1  0.834260  0.659340  0.480640  1.0  -0.1784
  S  S2078  1  0.702470  0.963770  0.477710  1.0  -0.1872
  S  S2079  1  0.525760  0.480640  0.659340  1.0  -0.1697
  S  S2080  1  0.356050  0.477710  0.963770  1.0  -0.1856
  S  S2081  1  0.525760  0.659340  0.834260  1.0  -0.1802
  S  S2082  1  0.356050  0.963770  0.702470  1.0  -0.1856
  S  S2083  1  0.834260  0.480640  0.525760  1.0  -0.1777
  S  S2084  1  0.702470  0.477710  0.356050  1.0  -0.1878
  S  S2085  1  0.480640  0.834260  0.659340  1.0  -0.1787
  S  S2086  1  0.477710  0.702470  0.963770  1.0  -0.1866
  S  S2087  1  0.659340  0.525760  0.480640  1.0  -0.1712
  S  S2088  1  0.963770  0.356050  0.477710  1.0  -0.1865
  S  S2089  1  0.665740  0.974240  0.019360  1.0  -0.1667
  S  S2090  1  0.797530  0.143950  0.022290  1.0  -0.1874
  S  S2091  1  0.974240  0.665740  0.840660  1.0  -0.1697
  S  S2092  1  0.143950  0.797530  0.536230  1.0  -0.1863
  S  S2093  1  0.840660  0.019360  0.974240  1.0  -0.1668
  S  S2094  1  0.536230  0.022290  0.143950  1.0  -0.1868
  S  S2095  1  0.019360  0.840660  0.665740  1.0  -0.1698
  S  S2096  1  0.022290  0.536230  0.797530  1.0  -0.1856
  S  S2097  1  0.840660  0.665740  0.019360  1.0  -0.1729
  S  S2098  1  0.536230  0.797530  0.022290  1.0  -0.1868
  S  S2099  1  0.019360  0.974240  0.840660  1.0  -0.1668
  S  S2100  1  0.022290  0.143950  0.536230  1.0  -0.1872
  S  S2101  1  0.665740  0.840660  0.974240  1.0  -0.169
  S  S2102  1  0.797530  0.536230  0.143950  1.0  -0.1861
  S  S2103  1  0.974240  0.019360  0.665740  1.0  -0.1662
  S  S2104  1  0.143950  0.022290  0.797530  1.0  -0.1865
  S  S2105  1  0.974240  0.840660  0.019360  1.0  -0.1691
  S  S2106  1  0.143950  0.536230  0.022290  1.0  -0.1866
  S  S2107  1  0.665740  0.019360  0.840660  1.0  -0.1719
  S  S2108  1  0.797530  0.022290  0.536230  1.0  -0.1876
  S  S2109  1  0.019360  0.665740  0.974240  1.0  -0.1688
  S  S2110  1  0.022290  0.797530  0.143950  1.0  -0.1865
  S  S2111  1  0.840660  0.974240  0.665740  1.0  -0.1673
  S  S2112  1  0.536230  0.143950  0.797530  1.0  -0.1876
  S  S2113  1  0.165740  0.474240  0.340660  1.0  -0.1762
  S  S2114  1  0.297530  0.643950  0.036230  1.0  -0.1869
  S  S2115  1  0.474240  0.165740  0.519360  1.0  -0.1783
  S  S2116  1  0.643950  0.297530  0.522290  1.0  -0.1864
  S  S2117  1  0.340660  0.519360  0.165740  1.0  -0.1744
  S  S2118  1  0.036230  0.522290  0.297530  1.0  -0.1857
  S  S2119  1  0.519360  0.340660  0.474240  1.0  -0.1702
  S  S2120  1  0.522290  0.036230  0.643950  1.0  -0.1859
  S  S2121  1  0.340660  0.165740  0.474240  1.0  -0.178
  S  S2122  1  0.036230  0.297530  0.643950  1.0  -0.1856
  S  S2123  1  0.519360  0.474240  0.165740  1.0  -0.1763
  S  S2124  1  0.522290  0.643950  0.297530  1.0  -0.1872
  S  S2125  1  0.165740  0.340660  0.519360  1.0  -0.179
  S  S2126  1  0.297530  0.036230  0.522290  1.0  -0.1871
  S  S2127  1  0.474240  0.519360  0.340660  1.0  -0.1702
  S  S2128  1  0.643950  0.522290  0.036230  1.0  -0.1869
  S  S2129  1  0.474240  0.340660  0.165740  1.0  -0.1777
  S  S2130  1  0.643950  0.036230  0.297530  1.0  -0.1872
  S  S2131  1  0.165740  0.519360  0.474240  1.0  -0.178
  S  S2132  1  0.297530  0.522290  0.643950  1.0  -0.1864
  S  S2133  1  0.519360  0.165740  0.340660  1.0  -0.1805
  S  S2134  1  0.522290  0.297530  0.036230  1.0  -0.187
  S  S2135  1  0.340660  0.474240  0.519360  1.0  -0.1722
  S  S2136  1  0.036230  0.643950  0.522290  1.0  -0.1869
  S  S2137  1  0.334260  0.025760  0.980640  1.0  -0.167
  S  S2138  1  0.202470  0.856050  0.977710  1.0  -0.1866
  S  S2139  1  0.025760  0.334260  0.159340  1.0  -0.1675
  S  S2140  1  0.856050  0.202470  0.463770  1.0  -0.1859
  S  S2141  1  0.159340  0.980640  0.025760  1.0  -0.1658
  S  S2142  1  0.463770  0.977710  0.856050  1.0  -0.1873
  S  S2143  1  0.980640  0.159340  0.334260  1.0  -0.1724
  S  S2144  1  0.977710  0.463770  0.202470  1.0  -0.1875
  S  S2145  1  0.159340  0.334260  0.980640  1.0  -0.1718
  S  S2146  1  0.463770  0.202470  0.977710  1.0  -0.1862
  S  S2147  1  0.980640  0.025760  0.159340  1.0  -0.1659
  S  S2148  1  0.977710  0.856050  0.463770  1.0  -0.1862
  S  S2149  1  0.334260  0.159340  0.025760  1.0  -0.1698
  S  S2150  1  0.202470  0.463770  0.856050  1.0  -0.1878
  S  S2151  1  0.025760  0.980640  0.334260  1.0  -0.1672
  S  S2152  1  0.856050  0.977710  0.202470  1.0  -0.1857
  S  S2153  1  0.025760  0.159340  0.980640  1.0  -0.1683
  S  S2154  1  0.856050  0.463770  0.977710  1.0  -0.1859
  S  S2155  1  0.334260  0.980640  0.159340  1.0  -0.1709
  S  S2156  1  0.202470  0.977710  0.463770  1.0  -0.1875
  S  S2157  1  0.980640  0.334260  0.025760  1.0  -0.1686
  S  S2158  1  0.977710  0.202470  0.856050  1.0  -0.1875
  S  S2159  1  0.159340  0.025760  0.334260  1.0  -0.1684
  S  S2160  1  0.463770  0.856050  0.202470  1.0  -0.1865
  N  N2161  1  0.701950  0.483170  0.657030  1.0  -0.3227
  N  N2162  1  0.730330  0.492490  0.728390  1.0  -0.3072
  N  N2163  1  0.790140  0.500980  0.711320  1.0  -0.4241
  N  N2164  1  0.772660  0.450300  0.769280  1.0  -0.3354
  N  N2165  1  0.803720  0.339200  0.834480  1.0  -0.4266
  N  N2166  1  0.849870  0.343890  0.791790  1.0  -0.3522
  N  N2167  1  0.850260  0.296520  0.833520  1.0  -0.3913
  N  N2168  1  0.773900  0.265260  0.939680  1.0  -0.3152
  N  N2169  1  0.960710  0.273150  0.765870  1.0  -0.3158
  N  N2170  1  0.714680  0.292280  0.986480  1.0  -0.4651
  N  N2171  1  0.483170  0.701950  0.657850  1.0  -0.3213
  N  N2172  1  0.492490  0.730330  0.548790  1.0  -0.308
  N  N2173  1  0.500980  0.790140  0.497560  1.0  -0.4225
  N  N2174  1  0.450300  0.772660  0.507760  1.0  -0.3337
  N  N2175  1  0.339200  0.803720  0.522600  1.0  -0.4259
  N  N2176  1  0.343890  0.849870  0.514450  1.0  -0.3511
  N  N2177  1  0.296520  0.850260  0.519700  1.0  -0.3929
  N  N2178  1  0.265260  0.773900  0.521160  1.0  -0.3146
  N  N2179  1  0.273150  0.960710  0.500270  1.0  -0.3222
  N  N2180  1  0.292280  0.714680  0.506560  1.0  -0.4663
  N  N2181  1  0.657030  0.657850  0.701950  1.0  -0.3207
  N  N2182  1  0.728390  0.548790  0.730330  1.0  -0.3104
  N  N2183  1  0.711320  0.497560  0.790140  1.0  -0.4237
  N  N2184  1  0.769280  0.507760  0.772660  1.0  -0.3344
  N  N2185  1  0.834480  0.522600  0.803720  1.0  -0.4262
  N  N2186  1  0.791790  0.514450  0.849870  1.0  -0.3495
  N  N2187  1  0.833520  0.519700  0.850260  1.0  -0.3966
  N  N2188  1  0.939680  0.521160  0.773900  1.0  -0.3122
  N  N2189  1  0.765870  0.500270  0.960710  1.0  -0.3202
  N  N2190  1  0.986480  0.506560  0.714680  1.0  -0.4587
  N  N2191  1  0.657850  0.657030  0.483170  1.0  -0.3208
  N  N2192  1  0.548790  0.728390  0.492490  1.0  -0.3056
  N  N2193  1  0.497560  0.711320  0.500980  1.0  -0.4255
  N  N2194  1  0.507760  0.769280  0.450300  1.0  -0.3369
  N  N2195  1  0.522600  0.834480  0.339200  1.0  -0.4274
  N  N2196  1  0.514450  0.791790  0.343890  1.0  -0.3486
  N  N2197  1  0.519700  0.833520  0.296520  1.0  -0.3936
  N  N2198  1  0.521160  0.939680  0.265260  1.0  -0.3156
  N  N2199  1  0.500270  0.765870  0.273150  1.0  -0.3225
  N  N2200  1  0.506560  0.986480  0.292280  1.0  -0.4579
  N  N2201  1  0.657030  0.701950  0.483170  1.0  -0.3155
  N  N2202  1  0.728390  0.730330  0.492490  1.0  -0.3074
  N  N2203  1  0.711320  0.790140  0.500980  1.0  -0.4254
  N  N2204  1  0.769280  0.772660  0.450300  1.0  -0.3352
  N  N2205  1  0.834480  0.803720  0.339200  1.0  -0.4261
  N  N2206  1  0.791790  0.849870  0.343890  1.0  -0.3504
  N  N2207  1  0.833520  0.850260  0.296520  1.0  -0.3936
  N  N2208  1  0.939680  0.773900  0.265260  1.0  -0.3132
  N  N2209  1  0.765870  0.960710  0.273150  1.0  -0.3221
  N  N2210  1  0.986480  0.714680  0.292280  1.0  -0.4659
  N  N2211  1  0.657850  0.483170  0.701950  1.0  -0.3169
  N  N2212  1  0.548790  0.492490  0.730330  1.0  -0.3031
  N  N2213  1  0.497560  0.500980  0.790140  1.0  -0.4234
  N  N2214  1  0.507760  0.450300  0.772660  1.0  -0.3351
  N  N2215  1  0.522600  0.339200  0.803720  1.0  -0.426
  N  N2216  1  0.514450  0.343890  0.849870  1.0  -0.3507
  N  N2217  1  0.519700  0.296520  0.850260  1.0  -0.3916
  N  N2218  1  0.521160  0.265260  0.773900  1.0  -0.3177
  N  N2219  1  0.500270  0.273150  0.960710  1.0  -0.3211
  N  N2220  1  0.506560  0.292280  0.714680  1.0  -0.4612
  N  N2221  1  0.701950  0.657030  0.657850  1.0  -0.3163
  N  N2222  1  0.730330  0.728390  0.548790  1.0  -0.3082
  N  N2223  1  0.790140  0.711320  0.497560  1.0  -0.427
  N  N2224  1  0.772660  0.769280  0.507760  1.0  -0.3343
  N  N2225  1  0.803720  0.834480  0.522600  1.0  -0.4267
  N  N2226  1  0.849870  0.791790  0.514450  1.0  -0.3499
  N  N2227  1  0.850260  0.833520  0.519700  1.0  -0.394
  N  N2228  1  0.773900  0.939680  0.521160  1.0  -0.3161
  N  N2229  1  0.960710  0.765870  0.500270  1.0  -0.3154
  N  N2230  1  0.714680  0.986480  0.506560  1.0  -0.4609
  N  N2231  1  0.483170  0.657850  0.657030  1.0  -0.3175
  N  N2232  1  0.492490  0.548790  0.728390  1.0  -0.3098
  N  N2233  1  0.500980  0.497560  0.711320  1.0  -0.4249
  N  N2234  1  0.450300  0.507760  0.769280  1.0  -0.3313
  N  N2235  1  0.339200  0.522600  0.834480  1.0  -0.4268
  N  N2236  1  0.343890  0.514450  0.791790  1.0  -0.3513
  N  N2237  1  0.296520  0.519700  0.833520  1.0  -0.3937
  N  N2238  1  0.265260  0.521160  0.939680  1.0  -0.3147
  N  N2239  1  0.273150  0.500270  0.765870  1.0  -0.3199
  N  N2240  1  0.292280  0.506560  0.986480  1.0  -0.4612
  N  N2241  1  0.483170  0.657030  0.701950  1.0  -0.3229
  N  N2242  1  0.492490  0.728390  0.730330  1.0  -0.3077
  N  N2243  1  0.500980  0.711320  0.790140  1.0  -0.4276
  N  N2244  1  0.450300  0.769280  0.772660  1.0  -0.3326
  N  N2245  1  0.339200  0.834480  0.803720  1.0  -0.4273
  N  N2246  1  0.343890  0.791790  0.849870  1.0  -0.3486
  N  N2247  1  0.296520  0.833520  0.850260  1.0  -0.3928
  N  N2248  1  0.265260  0.939680  0.773900  1.0  -0.3162
  N  N2249  1  0.273150  0.765870  0.960710  1.0  -0.32
  N  N2250  1  0.292280  0.986480  0.714680  1.0  -0.4606
  N  N2251  1  0.701950  0.657850  0.483170  1.0  -0.3221
  N  N2252  1  0.730330  0.548790  0.492490  1.0  -0.3103
  N  N2253  1  0.790140  0.497560  0.500980  1.0  -0.4241
  N  N2254  1  0.772660  0.507760  0.450300  1.0  -0.3342
  N  N2255  1  0.803720  0.522600  0.339200  1.0  -0.4267
  N  N2256  1  0.849870  0.514450  0.343890  1.0  -0.348
  N  N2257  1  0.850260  0.519700  0.296520  1.0  -0.3937
  N  N2258  1  0.773900  0.521160  0.265260  1.0  -0.3144
  N  N2259  1  0.960710  0.500270  0.273150  1.0  -0.3151
  N  N2260  1  0.714680  0.506560  0.292280  1.0  -0.4614
  N  N2261  1  0.657850  0.701950  0.657030  1.0  -0.3212
  N  N2262  1  0.548790  0.730330  0.728390  1.0  -0.3053
  N  N2263  1  0.497560  0.790140  0.711320  1.0  -0.4226
  N  N2264  1  0.507760  0.772660  0.769280  1.0  -0.3369
  N  N2265  1  0.522600  0.803720  0.834480  1.0  -0.4258
  N  N2266  1  0.514450  0.849870  0.791790  1.0  -0.3507
  N  N2267  1  0.519700  0.850260  0.833520  1.0  -0.397
  N  N2268  1  0.521160  0.773900  0.939680  1.0  -0.3164
  N  N2269  1  0.500270  0.960710  0.765870  1.0  -0.3221
  N  N2270  1  0.506560  0.714680  0.986480  1.0  -0.4655
  N  N2271  1  0.657030  0.483170  0.657850  1.0  -0.322
  N  N2272  1  0.728390  0.492490  0.548790  1.0  -0.3057
  N  N2273  1  0.711320  0.500980  0.497560  1.0  -0.4242
  N  N2274  1  0.769280  0.450300  0.507760  1.0  -0.336
  N  N2275  1  0.834480  0.339200  0.522600  1.0  -0.4275
  N  N2276  1  0.791790  0.343890  0.514450  1.0  -0.3507
  N  N2277  1  0.833520  0.296520  0.519700  1.0  -0.3915
  N  N2278  1  0.939680  0.265260  0.521160  1.0  -0.3139
  N  N2279  1  0.765870  0.273150  0.500270  1.0  -0.3214
  N  N2280  1  0.986480  0.292280  0.506560  1.0  -0.4608
  N  N2281  1  0.798050  0.016830  0.842150  1.0  -0.3213
  N  N2282  1  0.769670  0.007510  0.951210  1.0  -0.3075
  N  N2283  1  0.709860  0.999020  0.002440  1.0  -0.4224
  N  N2284  1  0.727340  0.049700  0.992240  1.0  -0.3359
  N  N2285  1  0.696280  0.160800  0.977400  1.0  -0.4267
  N  N2286  1  0.650130  0.156110  0.985550  1.0  -0.3512
  N  N2287  1  0.649740  0.203480  0.980300  1.0  -0.392
  N  N2288  1  0.726100  0.234740  0.978840  1.0  -0.3154
  N  N2289  1  0.539290  0.226850  0.999730  1.0  -0.3167
  N  N2290  1  0.785320  0.207720  0.993440  1.0  -0.4662
  N  N2291  1  0.016830  0.798050  0.842970  1.0  -0.3204
  N  N2292  1  0.007510  0.769670  0.771610  1.0  -0.3078
  N  N2293  1  0.999020  0.709860  0.788680  1.0  -0.4256
  N  N2294  1  0.049700  0.727340  0.730720  1.0  -0.3329
  N  N2295  1  0.160800  0.696280  0.665520  1.0  -0.4266
  N  N2296  1  0.156110  0.650130  0.708210  1.0  -0.3502
  N  N2297  1  0.203480  0.649740  0.666480  1.0  -0.394
  N  N2298  1  0.234740  0.726100  0.560320  1.0  -0.3153
  N  N2299  1  0.226850  0.539290  0.734130  1.0  -0.3224
  N  N2300  1  0.207720  0.785320  0.513520  1.0  -0.4635
  N  N2301  1  0.842970  0.842150  0.016830  1.0  -0.3219
  N  N2302  1  0.771610  0.951210  0.007510  1.0  -0.3101
  N  N2303  1  0.788680  0.002440  0.999020  1.0  -0.4238
  N  N2304  1  0.730720  0.992240  0.049700  1.0  -0.3337
  N  N2305  1  0.665520  0.977400  0.160800  1.0  -0.4275
  N  N2306  1  0.708210  0.985550  0.156110  1.0  -0.3505
  N  N2307  1  0.666480  0.980300  0.203480  1.0  -0.397
  N  N2308  1  0.560320  0.978840  0.234740  1.0  -0.3122
  N  N2309  1  0.734130  0.999730  0.226850  1.0  -0.3192
  N  N2310  1  0.513520  0.993440  0.207720  1.0  -0.4597
  N  N2311  1  0.842150  0.842970  0.798050  1.0  -0.3213
  N  N2312  1  0.951210  0.771610  0.769670  1.0  -0.3051
  N  N2313  1  0.002440  0.788680  0.709860  1.0  -0.4234
  N  N2314  1  0.992240  0.730720  0.727340  1.0  -0.3356
  N  N2315  1  0.977400  0.665520  0.696280  1.0  -0.4272
  N  N2316  1  0.985550  0.708210  0.650130  1.0  -0.3496
  N  N2317  1  0.980300  0.666480  0.649740  1.0  -0.3952
  N  N2318  1  0.978840  0.560320  0.726100  1.0  -0.3169
  N  N2319  1  0.999730  0.734130  0.539290  1.0  -0.3222
  N  N2320  1  0.993440  0.513520  0.785320  1.0  -0.4575
  N  N2321  1  0.842970  0.798050  0.842150  1.0  -0.3143
  N  N2322  1  0.771610  0.769670  0.951210  1.0  -0.3082
  N  N2323  1  0.788680  0.709860  0.002440  1.0  -0.4256
  N  N2324  1  0.730720  0.727340  0.992240  1.0  -0.3347
  N  N2325  1  0.665520  0.696280  0.977400  1.0  -0.4261
  N  N2326  1  0.708210  0.650130  0.985550  1.0  -0.3502
  N  N2327  1  0.666480  0.649740  0.980300  1.0  -0.3932
  N  N2328  1  0.560320  0.726100  0.978840  1.0  -0.313
  N  N2329  1  0.734130  0.539290  0.999730  1.0  -0.3225
  N  N2330  1  0.513520  0.785320  0.993440  1.0  -0.4622
  N  N2331  1  0.842150  0.016830  0.842970  1.0  -0.3173
  N  N2332  1  0.951210  0.007510  0.771610  1.0  -0.3035
  N  N2333  1  0.002440  0.999020  0.788680  1.0  -0.424
  N  N2334  1  0.992240  0.049700  0.730720  1.0  -0.3362
  N  N2335  1  0.977400  0.160800  0.665520  1.0  -0.4267
  N  N2336  1  0.985550  0.156110  0.708210  1.0  -0.3503
  N  N2337  1  0.980300  0.203480  0.666480  1.0  -0.3916
  N  N2338  1  0.978840  0.234740  0.560320  1.0  -0.3178
  N  N2339  1  0.999730  0.226850  0.734130  1.0  -0.321
  N  N2340  1  0.993440  0.207720  0.513520  1.0  -0.4663
  N  N2341  1  0.798050  0.842970  0.016830  1.0  -0.3154
  N  N2342  1  0.769670  0.771610  0.007510  1.0  -0.3082
  N  N2343  1  0.709860  0.788680  0.999020  1.0  -0.4246
  N  N2344  1  0.727340  0.730720  0.049700  1.0  -0.3339
  N  N2345  1  0.696280  0.665520  0.160800  1.0  -0.427
  N  N2346  1  0.650130  0.708210  0.156110  1.0  -0.3506
  N  N2347  1  0.649740  0.666480  0.203480  1.0  -0.3935
  N  N2348  1  0.726100  0.560320  0.234740  1.0  -0.3172
  N  N2349  1  0.539290  0.734130  0.226850  1.0  -0.3166
  N  N2350  1  0.785320  0.513520  0.207720  1.0  -0.4595
  N  N2351  1  0.016830  0.842150  0.798050  1.0  -0.3164
  N  N2352  1  0.007510  0.951210  0.769670  1.0  -0.3084
  N  N2353  1  0.999020  0.002440  0.709860  1.0  -0.4248
  N  N2354  1  0.049700  0.992240  0.727340  1.0  -0.3313
  N  N2355  1  0.160800  0.977400  0.696280  1.0  -0.4271
  N  N2356  1  0.156110  0.985550  0.650130  1.0  -0.3514
  N  N2357  1  0.203480  0.980300  0.649740  1.0  -0.3945
  N  N2358  1  0.234740  0.978840  0.726100  1.0  -0.3148
  N  N2359  1  0.226850  0.999730  0.539290  1.0  -0.3196
  N  N2360  1  0.207720  0.993440  0.785320  1.0  -0.4615
  N  N2361  1  0.016830  0.842970  0.842150  1.0  -0.3238
  N  N2362  1  0.007510  0.771610  0.951210  1.0  -0.3077
  N  N2363  1  0.999020  0.788680  0.002440  1.0  -0.4251
  N  N2364  1  0.049700  0.730720  0.992240  1.0  -0.3323
  N  N2365  1  0.160800  0.665520  0.977400  1.0  -0.4271
  N  N2366  1  0.156110  0.708210  0.985550  1.0  -0.351
  N  N2367  1  0.203480  0.666480  0.980300  1.0  -0.3939
  N  N2368  1  0.234740  0.560320  0.978840  1.0  -0.3172
  N  N2369  1  0.226850  0.734130  0.999730  1.0  -0.3194
  N  N2370  1  0.207720  0.513520  0.993440  1.0  -0.4625
  N  N2371  1  0.798050  0.842150  0.842970  1.0  -0.3213
  N  N2372  1  0.769670  0.951210  0.771610  1.0  -0.3099
  N  N2373  1  0.709860  0.002440  0.788680  1.0  -0.4232
  N  N2374  1  0.727340  0.992240  0.730720  1.0  -0.3334
  N  N2375  1  0.696280  0.977400  0.665520  1.0  -0.4273
  N  N2376  1  0.650130  0.985550  0.708210  1.0  -0.35
  N  N2377  1  0.649740  0.980300  0.666480  1.0  -0.3949
  N  N2378  1  0.726100  0.978840  0.560320  1.0  -0.3149
  N  N2379  1  0.539290  0.999730  0.734130  1.0  -0.3157
  N  N2380  1  0.785320  0.993440  0.513520  1.0  -0.4597
  N  N2381  1  0.842150  0.798050  0.016830  1.0  -0.3207
  N  N2382  1  0.951210  0.769670  0.007510  1.0  -0.3048
  N  N2383  1  0.002440  0.709860  0.999020  1.0  -0.4247
  N  N2384  1  0.992240  0.727340  0.049700  1.0  -0.3364
  N  N2385  1  0.977400  0.696280  0.160800  1.0  -0.427
  N  N2386  1  0.985550  0.650130  0.156110  1.0  -0.3518
  N  N2387  1  0.980300  0.649740  0.203480  1.0  -0.3967
  N  N2388  1  0.978840  0.726100  0.234740  1.0  -0.3163
  N  N2389  1  0.999730  0.539290  0.226850  1.0  -0.3225
  N  N2390  1  0.993440  0.785320  0.207720  1.0  -0.4629
  N  N2391  1  0.842970  0.016830  0.798050  1.0  -0.3209
  N  N2392  1  0.771610  0.007510  0.769670  1.0  -0.306
  N  N2393  1  0.788680  0.999020  0.709860  1.0  -0.4247
  N  N2394  1  0.730720  0.049700  0.727340  1.0  -0.3367
  N  N2395  1  0.665520  0.160800  0.696280  1.0  -0.427
  N  N2396  1  0.708210  0.156110  0.650130  1.0  -0.3511
  N  N2397  1  0.666480  0.203480  0.649740  1.0  -0.3916
  N  N2398  1  0.560320  0.234740  0.726100  1.0  -0.3144
  N  N2399  1  0.734130  0.226850  0.539290  1.0  -0.3209
  N  N2400  1  0.513520  0.207720  0.785320  1.0  -0.467
  N  N2401  1  0.298050  0.516830  0.342970  1.0  -0.3212
  N  N2402  1  0.269670  0.507510  0.271610  1.0  -0.3065
  N  N2403  1  0.209860  0.499020  0.288680  1.0  -0.4235
  N  N2404  1  0.227340  0.549700  0.230720  1.0  -0.3363
  N  N2405  1  0.196280  0.660800  0.165520  1.0  -0.4268
  N  N2406  1  0.150130  0.656110  0.208210  1.0  -0.3505
  N  N2407  1  0.149740  0.703480  0.166480  1.0  -0.3917
  N  N2408  1  0.226100  0.734740  0.060320  1.0  -0.3149
  N  N2409  1  0.039290  0.726850  0.234130  1.0  -0.3166
  N  N2410  1  0.285320  0.707720  0.013520  1.0  -0.4666
  N  N2411  1  0.516830  0.298050  0.342150  1.0  -0.3205
  N  N2412  1  0.507510  0.269670  0.451210  1.0  -0.3087
  N  N2413  1  0.499020  0.209860  0.502440  1.0  -0.4246
  N  N2414  1  0.549700  0.227340  0.492240  1.0  -0.3328
  N  N2415  1  0.660800  0.196280  0.477400  1.0  -0.4264
  N  N2416  1  0.656110  0.150130  0.485550  1.0  -0.3508
  N  N2417  1  0.703480  0.149740  0.480300  1.0  -0.3938
  N  N2418  1  0.734740  0.226100  0.478840  1.0  -0.3154
  N  N2419  1  0.726850  0.039290  0.499730  1.0  -0.3225
  N  N2420  1  0.707720  0.285320  0.493440  1.0  -0.4632
  N  N2421  1  0.342970  0.342150  0.298050  1.0  -0.3213
  N  N2422  1  0.271610  0.451210  0.269670  1.0  -0.3098
  N  N2423  1  0.288680  0.502440  0.209860  1.0  -0.4239
  N  N2424  1  0.230720  0.492240  0.227340  1.0  -0.3349
  N  N2425  1  0.165520  0.477400  0.196280  1.0  -0.4276
  N  N2426  1  0.208210  0.485550  0.150130  1.0  -0.3508
  N  N2427  1  0.166480  0.480300  0.149740  1.0  -0.3943
  N  N2428  1  0.060320  0.478840  0.226100  1.0  -0.312
  N  N2429  1  0.234130  0.499730  0.039290  1.0  -0.3206
  N  N2430  1  0.013520  0.493440  0.285320  1.0  -0.4575
  N  N2431  1  0.342150  0.342970  0.516830  1.0  -0.322
  N  N2432  1  0.451210  0.271610  0.507510  1.0  -0.3053
  N  N2433  1  0.502440  0.288680  0.499020  1.0  -0.4243
  N  N2434  1  0.492240  0.230720  0.549700  1.0  -0.3343
  N  N2435  1  0.477400  0.165520  0.660800  1.0  -0.4269
  N  N2436  1  0.485550  0.208210  0.656110  1.0  -0.3495
  N  N2437  1  0.480300  0.166480  0.703480  1.0  -0.3973
  N  N2438  1  0.478840  0.060320  0.734740  1.0  -0.3171
  N  N2439  1  0.499730  0.234130  0.726850  1.0  -0.3207
  N  N2440  1  0.493440  0.013520  0.707720  1.0  -0.46
  N  N2441  1  0.342970  0.298050  0.516830  1.0  -0.3148
  N  N2442  1  0.271610  0.269670  0.507510  1.0  -0.3076
  N  N2443  1  0.288680  0.209860  0.499020  1.0  -0.4268
  N  N2444  1  0.230720  0.227340  0.549700  1.0  -0.3344
  N  N2445  1  0.165520  0.196280  0.660800  1.0  -0.4264
  N  N2446  1  0.208210  0.150130  0.656110  1.0  -0.3506
  N  N2447  1  0.166480  0.149740  0.703480  1.0  -0.3937
  N  N2448  1  0.060320  0.226100  0.734740  1.0  -0.3135
  N  N2449  1  0.234130  0.039290  0.726850  1.0  -0.3225
  N  N2450  1  0.013520  0.285320  0.707720  1.0  -0.4626
  N  N2451  1  0.342150  0.516830  0.298050  1.0  -0.3171
  N  N2452  1  0.451210  0.507510  0.269670  1.0  -0.3036
  N  N2453  1  0.502440  0.499020  0.209860  1.0  -0.4255
  N  N2454  1  0.492240  0.549700  0.227340  1.0  -0.3366
  N  N2455  1  0.477400  0.660800  0.196280  1.0  -0.4264
  N  N2456  1  0.485550  0.656110  0.150130  1.0  -0.3518
  N  N2457  1  0.480300  0.703480  0.149740  1.0  -0.3913
  N  N2458  1  0.478840  0.734740  0.226100  1.0  -0.3181
  N  N2459  1  0.499730  0.726850  0.039290  1.0  -0.3225
  N  N2460  1  0.493440  0.707720  0.285320  1.0  -0.4667
  N  N2461  1  0.298050  0.342970  0.342150  1.0  -0.3153
  N  N2462  1  0.269670  0.271610  0.451210  1.0  -0.3088
  N  N2463  1  0.209860  0.288680  0.502440  1.0  -0.4249
  N  N2464  1  0.227340  0.230720  0.492240  1.0  -0.3344
  N  N2465  1  0.196280  0.165520  0.477400  1.0  -0.4269
  N  N2466  1  0.150130  0.208210  0.485550  1.0  -0.351
  N  N2467  1  0.149740  0.166480  0.480300  1.0  -0.3931
  N  N2468  1  0.226100  0.060320  0.478840  1.0  -0.3169
  N  N2469  1  0.039290  0.234130  0.499730  1.0  -0.3166
  N  N2470  1  0.285320  0.013520  0.493440  1.0  -0.4595
  N  N2471  1  0.516830  0.342150  0.342970  1.0  -0.3177
  N  N2472  1  0.507510  0.451210  0.271610  1.0  -0.3084
  N  N2473  1  0.499020  0.502440  0.288680  1.0  -0.4234
  N  N2474  1  0.549700  0.492240  0.230720  1.0  -0.3309
  N  N2475  1  0.660800  0.477400  0.165520  1.0  -0.4274
  N  N2476  1  0.656110  0.485550  0.208210  1.0  -0.3506
  N  N2477  1  0.703480  0.480300  0.166480  1.0  -0.3947
  N  N2478  1  0.734740  0.478840  0.060320  1.0  -0.3148
  N  N2479  1  0.726850  0.499730  0.234130  1.0  -0.3189
  N  N2480  1  0.707720  0.493440  0.013520  1.0  -0.4626
  N  N2481  1  0.516830  0.342970  0.298050  1.0  -0.3222
  N  N2482  1  0.507510  0.271610  0.269670  1.0  -0.3076
  N  N2483  1  0.499020  0.288680  0.209860  1.0  -0.4235
  N  N2484  1  0.549700  0.230720  0.227340  1.0  -0.3323
  N  N2485  1  0.660800  0.165520  0.196280  1.0  -0.4271
  N  N2486  1  0.656110  0.208210  0.150130  1.0  -0.3509
  N  N2487  1  0.703480  0.166480  0.149740  1.0  -0.3939
  N  N2488  1  0.734740  0.060320  0.226100  1.0  -0.3172
  N  N2489  1  0.726850  0.234130  0.039290  1.0  -0.3204
  N  N2490  1  0.707720  0.013520  0.285320  1.0  -0.461
  N  N2491  1  0.298050  0.342150  0.516830  1.0  -0.3212
  N  N2492  1  0.269670  0.451210  0.507510  1.0  -0.3101
  N  N2493  1  0.209860  0.502440  0.499020  1.0  -0.4225
  N  N2494  1  0.227340  0.492240  0.549700  1.0  -0.3338
  N  N2495  1  0.196280  0.477400  0.660800  1.0  -0.4271
  N  N2496  1  0.150130  0.485550  0.656110  1.0  -0.3513
  N  N2497  1  0.149740  0.480300  0.703480  1.0  -0.397
  N  N2498  1  0.226100  0.478840  0.734740  1.0  -0.3144
  N  N2499  1  0.039290  0.499730  0.726850  1.0  -0.3159
  N  N2500  1  0.285320  0.493440  0.707720  1.0  -0.4599
  N  N2501  1  0.342150  0.298050  0.342970  1.0  -0.3205
  N  N2502  1  0.451210  0.269670  0.271610  1.0  -0.3048
  N  N2503  1  0.502440  0.209860  0.288680  1.0  -0.4262
  N  N2504  1  0.492240  0.227340  0.230720  1.0  -0.3368
  N  N2505  1  0.477400  0.196280  0.165520  1.0  -0.4275
  N  N2506  1  0.485550  0.150130  0.208210  1.0  -0.3495
  N  N2507  1  0.480300  0.149740  0.166480  1.0  -0.395
  N  N2508  1  0.478840  0.226100  0.060320  1.0  -0.3168
  N  N2509  1  0.499730  0.039290  0.234130  1.0  -0.3224
  N  N2510  1  0.493440  0.285320  0.013520  1.0  -0.4618
  N  N2511  1  0.342970  0.516830  0.342150  1.0  -0.3221
  N  N2512  1  0.271610  0.507510  0.451210  1.0  -0.306
  N  N2513  1  0.288680  0.499020  0.502440  1.0  -0.4253
  N  N2514  1  0.230720  0.549700  0.492240  1.0  -0.3362
  N  N2515  1  0.165520  0.660800  0.477400  1.0  -0.4273
  N  N2516  1  0.208210  0.656110  0.485550  1.0  -0.3504
  N  N2517  1  0.166480  0.703480  0.480300  1.0  -0.3919
  N  N2518  1  0.060320  0.734740  0.478840  1.0  -0.3142
  N  N2519  1  0.234130  0.726850  0.499730  1.0  -0.3196
  N  N2520  1  0.013520  0.707720  0.493440  1.0  -0.4664
  N  N2521  1  0.201950  0.983170  0.157850  1.0  -0.3226
  N  N2522  1  0.230330  0.992490  0.048790  1.0  -0.307
  N  N2523  1  0.290140  0.000980  0.997560  1.0  -0.424
  N  N2524  1  0.272660  0.950300  0.007760  1.0  -0.3358
  N  N2525  1  0.303720  0.839200  0.022600  1.0  -0.4266
  N  N2526  1  0.349870  0.843890  0.014450  1.0  -0.3518
  N  N2527  1  0.350260  0.796520  0.019700  1.0  -0.3915
  N  N2528  1  0.273900  0.765260  0.021160  1.0  -0.3146
  N  N2529  1  0.460710  0.773150  0.000270  1.0  -0.3158
  N  N2530  1  0.214680  0.792280  0.006560  1.0  -0.4654
  N  N2531  1  0.983170  0.201950  0.157030  1.0  -0.3212
  N  N2532  1  0.992490  0.230330  0.228390  1.0  -0.3083
  N  N2533  1  0.000980  0.290140  0.211320  1.0  -0.4223
  N  N2534  1  0.950300  0.272660  0.269280  1.0  -0.3335
  N  N2535  1  0.839200  0.303720  0.334480  1.0  -0.4258
  N  N2536  1  0.843890  0.349870  0.291790  1.0  -0.3514
  N  N2537  1  0.796520  0.350260  0.333520  1.0  -0.393
  N  N2538  1  0.765260  0.273900  0.439680  1.0  -0.3153
  N  N2539  1  0.773150  0.460710  0.265870  1.0  -0.3223
  N  N2540  1  0.792280  0.214680  0.486480  1.0  -0.4658
  N  N2541  1  0.157030  0.157850  0.983170  1.0  -0.3203
  N  N2542  1  0.228390  0.048790  0.992490  1.0  -0.3101
  N  N2543  1  0.211320  0.997560  0.000980  1.0  -0.4225
  N  N2544  1  0.269280  0.007760  0.950300  1.0  -0.3358
  N  N2545  1  0.334480  0.022600  0.839200  1.0  -0.4274
  N  N2546  1  0.291790  0.014450  0.843890  1.0  -0.3497
  N  N2547  1  0.333520  0.019700  0.796520  1.0  -0.3936
  N  N2548  1  0.439680  0.021160  0.765260  1.0  -0.3119
  N  N2549  1  0.265870  0.000270  0.773150  1.0  -0.3212
  N  N2550  1  0.486480  0.006560  0.792280  1.0  -0.458
  N  N2551  1  0.157850  0.157030  0.201950  1.0  -0.3212
  N  N2552  1  0.048790  0.228390  0.230330  1.0  -0.3059
  N  N2553  1  0.997560  0.211320  0.290140  1.0  -0.4267
  N  N2554  1  0.007760  0.269280  0.272660  1.0  -0.3356
  N  N2555  1  0.022600  0.334480  0.303720  1.0  -0.4265
  N  N2556  1  0.014450  0.291790  0.349870  1.0  -0.3484
  N  N2557  1  0.019700  0.333520  0.350260  1.0  -0.3972
  N  N2558  1  0.021160  0.439680  0.273900  1.0  -0.3157
  N  N2559  1  0.000270  0.265870  0.460710  1.0  -0.3219
  N  N2560  1  0.006560  0.486480  0.214680  1.0  -0.4587
  N  N2561  1  0.157030  0.201950  0.157850  1.0  -0.3153
  N  N2562  1  0.228390  0.230330  0.048790  1.0  -0.3076
  N  N2563  1  0.211320  0.290140  0.997560  1.0  -0.4253
  N  N2564  1  0.269280  0.272660  0.007760  1.0  -0.335
  N  N2565  1  0.334480  0.303720  0.022600  1.0  -0.4264
  N  N2566  1  0.291790  0.349870  0.014450  1.0  -0.35
  N  N2567  1  0.333520  0.350260  0.019700  1.0  -0.3944
  N  N2568  1  0.439680  0.273900  0.021160  1.0  -0.3137
  N  N2569  1  0.265870  0.460710  0.000270  1.0  -0.3221
  N  N2570  1  0.486480  0.214680  0.006560  1.0  -0.4657
  N  N2571  1  0.157850  0.983170  0.157030  1.0  -0.3169
  N  N2572  1  0.048790  0.992490  0.228390  1.0  -0.3032
  N  N2573  1  0.997560  0.000980  0.211320  1.0  -0.4247
  N  N2574  1  0.007760  0.950300  0.269280  1.0  -0.3356
  N  N2575  1  0.022600  0.839200  0.334480  1.0  -0.4265
  N  N2576  1  0.014450  0.843890  0.291790  1.0  -0.3517
  N  N2577  1  0.019700  0.796520  0.333520  1.0  -0.3914
  N  N2578  1  0.021160  0.765260  0.439680  1.0  -0.3172
  N  N2579  1  0.000270  0.773150  0.265870  1.0  -0.3217
  N  N2580  1  0.006560  0.792280  0.486480  1.0  -0.4606
  N  N2581  1  0.201950  0.157030  0.983170  1.0  -0.316
  N  N2582  1  0.230330  0.228390  0.992490  1.0  -0.3081
  N  N2583  1  0.290140  0.211320  0.000980  1.0  -0.4257
  N  N2584  1  0.272660  0.269280  0.950300  1.0  -0.3348
  N  N2585  1  0.303720  0.334480  0.839200  1.0  -0.4267
  N  N2586  1  0.349870  0.291790  0.843890  1.0  -0.3494
  N  N2587  1  0.350260  0.333520  0.796520  1.0  -0.3933
  N  N2588  1  0.273900  0.439680  0.765260  1.0  -0.3155
  N  N2589  1  0.460710  0.265870  0.773150  1.0  -0.3152
  N  N2590  1  0.214680  0.486480  0.792280  1.0  -0.4612
  N  N2591  1  0.983170  0.157850  0.201950  1.0  -0.3168
  N  N2592  1  0.992490  0.048790  0.230330  1.0  -0.3098
  N  N2593  1  0.000980  0.997560  0.290140  1.0  -0.4236
  N  N2594  1  0.950300  0.007760  0.272660  1.0  -0.3312
  N  N2595  1  0.839200  0.022600  0.303720  1.0  -0.4262
  N  N2596  1  0.843890  0.014450  0.349870  1.0  -0.349
  N  N2597  1  0.796520  0.019700  0.350260  1.0  -0.3939
  N  N2598  1  0.765260  0.021160  0.273900  1.0  -0.3148
  N  N2599  1  0.773150  0.000270  0.460710  1.0  -0.3196
  N  N2600  1  0.792280  0.006560  0.214680  1.0  -0.4604
  N  N2601  1  0.983170  0.157030  0.157850  1.0  -0.3231
  N  N2602  1  0.992490  0.228390  0.048790  1.0  -0.3079
  N  N2603  1  0.000980  0.211320  0.997560  1.0  -0.4264
  N  N2604  1  0.950300  0.269280  0.007760  1.0  -0.3328
  N  N2605  1  0.839200  0.334480  0.022600  1.0  -0.4275
  N  N2606  1  0.843890  0.291790  0.014450  1.0  -0.3493
  N  N2607  1  0.796520  0.333520  0.019700  1.0  -0.3926
  N  N2608  1  0.765260  0.439680  0.021160  1.0  -0.3162
  N  N2609  1  0.773150  0.265870  0.000270  1.0  -0.3211
  N  N2610  1  0.792280  0.486480  0.006560  1.0  -0.4608
  N  N2611  1  0.201950  0.157850  0.157030  1.0  -0.3221
  N  N2612  1  0.230330  0.048790  0.228390  1.0  -0.3103
  N  N2613  1  0.290140  0.997560  0.211320  1.0  -0.4233
  N  N2614  1  0.272660  0.007760  0.269280  1.0  -0.3339
  N  N2615  1  0.303720  0.022600  0.334480  1.0  -0.4265
  N  N2616  1  0.349870  0.014450  0.291790  1.0  -0.351
  N  N2617  1  0.350260  0.019700  0.333520  1.0  -0.3961
  N  N2618  1  0.273900  0.021160  0.439680  1.0  -0.3146
  N  N2619  1  0.460710  0.000270  0.265870  1.0  -0.3152
  N  N2620  1  0.214680  0.006560  0.486480  1.0  -0.4615
  N  N2621  1  0.157850  0.201950  0.983170  1.0  -0.3216
  N  N2622  1  0.048790  0.230330  0.992490  1.0  -0.3054
  N  N2623  1  0.997560  0.290140  0.000980  1.0  -0.4236
  N  N2624  1  0.007760  0.272660  0.950300  1.0  -0.3369
  N  N2625  1  0.022600  0.303720  0.839200  1.0  -0.4261
  N  N2626  1  0.014450  0.349870  0.843890  1.0  -0.3496
  N  N2627  1  0.019700  0.350260  0.796520  1.0  -0.3939
  N  N2628  1  0.021160  0.273900  0.765260  1.0  -0.3168
  N  N2629  1  0.000270  0.460710  0.773150  1.0  -0.3219
  N  N2630  1  0.006560  0.214680  0.792280  1.0  -0.4659
  N  N2631  1  0.157030  0.983170  0.201950  1.0  -0.3228
  N  N2632  1  0.228390  0.992490  0.230330  1.0  -0.3052
  N  N2633  1  0.211320  0.000980  0.290140  1.0  -0.4247
  N  N2634  1  0.269280  0.950300  0.272660  1.0  -0.3356
  N  N2635  1  0.334480  0.839200  0.303720  1.0  -0.4273
  N  N2636  1  0.291790  0.843890  0.349870  1.0  -0.3507
  N  N2637  1  0.333520  0.796520  0.350260  1.0  -0.3914
  N  N2638  1  0.439680  0.765260  0.273900  1.0  -0.3138
  N  N2639  1  0.265870  0.773150  0.460710  1.0  -0.3202
  N  N2640  1  0.486480  0.792280  0.214680  1.0  -0.4616
