# generated using pymatgen
data_Cd7H46C108(NO2)24
_symmetry_space_group_name_H-M   'P 1'
_cell_length_a   32.96760000
_cell_length_b   32.96760000
_cell_length_c   26.69560000
_cell_angle_alpha   90.00000000
_cell_angle_beta   90.00000000
_cell_angle_gamma   90.00000000
_symmetry_Int_Tables_number   1
_chemical_formula_structural   Cd7H46C108(NO2)24
_chemical_formula_sum   'Cd28 H184 C432 N96 O192'
_cell_volume   29014.45055293
_cell_formula_units_Z   4
loop_
 _symmetry_equiv_pos_site_id
 _symmetry_equiv_pos_as_xyz
  1  'x, y, z'
loop_
 _atom_site_type_symbol
 _atom_site_label
 _atom_site_symmetry_multiplicity
 _atom_site_fract_x
 _atom_site_fract_y
 _atom_site_fract_z
 _atom_site_occupancy
 _atom_site_charge
  Cd  Cd1  1  0.358140  0.370580  0.062760  1.0  1.0839
  Cd  Cd2  1  0.650890  0.980060  0.353130  1.0  0.8465
  Cd  Cd3  1  0.267140  0.320370  0.722940  1.0  1.0427
  Cd  Cd4  1  0.641850  0.629420  0.062760  1.0  1.0844
  Cd  Cd5  1  0.349110  0.019940  0.353130  1.0  0.8462
  Cd  Cd6  1  0.732860  0.679630  0.722940  1.0  1.0425
  Cd  Cd7  1  0.370580  0.641860  0.937240  1.0  1.084
  Cd  Cd8  1  0.980060  0.349110  0.646870  1.0  0.8506
  Cd  Cd9  1  0.320370  0.732860  0.277060  1.0  1.0438
  Cd  Cd10  1  0.629420  0.358140  0.937240  1.0  1.0843
  Cd  Cd11  1  0.019940  0.650890  0.646870  1.0  0.8511
  Cd  Cd12  1  0.679630  0.267140  0.277060  1.0  1.0428
  Cd  Cd13  1  0.141860  0.870580  0.437240  1.0  1.0846
  Cd  Cd14  1  0.849110  0.480060  0.146870  1.0  0.8502
  Cd  Cd15  1  0.232860  0.820370  0.777060  1.0  1.0425
  Cd  Cd16  1  0.858140  0.129420  0.437240  1.0  1.0843
  Cd  Cd17  1  0.150890  0.519940  0.146870  1.0  0.8505
  Cd  Cd18  1  0.767140  0.179630  0.777060  1.0  1.0434
  Cd  Cd19  1  0.129420  0.141860  0.562760  1.0  1.0843
  Cd  Cd20  1  0.519940  0.849110  0.853130  1.0  0.8468
  Cd  Cd21  1  0.179630  0.232860  0.222940  1.0  1.0434
  Cd  Cd22  1  0.870580  0.858140  0.562760  1.0  1.0834
  Cd  Cd23  1  0.480060  0.150890  0.853130  1.0  0.8462
  Cd  Cd24  1  0.820370  0.767140  0.222940  1.0  1.0431
  Cd  Cd25  1  0.500000  0.500000  0.661270  1.0  1.041
  Cd  Cd26  1  0.500000  0.500000  0.338730  1.0  1.0411
  Cd  Cd27  1  0.000000  0.000000  0.838730  1.0  1.0411
  Cd  Cd28  1  0.000000  0.000000  0.161270  1.0  1.041
  H  H29  1  0.299200  0.351400  0.314200  1.0  0.2895
  H  H30  1  0.369200  0.422800  0.472800  1.0  0.3045
  H  H31  1  0.409000  0.442300  0.536100  1.0  0.153
  H  H32  1  0.376200  0.418200  0.352300  1.0  0.1458
  H  H33  1  0.414000  0.438700  0.211000  1.0  0.145
  H  H34  1  0.226600  0.246800  0.514000  1.0  0.1458
  H  H35  1  0.167300  0.192500  0.402600  1.0  0.139
  H  H36  1  0.318400  0.366600  0.237200  1.0  0.1509
  H  H37  1  0.243000  0.286100  0.372800  1.0  0.1332
  H  H38  1  0.496000  0.341500  0.001600  1.0  0.1422
  H  H39  1  0.264500  0.300800  0.500100  1.0  0.323
  H  H40  1  0.377600  0.417800  0.677700  1.0  0.1338
  H  H41  1  0.545200  0.211800  0.115800  1.0  0.2913
  H  H42  1  0.385800  0.202200  0.149700  1.0  0.2988
  H  H43  1  0.490400  0.109900  0.257700  1.0  0.3121
  H  H44  1  0.564500  0.249200  0.046700  1.0  0.1402
  H  H45  1  0.561500  0.183200  0.244200  1.0  0.1507
  H  H46  1  0.452800  0.265200  0.104000  1.0  0.1268
  H  H47  1  0.391500  0.120800  0.232700  1.0  0.1476
  H  H48  1  0.321400  0.205700  0.170300  1.0  0.1496
  H  H49  1  0.273600  0.126300  0.265300  1.0  0.1315
  H  H50  1  0.649000  0.122200  0.317700  1.0  0.138
  H  H51  1  0.544300  0.066300  0.281300  1.0  0.1522
  H  H52  1  0.700800  0.648600  0.314200  1.0  0.2889
  H  H53  1  0.630800  0.577200  0.472800  1.0  0.3038
  H  H54  1  0.591000  0.557700  0.536100  1.0  0.1535
  H  H55  1  0.623800  0.581800  0.352300  1.0  0.1458
  H  H56  1  0.586000  0.561300  0.211000  1.0  0.1446
  H  H57  1  0.773400  0.753200  0.514000  1.0  0.1464
  H  H58  1  0.832700  0.807500  0.402600  1.0  0.1407
  H  H59  1  0.681600  0.633400  0.237200  1.0  0.151
  H  H60  1  0.757000  0.713900  0.372800  1.0  0.1335
  H  H61  1  0.504000  0.658500  0.001600  1.0  0.1423
  H  H62  1  0.735500  0.699200  0.500100  1.0  0.3231
  H  H63  1  0.622400  0.582200  0.677700  1.0  0.1338
  H  H64  1  0.454800  0.788200  0.115800  1.0  0.2912
  H  H65  1  0.614200  0.797800  0.149700  1.0  0.2981
  H  H66  1  0.509600  0.890100  0.257700  1.0  0.3134
  H  H67  1  0.435500  0.750800  0.046700  1.0  0.1409
  H  H68  1  0.438500  0.816800  0.244200  1.0  0.1508
  H  H69  1  0.547200  0.734800  0.104000  1.0  0.1275
  H  H70  1  0.608500  0.879200  0.232700  1.0  0.1473
  H  H71  1  0.678600  0.794300  0.170300  1.0  0.1493
  H  H72  1  0.726400  0.873700  0.265300  1.0  0.1309
  H  H73  1  0.351000  0.877800  0.317700  1.0  0.1376
  H  H74  1  0.455700  0.933700  0.281300  1.0  0.1524
  H  H75  1  0.351400  0.700800  0.685800  1.0  0.2907
  H  H76  1  0.422800  0.630800  0.527200  1.0  0.3042
  H  H77  1  0.442300  0.591000  0.463900  1.0  0.1536
  H  H78  1  0.418200  0.623800  0.647700  1.0  0.1461
  H  H79  1  0.438700  0.586000  0.789000  1.0  0.1444
  H  H80  1  0.246800  0.773400  0.486000  1.0  0.1463
  H  H81  1  0.192500  0.832700  0.597400  1.0  0.1397
  H  H82  1  0.366600  0.681600  0.762800  1.0  0.1512
  H  H83  1  0.286100  0.757000  0.627200  1.0  0.1337
  H  H84  1  0.341500  0.504000  0.998400  1.0  0.1419
  H  H85  1  0.300800  0.735500  0.499900  1.0  0.3233
  H  H86  1  0.417800  0.622400  0.322300  1.0  0.1346
  H  H87  1  0.211800  0.454800  0.884200  1.0  0.2892
  H  H88  1  0.202200  0.614200  0.850300  1.0  0.2982
  H  H89  1  0.109900  0.509600  0.742300  1.0  0.3129
  H  H90  1  0.249200  0.435500  0.953300  1.0  0.1405
  H  H91  1  0.183200  0.438500  0.755800  1.0  0.15
  H  H92  1  0.265200  0.547200  0.896000  1.0  0.1292
  H  H93  1  0.120800  0.608500  0.767300  1.0  0.1468
  H  H94  1  0.205700  0.678600  0.829700  1.0  0.1493
  H  H95  1  0.126300  0.726400  0.734700  1.0  0.1306
  H  H96  1  0.122200  0.351000  0.682300  1.0  0.1377
  H  H97  1  0.066300  0.455700  0.718700  1.0  0.1527
  H  H98  1  0.648600  0.299200  0.685800  1.0  0.2896
  H  H99  1  0.577200  0.369200  0.527200  1.0  0.3046
  H  H100  1  0.557700  0.409000  0.463900  1.0  0.1539
  H  H101  1  0.581800  0.376200  0.647700  1.0  0.1459
  H  H102  1  0.561300  0.414000  0.789000  1.0  0.1447
  H  H103  1  0.753200  0.226600  0.486000  1.0  0.1463
  H  H104  1  0.807500  0.167300  0.597400  1.0  0.1402
  H  H105  1  0.633400  0.318400  0.762800  1.0  0.1516
  H  H106  1  0.713900  0.243000  0.627200  1.0  0.1331
  H  H107  1  0.658500  0.496000  0.998400  1.0  0.1422
  H  H108  1  0.699200  0.264500  0.499900  1.0  0.3233
  H  H109  1  0.582200  0.377600  0.322300  1.0  0.1347
  H  H110  1  0.788200  0.545200  0.884200  1.0  0.2915
  H  H111  1  0.797800  0.385800  0.850300  1.0  0.299
  H  H112  1  0.890100  0.490400  0.742300  1.0  0.3122
  H  H113  1  0.750800  0.564500  0.953300  1.0  0.1401
  H  H114  1  0.816800  0.561500  0.755800  1.0  0.1502
  H  H115  1  0.734800  0.452800  0.896000  1.0  0.1285
  H  H116  1  0.879200  0.391500  0.767300  1.0  0.1463
  H  H117  1  0.794300  0.321400  0.829700  1.0  0.1496
  H  H118  1  0.873700  0.273600  0.734700  1.0  0.1297
  H  H119  1  0.877800  0.649000  0.682300  1.0  0.1379
  H  H120  1  0.933700  0.544300  0.718700  1.0  0.1528
  H  H121  1  0.200800  0.851400  0.185800  1.0  0.2891
  H  H122  1  0.130800  0.922800  0.027200  1.0  0.3054
  H  H123  1  0.091000  0.942300  0.963900  1.0  0.1534
  H  H124  1  0.123800  0.918200  0.147700  1.0  0.1451
  H  H125  1  0.086000  0.938700  0.289000  1.0  0.1445
  H  H126  1  0.273400  0.746800  0.986000  1.0  0.1465
  H  H127  1  0.332700  0.692500  0.097400  1.0  0.1399
  H  H128  1  0.181600  0.866600  0.262800  1.0  0.1513
  H  H129  1  0.257000  0.786100  0.127200  1.0  0.1333
  H  H130  1  0.004000  0.841500  0.498400  1.0  0.1425
  H  H131  1  0.235500  0.800800  0.999900  1.0  0.321
  H  H132  1  0.122400  0.917800  0.822300  1.0  0.1346
  H  H133  1  0.954800  0.711800  0.384200  1.0  0.2918
  H  H134  1  0.114200  0.702200  0.350300  1.0  0.2992
  H  H135  1  0.009600  0.609900  0.242300  1.0  0.3128
  H  H136  1  0.935500  0.749200  0.453300  1.0  0.1415
  H  H137  1  0.938500  0.683200  0.255800  1.0  0.1504
  H  H138  1  0.047200  0.765200  0.396000  1.0  0.1278
  H  H139  1  0.108500  0.620800  0.267300  1.0  0.1471
  H  H140  1  0.178600  0.705700  0.329700  1.0  0.1494
  H  H141  1  0.226400  0.626300  0.234700  1.0  0.1303
  H  H142  1  0.851000  0.622200  0.182300  1.0  0.1379
  H  H143  1  0.955700  0.566300  0.218700  1.0  0.1522
  H  H144  1  0.799200  0.148600  0.185800  1.0  0.2903
  H  H145  1  0.869200  0.077200  0.027200  1.0  0.3044
  H  H146  1  0.909000  0.057700  0.963900  1.0  0.1534
  H  H147  1  0.876200  0.081800  0.147700  1.0  0.1456
  H  H148  1  0.914000  0.061300  0.289000  1.0  0.1447
  H  H149  1  0.726600  0.253200  0.986000  1.0  0.1465
  H  H150  1  0.667300  0.307500  0.097400  1.0  0.1405
  H  H151  1  0.818400  0.133400  0.262800  1.0  0.1508
  H  H152  1  0.743000  0.213900  0.127200  1.0  0.1336
  H  H153  1  0.996000  0.158500  0.498400  1.0  0.1427
  H  H154  1  0.764500  0.199200  0.999900  1.0  0.321
  H  H155  1  0.877600  0.082200  0.822300  1.0  0.1345
  H  H156  1  0.045200  0.288200  0.384200  1.0  0.2919
  H  H157  1  0.885800  0.297800  0.350300  1.0  0.2986
  H  H158  1  0.990400  0.390100  0.242300  1.0  0.3135
  H  H159  1  0.064500  0.250800  0.453300  1.0  0.1405
  H  H160  1  0.061500  0.316800  0.255800  1.0  0.1504
  H  H161  1  0.952800  0.234800  0.396000  1.0  0.1276
  H  H162  1  0.891500  0.379200  0.267300  1.0  0.1465
  H  H163  1  0.821400  0.294300  0.329700  1.0  0.1501
  H  H164  1  0.773600  0.373700  0.234700  1.0  0.1311
  H  H165  1  0.149000  0.377800  0.182300  1.0  0.138
  H  H166  1  0.044300  0.433700  0.218700  1.0  0.1529
  H  H167  1  0.148600  0.200800  0.814200  1.0  0.288
  H  H168  1  0.077200  0.130800  0.972800  1.0  0.3034
  H  H169  1  0.057700  0.091000  0.036100  1.0  0.1535
  H  H170  1  0.081800  0.123800  0.852300  1.0  0.1464
  H  H171  1  0.061300  0.086000  0.711000  1.0  0.1444
  H  H172  1  0.253200  0.273400  0.014000  1.0  0.146
  H  H173  1  0.307500  0.332700  0.902600  1.0  0.141
  H  H174  1  0.133400  0.181600  0.737200  1.0  0.1507
  H  H175  1  0.213900  0.257000  0.872800  1.0  0.1336
  H  H176  1  0.158500  0.004000  0.501600  1.0  0.1422
  H  H177  1  0.199200  0.235500  0.000100  1.0  0.3203
  H  H178  1  0.082200  0.122400  0.177700  1.0  0.134
  H  H179  1  0.288200  0.954800  0.615800  1.0  0.2903
  H  H180  1  0.297800  0.114200  0.649700  1.0  0.2988
  H  H181  1  0.390100  0.009600  0.757700  1.0  0.3133
  H  H182  1  0.250800  0.935500  0.546700  1.0  0.1403
  H  H183  1  0.316800  0.938500  0.744200  1.0  0.1501
  H  H184  1  0.234800  0.047200  0.604000  1.0  0.1282
  H  H185  1  0.379200  0.108500  0.732700  1.0  0.1466
  H  H186  1  0.294300  0.178600  0.670300  1.0  0.1495
  H  H187  1  0.373700  0.226400  0.765300  1.0  0.1298
  H  H188  1  0.377800  0.851000  0.817700  1.0  0.1377
  H  H189  1  0.433700  0.955700  0.781300  1.0  0.1526
  H  H190  1  0.851400  0.799200  0.814200  1.0  0.29
  H  H191  1  0.922800  0.869200  0.972800  1.0  0.3039
  H  H192  1  0.942300  0.909000  0.036100  1.0  0.1536
  H  H193  1  0.918200  0.876200  0.852300  1.0  0.1463
  H  H194  1  0.938700  0.914000  0.711000  1.0  0.1448
  H  H195  1  0.746800  0.726600  0.014000  1.0  0.1458
  H  H196  1  0.692500  0.667300  0.902600  1.0  0.1393
  H  H197  1  0.866600  0.818400  0.737200  1.0  0.1512
  H  H198  1  0.786100  0.743000  0.872800  1.0  0.1333
  H  H199  1  0.841500  0.996000  0.501600  1.0  0.142
  H  H200  1  0.800800  0.764500  0.000100  1.0  0.3201
  H  H201  1  0.917800  0.877600  0.177700  1.0  0.1341
  H  H202  1  0.711800  0.045200  0.615800  1.0  0.2916
  H  H203  1  0.702200  0.885800  0.649700  1.0  0.2983
  H  H204  1  0.609900  0.990400  0.757700  1.0  0.3118
  H  H205  1  0.749200  0.064500  0.546700  1.0  0.1403
  H  H206  1  0.683200  0.061500  0.744200  1.0  0.1501
  H  H207  1  0.765200  0.952800  0.604000  1.0  0.1287
  H  H208  1  0.620800  0.891500  0.732700  1.0  0.146
  H  H209  1  0.705700  0.821400  0.670300  1.0  0.1493
  H  H210  1  0.626300  0.773600  0.765300  1.0  0.1307
  H  H211  1  0.622200  0.149000  0.817700  1.0  0.1378
  H  H212  1  0.566300  0.044300  0.781300  1.0  0.1523
  C  C213  1  0.434330  0.457740  0.304420  1.0  0.6937
  C  C214  1  0.314990  0.368280  0.661800  1.0  0.711
  C  C215  1  0.362430  0.392880  0.159590  1.0  0.6956
  C  C216  1  0.174760  0.187790  0.499400  1.0  0.7046
  C  C217  1  0.343860  0.388900  0.300000  1.0  0.1355
  C  C218  1  0.194500  0.215250  0.463300  1.0  -0.0623
  C  C219  1  0.434380  0.457610  0.629190  1.0  0.6997
  C  C220  1  0.391720  0.429400  0.558590  1.0  -0.0628
  C  C221  1  0.193960  0.237000  0.324400  1.0  0.7138
  C  C222  1  0.373600  0.413800  0.318000  1.0  0.0227
  C  C223  1  0.429640  0.330400  0.055900  1.0  0.7132
  C  C224  1  0.400250  0.432830  0.284100  1.0  -0.1265
  C  C225  1  0.202440  0.240060  0.378800  1.0  -0.1328
  C  C226  1  0.359500  0.406600  0.541090  1.0  0.2146
  C  C227  1  0.396100  0.426480  0.233260  1.0  0.0625
  C  C228  1  0.398640  0.433260  0.611460  1.0  -0.1198
  C  C229  1  0.333800  0.386300  0.574600  1.0  0.0291
  C  C230  1  0.634600  0.196100  0.283000  1.0  0.666
  C  C231  1  0.364910  0.401560  0.215330  1.0  -0.141
  C  C232  1  0.340670  0.390460  0.626490  1.0  -0.0243
  C  C233  1  0.220800  0.245000  0.480000  1.0  -0.0766
  C  C234  1  0.314400  0.363000  0.383400  1.0  0.1843
  C  C235  1  0.185100  0.212490  0.413700  1.0  -0.0215
  C  C236  1  0.339170  0.383140  0.248900  1.0  -0.0567
  C  C237  1  0.333700  0.377600  0.459900  1.0  0.3547
  C  C238  1  0.230200  0.269000  0.395640  1.0  -0.055
  C  C239  1  0.238800  0.272500  0.446700  1.0  0.1632
  C  C240  1  0.610000  0.158100  0.282200  1.0  -0.0981
  C  C241  1  0.467900  0.306300  0.053700  1.0  -0.1373
  C  C242  1  0.498900  0.318300  0.020900  1.0  0.0565
  C  C243  1  0.288400  0.329500  0.446600  1.0  0.5264
  C  C244  1  0.373480  0.414710  0.643450  1.0  0.0602
  C  C245  1  0.539900  0.263000  0.048300  1.0  -0.0836
  C  C246  1  0.546600  0.125400  0.260900  1.0  0.2553
  C  C247  1  0.434800  0.177700  0.174200  1.0  0.4956
  C  C248  1  0.495000  0.198300  0.145800  1.0  0.3946
  C  C249  1  0.570600  0.159600  0.259600  1.0  -0.0685
  C  C250  1  0.473710  0.273100  0.082800  1.0  0.0123
  C  C251  1  0.510300  0.249700  0.082600  1.0  0.1857
  C  C252  1  0.366500  0.133700  0.229200  1.0  0.0068
  C  C253  1  0.290700  0.170500  0.220000  1.0  -0.1358
  C  C254  1  0.324200  0.184200  0.192500  1.0  -0.069
  C  C255  1  0.249950  0.191700  0.213700  1.0  0.7085
  C  C256  1  0.296000  0.137500  0.249200  1.0  0.0381
  C  C257  1  0.623400  0.122900  0.303000  1.0  0.0694
  C  C258  1  0.362300  0.165300  0.198800  1.0  0.2582
  C  C259  1  0.534000  0.295400  0.017300  1.0  -0.0839
  C  C260  1  0.600400  0.088700  0.302800  1.0  -0.1105
  C  C261  1  0.615100  0.049200  0.323200  1.0  0.5965
  C  C262  1  0.560500  0.089500  0.281400  1.0  -0.0718
  C  C263  1  0.490400  0.151900  0.207000  1.0  0.3223
  C  C264  1  0.333000  0.120200  0.255700  1.0  -0.0884
  C  C265  1  0.339400  0.085600  0.295000  1.0  0.6651
  C  C266  1  0.566800  0.306900  0.980700  1.0  0.6934
  C  C267  1  0.565670  0.542260  0.304420  1.0  0.6955
  C  C268  1  0.685010  0.631720  0.661800  1.0  0.7111
  C  C269  1  0.637570  0.607120  0.159590  1.0  0.6957
  C  C270  1  0.825240  0.812210  0.499400  1.0  0.7039
  C  C271  1  0.656140  0.611100  0.300000  1.0  0.1351
  C  C272  1  0.805500  0.784750  0.463300  1.0  -0.062
  C  C273  1  0.565620  0.542390  0.629190  1.0  0.6986
  C  C274  1  0.608280  0.570600  0.558590  1.0  -0.0632
  C  C275  1  0.806040  0.763000  0.324400  1.0  0.7138
  C  C276  1  0.626400  0.586200  0.318000  1.0  0.0223
  C  C277  1  0.570360  0.669600  0.055900  1.0  0.7129
  C  C278  1  0.599750  0.567170  0.284100  1.0  -0.1271
  C  C279  1  0.797560  0.759940  0.378800  1.0  -0.1329
  C  C280  1  0.640500  0.593400  0.541090  1.0  0.2151
  C  C281  1  0.603900  0.573520  0.233260  1.0  0.0617
  C  C282  1  0.601360  0.566740  0.611460  1.0  -0.1204
  C  C283  1  0.666200  0.613700  0.574600  1.0  0.0289
  C  C284  1  0.365400  0.803900  0.283000  1.0  0.6671
  C  C285  1  0.635090  0.598440  0.215330  1.0  -0.141
  C  C286  1  0.659330  0.609540  0.626490  1.0  -0.0243
  C  C287  1  0.779200  0.755000  0.480000  1.0  -0.0774
  C  C288  1  0.685600  0.637000  0.383400  1.0  0.1844
  C  C289  1  0.814900  0.787510  0.413700  1.0  -0.0223
  C  C290  1  0.660830  0.616860  0.248900  1.0  -0.0576
  C  C291  1  0.666300  0.622400  0.459900  1.0  0.3542
  C  C292  1  0.769800  0.731000  0.395640  1.0  -0.0551
  C  C293  1  0.761200  0.727500  0.446700  1.0  0.1641
  C  C294  1  0.390000  0.841900  0.282200  1.0  -0.0991
  C  C295  1  0.532100  0.693700  0.053700  1.0  -0.1378
  C  C296  1  0.501100  0.681700  0.020900  1.0  0.0567
  C  C297  1  0.711600  0.670500  0.446600  1.0  0.5264
  C  C298  1  0.626520  0.585290  0.643450  1.0  0.0594
  C  C299  1  0.460100  0.737000  0.048300  1.0  -0.0851
  C  C300  1  0.453400  0.874600  0.260900  1.0  0.2539
  C  C301  1  0.565200  0.822300  0.174200  1.0  0.4962
  C  C302  1  0.505000  0.801700  0.145800  1.0  0.3953
  C  C303  1  0.429400  0.840400  0.259600  1.0  -0.0676
  C  C304  1  0.526290  0.726900  0.082800  1.0  0.0123
  C  C305  1  0.489700  0.750300  0.082600  1.0  0.186
  C  C306  1  0.633500  0.866300  0.229200  1.0  0.0078
  C  C307  1  0.709300  0.829500  0.220000  1.0  -0.1354
  C  C308  1  0.675800  0.815800  0.192500  1.0  -0.0674
  C  C309  1  0.750050  0.808300  0.213700  1.0  0.7079
  C  C310  1  0.704000  0.862500  0.249200  1.0  0.0374
  C  C311  1  0.376600  0.877100  0.303000  1.0  0.0672
  C  C312  1  0.637700  0.834700  0.198800  1.0  0.258
  C  C313  1  0.466000  0.704600  0.017300  1.0  -0.0839
  C  C314  1  0.399600  0.911300  0.302800  1.0  -0.1108
  C  C315  1  0.384900  0.950800  0.323200  1.0  0.5921
  C  C316  1  0.439500  0.910500  0.281400  1.0  -0.0722
  C  C317  1  0.509600  0.848100  0.207000  1.0  0.3227
  C  C318  1  0.667000  0.879800  0.255700  1.0  -0.088
  C  C319  1  0.660600  0.914400  0.295000  1.0  0.6641
  C  C320  1  0.433200  0.693100  0.980700  1.0  0.6942
  C  C321  1  0.457740  0.565670  0.695580  1.0  0.6945
  C  C322  1  0.368280  0.685010  0.338200  1.0  0.7106
  C  C323  1  0.392880  0.637570  0.840410  1.0  0.6964
  C  C324  1  0.187790  0.825240  0.500600  1.0  0.7036
  C  C325  1  0.388900  0.656140  0.700000  1.0  0.1358
  C  C326  1  0.215250  0.805500  0.536700  1.0  -0.0614
  C  C327  1  0.457610  0.565620  0.370810  1.0  0.6989
  C  C328  1  0.429400  0.608280  0.441410  1.0  -0.063
  C  C329  1  0.237000  0.806040  0.675600  1.0  0.7145
  C  C330  1  0.413800  0.626400  0.682000  1.0  0.0209
  C  C331  1  0.330400  0.570360  0.944100  1.0  0.7146
  C  C332  1  0.432830  0.599750  0.715900  1.0  -0.1265
  C  C333  1  0.240060  0.797560  0.621200  1.0  -0.134
  C  C334  1  0.406600  0.640500  0.458910  1.0  0.2113
  C  C335  1  0.426480  0.603900  0.766740  1.0  0.0638
  C  C336  1  0.433260  0.601360  0.388540  1.0  -0.1183
  C  C337  1  0.386300  0.666200  0.425400  1.0  0.0294
  C  C338  1  0.196100  0.365400  0.717000  1.0  0.6614
  C  C339  1  0.401560  0.635090  0.784670  1.0  -0.1406
  C  C340  1  0.390460  0.659330  0.373510  1.0  -0.0255
  C  C341  1  0.245000  0.779200  0.520000  1.0  -0.0736
  C  C342  1  0.363000  0.685600  0.616600  1.0  0.1838
  C  C343  1  0.212490  0.814900  0.586300  1.0  -0.0225
  C  C344  1  0.383140  0.660830  0.751100  1.0  -0.0592
  C  C345  1  0.377600  0.666300  0.540100  1.0  0.3547
  C  C346  1  0.269000  0.769800  0.604360  1.0  -0.0559
  C  C347  1  0.272500  0.761200  0.553300  1.0  0.165
  C  C348  1  0.158100  0.390000  0.717800  1.0  -0.099
  C  C349  1  0.306300  0.532100  0.946300  1.0  -0.1378
  C  C350  1  0.318300  0.501100  0.979100  1.0  0.058
  C  C351  1  0.329500  0.711600  0.553400  1.0  0.5271
  C  C352  1  0.414710  0.626520  0.356550  1.0  0.0583
  C  C353  1  0.263000  0.460100  0.951700  1.0  -0.0841
  C  C354  1  0.125400  0.453400  0.739100  1.0  0.2558
  C  C355  1  0.177700  0.565200  0.825800  1.0  0.4973
  C  C356  1  0.198300  0.505000  0.854200  1.0  0.3951
  C  C357  1  0.159600  0.429400  0.740400  1.0  -0.0712
  C  C358  1  0.273100  0.526290  0.917200  1.0  0.0145
  C  C359  1  0.249700  0.489700  0.917400  1.0  0.1857
  C  C360  1  0.133700  0.633500  0.770800  1.0  0.0087
  C  C361  1  0.170500  0.709300  0.780000  1.0  -0.1363
  C  C362  1  0.184200  0.675800  0.807500  1.0  -0.0678
  C  C363  1  0.191700  0.750050  0.786300  1.0  0.709
  C  C364  1  0.137500  0.704000  0.750800  1.0  0.0379
  C  C365  1  0.122900  0.376600  0.697000  1.0  0.0659
  C  C366  1  0.165300  0.637700  0.801200  1.0  0.2573
  C  C367  1  0.295400  0.466000  0.982700  1.0  -0.0835
  C  C368  1  0.088700  0.399600  0.697200  1.0  -0.111
  C  C369  1  0.049200  0.384900  0.676800  1.0  0.5949
  C  C370  1  0.089500  0.439500  0.718600  1.0  -0.0723
  C  C371  1  0.151900  0.509600  0.793000  1.0  0.3204
  C  C372  1  0.120200  0.667000  0.744300  1.0  -0.0898
  C  C373  1  0.085600  0.660600  0.705000  1.0  0.6622
  C  C374  1  0.306900  0.433200  0.019300  1.0  0.6939
  C  C375  1  0.542260  0.434330  0.695580  1.0  0.697
  C  C376  1  0.631720  0.314990  0.338200  1.0  0.71
  C  C377  1  0.607120  0.362430  0.840410  1.0  0.6962
  C  C378  1  0.812210  0.174760  0.500600  1.0  0.7037
  C  C379  1  0.611100  0.343860  0.700000  1.0  0.1355
  C  C380  1  0.784750  0.194500  0.536700  1.0  -0.061
  C  C381  1  0.542390  0.434380  0.370810  1.0  0.7
  C  C382  1  0.570600  0.391720  0.441410  1.0  -0.0641
  C  C383  1  0.763000  0.193960  0.675600  1.0  0.7141
  C  C384  1  0.586200  0.373600  0.682000  1.0  0.0209
  C  C385  1  0.669600  0.429640  0.944100  1.0  0.7155
  C  C386  1  0.567170  0.400250  0.715900  1.0  -0.1268
  C  C387  1  0.759940  0.202440  0.621200  1.0  -0.1339
  C  C388  1  0.593400  0.359500  0.458910  1.0  0.2124
  C  C389  1  0.573520  0.396100  0.766740  1.0  0.0623
  C  C390  1  0.566740  0.398640  0.388540  1.0  -0.1192
  C  C391  1  0.613700  0.333800  0.425400  1.0  0.0295
  C  C392  1  0.803900  0.634600  0.717000  1.0  0.6604
  C  C393  1  0.598440  0.364910  0.784670  1.0  -0.1403
  C  C394  1  0.609540  0.340670  0.373510  1.0  -0.0254
  C  C395  1  0.755000  0.220800  0.520000  1.0  -0.0742
  C  C396  1  0.637000  0.314400  0.616600  1.0  0.184
  C  C397  1  0.787510  0.185100  0.586300  1.0  -0.0211
  C  C398  1  0.616860  0.339170  0.751100  1.0  -0.0588
  C  C399  1  0.622400  0.333700  0.540100  1.0  0.3545
  C  C400  1  0.731000  0.230200  0.604360  1.0  -0.0556
  C  C401  1  0.727500  0.238800  0.553300  1.0  0.1649
  C  C402  1  0.841900  0.610000  0.717800  1.0  -0.0986
  C  C403  1  0.693700  0.467900  0.946300  1.0  -0.1375
  C  C404  1  0.681700  0.498900  0.979100  1.0  0.0566
  C  C405  1  0.670500  0.288400  0.553400  1.0  0.5272
  C  C406  1  0.585290  0.373480  0.356550  1.0  0.0587
  C  C407  1  0.737000  0.539900  0.951700  1.0  -0.0861
  C  C408  1  0.874600  0.546600  0.739100  1.0  0.2547
  C  C409  1  0.822300  0.434800  0.825800  1.0  0.4975
  C  C410  1  0.801700  0.495000  0.854200  1.0  0.3959
  C  C411  1  0.840400  0.570600  0.740400  1.0  -0.0712
  C  C412  1  0.726900  0.473710  0.917200  1.0  0.0162
  C  C413  1  0.750300  0.510300  0.917400  1.0  0.1861
  C  C414  1  0.866300  0.366500  0.770800  1.0  0.0082
  C  C415  1  0.829500  0.290700  0.780000  1.0  -0.1359
  C  C416  1  0.815800  0.324200  0.807500  1.0  -0.0678
  C  C417  1  0.808300  0.249950  0.786300  1.0  0.7095
  C  C418  1  0.862500  0.296000  0.750800  1.0  0.0372
  C  C419  1  0.877100  0.623400  0.697000  1.0  0.0647
  C  C420  1  0.834700  0.362300  0.801200  1.0  0.2573
  C  C421  1  0.704600  0.534000  0.982700  1.0  -0.084
  C  C422  1  0.911300  0.600400  0.697200  1.0  -0.1106
  C  C423  1  0.950800  0.615100  0.676800  1.0  0.5963
  C  C424  1  0.910500  0.560500  0.718600  1.0  -0.0712
  C  C425  1  0.848100  0.490400  0.793000  1.0  0.3202
  C  C426  1  0.879800  0.333000  0.744300  1.0  -0.0878
  C  C427  1  0.914400  0.339400  0.705000  1.0  0.6632
  C  C428  1  0.693100  0.566800  0.019300  1.0  0.6947
  C  C429  1  0.065670  0.957740  0.195580  1.0  0.6955
  C  C430  1  0.185010  0.868280  0.838200  1.0  0.7104
  C  C431  1  0.137570  0.892880  0.340410  1.0  0.6964
  C  C432  1  0.325240  0.687790  0.000600  1.0  0.703
  C  C433  1  0.156140  0.888900  0.200000  1.0  0.1357
  C  C434  1  0.305500  0.715250  0.036700  1.0  -0.0621
  C  C435  1  0.065620  0.957610  0.870810  1.0  0.699
  C  C436  1  0.108280  0.929400  0.941410  1.0  -0.0632
  C  C437  1  0.306040  0.737000  0.175600  1.0  0.7142
  C  C438  1  0.126400  0.913800  0.182000  1.0  0.0215
  C  C439  1  0.070360  0.830400  0.444100  1.0  0.7131
  C  C440  1  0.099750  0.932830  0.215900  1.0  -0.1266
  C  C441  1  0.297560  0.740060  0.121200  1.0  -0.1339
  C  C442  1  0.140500  0.906600  0.958910  1.0  0.2138
  C  C443  1  0.103900  0.926480  0.266740  1.0  0.0622
  C  C444  1  0.101360  0.933260  0.888540  1.0  -0.1197
  C  C445  1  0.166200  0.886300  0.925400  1.0  0.0289
  C  C446  1  0.865400  0.696100  0.217000  1.0  0.6664
  C  C447  1  0.135090  0.901560  0.284670  1.0  -0.1405
  C  C448  1  0.159330  0.890460  0.873510  1.0  -0.024
  C  C449  1  0.279200  0.745000  0.020000  1.0  -0.0739
  C  C450  1  0.185600  0.863000  0.116600  1.0  0.1836
  C  C451  1  0.314900  0.712490  0.086300  1.0  -0.0223
  C  C452  1  0.160830  0.883140  0.251100  1.0  -0.0584
  C  C453  1  0.166300  0.877600  0.040100  1.0  0.3545
  C  C454  1  0.269800  0.769000  0.104360  1.0  -0.0555
  C  C455  1  0.261200  0.772500  0.053300  1.0  0.165
  C  C456  1  0.890000  0.658100  0.217800  1.0  -0.0985
  C  C457  1  0.032100  0.806300  0.446300  1.0  -0.1384
  C  C458  1  0.001100  0.818300  0.479100  1.0  0.0566
  C  C459  1  0.211600  0.829500  0.053400  1.0  0.5266
  C  C460  1  0.126520  0.914710  0.856550  1.0  0.0586
  C  C461  1  0.960100  0.763000  0.451700  1.0  -0.0844
  C  C462  1  0.953400  0.625400  0.239100  1.0  0.2539
  C  C463  1  0.065200  0.677700  0.325800  1.0  0.4963
  C  C464  1  0.005000  0.698300  0.354200  1.0  0.3948
  C  C465  1  0.929400  0.659600  0.240400  1.0  -0.0689
  C  C466  1  0.026290  0.773100  0.417200  1.0  0.0123
  C  C467  1  0.989700  0.749700  0.417400  1.0  0.1861
  C  C468  1  0.133500  0.633700  0.270800  1.0  0.0103
  C  C469  1  0.209300  0.670500  0.280000  1.0  -0.1362
  C  C470  1  0.175800  0.684200  0.307500  1.0  -0.0671
  C  C471  1  0.250050  0.691700  0.286300  1.0  0.7099
  C  C472  1  0.204000  0.637500  0.250800  1.0  0.0363
  C  C473  1  0.876600  0.622900  0.197000  1.0  0.0663
  C  C474  1  0.137700  0.665300  0.301200  1.0  0.2652
  C  C475  1  0.966000  0.795400  0.482700  1.0  -0.084
  C  C476  1  0.899600  0.588700  0.197200  1.0  -0.1049
  C  C477  1  0.884900  0.549200  0.176800  1.0  0.6039
  C  C478  1  0.939500  0.589500  0.218600  1.0  -0.0756
  C  C479  1  0.009600  0.651900  0.293000  1.0  0.3161
  C  C480  1  0.167000  0.620200  0.244300  1.0  -0.0897
  C  C481  1  0.160600  0.585600  0.205000  1.0  0.6624
  C  C482  1  0.933200  0.806900  0.519300  1.0  0.6944
  C  C483  1  0.934330  0.042260  0.195580  1.0  0.6939
  C  C484  1  0.814990  0.131720  0.838200  1.0  0.7113
  C  C485  1  0.862430  0.107120  0.340410  1.0  0.6963
  C  C486  1  0.674760  0.312210  0.000600  1.0  0.7049
  C  C487  1  0.843860  0.111100  0.200000  1.0  0.1361
  C  C488  1  0.694500  0.284750  0.036700  1.0  -0.0618
  C  C489  1  0.934380  0.042390  0.870810  1.0  0.6994
  C  C490  1  0.891720  0.070600  0.941410  1.0  -0.0629
  C  C491  1  0.693960  0.263000  0.175600  1.0  0.7142
  C  C492  1  0.873600  0.086200  0.182000  1.0  0.022
  C  C493  1  0.929640  0.169600  0.444100  1.0  0.714
  C  C494  1  0.900250  0.067170  0.215900  1.0  -0.1268
  C  C495  1  0.702440  0.259940  0.121200  1.0  -0.1336
  C  C496  1  0.859500  0.093400  0.958910  1.0  0.2139
  C  C497  1  0.896100  0.073520  0.266740  1.0  0.064
  C  C498  1  0.898640  0.066740  0.888540  1.0  -0.1195
  C  C499  1  0.833800  0.113700  0.925400  1.0  0.0288
  C  C500  1  0.134600  0.303900  0.217000  1.0  0.6651
  C  C501  1  0.864910  0.098440  0.284670  1.0  -0.1401
  C  C502  1  0.840670  0.109540  0.873510  1.0  -0.0243
  C  C503  1  0.720800  0.255000  0.020000  1.0  -0.0754
  C  C504  1  0.814400  0.137000  0.116600  1.0  0.1842
  C  C505  1  0.685100  0.287510  0.086300  1.0  -0.0229
  C  C506  1  0.839170  0.116860  0.251100  1.0  -0.0573
  C  C507  1  0.833700  0.122400  0.040100  1.0  0.3541
  C  C508  1  0.730200  0.231000  0.104360  1.0  -0.0547
  C  C509  1  0.738800  0.227500  0.053300  1.0  0.1648
  C  C510  1  0.110000  0.341900  0.217800  1.0  -0.0976
  C  C511  1  0.967900  0.193700  0.446300  1.0  -0.1375
  C  C512  1  0.998900  0.181700  0.479100  1.0  0.0574
  C  C513  1  0.788400  0.170500  0.053400  1.0  0.527
  C  C514  1  0.873480  0.085290  0.856550  1.0  0.0584
  C  C515  1  0.039900  0.237000  0.451700  1.0  -0.0838
  C  C516  1  0.046600  0.374600  0.239100  1.0  0.2553
  C  C517  1  0.934800  0.322300  0.325800  1.0  0.496
  C  C518  1  0.995000  0.301700  0.354200  1.0  0.3945
  C  C519  1  0.070600  0.340400  0.240400  1.0  -0.0671
  C  C520  1  0.973710  0.226900  0.417200  1.0  0.0127
  C  C521  1  0.010300  0.250300  0.417400  1.0  0.1853
  C  C522  1  0.866500  0.366300  0.270800  1.0  0.0121
  C  C523  1  0.790700  0.329500  0.280000  1.0  -0.1358
  C  C524  1  0.824200  0.315800  0.307500  1.0  -0.0687
  C  C525  1  0.749950  0.308300  0.286300  1.0  0.7099
  C  C526  1  0.796000  0.362500  0.250800  1.0  0.0372
  C  C527  1  0.123400  0.377100  0.197000  1.0  0.0685
  C  C528  1  0.862300  0.334700  0.301200  1.0  0.2657
  C  C529  1  0.034000  0.204600  0.482700  1.0  -0.0835
  C  C530  1  0.100400  0.411300  0.197200  1.0  -0.1044
  C  C531  1  0.115100  0.450800  0.176800  1.0  0.6033
  C  C532  1  0.060500  0.410500  0.218600  1.0  -0.0769
  C  C533  1  0.990400  0.348100  0.293000  1.0  0.3166
  C  C534  1  0.833000  0.379800  0.244300  1.0  -0.0892
  C  C535  1  0.839400  0.414400  0.205000  1.0  0.6629
  C  C536  1  0.066800  0.193100  0.519300  1.0  0.6944
  C  C537  1  0.042260  0.065670  0.804420  1.0  0.6965
  C  C538  1  0.131720  0.185010  0.161800  1.0  0.7106
  C  C539  1  0.107120  0.137570  0.659590  1.0  0.6953
  C  C540  1  0.312210  0.325240  0.999400  1.0  0.7044
  C  C541  1  0.111100  0.156140  0.800000  1.0  0.1349
  C  C542  1  0.284750  0.305500  0.963300  1.0  -0.0616
  C  C543  1  0.042390  0.065620  0.129190  1.0  0.7005
  C  C544  1  0.070600  0.108280  0.058590  1.0  -0.0637
  C  C545  1  0.263000  0.306040  0.824400  1.0  0.7141
  C  C546  1  0.086200  0.126400  0.818000  1.0  0.0208
  C  C547  1  0.169600  0.070360  0.555900  1.0  0.7153
  C  C548  1  0.067170  0.099750  0.784100  1.0  -0.1268
  C  C549  1  0.259940  0.297560  0.878800  1.0  -0.1329
  C  C550  1  0.093400  0.140500  0.041090  1.0  0.2133
  C  C551  1  0.073520  0.103900  0.733260  1.0  0.0622
  C  C552  1  0.066740  0.101360  0.111460  1.0  -0.1195
  C  C553  1  0.113700  0.166200  0.074600  1.0  0.0301
  C  C554  1  0.303900  0.865400  0.783000  1.0  0.6609
  C  C555  1  0.098440  0.135090  0.715330  1.0  -0.1408
  C  C556  1  0.109540  0.159330  0.126490  1.0  -0.0257
  C  C557  1  0.255000  0.279200  0.980000  1.0  -0.0755
  C  C558  1  0.137000  0.185600  0.883400  1.0  0.1844
  C  C559  1  0.287510  0.314900  0.913700  1.0  -0.0213
  C  C560  1  0.116860  0.160830  0.748900  1.0  -0.0594
  C  C561  1  0.122400  0.166300  0.959900  1.0  0.3549
  C  C562  1  0.231000  0.269800  0.895640  1.0  -0.0549
  C  C563  1  0.227500  0.261200  0.946700  1.0  0.1641
  C  C564  1  0.341900  0.890000  0.782200  1.0  -0.1
  C  C565  1  0.193700  0.032100  0.553700  1.0  -0.137
  C  C566  1  0.181700  0.001100  0.520900  1.0  0.0566
  C  C567  1  0.170500  0.211600  0.946600  1.0  0.5271
  C  C568  1  0.085290  0.126520  0.143450  1.0  0.0604
  C  C569  1  0.237000  0.960100  0.548300  1.0  -0.084
  C  C570  1  0.374600  0.953400  0.760900  1.0  0.2553
  C  C571  1  0.322300  0.065200  0.674200  1.0  0.497
  C  C572  1  0.301700  0.005000  0.645800  1.0  0.3956
  C  C573  1  0.340400  0.929400  0.759600  1.0  -0.0712
  C  C574  1  0.226900  0.026290  0.582800  1.0  0.0148
  C  C575  1  0.250300  0.989700  0.582600  1.0  0.1867
  C  C576  1  0.366300  0.133500  0.729200  1.0  0.0111
  C  C577  1  0.329500  0.209300  0.720000  1.0  -0.1359
  C  C578  1  0.315800  0.175800  0.692500  1.0  -0.0683
  C  C579  1  0.308300  0.250050  0.713700  1.0  0.7071
  C  C580  1  0.362500  0.204000  0.749200  1.0  0.0389
  C  C581  1  0.377100  0.876600  0.803000  1.0  0.0662
  C  C582  1  0.334700  0.137700  0.698800  1.0  0.2658
  C  C583  1  0.204600  0.966000  0.517300  1.0  -0.0839
  C  C584  1  0.411300  0.899600  0.802800  1.0  -0.1051
  C  C585  1  0.450800  0.884900  0.823200  1.0  0.6089
  C  C586  1  0.410500  0.939500  0.781400  1.0  -0.0755
  C  C587  1  0.348100  0.009600  0.707000  1.0  0.3139
  C  C588  1  0.379800  0.167000  0.755700  1.0  -0.0873
  C  C589  1  0.414400  0.160600  0.795000  1.0  0.6654
  C  C590  1  0.193100  0.933200  0.480700  1.0  0.6942
  C  C591  1  0.957740  0.934330  0.804420  1.0  0.6951
  C  C592  1  0.868280  0.814990  0.161800  1.0  0.7102
  C  C593  1  0.892880  0.862430  0.659590  1.0  0.6956
  C  C594  1  0.687790  0.674760  0.999400  1.0  0.7038
  C  C595  1  0.888900  0.843860  0.800000  1.0  0.1353
  C  C596  1  0.715250  0.694500  0.963300  1.0  -0.0613
  C  C597  1  0.957610  0.934380  0.129190  1.0  0.6983
  C  C598  1  0.929400  0.891720  0.058590  1.0  -0.0633
  C  C599  1  0.737000  0.693960  0.824400  1.0  0.7136
  C  C600  1  0.913800  0.873600  0.818000  1.0  0.0221
  C  C601  1  0.830400  0.929640  0.555900  1.0  0.7145
  C  C602  1  0.932830  0.900250  0.784100  1.0  -0.1264
  C  C603  1  0.740060  0.702440  0.878800  1.0  -0.1335
  C  C604  1  0.906600  0.859500  0.041090  1.0  0.2124
  C  C605  1  0.926480  0.896100  0.733260  1.0  0.0618
  C  C606  1  0.933260  0.898640  0.111460  1.0  -0.1186
  C  C607  1  0.886300  0.833800  0.074600  1.0  0.0299
  C  C608  1  0.696100  0.134600  0.783000  1.0  0.6617
  C  C609  1  0.901560  0.864910  0.715330  1.0  -0.1412
  C  C610  1  0.890460  0.840670  0.126490  1.0  -0.0257
  C  C611  1  0.745000  0.720800  0.980000  1.0  -0.0767
  C  C612  1  0.863000  0.814400  0.883400  1.0  0.1842
  C  C613  1  0.712490  0.685100  0.913700  1.0  -0.0213
  C  C614  1  0.883140  0.839170  0.748900  1.0  -0.0569
  C  C615  1  0.877600  0.833700  0.959900  1.0  0.355
  C  C616  1  0.769000  0.730200  0.895640  1.0  -0.056
  C  C617  1  0.772500  0.738800  0.946700  1.0  0.1634
  C  C618  1  0.658100  0.110000  0.782200  1.0  -0.0989
  C  C619  1  0.806300  0.967900  0.553700  1.0  -0.1371
  C  C620  1  0.818300  0.998900  0.520900  1.0  0.0574
  C  C621  1  0.829500  0.788400  0.946600  1.0  0.5263
  C  C622  1  0.914710  0.873480  0.143450  1.0  0.0598
  C  C623  1  0.763000  0.039900  0.548300  1.0  -0.0859
  C  C624  1  0.625400  0.046600  0.760900  1.0  0.2559
  C  C625  1  0.677700  0.934800  0.674200  1.0  0.4971
  C  C626  1  0.698300  0.995000  0.645800  1.0  0.396
  C  C627  1  0.659600  0.070600  0.759600  1.0  -0.0711
  C  C628  1  0.773100  0.973710  0.582800  1.0  0.0149
  C  C629  1  0.749700  0.010300  0.582600  1.0  0.1856
  C  C630  1  0.633700  0.866500  0.729200  1.0  0.0126
  C  C631  1  0.670500  0.790700  0.720000  1.0  -0.1351
  C  C632  1  0.684200  0.824200  0.692500  1.0  -0.0693
  C  C633  1  0.691700  0.749950  0.713700  1.0  0.7074
  C  C634  1  0.637500  0.796000  0.749200  1.0  0.039
  C  C635  1  0.622900  0.123400  0.803000  1.0  0.0661
  C  C636  1  0.665300  0.862300  0.698800  1.0  0.2654
  C  C637  1  0.795400  0.034000  0.517300  1.0  -0.0838
  C  C638  1  0.588700  0.100400  0.802800  1.0  -0.1038
  C  C639  1  0.549200  0.115100  0.823200  1.0  0.6075
  C  C640  1  0.589500  0.060500  0.781400  1.0  -0.0752
  C  C641  1  0.651900  0.990400  0.707000  1.0  0.3142
  C  C642  1  0.620200  0.833000  0.755700  1.0  -0.0884
  C  C643  1  0.585600  0.839400  0.795000  1.0  0.6641
  C  C644  1  0.806900  0.066800  0.480700  1.0  0.6936
  N  N645  1  0.316670  0.365700  0.330320  1.0  -0.3426
  N  N646  1  0.289900  0.334300  0.396700  1.0  -0.4304
  N  N647  1  0.355900  0.404700  0.489140  1.0  -0.2915
  N  N648  1  0.336900  0.387600  0.410320  1.0  -0.3795
  N  N649  1  0.308400  0.353000  0.479980  1.0  -0.4092
  N  N650  1  0.264100  0.301100  0.467850  1.0  -0.3562
  N  N651  1  0.520060  0.218800  0.115000  1.0  -0.3279
  N  N652  1  0.393460  0.184300  0.171100  1.0  -0.3392
  N  N653  1  0.506900  0.126700  0.243900  1.0  -0.3265
  N  N654  1  0.455880  0.201700  0.141400  1.0  -0.379
  N  N655  1  0.514520  0.171400  0.177000  1.0  -0.4794
  N  N656  1  0.449600  0.151900  0.206200  1.0  -0.4768
  N  N657  1  0.683330  0.634300  0.330320  1.0  -0.3425
  N  N658  1  0.710100  0.665700  0.396700  1.0  -0.4317
  N  N659  1  0.644100  0.595300  0.489140  1.0  -0.2891
  N  N660  1  0.663100  0.612400  0.410320  1.0  -0.3802
  N  N661  1  0.691600  0.647000  0.479980  1.0  -0.4097
  N  N662  1  0.735900  0.698900  0.467850  1.0  -0.3557
  N  N663  1  0.479940  0.781200  0.115000  1.0  -0.328
  N  N664  1  0.606540  0.815700  0.171100  1.0  -0.3379
  N  N665  1  0.493100  0.873300  0.243900  1.0  -0.3278
  N  N666  1  0.544120  0.798300  0.141400  1.0  -0.3808
  N  N667  1  0.485480  0.828600  0.177000  1.0  -0.4777
  N  N668  1  0.550400  0.848100  0.206200  1.0  -0.4772
  N  N669  1  0.365700  0.683330  0.669680  1.0  -0.343
  N  N670  1  0.334300  0.710100  0.603300  1.0  -0.4304
  N  N671  1  0.404700  0.644100  0.510860  1.0  -0.2921
  N  N672  1  0.387600  0.663100  0.589680  1.0  -0.3812
  N  N673  1  0.353000  0.691600  0.520020  1.0  -0.4079
  N  N674  1  0.301100  0.735900  0.532150  1.0  -0.3582
  N  N675  1  0.218800  0.479940  0.885000  1.0  -0.3255
  N  N676  1  0.184300  0.606540  0.828900  1.0  -0.3415
  N  N677  1  0.126700  0.493100  0.756100  1.0  -0.3263
  N  N678  1  0.201700  0.544120  0.858600  1.0  -0.3793
  N  N679  1  0.171400  0.485480  0.823000  1.0  -0.4774
  N  N680  1  0.151900  0.550400  0.793800  1.0  -0.4768
  N  N681  1  0.634300  0.316670  0.669680  1.0  -0.3442
  N  N682  1  0.665700  0.289900  0.603300  1.0  -0.4312
  N  N683  1  0.595300  0.355900  0.510860  1.0  -0.2913
  N  N684  1  0.612400  0.336900  0.589680  1.0  -0.3796
  N  N685  1  0.647000  0.308400  0.520020  1.0  -0.4082
  N  N686  1  0.698900  0.264100  0.532150  1.0  -0.3581
  N  N687  1  0.781200  0.520060  0.885000  1.0  -0.3227
  N  N688  1  0.815700  0.393460  0.828900  1.0  -0.3414
  N  N689  1  0.873300  0.506900  0.756100  1.0  -0.3257
  N  N690  1  0.798300  0.455880  0.858600  1.0  -0.3786
  N  N691  1  0.828600  0.514520  0.823000  1.0  -0.4784
  N  N692  1  0.848100  0.449600  0.793800  1.0  -0.4788
  N  N693  1  0.183330  0.865700  0.169680  1.0  -0.3443
  N  N694  1  0.210100  0.834300  0.103300  1.0  -0.4313
  N  N695  1  0.144100  0.904700  0.010860  1.0  -0.2893
  N  N696  1  0.163100  0.887600  0.089680  1.0  -0.3799
  N  N697  1  0.191600  0.853000  0.020020  1.0  -0.411
  N  N698  1  0.235900  0.801100  0.032150  1.0  -0.3584
  N  N699  1  0.979940  0.718800  0.385000  1.0  -0.3273
  N  N700  1  0.106540  0.684300  0.328900  1.0  -0.3359
  N  N701  1  0.993100  0.626700  0.256100  1.0  -0.3275
  N  N702  1  0.044120  0.701700  0.358600  1.0  -0.3805
  N  N703  1  0.985480  0.671400  0.323000  1.0  -0.4783
  N  N704  1  0.050400  0.651900  0.293800  1.0  -0.4798
  N  N705  1  0.816670  0.134300  0.169680  1.0  -0.344
  N  N706  1  0.789900  0.165700  0.103300  1.0  -0.431
  N  N707  1  0.855900  0.095300  0.010860  1.0  -0.2909
  N  N708  1  0.836900  0.112400  0.089680  1.0  -0.379
  N  N709  1  0.808400  0.147000  0.020020  1.0  -0.4104
  N  N710  1  0.764100  0.198900  0.032150  1.0  -0.3582
  N  N711  1  0.020060  0.281200  0.385000  1.0  -0.327
  N  N712  1  0.893460  0.315700  0.328900  1.0  -0.3373
  N  N713  1  0.006900  0.373300  0.256100  1.0  -0.3269
  N  N714  1  0.955880  0.298300  0.358600  1.0  -0.3792
  N  N715  1  0.014520  0.328600  0.323000  1.0  -0.4785
  N  N716  1  0.949600  0.348100  0.293800  1.0  -0.481
  N  N717  1  0.134300  0.183330  0.830320  1.0  -0.342
  N  N718  1  0.165700  0.210100  0.896700  1.0  -0.4315
  N  N719  1  0.095300  0.144100  0.989140  1.0  -0.2911
  N  N720  1  0.112400  0.163100  0.910320  1.0  -0.3807
  N  N721  1  0.147000  0.191600  0.979980  1.0  -0.4113
  N  N722  1  0.198900  0.235900  0.967850  1.0  -0.3555
  N  N723  1  0.281200  0.979940  0.615000  1.0  -0.3262
  N  N724  1  0.315700  0.106540  0.671100  1.0  -0.3403
  N  N725  1  0.373300  0.993100  0.743900  1.0  -0.3268
  N  N726  1  0.298300  0.044120  0.641400  1.0  -0.3796
  N  N727  1  0.328600  0.985480  0.677000  1.0  -0.4776
  N  N728  1  0.348100  0.050400  0.706200  1.0  -0.4796
  N  N729  1  0.865700  0.816670  0.830320  1.0  -0.342
  N  N730  1  0.834300  0.789900  0.896700  1.0  -0.4301
  N  N731  1  0.904700  0.855900  0.989140  1.0  -0.2927
  N  N732  1  0.887600  0.836900  0.910320  1.0  -0.3811
  N  N733  1  0.853000  0.808400  0.979980  1.0  -0.4118
  N  N734  1  0.801100  0.764100  0.967850  1.0  -0.356
  N  N735  1  0.718800  0.020060  0.615000  1.0  -0.3231
  N  N736  1  0.684300  0.893460  0.671100  1.0  -0.3397
  N  N737  1  0.626700  0.006900  0.743900  1.0  -0.3255
  N  N738  1  0.701700  0.955880  0.641400  1.0  -0.3794
  N  N739  1  0.671400  0.014520  0.677000  1.0  -0.4795
  N  N740  1  0.651900  0.949600  0.706200  1.0  -0.4797
  O  O741  1  0.320350  0.372250  0.708100  1.0  -0.6156
  O  O742  1  0.458240  0.474160  0.272910  1.0  -0.5514
  O  O743  1  0.177620  0.194220  0.545410  1.0  -0.5481
  O  O744  1  0.333090  0.371270  0.144980  1.0  -0.5891
  O  O745  1  0.439070  0.461750  0.674990  1.0  -0.5803
  O  O746  1  0.438740  0.462190  0.349950  1.0  -0.5351
  O  O747  1  0.457090  0.473950  0.598040  1.0  -0.5543
  O  O748  1  0.288460  0.343400  0.646380  1.0  -0.5726
  O  O749  1  0.388100  0.407440  0.131070  1.0  -0.5344
  O  O750  1  0.210120  0.261220  0.294090  1.0  -0.5681
  O  O751  1  0.167010  0.211000  0.310570  1.0  -0.6038
  O  O752  1  0.153070  0.158840  0.483470  1.0  -0.5443
  O  O753  1  0.427130  0.363710  0.034400  1.0  -0.5677
  O  O754  1  0.400610  0.316080  0.081730  1.0  -0.5302
  O  O755  1  0.620850  0.227830  0.262600  1.0  -0.559
  O  O756  1  0.669290  0.197680  0.303340  1.0  -0.6227
  O  O757  1  0.220600  0.173570  0.235000  1.0  -0.5623
  O  O758  1  0.248790  0.224850  0.194100  1.0  -0.5333
  O  O759  1  0.567700  0.344400  0.969300  1.0  -0.5875
  O  O760  1  0.649100  0.047200  0.338400  1.0  -0.5301
  O  O761  1  0.596100  0.020100  0.325200  1.0  -0.5534
  O  O762  1  0.373200  0.066200  0.295800  1.0  -0.5972
  O  O763  1  0.309800  0.074300  0.321000  1.0  -0.5835
  O  O764  1  0.590400  0.278900  0.964200  1.0  -0.4615
  O  O765  1  0.679650  0.627750  0.708100  1.0  -0.6166
  O  O766  1  0.541760  0.525840  0.272910  1.0  -0.5499
  O  O767  1  0.822380  0.805780  0.545410  1.0  -0.5487
  O  O768  1  0.666910  0.628730  0.144980  1.0  -0.5886
  O  O769  1  0.560930  0.538250  0.674990  1.0  -0.5802
  O  O770  1  0.561260  0.537810  0.349950  1.0  -0.5341
  O  O771  1  0.542910  0.526050  0.598040  1.0  -0.5545
  O  O772  1  0.711540  0.656600  0.646380  1.0  -0.5732
  O  O773  1  0.611900  0.592560  0.131070  1.0  -0.5332
  O  O774  1  0.789880  0.738780  0.294090  1.0  -0.569
  O  O775  1  0.832990  0.789000  0.310570  1.0  -0.6056
  O  O776  1  0.846930  0.841160  0.483470  1.0  -0.5454
  O  O777  1  0.572870  0.636290  0.034400  1.0  -0.565
  O  O778  1  0.599390  0.683920  0.081730  1.0  -0.5308
  O  O779  1  0.379150  0.772170  0.262600  1.0  -0.5576
  O  O780  1  0.330710  0.802320  0.303340  1.0  -0.6205
  O  O781  1  0.779400  0.826430  0.235000  1.0  -0.5628
  O  O782  1  0.751210  0.775150  0.194100  1.0  -0.5309
  O  O783  1  0.432300  0.655600  0.969300  1.0  -0.5878
  O  O784  1  0.350900  0.952800  0.338400  1.0  -0.53
  O  O785  1  0.403900  0.979900  0.325200  1.0  -0.5538
  O  O786  1  0.626800  0.933800  0.295800  1.0  -0.595
  O  O787  1  0.690200  0.925700  0.321000  1.0  -0.5835
  O  O788  1  0.409600  0.721100  0.964200  1.0  -0.4629
  O  O789  1  0.372250  0.679650  0.291900  1.0  -0.6195
  O  O790  1  0.474160  0.541760  0.727090  1.0  -0.5438
  O  O791  1  0.194220  0.822380  0.454590  1.0  -0.5476
  O  O792  1  0.371270  0.666910  0.855020  1.0  -0.5871
  O  O793  1  0.461750  0.560930  0.325010  1.0  -0.5787
  O  O794  1  0.462190  0.561260  0.650050  1.0  -0.5357
  O  O795  1  0.473950  0.542910  0.401960  1.0  -0.5526
  O  O796  1  0.343400  0.711540  0.353620  1.0  -0.5721
  O  O797  1  0.407440  0.611900  0.868930  1.0  -0.5333
  O  O798  1  0.261220  0.789880  0.705910  1.0  -0.5686
  O  O799  1  0.211000  0.832990  0.689430  1.0  -0.6043
  O  O800  1  0.158840  0.846930  0.516530  1.0  -0.5463
  O  O801  1  0.363710  0.572870  0.965600  1.0  -0.5719
  O  O802  1  0.316080  0.599390  0.918270  1.0  -0.531
  O  O803  1  0.227830  0.379150  0.737400  1.0  -0.5578
  O  O804  1  0.197680  0.330710  0.696660  1.0  -0.6199
  O  O805  1  0.173570  0.779400  0.765000  1.0  -0.5637
  O  O806  1  0.224850  0.751210  0.805900  1.0  -0.5382
  O  O807  1  0.344400  0.432300  0.030700  1.0  -0.5921
  O  O808  1  0.047200  0.350900  0.661600  1.0  -0.5303
  O  O809  1  0.020100  0.403900  0.674800  1.0  -0.5577
  O  O810  1  0.066200  0.626800  0.704200  1.0  -0.5951
  O  O811  1  0.074300  0.690200  0.679000  1.0  -0.583
  O  O812  1  0.278900  0.409600  0.035800  1.0  -0.4639
  O  O813  1  0.627750  0.320350  0.291900  1.0  -0.6188
  O  O814  1  0.525840  0.458240  0.727090  1.0  -0.547
  O  O815  1  0.805780  0.177620  0.454590  1.0  -0.548
  O  O816  1  0.628730  0.333090  0.855020  1.0  -0.5872
  O  O817  1  0.538250  0.439070  0.325010  1.0  -0.5791
  O  O818  1  0.537810  0.438740  0.650050  1.0  -0.535
  O  O819  1  0.526050  0.457090  0.401960  1.0  -0.5525
  O  O820  1  0.656600  0.288460  0.353620  1.0  -0.5725
  O  O821  1  0.592560  0.388100  0.868930  1.0  -0.5326
  O  O822  1  0.738780  0.210120  0.705910  1.0  -0.5688
  O  O823  1  0.789000  0.167010  0.689430  1.0  -0.6053
  O  O824  1  0.841160  0.153070  0.516530  1.0  -0.5457
  O  O825  1  0.636290  0.427130  0.965600  1.0  -0.5712
  O  O826  1  0.683920  0.400610  0.918270  1.0  -0.5296
  O  O827  1  0.772170  0.620850  0.737400  1.0  -0.5584
  O  O828  1  0.802320  0.669290  0.696660  1.0  -0.6221
  O  O829  1  0.826430  0.220600  0.765000  1.0  -0.5629
  O  O830  1  0.775150  0.248790  0.805900  1.0  -0.5383
  O  O831  1  0.655600  0.567700  0.030700  1.0  -0.5914
  O  O832  1  0.952800  0.649100  0.661600  1.0  -0.5292
  O  O833  1  0.979900  0.596100  0.674800  1.0  -0.5558
  O  O834  1  0.933800  0.373200  0.704200  1.0  -0.5935
  O  O835  1  0.925700  0.309800  0.679000  1.0  -0.5806
  O  O836  1  0.721100  0.590400  0.035800  1.0  -0.4657
  O  O837  1  0.179650  0.872250  0.791900  1.0  -0.6188
  O  O838  1  0.041760  0.974160  0.227090  1.0  -0.5462
  O  O839  1  0.322380  0.694220  0.954590  1.0  -0.5474
  O  O840  1  0.166910  0.871270  0.355020  1.0  -0.5881
  O  O841  1  0.060930  0.961750  0.825010  1.0  -0.5807
  O  O842  1  0.061260  0.962190  0.150050  1.0  -0.5355
  O  O843  1  0.042910  0.973950  0.901960  1.0  -0.5521
  O  O844  1  0.211540  0.843400  0.853620  1.0  -0.5731
  O  O845  1  0.111900  0.907440  0.368930  1.0  -0.5312
  O  O846  1  0.289880  0.761220  0.205910  1.0  -0.5691
  O  O847  1  0.332990  0.711000  0.189430  1.0  -0.6054
  O  O848  1  0.346930  0.658840  0.016530  1.0  -0.5454
  O  O849  1  0.072870  0.863710  0.465600  1.0  -0.5679
  O  O850  1  0.099390  0.816080  0.418270  1.0  -0.53
  O  O851  1  0.879150  0.727830  0.237400  1.0  -0.557
  O  O852  1  0.830710  0.697680  0.196660  1.0  -0.6213
  O  O853  1  0.279400  0.673570  0.265000  1.0  -0.5634
  O  O854  1  0.251210  0.724850  0.305900  1.0  -0.5319
  O  O855  1  0.932300  0.844400  0.530700  1.0  -0.586
  O  O856  1  0.850900  0.547200  0.161600  1.0  -0.5305
  O  O857  1  0.903900  0.520100  0.174800  1.0  -0.5529
  O  O858  1  0.126800  0.566200  0.204200  1.0  -0.5954
  O  O859  1  0.190200  0.574300  0.179000  1.0  -0.5823
  O  O860  1  0.909600  0.778900  0.535800  1.0  -0.4597
  O  O861  1  0.820350  0.127750  0.791900  1.0  -0.6187
  O  O862  1  0.958240  0.025840  0.227090  1.0  -0.5447
  O  O863  1  0.677620  0.305780  0.954590  1.0  -0.5485
  O  O864  1  0.833090  0.128730  0.355020  1.0  -0.5887
  O  O865  1  0.939070  0.038250  0.825010  1.0  -0.5814
  O  O866  1  0.938740  0.037810  0.150050  1.0  -0.5364
  O  O867  1  0.957090  0.026050  0.901960  1.0  -0.5529
  O  O868  1  0.788460  0.156600  0.853620  1.0  -0.5734
  O  O869  1  0.888100  0.092560  0.368930  1.0  -0.5331
  O  O870  1  0.710120  0.238780  0.205910  1.0  -0.5681
  O  O871  1  0.667010  0.289000  0.189430  1.0  -0.6039
  O  O872  1  0.653070  0.341160  0.016530  1.0  -0.545
  O  O873  1  0.927130  0.136290  0.465600  1.0  -0.5671
  O  O874  1  0.900610  0.183920  0.418270  1.0  -0.5303
  O  O875  1  0.120850  0.272170  0.237400  1.0  -0.5575
  O  O876  1  0.169290  0.302320  0.196660  1.0  -0.6229
  O  O877  1  0.720600  0.326430  0.265000  1.0  -0.5634
  O  O878  1  0.748790  0.275150  0.305900  1.0  -0.5327
  O  O879  1  0.067700  0.155600  0.530700  1.0  -0.587
  O  O880  1  0.149100  0.452800  0.161600  1.0  -0.5302
  O  O881  1  0.096100  0.479900  0.174800  1.0  -0.5522
  O  O882  1  0.873200  0.433800  0.204200  1.0  -0.5952
  O  O883  1  0.809800  0.425700  0.179000  1.0  -0.5826
  O  O884  1  0.090400  0.221100  0.535800  1.0  -0.4623
  O  O885  1  0.127750  0.179650  0.208100  1.0  -0.6168
  O  O886  1  0.025840  0.041760  0.772910  1.0  -0.55
  O  O887  1  0.305780  0.322380  0.045410  1.0  -0.5489
  O  O888  1  0.128730  0.166910  0.644980  1.0  -0.5877
  O  O889  1  0.038250  0.060930  0.174990  1.0  -0.5784
  O  O890  1  0.037810  0.061260  0.849950  1.0  -0.5342
  O  O891  1  0.026050  0.042910  0.098040  1.0  -0.5546
  O  O892  1  0.156600  0.211540  0.146380  1.0  -0.572
  O  O893  1  0.092560  0.111900  0.631070  1.0  -0.534
  O  O894  1  0.238780  0.289880  0.794090  1.0  -0.5689
  O  O895  1  0.289000  0.332990  0.810570  1.0  -0.6058
  O  O896  1  0.341160  0.346930  0.983470  1.0  -0.5456
  O  O897  1  0.136290  0.072870  0.534400  1.0  -0.5715
  O  O898  1  0.183920  0.099390  0.581730  1.0  -0.5304
  O  O899  1  0.272170  0.879150  0.762600  1.0  -0.5587
  O  O900  1  0.302320  0.830710  0.803340  1.0  -0.6199
  O  O901  1  0.326430  0.279400  0.735000  1.0  -0.5622
  O  O902  1  0.275150  0.251210  0.694100  1.0  -0.5382
  O  O903  1  0.155600  0.932300  0.469300  1.0  -0.593
  O  O904  1  0.452800  0.850900  0.838400  1.0  -0.5304
  O  O905  1  0.479900  0.903900  0.825200  1.0  -0.5541
  O  O906  1  0.433800  0.126800  0.795800  1.0  -0.5968
  O  O907  1  0.425700  0.190200  0.821000  1.0  -0.5808
  O  O908  1  0.221100  0.909600  0.464200  1.0  -0.4627
  O  O909  1  0.872250  0.820350  0.208100  1.0  -0.6162
  O  O910  1  0.974160  0.958240  0.772910  1.0  -0.5516
  O  O911  1  0.694220  0.677620  0.045410  1.0  -0.5478
  O  O912  1  0.871270  0.833090  0.644980  1.0  -0.5867
  O  O913  1  0.961750  0.939070  0.174990  1.0  -0.578
  O  O914  1  0.962190  0.938740  0.849950  1.0  -0.5336
  O  O915  1  0.973950  0.957090  0.098040  1.0  -0.5538
  O  O916  1  0.843400  0.788460  0.146380  1.0  -0.572
  O  O917  1  0.907440  0.888100  0.631070  1.0  -0.5345
  O  O918  1  0.761220  0.710120  0.794090  1.0  -0.5684
  O  O919  1  0.711000  0.667010  0.810570  1.0  -0.6033
  O  O920  1  0.658840  0.653070  0.983470  1.0  -0.5459
  O  O921  1  0.863710  0.927130  0.534400  1.0  -0.5709
  O  O922  1  0.816080  0.900610  0.581730  1.0  -0.5297
  O  O923  1  0.727830  0.120850  0.762600  1.0  -0.5589
  O  O924  1  0.697680  0.169290  0.803340  1.0  -0.6209
  O  O925  1  0.673570  0.720600  0.735000  1.0  -0.5608
  O  O926  1  0.724850  0.748790  0.694100  1.0  -0.5381
  O  O927  1  0.844400  0.067700  0.469300  1.0  -0.5916
  O  O928  1  0.547200  0.149100  0.838400  1.0  -0.5299
  O  O929  1  0.520100  0.096100  0.825200  1.0  -0.5532
  O  O930  1  0.566200  0.873200  0.795800  1.0  -0.5939
  O  O931  1  0.574300  0.809800  0.821000  1.0  -0.5819
  O  O932  1  0.778900  0.090400  0.464200  1.0  -0.4624
