# generated using pymatgen
data_Cu5H16C28N12ClO10
_symmetry_space_group_name_H-M   'P 1'
_cell_length_a   23.96470000
_cell_length_b   23.96470000
_cell_length_c   40.97900000
_cell_angle_alpha   90.00000000
_cell_angle_beta   90.00000000
_cell_angle_gamma   120.00000000
_symmetry_Int_Tables_number   1
_chemical_formula_structural   Cu5H16C28N12ClO10
_chemical_formula_sum   'Cu90 H288 C504 N216 Cl18 O180'
_cell_volume   20381.49239885
_cell_formula_units_Z   18
loop_
 _symmetry_equiv_pos_site_id
 _symmetry_equiv_pos_as_xyz
  1  'x, y, z'
loop_
 _atom_site_type_symbol
 _atom_site_label
 _atom_site_symmetry_multiplicity
 _atom_site_fract_x
 _atom_site_fract_y
 _atom_site_fract_z
 _atom_site_occupancy
 _atom_site_charge
  Cu  Cu1  1  0.696910  0.951200  0.282680  1.0  0.9139
  Cu  Cu2  1  0.766320  0.201780  0.232350  1.0  0.8633
  Cu  Cu3  1  0.363580  0.284530  0.616010  1.0  0.914
  Cu  Cu4  1  0.432990  0.535110  0.565680  1.0  0.8629
  Cu  Cu5  1  0.030240  0.617870  0.949350  1.0  0.914
  Cu  Cu6  1  0.099650  0.868450  0.899020  1.0  0.8628
  Cu  Cu7  1  0.048800  0.745710  0.282680  1.0  0.9161
  Cu  Cu8  1  0.798220  0.564540  0.232350  1.0  0.8645
  Cu  Cu9  1  0.715470  0.079040  0.616010  1.0  0.9161
  Cu  Cu10  1  0.464890  0.897870  0.565680  1.0  0.8641
  Cu  Cu11  1  0.382130  0.412380  0.949350  1.0  0.916
  Cu  Cu12  1  0.131550  0.231210  0.899020  1.0  0.864
  Cu  Cu13  1  0.254290  0.303090  0.282680  1.0  0.9124
  Cu  Cu14  1  0.435460  0.233680  0.232350  1.0  0.8641
  Cu  Cu15  1  0.920960  0.636420  0.616010  1.0  0.9124
  Cu  Cu16  1  0.102130  0.567010  0.565680  1.0  0.8634
  Cu  Cu17  1  0.587620  0.969760  0.949350  1.0  0.9124
  Cu  Cu18  1  0.768790  0.900350  0.899020  1.0  0.8641
  Cu  Cu19  1  0.951200  0.696910  0.217320  1.0  0.9126
  Cu  Cu20  1  0.201780  0.766320  0.267650  1.0  0.8655
  Cu  Cu21  1  0.617870  0.030240  0.550650  1.0  0.9127
  Cu  Cu22  1  0.868450  0.099650  0.600980  1.0  0.8649
  Cu  Cu23  1  0.284530  0.363580  0.883990  1.0  0.9127
  Cu  Cu24  1  0.535110  0.432990  0.934320  1.0  0.865
  Cu  Cu25  1  0.745710  0.048800  0.217320  1.0  0.9131
  Cu  Cu26  1  0.564540  0.798220  0.267650  1.0  0.8648
  Cu  Cu27  1  0.412380  0.382130  0.550650  1.0  0.9131
  Cu  Cu28  1  0.231210  0.131550  0.600980  1.0  0.8643
  Cu  Cu29  1  0.079040  0.715470  0.883990  1.0  0.9131
  Cu  Cu30  1  0.897870  0.464890  0.934320  1.0  0.8643
  Cu  Cu31  1  0.303090  0.254290  0.217320  1.0  0.9148
  Cu  Cu32  1  0.233680  0.435460  0.267650  1.0  0.8669
  Cu  Cu33  1  0.969760  0.587620  0.550650  1.0  0.9148
  Cu  Cu34  1  0.900350  0.768790  0.600980  1.0  0.8669
  Cu  Cu35  1  0.636420  0.920960  0.883990  1.0  0.9148
  Cu  Cu36  1  0.567010  0.102130  0.934320  1.0  0.866
  Cu  Cu37  1  0.303090  0.048800  0.717320  1.0  0.9132
  Cu  Cu38  1  0.233680  0.798220  0.767650  1.0  0.8653
  Cu  Cu39  1  0.969760  0.382130  0.050650  1.0  0.9133
  Cu  Cu40  1  0.900350  0.131550  0.100980  1.0  0.8647
  Cu  Cu41  1  0.636420  0.715470  0.383990  1.0  0.9133
  Cu  Cu42  1  0.567010  0.464890  0.434320  1.0  0.8648
  Cu  Cu43  1  0.951200  0.254290  0.717320  1.0  0.9152
  Cu  Cu44  1  0.201780  0.435460  0.767650  1.0  0.865
  Cu  Cu45  1  0.617870  0.587620  0.050650  1.0  0.9154
  Cu  Cu46  1  0.868450  0.768790  0.100980  1.0  0.8645
  Cu  Cu47  1  0.284530  0.920960  0.383990  1.0  0.9152
  Cu  Cu48  1  0.535110  0.102130  0.434320  1.0  0.8644
  Cu  Cu49  1  0.745710  0.696910  0.717320  1.0  0.9138
  Cu  Cu50  1  0.564540  0.766320  0.767650  1.0  0.8652
  Cu  Cu51  1  0.412380  0.030240  0.050650  1.0  0.9138
  Cu  Cu52  1  0.231210  0.099650  0.100980  1.0  0.8652
  Cu  Cu53  1  0.079040  0.363580  0.383990  1.0  0.9138
  Cu  Cu54  1  0.897870  0.432990  0.434320  1.0  0.8644
  Cu  Cu55  1  0.048800  0.303090  0.782680  1.0  0.9124
  Cu  Cu56  1  0.798220  0.233680  0.732350  1.0  0.8664
  Cu  Cu57  1  0.715470  0.636420  0.116010  1.0  0.9124
  Cu  Cu58  1  0.464890  0.567010  0.065680  1.0  0.8664
  Cu  Cu59  1  0.382130  0.969760  0.449350  1.0  0.9125
  Cu  Cu60  1  0.131550  0.900350  0.399020  1.0  0.8659
  Cu  Cu61  1  0.254290  0.951200  0.782680  1.0  0.9132
  Cu  Cu62  1  0.435460  0.201780  0.732350  1.0  0.8668
  Cu  Cu63  1  0.920960  0.284530  0.116010  1.0  0.9132
  Cu  Cu64  1  0.102130  0.535110  0.065680  1.0  0.8667
  Cu  Cu65  1  0.587620  0.617870  0.449350  1.0  0.9132
  Cu  Cu66  1  0.768790  0.868450  0.399020  1.0  0.8663
  Cu  Cu67  1  0.696910  0.745710  0.782680  1.0  0.9156
  Cu  Cu68  1  0.766320  0.564540  0.732350  1.0  0.8657
  Cu  Cu69  1  0.363580  0.079040  0.116010  1.0  0.9156
  Cu  Cu70  1  0.432990  0.897870  0.065680  1.0  0.8645
  Cu  Cu71  1  0.030240  0.412380  0.449350  1.0  0.9154
  Cu  Cu72  1  0.099650  0.231210  0.399020  1.0  0.8653
  Cu  Cu73  1  0.666667  0.833330  0.333333  1.0  0.8346
  Cu  Cu74  1  0.166670  0.833330  0.333333  1.0  0.835
  Cu  Cu75  1  0.166670  0.333333  0.333333  1.0  0.8356
  Cu  Cu76  1  0.833330  0.666667  0.166670  1.0  0.8354
  Cu  Cu77  1  0.500000  0.000000  0.500000  1.0  0.8332
  Cu  Cu78  1  0.833330  0.166670  0.166670  1.0  0.8347
  Cu  Cu79  1  0.500000  0.500000  0.500000  1.0  0.8332
  Cu  Cu80  1  0.333333  0.166670  0.166670  1.0  0.8333
  Cu  Cu81  1  0.000000  0.500000  0.500000  1.0  0.8331
  Cu  Cu82  1  0.333333  0.166670  0.666667  1.0  0.8352
  Cu  Cu83  1  0.000000  0.500000  0.000000  1.0  0.8332
  Cu  Cu84  1  0.833330  0.166670  0.666667  1.0  0.8346
  Cu  Cu85  1  0.500000  0.500000  0.000000  1.0  0.8332
  Cu  Cu86  1  0.833330  0.666667  0.666667  1.0  0.8351
  Cu  Cu87  1  0.500000  0.000000  0.000000  1.0  0.8331
  Cu  Cu88  1  0.166670  0.333333  0.833330  1.0  0.8351
  Cu  Cu89  1  0.166670  0.833330  0.833330  1.0  0.8351
  Cu  Cu90  1  0.666667  0.833330  0.833330  1.0  0.8338
  H  H91  1  0.560100  0.982100  0.380500  1.0  0.3901
  H  H92  1  0.690000  0.851100  0.277800  1.0  0.4483
  H  H93  1  0.895500  0.021900  0.395200  1.0  0.1264
  H  H94  1  0.925100  0.164800  0.333200  1.0  0.1015
  H  H95  1  0.828400  0.100800  0.306900  1.0  0.12
  H  H96  1  0.628400  0.002300  0.344500  1.0  0.1195
  H  H97  1  0.642600  0.176800  0.351400  1.0  0.1045
  H  H98  1  0.695000  0.209800  0.302300  1.0  0.1328
  H  H99  1  0.226770  0.315430  0.713830  1.0  0.3901
  H  H100  1  0.356670  0.184430  0.611130  1.0  0.4481
  H  H101  1  0.562170  0.355230  0.728530  1.0  0.1264
  H  H102  1  0.591770  0.498130  0.666530  1.0  0.1015
  H  H103  1  0.495070  0.434130  0.640230  1.0  0.12
  H  H104  1  0.295070  0.335630  0.677830  1.0  0.1194
  H  H105  1  0.309270  0.510130  0.684730  1.0  0.1045
  H  H106  1  0.361670  0.543130  0.635630  1.0  0.1336
  H  H107  1  0.893430  0.648770  0.047170  1.0  0.3901
  H  H108  1  0.023330  0.517770  0.944470  1.0  0.448
  H  H109  1  0.228830  0.688570  0.061870  1.0  0.1264
  H  H110  1  0.258430  0.831470  0.999870  1.0  0.1015
  H  H111  1  0.161730  0.767470  0.973570  1.0  0.1199
  H  H112  1  0.961730  0.668970  0.011170  1.0  0.1195
  H  H113  1  0.975930  0.843470  0.018070  1.0  0.093
  H  H114  1  0.028330  0.876470  0.968970  1.0  0.1327
  H  H115  1  0.017900  0.578000  0.380500  1.0  0.3911
  H  H116  1  0.148900  0.838900  0.277800  1.0  0.4495
  H  H117  1  0.978100  0.873600  0.395200  1.0  0.126
  H  H118  1  0.835200  0.760300  0.333200  1.0  0.1023
  H  H119  1  0.899200  0.727600  0.306900  1.0  0.1201
  H  H120  1  0.997700  0.626100  0.344500  1.0  0.119
  H  H121  1  0.823200  0.465800  0.351400  1.0  0.101
  H  H122  1  0.790200  0.485200  0.302300  1.0  0.1344
  H  H123  1  0.684570  0.911330  0.713830  1.0  0.3912
  H  H124  1  0.815570  0.172230  0.611130  1.0  0.4495
  H  H125  1  0.644770  0.206930  0.728530  1.0  0.126
  H  H126  1  0.501870  0.093630  0.666530  1.0  0.1023
  H  H127  1  0.565870  0.060930  0.640230  1.0  0.1201
  H  H128  1  0.664370  0.959430  0.677830  1.0  0.119
  H  H129  1  0.489870  0.799130  0.684730  1.0  0.101
  H  H130  1  0.456870  0.818530  0.635630  1.0  0.1321
  H  H131  1  0.351230  0.244670  0.047170  1.0  0.3912
  H  H132  1  0.482230  0.505570  0.944470  1.0  0.4495
  H  H133  1  0.311430  0.540270  0.061870  1.0  0.126
  H  H134  1  0.168530  0.426970  0.999870  1.0  0.1023
  H  H135  1  0.232530  0.394270  0.973570  1.0  0.1201
  H  H136  1  0.331030  0.292770  0.011170  1.0  0.1198
  H  H137  1  0.156530  0.132470  0.018070  1.0  0.104
  H  H138  1  0.123530  0.151870  0.968970  1.0  0.132
  H  H139  1  0.422000  0.439900  0.380500  1.0  0.3906
  H  H140  1  0.161100  0.310000  0.277800  1.0  0.4491
  H  H141  1  0.126400  0.104500  0.395200  1.0  0.1266
  H  H142  1  0.239700  0.074900  0.333200  1.0  0.1016
  H  H143  1  0.272400  0.171600  0.306900  1.0  0.1199
  H  H144  1  0.373900  0.371600  0.344500  1.0  0.1187
  H  H145  1  0.534200  0.357400  0.351400  1.0  0.0965
  H  H146  1  0.514800  0.305000  0.302300  1.0  0.1321
  H  H147  1  0.088670  0.773230  0.713830  1.0  0.3906
  H  H148  1  0.827770  0.643330  0.611130  1.0  0.4491
  H  H149  1  0.793070  0.437830  0.728530  1.0  0.1266
  H  H150  1  0.906370  0.408230  0.666530  1.0  0.1016
  H  H151  1  0.939070  0.504930  0.640230  1.0  0.1199
  H  H152  1  0.040570  0.704930  0.677830  1.0  0.1187
  H  H153  1  0.200870  0.690730  0.684730  1.0  0.0965
  H  H154  1  0.181470  0.638330  0.635630  1.0  0.1311
  H  H155  1  0.755330  0.106570  0.047170  1.0  0.3906
  H  H156  1  0.494430  0.976670  0.944470  1.0  0.4491
  H  H157  1  0.459730  0.771170  0.061870  1.0  0.1266
  H  H158  1  0.573030  0.741570  0.999870  1.0  0.1016
  H  H159  1  0.605730  0.838270  0.973570  1.0  0.12
  H  H160  1  0.707230  0.038270  0.011170  1.0  0.1187
  H  H161  1  0.867530  0.024070  0.018070  1.0  0.1016
  H  H162  1  0.848130  0.971670  0.968970  1.0  0.1346
  H  H163  1  0.982100  0.560100  0.119500  1.0  0.391
  H  H164  1  0.851100  0.690000  0.222200  1.0  0.4482
  H  H165  1  0.021900  0.895500  0.104800  1.0  0.1261
  H  H166  1  0.164800  0.925100  0.166800  1.0  0.1011
  H  H167  1  0.100800  0.828400  0.193100  1.0  0.1201
  H  H168  1  0.002300  0.628400  0.155500  1.0  0.1186
  H  H169  1  0.176800  0.642600  0.148600  1.0  0.1043
  H  H170  1  0.209800  0.695000  0.197700  1.0  0.1334
  H  H171  1  0.648770  0.893430  0.452830  1.0  0.391
  H  H172  1  0.517770  0.023330  0.555530  1.0  0.4481
  H  H173  1  0.688570  0.228830  0.438130  1.0  0.1261
  H  H174  1  0.831470  0.258430  0.500130  1.0  0.1011
  H  H175  1  0.767470  0.161730  0.526430  1.0  0.1201
  H  H176  1  0.668970  0.961730  0.488830  1.0  0.1186
  H  H177  1  0.843470  0.975930  0.481930  1.0  0.0965
  H  H178  1  0.876470  0.028330  0.531030  1.0  0.1333
  H  H179  1  0.315430  0.226770  0.786170  1.0  0.391
  H  H180  1  0.184430  0.356670  0.888870  1.0  0.4482
  H  H181  1  0.355230  0.562170  0.771470  1.0  0.1261
  H  H182  1  0.498130  0.591770  0.833470  1.0  0.1011
  H  H183  1  0.434130  0.495070  0.859770  1.0  0.1201
  H  H184  1  0.335630  0.295070  0.822170  1.0  0.1185
  H  H185  1  0.510130  0.309270  0.815270  1.0  0.1043
  H  H186  1  0.543130  0.361670  0.864370  1.0  0.1338
  H  H187  1  0.578000  0.017900  0.119500  1.0  0.3909
  H  H188  1  0.838900  0.148900  0.222200  1.0  0.448
  H  H189  1  0.873600  0.978100  0.104800  1.0  0.1259
  H  H190  1  0.760300  0.835200  0.166800  1.0  0.1015
  H  H191  1  0.727600  0.899200  0.193100  1.0  0.12
  H  H192  1  0.626100  0.997700  0.155500  1.0  0.119
  H  H193  1  0.465800  0.823200  0.148600  1.0  0.1009
  H  H194  1  0.485200  0.790200  0.197700  1.0  0.1344
  H  H195  1  0.244670  0.351230  0.452830  1.0  0.391
  H  H196  1  0.505570  0.482230  0.555530  1.0  0.448
  H  H197  1  0.540270  0.311430  0.438130  1.0  0.1259
  H  H198  1  0.426970  0.168530  0.500130  1.0  0.1015
  H  H199  1  0.394270  0.232530  0.526430  1.0  0.12
  H  H200  1  0.292770  0.331030  0.488830  1.0  0.1197
  H  H201  1  0.132470  0.156530  0.481930  1.0  0.1042
  H  H202  1  0.151870  0.123530  0.531030  1.0  0.1318
  H  H203  1  0.911330  0.684570  0.786170  1.0  0.391
  H  H204  1  0.172230  0.815570  0.888870  1.0  0.4482
  H  H205  1  0.206930  0.644770  0.771470  1.0  0.1259
  H  H206  1  0.093630  0.501870  0.833470  1.0  0.1015
  H  H207  1  0.060930  0.565870  0.859770  1.0  0.12
  H  H208  1  0.959430  0.664370  0.822170  1.0  0.119
  H  H209  1  0.799130  0.489870  0.815270  1.0  0.1009
  H  H210  1  0.818530  0.456870  0.864370  1.0  0.1323
  H  H211  1  0.439900  0.422000  0.119500  1.0  0.3913
  H  H212  1  0.310000  0.161100  0.222200  1.0  0.4492
  H  H213  1  0.104500  0.126400  0.104800  1.0  0.1259
  H  H214  1  0.074900  0.239700  0.166800  1.0  0.1015
  H  H215  1  0.171600  0.272400  0.193100  1.0  0.1206
  H  H216  1  0.371600  0.373900  0.155500  1.0  0.1188
  H  H217  1  0.357400  0.534200  0.148600  1.0  0.0952
  H  H218  1  0.305000  0.514800  0.197700  1.0  0.1318
  H  H219  1  0.106570  0.755330  0.452830  1.0  0.3913
  H  H220  1  0.976670  0.494430  0.555530  1.0  0.4491
  H  H221  1  0.771170  0.459730  0.438130  1.0  0.1259
  H  H222  1  0.741570  0.573030  0.500130  1.0  0.1014
  H  H223  1  0.838270  0.605730  0.526430  1.0  0.1207
  H  H224  1  0.038270  0.707230  0.488830  1.0  0.1188
  H  H225  1  0.024070  0.867530  0.481930  1.0  0.1015
  H  H226  1  0.971670  0.848130  0.531030  1.0  0.1341
  H  H227  1  0.773230  0.088670  0.786170  1.0  0.3913
  H  H228  1  0.643330  0.827770  0.888870  1.0  0.4492
  H  H229  1  0.437830  0.793070  0.771470  1.0  0.1259
  H  H230  1  0.408230  0.906370  0.833470  1.0  0.1015
  H  H231  1  0.504930  0.939070  0.859770  1.0  0.1206
  H  H232  1  0.704930  0.040570  0.822170  1.0  0.1188
  H  H233  1  0.690730  0.200870  0.815270  1.0  0.0952
  H  H234  1  0.638330  0.181470  0.864370  1.0  0.1304
  H  H235  1  0.439900  0.017900  0.619500  1.0  0.3918
  H  H236  1  0.310000  0.148900  0.722200  1.0  0.4494
  H  H237  1  0.104500  0.978100  0.604800  1.0  0.1262
  H  H238  1  0.074900  0.835200  0.666800  1.0  0.1015
  H  H239  1  0.171600  0.899200  0.693100  1.0  0.1204
  H  H240  1  0.371600  0.997700  0.655500  1.0  0.1191
  H  H241  1  0.357400  0.823200  0.648600  1.0  0.1044
  H  H242  1  0.305000  0.790200  0.697700  1.0  0.132
  H  H243  1  0.106570  0.351230  0.952830  1.0  0.3918
  H  H244  1  0.976670  0.482230  0.055530  1.0  0.4491
  H  H245  1  0.771170  0.311430  0.938130  1.0  0.1263
  H  H246  1  0.741570  0.168530  0.000130  1.0  0.1015
  H  H247  1  0.838270  0.232530  0.026430  1.0  0.1204
  H  H248  1  0.038270  0.331030  0.988830  1.0  0.1191
  H  H249  1  0.024070  0.156530  0.981930  1.0  0.0943
  H  H250  1  0.971670  0.123530  0.031030  1.0  0.1321
  H  H251  1  0.773230  0.684570  0.286170  1.0  0.3918
  H  H252  1  0.643330  0.815570  0.388870  1.0  0.4491
  H  H253  1  0.437830  0.644770  0.271470  1.0  0.1262
  H  H254  1  0.408230  0.501870  0.333470  1.0  0.1015
  H  H255  1  0.504930  0.565870  0.359770  1.0  0.1204
  H  H256  1  0.704930  0.664370  0.322170  1.0  0.119
  H  H257  1  0.690730  0.489870  0.315270  1.0  0.1044
  H  H258  1  0.638330  0.456870  0.364370  1.0  0.1322
  H  H259  1  0.982100  0.422000  0.619500  1.0  0.391
  H  H260  1  0.851100  0.161100  0.722200  1.0  0.4502
  H  H261  1  0.021900  0.126400  0.604800  1.0  0.1257
  H  H262  1  0.164800  0.239700  0.666800  1.0  0.1016
  H  H263  1  0.100800  0.272400  0.693100  1.0  0.1204
  H  H264  1  0.002300  0.373900  0.655500  1.0  0.1183
  H  H265  1  0.176800  0.534200  0.648600  1.0  0.1014
  H  H266  1  0.209800  0.514800  0.697700  1.0  0.1346
  H  H267  1  0.648770  0.755330  0.952830  1.0  0.3911
  H  H268  1  0.517770  0.494430  0.055530  1.0  0.4502
  H  H269  1  0.688570  0.459730  0.938130  1.0  0.1257
  H  H270  1  0.831470  0.573030  0.000130  1.0  0.1016
  H  H271  1  0.767470  0.605730  0.026430  1.0  0.1204
  H  H272  1  0.668970  0.707230  0.988830  1.0  0.119
  H  H273  1  0.843470  0.867530  0.981930  1.0  0.104
  H  H274  1  0.876470  0.848130  0.031030  1.0  0.132
  H  H275  1  0.315430  0.088670  0.286170  1.0  0.3911
  H  H276  1  0.184430  0.827770  0.388870  1.0  0.4504
  H  H277  1  0.355230  0.793070  0.271470  1.0  0.1257
  H  H278  1  0.498130  0.906370  0.333470  1.0  0.1016
  H  H279  1  0.434130  0.939070  0.359770  1.0  0.1204
  H  H280  1  0.335630  0.040570  0.322170  1.0  0.1183
  H  H281  1  0.510130  0.200870  0.315270  1.0  0.1014
  H  H282  1  0.543130  0.181470  0.364370  1.0  0.1324
  H  H283  1  0.578000  0.560100  0.619500  1.0  0.3909
  H  H284  1  0.838900  0.690000  0.722200  1.0  0.4476
  H  H285  1  0.873600  0.895500  0.604800  1.0  0.1262
  H  H286  1  0.760300  0.925100  0.666800  1.0  0.1016
  H  H287  1  0.727600  0.828400  0.693100  1.0  0.12
  H  H288  1  0.626100  0.628400  0.655500  1.0  0.1186
  H  H289  1  0.465800  0.642600  0.648600  1.0  0.0962
  H  H290  1  0.485200  0.695000  0.697700  1.0  0.132
  H  H291  1  0.244670  0.893430  0.952830  1.0  0.3909
  H  H292  1  0.505570  0.023330  0.055530  1.0  0.4477
  H  H293  1  0.540270  0.228830  0.938130  1.0  0.1262
  H  H294  1  0.426970  0.258430  0.000130  1.0  0.1015
  H  H295  1  0.394270  0.161730  0.026430  1.0  0.12
  H  H296  1  0.292770  0.961730  0.988830  1.0  0.1187
  H  H297  1  0.132470  0.975930  0.981930  1.0  0.1015
  H  H298  1  0.151870  0.028330  0.031030  1.0  0.1344
  H  H299  1  0.911330  0.226770  0.286170  1.0  0.3909
  H  H300  1  0.172230  0.356670  0.388870  1.0  0.4476
  H  H301  1  0.206930  0.562170  0.271470  1.0  0.1262
  H  H302  1  0.093630  0.591770  0.333470  1.0  0.1016
  H  H303  1  0.060930  0.495070  0.359770  1.0  0.12
  H  H304  1  0.959430  0.295070  0.322170  1.0  0.1186
  H  H305  1  0.799130  0.309270  0.315270  1.0  0.0962
  H  H306  1  0.818530  0.361670  0.364370  1.0  0.1309
  H  H307  1  0.017900  0.439900  0.880500  1.0  0.3913
  H  H308  1  0.148900  0.310000  0.777800  1.0  0.4478
  H  H309  1  0.978100  0.104500  0.895200  1.0  0.1269
  H  H310  1  0.835200  0.074900  0.833200  1.0  0.1016
  H  H311  1  0.899200  0.171600  0.806900  1.0  0.1198
  H  H312  1  0.997700  0.371600  0.844500  1.0  0.1193
  H  H313  1  0.823200  0.357400  0.851400  1.0  0.1039
  H  H314  1  0.790200  0.305000  0.802300  1.0  0.1334
  H  H315  1  0.684570  0.773230  0.213830  1.0  0.3913
  H  H316  1  0.815570  0.643330  0.111130  1.0  0.4475
  H  H317  1  0.644770  0.437830  0.228530  1.0  0.1269
  H  H318  1  0.501870  0.408230  0.166530  1.0  0.1016
  H  H319  1  0.565870  0.504930  0.140230  1.0  0.1198
  H  H320  1  0.664370  0.704930  0.177830  1.0  0.1192
  H  H321  1  0.489870  0.690730  0.184730  1.0  0.1039
  H  H322  1  0.456870  0.638330  0.135630  1.0  0.1337
  H  H323  1  0.351230  0.106570  0.547170  1.0  0.3913
  H  H324  1  0.482230  0.976670  0.444470  1.0  0.4474
  H  H325  1  0.311430  0.771170  0.561870  1.0  0.1269
  H  H326  1  0.168530  0.741570  0.499870  1.0  0.1016
  H  H327  1  0.232530  0.838270  0.473570  1.0  0.1198
  H  H328  1  0.331030  0.038270  0.511170  1.0  0.1193
  H  H329  1  0.156530  0.024070  0.518070  1.0  0.0962
  H  H330  1  0.123530  0.971670  0.468970  1.0  0.1335
  H  H331  1  0.422000  0.982100  0.880500  1.0  0.3914
  H  H332  1  0.161100  0.851100  0.777800  1.0  0.4478
  H  H333  1  0.126400  0.021900  0.895200  1.0  0.1268
  H  H334  1  0.239700  0.164800  0.833200  1.0  0.1014
  H  H335  1  0.272400  0.100800  0.806900  1.0  0.12
  H  H336  1  0.373900  0.002300  0.844500  1.0  0.1195
  H  H337  1  0.534200  0.176800  0.851400  1.0  0.1014
  H  H338  1  0.514800  0.209800  0.802300  1.0  0.1341
  H  H339  1  0.088670  0.315430  0.213830  1.0  0.3914
  H  H340  1  0.827770  0.184430  0.111130  1.0  0.448
  H  H341  1  0.793070  0.355230  0.228530  1.0  0.1268
  H  H342  1  0.906370  0.498130  0.166530  1.0  0.1014
  H  H343  1  0.939070  0.434130  0.140230  1.0  0.12
  H  H344  1  0.040570  0.335630  0.177830  1.0  0.1195
  H  H345  1  0.200870  0.510130  0.184730  1.0  0.1014
  H  H346  1  0.181470  0.543130  0.135630  1.0  0.1321
  H  H347  1  0.755330  0.648770  0.547170  1.0  0.3914
  H  H348  1  0.494430  0.517770  0.444470  1.0  0.4478
  H  H349  1  0.459730  0.688570  0.561870  1.0  0.1268
  H  H350  1  0.573030  0.831470  0.499870  1.0  0.1014
  H  H351  1  0.605730  0.767470  0.473570  1.0  0.12
  H  H352  1  0.707230  0.668970  0.511170  1.0  0.1203
  H  H353  1  0.867530  0.843470  0.518070  1.0  0.1046
  H  H354  1  0.848130  0.876470  0.468970  1.0  0.1314
  H  H355  1  0.560100  0.578000  0.880500  1.0  0.3923
  H  H356  1  0.690000  0.838900  0.777800  1.0  0.4481
  H  H357  1  0.895500  0.873600  0.895200  1.0  0.126
  H  H358  1  0.925100  0.760300  0.833200  1.0  0.1021
  H  H359  1  0.828400  0.727600  0.806900  1.0  0.1203
  H  H360  1  0.628400  0.626100  0.844500  1.0  0.1188
  H  H361  1  0.642600  0.465800  0.851400  1.0  0.0957
  H  H362  1  0.695000  0.485200  0.802300  1.0  0.1314
  H  H363  1  0.226770  0.911330  0.213830  1.0  0.3923
  H  H364  1  0.356670  0.172230  0.111130  1.0  0.4481
  H  H365  1  0.562170  0.206930  0.228530  1.0  0.126
  H  H366  1  0.591770  0.093630  0.166530  1.0  0.1021
  H  H367  1  0.495070  0.060930  0.140230  1.0  0.1203
  H  H368  1  0.295070  0.959430  0.177830  1.0  0.1188
  H  H369  1  0.309270  0.799130  0.184730  1.0  0.0957
  H  H370  1  0.361670  0.818530  0.135630  1.0  0.1302
  H  H371  1  0.893430  0.244670  0.547170  1.0  0.3921
  H  H372  1  0.023330  0.505570  0.444470  1.0  0.448
  H  H373  1  0.228830  0.540270  0.561870  1.0  0.126
  H  H374  1  0.258430  0.426970  0.499870  1.0  0.102
  H  H375  1  0.161730  0.394270  0.473570  1.0  0.1204
  H  H376  1  0.961730  0.292770  0.511170  1.0  0.1188
  H  H377  1  0.975930  0.132470  0.518070  1.0  0.101
  H  H378  1  0.028330  0.151870  0.468970  1.0  0.134
  C  C379  1  0.883000  0.037000  0.377330  1.0  -0.0552
  C  C380  1  0.920700  0.097800  0.365700  1.0  -0.1163
  C  C381  1  0.899300  0.122200  0.339700  1.0  -0.0531
  C  C382  1  0.841800  0.084700  0.324000  1.0  -0.1335
  C  C383  1  0.804600  0.021200  0.334850  1.0  0.1039
  C  C384  1  0.824500  0.998100  0.361290  1.0  0.1086
  C  C385  1  0.986600  0.139000  0.380500  1.0  0.6759
  C  C386  1  0.642200  0.043300  0.336170  1.0  -0.0824
  C  C387  1  0.630400  0.086600  0.352280  1.0  -0.0881
  C  C388  1  0.650900  0.148700  0.339500  1.0  -0.0255
  C  C389  1  0.682100  0.168900  0.310500  1.0  -0.1629
  C  C390  1  0.694000  0.124600  0.293480  1.0  0.0905
  C  C391  1  0.675700  0.063600  0.306630  1.0  0.0958
  C  C392  1  0.592000  0.068200  0.384000  1.0  0.6812
  C  C393  1  0.549670  0.370330  0.710660  1.0  -0.0552
  C  C394  1  0.587370  0.431130  0.699030  1.0  -0.1153
  C  C395  1  0.565970  0.455530  0.673030  1.0  -0.0531
  C  C396  1  0.508470  0.418030  0.657330  1.0  -0.1335
  C  C397  1  0.471270  0.354530  0.668180  1.0  0.1039
  C  C398  1  0.491170  0.331430  0.694620  1.0  0.1086
  C  C399  1  0.653270  0.472330  0.713830  1.0  0.6759
  C  C400  1  0.308870  0.376630  0.669500  1.0  -0.0824
  C  C401  1  0.297070  0.419930  0.685610  1.0  -0.0883
  C  C402  1  0.317570  0.482030  0.672830  1.0  -0.0255
  C  C403  1  0.348770  0.502230  0.643830  1.0  -0.1629
  C  C404  1  0.360670  0.457930  0.626810  1.0  0.0905
  C  C405  1  0.342370  0.396930  0.639960  1.0  0.0958
  C  C406  1  0.258670  0.401530  0.717330  1.0  0.6813
  C  C407  1  0.216330  0.703670  0.044000  1.0  -0.0552
  C  C408  1  0.254030  0.764470  0.032370  1.0  -0.1162
  C  C409  1  0.232630  0.788870  0.006370  1.0  -0.0531
  C  C410  1  0.175130  0.751370  0.990670  1.0  -0.1335
  C  C411  1  0.137930  0.687870  0.001520  1.0  0.1039
  C  C412  1  0.157830  0.664770  0.027960  1.0  0.1086
  C  C413  1  0.319930  0.805670  0.047170  1.0  0.6761
  C  C414  1  0.975530  0.709970  0.002840  1.0  -0.0824
  C  C415  1  0.963730  0.753270  0.018950  1.0  -0.0883
  C  C416  1  0.984230  0.815370  0.006170  1.0  -0.0257
  C  C417  1  0.015430  0.835570  0.977170  1.0  -0.1629
  C  C418  1  0.027330  0.791270  0.960150  1.0  0.0905
  C  C419  1  0.009030  0.730270  0.973300  1.0  0.0959
  C  C420  1  0.925330  0.734870  0.050670  1.0  0.6812
  C  C421  1  0.963000  0.846000  0.377330  1.0  -0.0546
  C  C422  1  0.902200  0.822900  0.365700  1.0  -0.1152
  C  C423  1  0.877800  0.777100  0.339700  1.0  -0.0535
  C  C424  1  0.915300  0.757100  0.324000  1.0  -0.135
  C  C425  1  0.978800  0.783400  0.334850  1.0  0.1052
  C  C426  1  0.001900  0.826400  0.361290  1.0  0.1076
  C  C427  1  0.861000  0.847600  0.380500  1.0  0.6753
  C  C428  1  0.956700  0.598900  0.336170  1.0  -0.0834
  C  C429  1  0.913400  0.543800  0.352280  1.0  -0.0873
  C  C430  1  0.851300  0.502200  0.339500  1.0  -0.0267
  C  C431  1  0.831100  0.513200  0.310500  1.0  -0.1612
  C  C432  1  0.875400  0.569400  0.293480  1.0  0.0901
  C  C433  1  0.936400  0.612100  0.306630  1.0  0.0955
  C  C434  1  0.931800  0.523800  0.384000  1.0  0.6785
  C  C435  1  0.629670  0.179330  0.710660  1.0  -0.0545
  C  C436  1  0.568870  0.156230  0.699030  1.0  -0.1148
  C  C437  1  0.544470  0.110430  0.673030  1.0  -0.0535
  C  C438  1  0.581970  0.090430  0.657330  1.0  -0.135
  C  C439  1  0.645470  0.116730  0.668180  1.0  0.1052
  C  C440  1  0.668570  0.159730  0.694620  1.0  0.1076
  C  C441  1  0.527670  0.180930  0.713830  1.0  0.6752
  C  C442  1  0.623370  0.932230  0.669500  1.0  -0.0834
  C  C443  1  0.580070  0.877130  0.685610  1.0  -0.0862
  C  C444  1  0.517970  0.835530  0.672830  1.0  -0.0267
  C  C445  1  0.497770  0.846530  0.643830  1.0  -0.1612
  C  C446  1  0.542070  0.902730  0.626810  1.0  0.09
  C  C447  1  0.603070  0.945430  0.639960  1.0  0.0955
  C  C448  1  0.598470  0.857130  0.717330  1.0  0.6786
  C  C449  1  0.296330  0.512670  0.044000  1.0  -0.0546
  C  C450  1  0.235530  0.489570  0.032370  1.0  -0.1158
  C  C451  1  0.211130  0.443770  0.006370  1.0  -0.0536
  C  C452  1  0.248630  0.423770  0.990670  1.0  -0.1351
  C  C453  1  0.312130  0.450070  0.001520  1.0  0.1052
  C  C454  1  0.335230  0.493070  0.027960  1.0  0.1076
  C  C455  1  0.194330  0.514270  0.047170  1.0  0.6754
  C  C456  1  0.290030  0.265570  0.002840  1.0  -0.0834
  C  C457  1  0.246730  0.210470  0.018950  1.0  -0.0871
  C  C458  1  0.184630  0.168870  0.006170  1.0  -0.0267
  C  C459  1  0.164430  0.179870  0.977170  1.0  -0.1612
  C  C460  1  0.208730  0.236070  0.960150  1.0  0.09
  C  C461  1  0.269730  0.278770  0.973300  1.0  0.0955
  C  C462  1  0.265130  0.190470  0.050670  1.0  0.6786
  C  C463  1  0.154000  0.117000  0.377330  1.0  -0.055
  C  C464  1  0.177100  0.079300  0.365700  1.0  -0.1153
  C  C465  1  0.222900  0.100700  0.339700  1.0  -0.0539
  C  C466  1  0.242900  0.158200  0.324000  1.0  -0.1344
  C  C467  1  0.216600  0.195400  0.334850  1.0  0.104
  C  C468  1  0.173600  0.175500  0.361290  1.0  0.108
  C  C469  1  0.152400  0.013400  0.380500  1.0  0.6788
  C  C470  1  0.401100  0.357800  0.336170  1.0  -0.0843
  C  C471  1  0.456200  0.369600  0.352280  1.0  -0.0875
  C  C472  1  0.497800  0.349100  0.339500  1.0  -0.0252
  C  C473  1  0.486800  0.317900  0.310500  1.0  -0.1613
  C  C474  1  0.430600  0.306000  0.293480  1.0  0.0903
  C  C475  1  0.387900  0.324300  0.306630  1.0  0.0944
  C  C476  1  0.476200  0.408000  0.384000  1.0  0.6798
  C  C477  1  0.820670  0.450330  0.710660  1.0  -0.0549
  C  C478  1  0.843770  0.412630  0.699030  1.0  -0.1156
  C  C479  1  0.889570  0.434030  0.673030  1.0  -0.0539
  C  C480  1  0.909570  0.491530  0.657330  1.0  -0.1344
  C  C481  1  0.883270  0.528730  0.668180  1.0  0.104
  C  C482  1  0.840270  0.508830  0.694620  1.0  0.1079
  C  C483  1  0.819070  0.346730  0.713830  1.0  0.6789
  C  C484  1  0.067770  0.691130  0.669500  1.0  -0.0843
  C  C485  1  0.122870  0.702930  0.685610  1.0  -0.0877
  C  C486  1  0.164470  0.682430  0.672830  1.0  -0.0252
  C  C487  1  0.153470  0.651230  0.643830  1.0  -0.1613
  C  C488  1  0.097270  0.639330  0.626810  1.0  0.0903
  C  C489  1  0.054570  0.657630  0.639960  1.0  0.0944
  C  C490  1  0.142870  0.741330  0.717330  1.0  0.6798
  C  C491  1  0.487330  0.783670  0.044000  1.0  -0.055
  C  C492  1  0.510430  0.745970  0.032370  1.0  -0.1152
  C  C493  1  0.556230  0.767370  0.006370  1.0  -0.0537
  C  C494  1  0.576230  0.824870  0.990670  1.0  -0.1344
  C  C495  1  0.549930  0.862070  0.001520  1.0  0.104
  C  C496  1  0.506930  0.842170  0.027960  1.0  0.108
  C  C497  1  0.485730  0.680070  0.047170  1.0  0.6789
  C  C498  1  0.734430  0.024470  0.002840  1.0  -0.0843
  C  C499  1  0.789530  0.036270  0.018950  1.0  -0.0877
  C  C500  1  0.831130  0.015770  0.006170  1.0  -0.0252
  C  C501  1  0.820130  0.984570  0.977170  1.0  -0.1613
  C  C502  1  0.763930  0.972670  0.960150  1.0  0.0904
  C  C503  1  0.721230  0.990970  0.973300  1.0  0.0945
  C  C504  1  0.809530  0.074670  0.050670  1.0  0.6798
  C  C505  1  0.037000  0.883000  0.122670  1.0  -0.0544
  C  C506  1  0.097800  0.920700  0.134300  1.0  -0.1154
  C  C507  1  0.122200  0.899300  0.160300  1.0  -0.0532
  C  C508  1  0.084700  0.841800  0.176000  1.0  -0.1354
  C  C509  1  0.021200  0.804600  0.165150  1.0  0.1041
  C  C510  1  0.998100  0.824500  0.138710  1.0  0.1093
  C  C511  1  0.139000  0.986600  0.119500  1.0  0.6789
  C  C512  1  0.043300  0.642200  0.163830  1.0  -0.0851
  C  C513  1  0.086600  0.630400  0.147720  1.0  -0.0884
  C  C514  1  0.148700  0.650900  0.160500  1.0  -0.0249
  C  C515  1  0.168900  0.682100  0.189500  1.0  -0.1624
  C  C516  1  0.124600  0.694000  0.206520  1.0  0.0903
  C  C517  1  0.063600  0.675700  0.193370  1.0  0.0936
  C  C518  1  0.068200  0.592000  0.116000  1.0  0.6802
  C  C519  1  0.703670  0.216330  0.456000  1.0  -0.0544
  C  C520  1  0.764470  0.254030  0.467630  1.0  -0.1154
  C  C521  1  0.788870  0.232630  0.493630  1.0  -0.0532
  C  C522  1  0.751370  0.175130  0.509330  1.0  -0.1354
  C  C523  1  0.687870  0.137930  0.498480  1.0  0.1041
  C  C524  1  0.664770  0.157830  0.472040  1.0  0.1093
  C  C525  1  0.805670  0.319930  0.452830  1.0  0.679
  C  C526  1  0.709970  0.975530  0.497160  1.0  -0.0851
  C  C527  1  0.753270  0.963730  0.481050  1.0  -0.0886
  C  C528  1  0.815370  0.984230  0.493830  1.0  -0.025
  C  C529  1  0.835570  0.015430  0.522830  1.0  -0.1624
  C  C530  1  0.791270  0.027330  0.539850  1.0  0.0903
  C  C531  1  0.730270  0.009030  0.526700  1.0  0.0937
  C  C532  1  0.734870  0.925330  0.449330  1.0  0.6802
  C  C533  1  0.370330  0.549670  0.789340  1.0  -0.0544
  C  C534  1  0.431130  0.587370  0.800970  1.0  -0.1151
  C  C535  1  0.455530  0.565970  0.826970  1.0  -0.0532
  C  C536  1  0.418030  0.508470  0.842670  1.0  -0.1354
  C  C537  1  0.354530  0.471270  0.831820  1.0  0.1041
  C  C538  1  0.331430  0.491170  0.805380  1.0  0.1093
  C  C539  1  0.472330  0.653270  0.786170  1.0  0.6789
  C  C540  1  0.376630  0.308870  0.830500  1.0  -0.0851
  C  C541  1  0.419930  0.297070  0.814390  1.0  -0.0886
  C  C542  1  0.482030  0.317570  0.827170  1.0  -0.0249
  C  C543  1  0.502230  0.348770  0.856170  1.0  -0.1623
  C  C544  1  0.457930  0.360670  0.873190  1.0  0.0903
  C  C545  1  0.396930  0.342370  0.860040  1.0  0.0936
  C  C546  1  0.401530  0.258670  0.782670  1.0  0.6804
  C  C547  1  0.846000  0.963000  0.122670  1.0  -0.0555
  C  C548  1  0.822900  0.902200  0.134300  1.0  -0.1163
  C  C549  1  0.777100  0.877800  0.160300  1.0  -0.0532
  C  C550  1  0.757100  0.915300  0.176000  1.0  -0.1347
  C  C551  1  0.783400  0.978800  0.165150  1.0  0.1033
  C  C552  1  0.826400  0.001900  0.138710  1.0  0.1093
  C  C553  1  0.847600  0.861000  0.119500  1.0  0.6768
  C  C554  1  0.598900  0.956700  0.163830  1.0  -0.0842
  C  C555  1  0.543800  0.913400  0.147720  1.0  -0.0888
  C  C556  1  0.502200  0.851300  0.160500  1.0  -0.0256
  C  C557  1  0.513200  0.831100  0.189500  1.0  -0.1627
  C  C558  1  0.569400  0.875400  0.206520  1.0  0.0905
  C  C559  1  0.612100  0.936400  0.193370  1.0  0.0965
  C  C560  1  0.523800  0.931800  0.116000  1.0  0.6808
  C  C561  1  0.512670  0.296330  0.456000  1.0  -0.0555
  C  C562  1  0.489570  0.235530  0.467630  1.0  -0.117
  C  C563  1  0.443770  0.211130  0.493630  1.0  -0.0532
  C  C564  1  0.423770  0.248630  0.509330  1.0  -0.1347
  C  C565  1  0.450070  0.312130  0.498480  1.0  0.1033
  C  C566  1  0.493070  0.335230  0.472040  1.0  0.1093
  C  C567  1  0.514270  0.194330  0.452830  1.0  0.6768
  C  C568  1  0.265570  0.290030  0.497160  1.0  -0.0842
  C  C569  1  0.210470  0.246730  0.481050  1.0  -0.0886
  C  C570  1  0.168870  0.184630  0.493830  1.0  -0.0256
  C  C571  1  0.179870  0.164430  0.522830  1.0  -0.1627
  C  C572  1  0.236070  0.208730  0.539850  1.0  0.0905
  C  C573  1  0.278770  0.269730  0.526700  1.0  0.0965
  C  C574  1  0.190470  0.265130  0.449330  1.0  0.6808
  C  C575  1  0.179330  0.629670  0.789340  1.0  -0.0554
  C  C576  1  0.156230  0.568870  0.800970  1.0  -0.116
  C  C577  1  0.110430  0.544470  0.826970  1.0  -0.0532
  C  C578  1  0.090430  0.581970  0.842670  1.0  -0.1347
  C  C579  1  0.116730  0.645470  0.831820  1.0  0.1033
  C  C580  1  0.159730  0.668570  0.805380  1.0  0.1093
  C  C581  1  0.180930  0.527670  0.786170  1.0  0.6767
  C  C582  1  0.932230  0.623370  0.830500  1.0  -0.0842
  C  C583  1  0.877130  0.580070  0.814390  1.0  -0.0879
  C  C584  1  0.835530  0.517970  0.827170  1.0  -0.0256
  C  C585  1  0.846530  0.497770  0.856170  1.0  -0.1627
  C  C586  1  0.902730  0.542070  0.873190  1.0  0.0905
  C  C587  1  0.945430  0.603070  0.860040  1.0  0.0965
  C  C588  1  0.857130  0.598470  0.782670  1.0  0.6808
  C  C589  1  0.117000  0.154000  0.122670  1.0  -0.0542
  C  C590  1  0.079300  0.177100  0.134300  1.0  -0.1147
  C  C591  1  0.100700  0.222900  0.160300  1.0  -0.0541
  C  C592  1  0.158200  0.242900  0.176000  1.0  -0.1363
  C  C593  1  0.195400  0.216600  0.165150  1.0  0.1043
  C  C594  1  0.175500  0.173600  0.138710  1.0  0.1084
  C  C595  1  0.013400  0.152400  0.119500  1.0  0.6754
  C  C596  1  0.357800  0.401100  0.163830  1.0  -0.0825
  C  C597  1  0.369600  0.456200  0.147720  1.0  -0.0874
  C  C598  1  0.349100  0.497800  0.160500  1.0  -0.027
  C  C599  1  0.317900  0.486800  0.189500  1.0  -0.1617
  C  C600  1  0.306000  0.430600  0.206520  1.0  0.09
  C  C601  1  0.324300  0.387900  0.193370  1.0  0.0948
  C  C602  1  0.408000  0.476200  0.116000  1.0  0.6784
  C  C603  1  0.783670  0.487330  0.456000  1.0  -0.0542
  C  C604  1  0.745970  0.510430  0.467630  1.0  -0.1143
  C  C605  1  0.767370  0.556230  0.493630  1.0  -0.054
  C  C606  1  0.824870  0.576230  0.509330  1.0  -0.1363
  C  C607  1  0.862070  0.549930  0.498480  1.0  0.1043
  C  C608  1  0.842170  0.506930  0.472040  1.0  0.1084
  C  C609  1  0.680070  0.485730  0.452830  1.0  0.6757
  C  C610  1  0.024470  0.734430  0.497160  1.0  -0.0825
  C  C611  1  0.036270  0.789530  0.481050  1.0  -0.0876
  C  C612  1  0.015770  0.831130  0.493830  1.0  -0.0269
  C  C613  1  0.984570  0.820130  0.522830  1.0  -0.1617
  C  C614  1  0.972670  0.763930  0.539850  1.0  0.0901
  C  C615  1  0.990970  0.721230  0.526700  1.0  0.0948
  C  C616  1  0.074670  0.809530  0.449330  1.0  0.6784
  C  C617  1  0.450330  0.820670  0.789340  1.0  -0.0541
  C  C618  1  0.412630  0.843770  0.800970  1.0  -0.1154
  C  C619  1  0.434030  0.889570  0.826970  1.0  -0.0541
  C  C620  1  0.491530  0.909570  0.842670  1.0  -0.1363
  C  C621  1  0.528730  0.883270  0.831820  1.0  0.1043
  C  C622  1  0.508830  0.840270  0.805380  1.0  0.1083
  C  C623  1  0.346730  0.819070  0.786170  1.0  0.6754
  C  C624  1  0.691130  0.067770  0.830500  1.0  -0.0825
  C  C625  1  0.702930  0.122870  0.814390  1.0  -0.0876
  C  C626  1  0.682430  0.164470  0.827170  1.0  -0.027
  C  C627  1  0.651230  0.153470  0.856170  1.0  -0.1618
  C  C628  1  0.639330  0.097270  0.873190  1.0  0.09
  C  C629  1  0.657630  0.054570  0.860040  1.0  0.0948
  C  C630  1  0.741330  0.142870  0.782670  1.0  0.6784
  C  C631  1  0.117000  0.963000  0.622670  1.0  -0.0556
  C  C632  1  0.079300  0.902200  0.634300  1.0  -0.1166
  C  C633  1  0.100700  0.877800  0.660300  1.0  -0.0536
  C  C634  1  0.158200  0.915300  0.676000  1.0  -0.1349
  C  C635  1  0.195400  0.978800  0.665150  1.0  0.104
  C  C636  1  0.175500  0.001900  0.638710  1.0  0.1081
  C  C637  1  0.013400  0.861000  0.619500  1.0  0.6756
  C  C638  1  0.357800  0.956700  0.663830  1.0  -0.085
  C  C639  1  0.369600  0.913400  0.647720  1.0  -0.0885
  C  C640  1  0.349100  0.851300  0.660500  1.0  -0.0258
  C  C641  1  0.317900  0.831100  0.689500  1.0  -0.162
  C  C642  1  0.306000  0.875400  0.706520  1.0  0.0909
  C  C643  1  0.324300  0.936400  0.693370  1.0  0.0967
  C  C644  1  0.408000  0.931800  0.616000  1.0  0.68
  C  C645  1  0.783670  0.296330  0.956000  1.0  -0.0557
  C  C646  1  0.745970  0.235530  0.967630  1.0  -0.1161
  C  C647  1  0.767370  0.211130  0.993630  1.0  -0.0536
  C  C648  1  0.824870  0.248630  0.009330  1.0  -0.1349
  C  C649  1  0.862070  0.312130  0.998480  1.0  0.104
  C  C650  1  0.842170  0.335230  0.972040  1.0  0.1081
  C  C651  1  0.680070  0.194330  0.952830  1.0  0.6758
  C  C652  1  0.024470  0.290030  0.997160  1.0  -0.085
  C  C653  1  0.036270  0.246730  0.981050  1.0  -0.0887
  C  C654  1  0.015770  0.184630  0.993830  1.0  -0.0261
  C  C655  1  0.984570  0.164430  0.022830  1.0  -0.162
  C  C656  1  0.972670  0.208730  0.039850  1.0  0.0909
  C  C657  1  0.990970  0.269730  0.026700  1.0  0.0967
  C  C658  1  0.074670  0.265130  0.949330  1.0  0.6799
  C  C659  1  0.450330  0.629670  0.289340  1.0  -0.0556
  C  C660  1  0.412630  0.568870  0.300970  1.0  -0.1155
  C  C661  1  0.434030  0.544470  0.326970  1.0  -0.0536
  C  C662  1  0.491530  0.581970  0.342670  1.0  -0.1349
  C  C663  1  0.528730  0.645470  0.331820  1.0  0.104
  C  C664  1  0.508830  0.668570  0.305380  1.0  0.108
  C  C665  1  0.346730  0.527670  0.286170  1.0  0.6756
  C  C666  1  0.691130  0.623370  0.330500  1.0  -0.085
  C  C667  1  0.702930  0.580070  0.314390  1.0  -0.0887
  C  C668  1  0.682430  0.517970  0.327170  1.0  -0.0258
  C  C669  1  0.651230  0.497770  0.356170  1.0  -0.162
  C  C670  1  0.639330  0.542070  0.373190  1.0  0.0909
  C  C671  1  0.657630  0.603070  0.360040  1.0  0.0967
  C  C672  1  0.741330  0.598470  0.282670  1.0  0.6801
  C  C673  1  0.037000  0.154000  0.622670  1.0  -0.0539
  C  C674  1  0.097800  0.177100  0.634300  1.0  -0.1155
  C  C675  1  0.122200  0.222900  0.660300  1.0  -0.0541
  C  C676  1  0.084700  0.242900  0.676000  1.0  -0.1369
  C  C677  1  0.021200  0.216600  0.665150  1.0  0.1037
  C  C678  1  0.998100  0.173600  0.638710  1.0  0.109
  C  C679  1  0.139000  0.152400  0.619500  1.0  0.6773
  C  C680  1  0.043300  0.401100  0.663830  1.0  -0.0832
  C  C681  1  0.086600  0.456200  0.647720  1.0  -0.0881
  C  C682  1  0.148700  0.497800  0.660500  1.0  -0.0266
  C  C683  1  0.168900  0.486800  0.689500  1.0  -0.1624
  C  C684  1  0.124600  0.430600  0.706520  1.0  0.0901
  C  C685  1  0.063600  0.387900  0.693370  1.0  0.0945
  C  C686  1  0.068200  0.476200  0.616000  1.0  0.6787
  C  C687  1  0.703670  0.487330  0.956000  1.0  -0.0539
  C  C688  1  0.764470  0.510430  0.967630  1.0  -0.1162
  C  C689  1  0.788870  0.556230  0.993630  1.0  -0.0542
  C  C690  1  0.751370  0.576230  0.009330  1.0  -0.1369
  C  C691  1  0.687870  0.549930  0.998480  1.0  0.1037
  C  C692  1  0.664770  0.506930  0.972040  1.0  0.109
  C  C693  1  0.805670  0.485730  0.952830  1.0  0.6773
  C  C694  1  0.709970  0.734430  0.997160  1.0  -0.0832
  C  C695  1  0.753270  0.789530  0.981050  1.0  -0.0879
  C  C696  1  0.815370  0.831130  0.993830  1.0  -0.0266
  C  C697  1  0.835570  0.820130  0.022830  1.0  -0.1625
  C  C698  1  0.791270  0.763930  0.039850  1.0  0.0901
  C  C699  1  0.730270  0.721230  0.026700  1.0  0.0945
  C  C700  1  0.734870  0.809530  0.949330  1.0  0.6788
  C  C701  1  0.370330  0.820670  0.289340  1.0  -0.0538
  C  C702  1  0.431130  0.843770  0.300970  1.0  -0.115
  C  C703  1  0.455530  0.889570  0.326970  1.0  -0.0541
  C  C704  1  0.418030  0.909570  0.342670  1.0  -0.1369
  C  C705  1  0.354530  0.883270  0.331820  1.0  0.1037
  C  C706  1  0.331430  0.840270  0.305380  1.0  0.109
  C  C707  1  0.472330  0.819070  0.286170  1.0  0.6772
  C  C708  1  0.376630  0.067770  0.330500  1.0  -0.0832
  C  C709  1  0.419930  0.122870  0.314390  1.0  -0.0872
  C  C710  1  0.482030  0.164470  0.327170  1.0  -0.0266
  C  C711  1  0.502230  0.153470  0.356170  1.0  -0.1624
  C  C712  1  0.457930  0.097270  0.373190  1.0  0.0901
  C  C713  1  0.396930  0.054570  0.360040  1.0  0.0945
  C  C714  1  0.401530  0.142870  0.282670  1.0  0.6787
  C  C715  1  0.846000  0.883000  0.622670  1.0  -0.0546
  C  C716  1  0.822900  0.920700  0.634300  1.0  -0.1151
  C  C717  1  0.777100  0.899300  0.660300  1.0  -0.0531
  C  C718  1  0.757100  0.841800  0.676000  1.0  -0.1359
  C  C719  1  0.783400  0.804600  0.665150  1.0  0.1042
  C  C720  1  0.826400  0.824500  0.638710  1.0  0.1096
  C  C721  1  0.847600  0.986600  0.619500  1.0  0.679
  C  C722  1  0.598900  0.642200  0.663830  1.0  -0.0837
  C  C723  1  0.543800  0.630400  0.647720  1.0  -0.0872
  C  C724  1  0.502200  0.650900  0.660500  1.0  -0.0247
  C  C725  1  0.513200  0.682100  0.689500  1.0  -0.1609
  C  C726  1  0.569400  0.694000  0.706520  1.0  0.0893
  C  C727  1  0.612100  0.675700  0.693370  1.0  0.0945
  C  C728  1  0.523800  0.592000  0.616000  1.0  0.6806
  C  C729  1  0.512670  0.216330  0.956000  1.0  -0.0546
  C  C730  1  0.489570  0.254030  0.967630  1.0  -0.1148
  C  C731  1  0.443770  0.232630  0.993630  1.0  -0.0529
  C  C732  1  0.423770  0.175130  0.009330  1.0  -0.1359
  C  C733  1  0.450070  0.137930  0.998480  1.0  0.1042
  C  C734  1  0.493070  0.157830  0.972040  1.0  0.1096
  C  C735  1  0.514270  0.319930  0.952830  1.0  0.6793
  C  C736  1  0.265570  0.975530  0.997160  1.0  -0.0839
  C  C737  1  0.210470  0.963730  0.981050  1.0  -0.0874
  C  C738  1  0.168870  0.984230  0.993830  1.0  -0.0246
  C  C739  1  0.179870  0.015430  0.022830  1.0  -0.1609
  C  C740  1  0.236070  0.027330  0.039850  1.0  0.0893
  C  C741  1  0.278770  0.009030  0.026700  1.0  0.0945
  C  C742  1  0.190470  0.925330  0.949330  1.0  0.6806
  C  C743  1  0.179330  0.549670  0.289340  1.0  -0.0546
  C  C744  1  0.156230  0.587370  0.300970  1.0  -0.1157
  C  C745  1  0.110430  0.565970  0.326970  1.0  -0.0531
  C  C746  1  0.090430  0.508470  0.342670  1.0  -0.1359
  C  C747  1  0.116730  0.471270  0.331820  1.0  0.1042
  C  C748  1  0.159730  0.491170  0.305380  1.0  0.1095
  C  C749  1  0.180930  0.653270  0.286170  1.0  0.6791
  C  C750  1  0.932230  0.308870  0.330500  1.0  -0.0837
  C  C751  1  0.877130  0.297070  0.314390  1.0  -0.0875
  C  C752  1  0.835530  0.317570  0.327170  1.0  -0.0248
  C  C753  1  0.846530  0.348770  0.356170  1.0  -0.1609
  C  C754  1  0.902730  0.360670  0.373190  1.0  0.0892
  C  C755  1  0.945430  0.342370  0.360040  1.0  0.0945
  C  C756  1  0.857130  0.258670  0.282670  1.0  0.6806
  C  C757  1  0.963000  0.117000  0.877330  1.0  -0.0545
  C  C758  1  0.902200  0.079300  0.865700  1.0  -0.1156
  C  C759  1  0.877800  0.100700  0.839700  1.0  -0.0531
  C  C760  1  0.915300  0.158200  0.824000  1.0  -0.1346
  C  C761  1  0.978800  0.195400  0.834850  1.0  0.1041
  C  C762  1  0.001900  0.175500  0.861290  1.0  0.1082
  C  C763  1  0.861000  0.013400  0.880500  1.0  0.6793
  C  C764  1  0.956700  0.357800  0.836170  1.0  -0.0833
  C  C765  1  0.913400  0.369600  0.852280  1.0  -0.0867
  C  C766  1  0.851300  0.349100  0.839500  1.0  -0.0248
  C  C767  1  0.831100  0.317900  0.810500  1.0  -0.1606
  C  C768  1  0.875400  0.306000  0.793480  1.0  0.0896
  C  C769  1  0.936400  0.324300  0.806630  1.0  0.0948
  C  C770  1  0.931800  0.408000  0.884000  1.0  0.6804
  C  C771  1  0.629670  0.450330  0.210660  1.0  -0.0545
  C  C772  1  0.568870  0.412630  0.199030  1.0  -0.115
  C  C773  1  0.544470  0.434030  0.173030  1.0  -0.0531
  C  C774  1  0.581970  0.491530  0.157330  1.0  -0.1346
  C  C775  1  0.645470  0.528730  0.168180  1.0  0.1041
  C  C776  1  0.668570  0.508830  0.194620  1.0  0.1082
  C  C777  1  0.527670  0.346730  0.213830  1.0  0.6793
  C  C778  1  0.623370  0.691130  0.169500  1.0  -0.0833
  C  C779  1  0.580070  0.702930  0.185610  1.0  -0.0869
  C  C780  1  0.517970  0.682430  0.172830  1.0  -0.0248
  C  C781  1  0.497770  0.651230  0.143830  1.0  -0.1606
  C  C782  1  0.542070  0.639330  0.126810  1.0  0.0896
  C  C783  1  0.603070  0.657630  0.139960  1.0  0.0948
  C  C784  1  0.598470  0.741330  0.217330  1.0  0.6806
  C  C785  1  0.296330  0.783670  0.544000  1.0  -0.0545
  C  C786  1  0.235530  0.745970  0.532370  1.0  -0.1151
  C  C787  1  0.211130  0.767370  0.506370  1.0  -0.0531
  C  C788  1  0.248630  0.824870  0.490670  1.0  -0.1346
  C  C789  1  0.312130  0.862070  0.501520  1.0  0.1041
  C  C790  1  0.335230  0.842170  0.527960  1.0  0.1082
  C  C791  1  0.194330  0.680070  0.547170  1.0  0.6794
  C  C792  1  0.290030  0.024470  0.502840  1.0  -0.0833
  C  C793  1  0.246730  0.036270  0.518950  1.0  -0.0869
  C  C794  1  0.184630  0.015770  0.506170  1.0  -0.0249
  C  C795  1  0.164430  0.984570  0.477170  1.0  -0.1606
  C  C796  1  0.208730  0.972670  0.460150  1.0  0.0896
  C  C797  1  0.269730  0.990970  0.473300  1.0  0.0948
  C  C798  1  0.265130  0.074670  0.550670  1.0  0.6804
  C  C799  1  0.154000  0.037000  0.877330  1.0  -0.056
  C  C800  1  0.177100  0.097800  0.865700  1.0  -0.1162
  C  C801  1  0.222900  0.122200  0.839700  1.0  -0.0529
  C  C802  1  0.242900  0.084700  0.824000  1.0  -0.1339
  C  C803  1  0.216600  0.021200  0.834850  1.0  0.1045
  C  C804  1  0.173600  0.998100  0.861290  1.0  0.108
  C  C805  1  0.152400  0.139000  0.880500  1.0  0.6749
  C  C806  1  0.401100  0.043300  0.836170  1.0  -0.0831
  C  C807  1  0.456200  0.086600  0.852280  1.0  -0.088
  C  C808  1  0.497800  0.148700  0.839500  1.0  -0.0258
  C  C809  1  0.486800  0.168900  0.810500  1.0  -0.1625
  C  C810  1  0.430600  0.124600  0.793480  1.0  0.0908
  C  C811  1  0.387900  0.063600  0.806630  1.0  0.096
  C  C812  1  0.476200  0.068200  0.884000  1.0  0.6801
  C  C813  1  0.820670  0.370330  0.210660  1.0  -0.0559
  C  C814  1  0.843770  0.431130  0.199030  1.0  -0.1157
  C  C815  1  0.889570  0.455530  0.173030  1.0  -0.0529
  C  C816  1  0.909570  0.418030  0.157330  1.0  -0.1339
  C  C817  1  0.883270  0.354530  0.168180  1.0  0.1045
  C  C818  1  0.840270  0.331430  0.194620  1.0  0.108
  C  C819  1  0.819070  0.472330  0.213830  1.0  0.6749
  C  C820  1  0.067770  0.376630  0.169500  1.0  -0.0831
  C  C821  1  0.122870  0.419930  0.185610  1.0  -0.087
  C  C822  1  0.164470  0.482030  0.172830  1.0  -0.0258
  C  C823  1  0.153470  0.502230  0.143830  1.0  -0.1625
  C  C824  1  0.097270  0.457930  0.126810  1.0  0.0908
  C  C825  1  0.054570  0.396930  0.139960  1.0  0.096
  C  C826  1  0.142870  0.401530  0.217330  1.0  0.6801
  C  C827  1  0.487330  0.703670  0.544000  1.0  -0.056
  C  C828  1  0.510430  0.764470  0.532370  1.0  -0.1166
  C  C829  1  0.556230  0.788870  0.506370  1.0  -0.053
  C  C830  1  0.576230  0.751370  0.490670  1.0  -0.134
  C  C831  1  0.549930  0.687870  0.501520  1.0  0.1045
  C  C832  1  0.506930  0.664770  0.527960  1.0  0.108
  C  C833  1  0.485730  0.805670  0.547170  1.0  0.6751
  C  C834  1  0.734430  0.709970  0.502840  1.0  -0.0831
  C  C835  1  0.789530  0.753270  0.518950  1.0  -0.0878
  C  C836  1  0.831130  0.815370  0.506170  1.0  -0.0258
  C  C837  1  0.820130  0.835570  0.477170  1.0  -0.1625
  C  C838  1  0.763930  0.791270  0.460150  1.0  0.0908
  C  C839  1  0.721230  0.730270  0.473300  1.0  0.096
  C  C840  1  0.809530  0.734870  0.550670  1.0  0.6801
  C  C841  1  0.883000  0.846000  0.877330  1.0  -0.0541
  C  C842  1  0.920700  0.822900  0.865700  1.0  -0.1158
  C  C843  1  0.899300  0.777100  0.839700  1.0  -0.0532
  C  C844  1  0.841800  0.757100  0.824000  1.0  -0.1359
  C  C845  1  0.804600  0.783400  0.834850  1.0  0.1048
  C  C846  1  0.824500  0.826400  0.861290  1.0  0.1079
  C  C847  1  0.986600  0.847600  0.880500  1.0  0.6768
  C  C848  1  0.642200  0.598900  0.836170  1.0  -0.0847
  C  C849  1  0.630400  0.543800  0.852280  1.0  -0.0873
  C  C850  1  0.650900  0.502200  0.839500  1.0  -0.0265
  C  C851  1  0.682100  0.513200  0.810500  1.0  -0.1618
  C  C852  1  0.694000  0.569400  0.793480  1.0  0.0903
  C  C853  1  0.675700  0.612100  0.806630  1.0  0.0949
  C  C854  1  0.592000  0.523800  0.884000  1.0  0.6784
  C  C855  1  0.549670  0.179330  0.210660  1.0  -0.054
  C  C856  1  0.587370  0.156230  0.199030  1.0  -0.1161
  C  C857  1  0.565970  0.110430  0.173030  1.0  -0.0532
  C  C858  1  0.508470  0.090430  0.157330  1.0  -0.1359
  C  C859  1  0.471270  0.116730  0.168180  1.0  0.1048
  C  C860  1  0.491170  0.159730  0.194620  1.0  0.1079
  C  C861  1  0.653270  0.180930  0.213830  1.0  0.6767
  C  C862  1  0.308870  0.932230  0.169500  1.0  -0.0847
  C  C863  1  0.297070  0.877130  0.185610  1.0  -0.0876
  C  C864  1  0.317570  0.835530  0.172830  1.0  -0.0265
  C  C865  1  0.348770  0.846530  0.143830  1.0  -0.1618
  C  C866  1  0.360670  0.902730  0.126810  1.0  0.0902
  C  C867  1  0.342370  0.945430  0.139960  1.0  0.095
  C  C868  1  0.258670  0.857130  0.217330  1.0  0.6784
  C  C869  1  0.216330  0.512670  0.544000  1.0  -0.0541
  C  C870  1  0.254030  0.489570  0.532370  1.0  -0.1154
  C  C871  1  0.232630  0.443770  0.506370  1.0  -0.053
  C  C872  1  0.175130  0.423770  0.490670  1.0  -0.1359
  C  C873  1  0.137930  0.450070  0.501520  1.0  0.1048
  C  C874  1  0.157830  0.493070  0.527960  1.0  0.1079
  C  C875  1  0.319930  0.514270  0.547170  1.0  0.6767
  C  C876  1  0.975530  0.265570  0.502840  1.0  -0.0847
  C  C877  1  0.963730  0.210470  0.518950  1.0  -0.0875
  C  C878  1  0.984230  0.168870  0.506170  1.0  -0.0264
  C  C879  1  0.015430  0.179870  0.477170  1.0  -0.1618
  C  C880  1  0.027330  0.236070  0.460150  1.0  0.0903
  C  C881  1  0.009030  0.278770  0.473300  1.0  0.095
  C  C882  1  0.925330  0.190470  0.550670  1.0  0.6784
  N  N883  1  0.693600  0.033300  0.284380  1.0  -0.3622
  N  N884  1  0.720200  0.073400  0.259350  1.0  -0.0188
  N  N885  1  0.721800  0.128900  0.264160  1.0  -0.3057
  N  N886  1  0.779600  0.934600  0.365680  1.0  -0.27
  N  N887  1  0.735600  0.920300  0.343000  1.0  -0.056
  N  N888  1  0.747600  0.970100  0.323990  1.0  -0.3038
  N  N889  1  0.360270  0.366630  0.617710  1.0  -0.3622
  N  N890  1  0.386870  0.406730  0.592680  1.0  -0.0188
  N  N891  1  0.388470  0.462230  0.597490  1.0  -0.3057
  N  N892  1  0.446270  0.267930  0.699010  1.0  -0.2699
  N  N893  1  0.402270  0.253630  0.676330  1.0  -0.055
  N  N894  1  0.414270  0.303430  0.657320  1.0  -0.3039
  N  N895  1  0.026930  0.699970  0.951050  1.0  -0.3622
  N  N896  1  0.053530  0.740070  0.926020  1.0  -0.0188
  N  N897  1  0.055130  0.795570  0.930830  1.0  -0.3057
  N  N898  1  0.112930  0.601270  0.032350  1.0  -0.2695
  N  N899  1  0.068930  0.586970  0.009670  1.0  -0.0552
  N  N900  1  0.080930  0.636770  0.990660  1.0  -0.3039
  N  N901  1  0.966700  0.660300  0.284380  1.0  -0.3638
  N  N902  1  0.926600  0.646800  0.259350  1.0  -0.0188
  N  N903  1  0.871100  0.592900  0.264160  1.0  -0.3062
  N  N904  1  0.065400  0.845000  0.365680  1.0  -0.269
  N  N905  1  0.079700  0.815300  0.343000  1.0  -0.0564
  N  N906  1  0.029900  0.777500  0.323990  1.0  -0.3027
  N  N907  1  0.633370  0.993630  0.617710  1.0  -0.3638
  N  N908  1  0.593270  0.980130  0.592680  1.0  -0.0188
  N  N909  1  0.537770  0.926230  0.597490  1.0  -0.3062
  N  N910  1  0.732070  0.178330  0.699010  1.0  -0.2696
  N  N911  1  0.746370  0.148630  0.676330  1.0  -0.0564
  N  N912  1  0.696570  0.110830  0.657320  1.0  -0.3028
  N  N913  1  0.300030  0.326970  0.951050  1.0  -0.3638
  N  N914  1  0.259930  0.313470  0.926020  1.0  -0.0188
  N  N915  1  0.204430  0.259570  0.930830  1.0  -0.3062
  N  N916  1  0.398730  0.511670  0.032350  1.0  -0.2693
  N  N917  1  0.413030  0.481970  0.009670  1.0  -0.0554
  N  N918  1  0.363230  0.444170  0.990660  1.0  -0.3028
  N  N919  1  0.339700  0.306400  0.284380  1.0  -0.3641
  N  N920  1  0.353200  0.279800  0.259350  1.0  -0.0182
  N  N921  1  0.407100  0.278200  0.264160  1.0  -0.3066
  N  N922  1  0.155000  0.220400  0.365680  1.0  -0.2703
  N  N923  1  0.184700  0.264400  0.343000  1.0  -0.0565
  N  N924  1  0.222500  0.252400  0.323990  1.0  -0.302
  N  N925  1  0.006370  0.639730  0.617710  1.0  -0.3641
  N  N926  1  0.019870  0.613130  0.592680  1.0  -0.0182
  N  N927  1  0.073770  0.611530  0.597490  1.0  -0.3066
  N  N928  1  0.821670  0.553730  0.699010  1.0  -0.2703
  N  N929  1  0.851370  0.597730  0.676330  1.0  -0.0573
  N  N930  1  0.889170  0.585730  0.657320  1.0  -0.302
  N  N931  1  0.673030  0.973070  0.951050  1.0  -0.3641
  N  N932  1  0.686530  0.946470  0.926020  1.0  -0.0182
  N  N933  1  0.740430  0.944870  0.930830  1.0  -0.3068
  N  N934  1  0.488330  0.887070  0.032350  1.0  -0.2695
  N  N935  1  0.518030  0.931070  0.009670  1.0  -0.0564
  N  N936  1  0.555830  0.919070  0.990660  1.0  -0.302
  N  N937  1  0.033300  0.693600  0.215620  1.0  -0.3649
  N  N938  1  0.073400  0.720200  0.240650  1.0  -0.0168
  N  N939  1  0.128900  0.721800  0.235840  1.0  -0.3061
  N  N940  1  0.934600  0.779600  0.134320  1.0  -0.2695
  N  N941  1  0.920300  0.735600  0.157000  1.0  -0.056
  N  N942  1  0.970100  0.747600  0.176010  1.0  -0.3021
  N  N943  1  0.699970  0.026930  0.548950  1.0  -0.3649
  N  N944  1  0.740070  0.053530  0.573980  1.0  -0.0168
  N  N945  1  0.795570  0.055130  0.569170  1.0  -0.3061
  N  N946  1  0.601270  0.112930  0.467650  1.0  -0.2689
  N  N947  1  0.586970  0.068930  0.490330  1.0  -0.056
  N  N948  1  0.636770  0.080930  0.509340  1.0  -0.3022
  N  N949  1  0.366630  0.360270  0.882290  1.0  -0.3649
  N  N950  1  0.406730  0.386870  0.907320  1.0  -0.0168
  N  N951  1  0.462230  0.388470  0.902510  1.0  -0.3061
  N  N952  1  0.267930  0.446270  0.800990  1.0  -0.2695
  N  N953  1  0.253630  0.402270  0.823670  1.0  -0.0568
  N  N954  1  0.303430  0.414270  0.842680  1.0  -0.3022
  N  N955  1  0.660300  0.966700  0.215620  1.0  -0.3621
  N  N956  1  0.646800  0.926600  0.240650  1.0  -0.017
  N  N957  1  0.592900  0.871100  0.235840  1.0  -0.3057
  N  N958  1  0.845000  0.065400  0.134320  1.0  -0.2686
  N  N959  1  0.815300  0.079700  0.157000  1.0  -0.0557
  N  N960  1  0.777500  0.029900  0.176010  1.0  -0.3037
  N  N961  1  0.326970  0.300030  0.548950  1.0  -0.3621
  N  N962  1  0.313470  0.259930  0.573980  1.0  -0.0171
  N  N963  1  0.259570  0.204430  0.569170  1.0  -0.3057
  N  N964  1  0.511670  0.398730  0.467650  1.0  -0.269
  N  N965  1  0.481970  0.413030  0.490330  1.0  -0.0557
  N  N966  1  0.444170  0.363230  0.509340  1.0  -0.3038
  N  N967  1  0.993630  0.633370  0.882290  1.0  -0.3621
  N  N968  1  0.980130  0.593270  0.907320  1.0  -0.0171
  N  N969  1  0.926230  0.537770  0.902510  1.0  -0.3057
  N  N970  1  0.178330  0.732070  0.800990  1.0  -0.2692
  N  N971  1  0.148630  0.746370  0.823670  1.0  -0.0567
  N  N972  1  0.110830  0.696570  0.842680  1.0  -0.3038
  N  N973  1  0.306400  0.339700  0.215620  1.0  -0.3643
  N  N974  1  0.279800  0.353200  0.240650  1.0  -0.018
  N  N975  1  0.278200  0.407100  0.235840  1.0  -0.3067
  N  N976  1  0.220400  0.155000  0.134320  1.0  -0.2701
  N  N977  1  0.264400  0.184700  0.157000  1.0  -0.0555
  N  N978  1  0.252400  0.222500  0.176010  1.0  -0.3016
  N  N979  1  0.973070  0.673030  0.548950  1.0  -0.3643
  N  N980  1  0.946470  0.686530  0.573980  1.0  -0.018
  N  N981  1  0.944870  0.740430  0.569170  1.0  -0.307
  N  N982  1  0.887070  0.488330  0.467650  1.0  -0.2694
  N  N983  1  0.931070  0.518030  0.490330  1.0  -0.0556
  N  N984  1  0.919070  0.555830  0.509340  1.0  -0.3016
  N  N985  1  0.639730  0.006370  0.882290  1.0  -0.3643
  N  N986  1  0.613130  0.019870  0.907320  1.0  -0.018
  N  N987  1  0.611530  0.073770  0.902510  1.0  -0.3067
  N  N988  1  0.553730  0.821670  0.800990  1.0  -0.2702
  N  N989  1  0.597730  0.851370  0.823670  1.0  -0.0565
  N  N990  1  0.585730  0.889170  0.842680  1.0  -0.3016
  N  N991  1  0.306400  0.966700  0.715620  1.0  -0.3622
  N  N992  1  0.279800  0.926600  0.740650  1.0  -0.0173
  N  N993  1  0.278200  0.871100  0.735840  1.0  -0.3059
  N  N994  1  0.220400  0.065400  0.634320  1.0  -0.27
  N  N995  1  0.264400  0.079700  0.657000  1.0  -0.0572
  N  N996  1  0.252400  0.029900  0.676010  1.0  -0.3028
  N  N997  1  0.973070  0.300030  0.048950  1.0  -0.3622
  N  N998  1  0.946470  0.259930  0.073980  1.0  -0.0173
  N  N999  1  0.944870  0.204430  0.069170  1.0  -0.3059
  N  N1000  1  0.887070  0.398730  0.967650  1.0  -0.2694
  N  N1001  1  0.931070  0.413030  0.990330  1.0  -0.0563
  N  N1002  1  0.919070  0.363230  0.009340  1.0  -0.3029
  N  N1003  1  0.639730  0.633370  0.382290  1.0  -0.3622
  N  N1004  1  0.613130  0.593270  0.407320  1.0  -0.0172
  N  N1005  1  0.611530  0.537770  0.402510  1.0  -0.3059
  N  N1006  1  0.553730  0.732070  0.300990  1.0  -0.2699
  N  N1007  1  0.597730  0.746370  0.323670  1.0  -0.0562
  N  N1008  1  0.585730  0.696570  0.342680  1.0  -0.3029
  N  N1009  1  0.033300  0.339700  0.715620  1.0  -0.3645
  N  N1010  1  0.073400  0.353200  0.740650  1.0  -0.0174
  N  N1011  1  0.128900  0.407100  0.735840  1.0  -0.3067
  N  N1012  1  0.934600  0.155000  0.634320  1.0  -0.2698
  N  N1013  1  0.920300  0.184700  0.657000  1.0  -0.055
  N  N1014  1  0.970100  0.222500  0.676010  1.0  -0.3014
  N  N1015  1  0.699970  0.673030  0.048950  1.0  -0.3645
  N  N1016  1  0.740070  0.686530  0.073980  1.0  -0.0175
  N  N1017  1  0.795570  0.740430  0.069170  1.0  -0.3067
  N  N1018  1  0.601270  0.488330  0.967650  1.0  -0.2701
  N  N1019  1  0.586970  0.518030  0.990330  1.0  -0.054
  N  N1020  1  0.636770  0.555830  0.009340  1.0  -0.3015
  N  N1021  1  0.366630  0.006370  0.382290  1.0  -0.3645
  N  N1022  1  0.406730  0.019870  0.407320  1.0  -0.0175
  N  N1023  1  0.462230  0.073770  0.402510  1.0  -0.3067
  N  N1024  1  0.267930  0.821670  0.300990  1.0  -0.2704
  N  N1025  1  0.253630  0.851370  0.323670  1.0  -0.055
  N  N1026  1  0.303430  0.889170  0.342680  1.0  -0.3015
  N  N1027  1  0.660300  0.693600  0.715620  1.0  -0.3643
  N  N1028  1  0.646800  0.720200  0.740650  1.0  -0.0161
  N  N1029  1  0.592900  0.721800  0.735840  1.0  -0.306
  N  N1030  1  0.845000  0.779600  0.634320  1.0  -0.2688
  N  N1031  1  0.815300  0.735600  0.657000  1.0  -0.0556
  N  N1032  1  0.777500  0.747600  0.676010  1.0  -0.3026
  N  N1033  1  0.326970  0.026930  0.048950  1.0  -0.3643
  N  N1034  1  0.313470  0.053530  0.073980  1.0  -0.0161
  N  N1035  1  0.259570  0.055130  0.069170  1.0  -0.3063
  N  N1036  1  0.511670  0.112930  0.967650  1.0  -0.2681
  N  N1037  1  0.481970  0.068930  0.990330  1.0  -0.0551
  N  N1038  1  0.444170  0.080930  0.009340  1.0  -0.3027
  N  N1039  1  0.993630  0.360270  0.382290  1.0  -0.3643
  N  N1040  1  0.980130  0.386870  0.407320  1.0  -0.016
  N  N1041  1  0.926230  0.388470  0.402510  1.0  -0.306
  N  N1042  1  0.178330  0.446270  0.300990  1.0  -0.2689
  N  N1043  1  0.148630  0.402270  0.323670  1.0  -0.0564
  N  N1044  1  0.110830  0.414270  0.342680  1.0  -0.3027
  N  N1045  1  0.966700  0.306400  0.784380  1.0  -0.3642
  N  N1046  1  0.926600  0.279800  0.759350  1.0  -0.0176
  N  N1047  1  0.871100  0.278200  0.764160  1.0  -0.3061
  N  N1048  1  0.065400  0.220400  0.865680  1.0  -0.2692
  N  N1049  1  0.079700  0.264400  0.843000  1.0  -0.0567
  N  N1050  1  0.029900  0.252400  0.823990  1.0  -0.3025
  N  N1051  1  0.633370  0.639730  0.117710  1.0  -0.3642
  N  N1052  1  0.593270  0.613130  0.092680  1.0  -0.0175
  N  N1053  1  0.537770  0.611530  0.097490  1.0  -0.3061
  N  N1054  1  0.732070  0.553730  0.199010  1.0  -0.2692
  N  N1055  1  0.746370  0.597730  0.176330  1.0  -0.0575
  N  N1056  1  0.696570  0.585730  0.157320  1.0  -0.3026
  N  N1057  1  0.300030  0.973070  0.451050  1.0  -0.3642
  N  N1058  1  0.259930  0.946470  0.426020  1.0  -0.0176
  N  N1059  1  0.204430  0.944870  0.430830  1.0  -0.3061
  N  N1060  1  0.398730  0.887070  0.532350  1.0  -0.2686
  N  N1061  1  0.413030  0.931070  0.509670  1.0  -0.0563
  N  N1062  1  0.363230  0.919070  0.490660  1.0  -0.3026
  N  N1063  1  0.339700  0.033300  0.784380  1.0  -0.3623
  N  N1064  1  0.353200  0.073400  0.759350  1.0  -0.0187
  N  N1065  1  0.407100  0.128900  0.764160  1.0  -0.3057
  N  N1066  1  0.155000  0.934600  0.865680  1.0  -0.2697
  N  N1067  1  0.184700  0.920300  0.843000  1.0  -0.0553
  N  N1068  1  0.222500  0.970100  0.823990  1.0  -0.3032
  N  N1069  1  0.006370  0.366630  0.117710  1.0  -0.3623
  N  N1070  1  0.019870  0.406730  0.092680  1.0  -0.0188
  N  N1071  1  0.073770  0.462230  0.097490  1.0  -0.3057
  N  N1072  1  0.821670  0.267930  0.199010  1.0  -0.2703
  N  N1073  1  0.851370  0.253630  0.176330  1.0  -0.0563
  N  N1074  1  0.889170  0.303430  0.157320  1.0  -0.3033
  N  N1075  1  0.673030  0.699970  0.451050  1.0  -0.3623
  N  N1076  1  0.686530  0.740070  0.426020  1.0  -0.0188
  N  N1077  1  0.740430  0.795570  0.430830  1.0  -0.3057
  N  N1078  1  0.488330  0.601270  0.532350  1.0  -0.2701
  N  N1079  1  0.518030  0.586970  0.509670  1.0  -0.0553
  N  N1080  1  0.555830  0.636770  0.490660  1.0  -0.3033
  N  N1081  1  0.693600  0.660300  0.784380  1.0  -0.3637
  N  N1082  1  0.720200  0.646800  0.759350  1.0  -0.0182
  N  N1083  1  0.721800  0.592900  0.764160  1.0  -0.3065
  N  N1084  1  0.779600  0.845000  0.865680  1.0  -0.2703
  N  N1085  1  0.735600  0.815300  0.843000  1.0  -0.0538
  N  N1086  1  0.747600  0.777500  0.823990  1.0  -0.3025
  N  N1087  1  0.360270  0.993630  0.117710  1.0  -0.3637
  N  N1088  1  0.386870  0.980130  0.092680  1.0  -0.0182
  N  N1089  1  0.388470  0.926230  0.097490  1.0  -0.3065
  N  N1090  1  0.446270  0.178330  0.199010  1.0  -0.2705
  N  N1091  1  0.402270  0.148630  0.176330  1.0  -0.0548
  N  N1092  1  0.414270  0.110830  0.157320  1.0  -0.3025
  N  N1093  1  0.026930  0.326970  0.451050  1.0  -0.3637
  N  N1094  1  0.053530  0.313470  0.426020  1.0  -0.0182
  N  N1095  1  0.055130  0.259570  0.430830  1.0  -0.3067
  N  N1096  1  0.112930  0.511670  0.532350  1.0  -0.2697
  N  N1097  1  0.068930  0.481970  0.509670  1.0  -0.0539
  N  N1098  1  0.080930  0.444170  0.490660  1.0  -0.3026
  Cl  Cl1099  1  0.799900  0.000000  0.250000  1.0  -0.508
  Cl  Cl1100  1  0.466570  0.333333  0.583330  1.0  -0.5117
  Cl  Cl1101  1  0.133230  0.666667  0.916670  1.0  -0.4907
  Cl  Cl1102  1  0.000000  0.799900  0.250000  1.0  -0.5083
  Cl  Cl1103  1  0.666667  0.133230  0.583330  1.0  -0.4908
  Cl  Cl1104  1  0.333333  0.466570  0.916670  1.0  -0.5118
  Cl  Cl1105  1  0.200100  0.200100  0.250000  1.0  -0.5081
  Cl  Cl1106  1  0.866770  0.533430  0.583330  1.0  -0.5121
  Cl  Cl1107  1  0.533430  0.866770  0.916670  1.0  -0.5122
  Cl  Cl1108  1  0.200100  0.000000  0.750000  1.0  -0.5089
  Cl  Cl1109  1  0.866770  0.333333  0.083330  1.0  -0.4915
  Cl  Cl1110  1  0.533430  0.666667  0.416670  1.0  -0.5125
  Cl  Cl1111  1  0.000000  0.200100  0.750000  1.0  -0.5084
  Cl  Cl1112  1  0.666667  0.533430  0.083330  1.0  -0.5122
  Cl  Cl1113  1  0.333333  0.866770  0.416670  1.0  -0.4903
  Cl  Cl1114  1  0.799900  0.799900  0.750000  1.0  -0.5086
  Cl  Cl1115  1  0.466570  0.133230  0.083330  1.0  -0.5118
  Cl  Cl1116  1  0.133230  0.466570  0.416670  1.0  -0.5119
  O  O1117  1  0.560400  0.011200  0.392450  1.0  -0.5187
  O  O1118  1  0.594000  0.114600  0.399220  1.0  -0.5919
  O  O1119  1  0.005600  0.116600  0.402140  1.0  -0.5809
  O  O1120  1  0.021200  0.196200  0.369680  1.0  -0.5731
  O  O1121  1  0.665200  0.859900  0.288630  1.0  -0.9282
  O  O1122  1  0.227070  0.344530  0.725780  1.0  -0.5187
  O  O1123  1  0.260670  0.447930  0.732550  1.0  -0.5919
  O  O1124  1  0.672270  0.449930  0.735470  1.0  -0.5809
  O  O1125  1  0.687870  0.529530  0.703010  1.0  -0.5731
  O  O1126  1  0.331870  0.193230  0.621960  1.0  -0.9282
  O  O1127  1  0.893730  0.677870  0.059120  1.0  -0.5188
  O  O1128  1  0.927330  0.781270  0.065890  1.0  -0.592
  O  O1129  1  0.338930  0.783270  0.068810  1.0  -0.5946
  O  O1130  1  0.354530  0.862870  0.036350  1.0  -0.5732
  O  O1131  1  0.998530  0.526570  0.955300  1.0  -0.9284
  O  O1132  1  0.988800  0.549200  0.392450  1.0  -0.5205
  O  O1133  1  0.885400  0.479400  0.399220  1.0  -0.5888
  O  O1134  1  0.883400  0.889000  0.402140  1.0  -0.5924
  O  O1135  1  0.803800  0.825000  0.369680  1.0  -0.5763
  O  O1136  1  0.140100  0.805300  0.288630  1.0  -0.9298
  O  O1137  1  0.655470  0.882530  0.725780  1.0  -0.5206
  O  O1138  1  0.552070  0.812730  0.732550  1.0  -0.5887
  O  O1139  1  0.550070  0.222330  0.735470  1.0  -0.5924
  O  O1140  1  0.470470  0.158330  0.703010  1.0  -0.5763
  O  O1141  1  0.806770  0.138630  0.621960  1.0  -0.9298
  O  O1142  1  0.322130  0.215870  0.059120  1.0  -0.5205
  O  O1143  1  0.218730  0.146070  0.065890  1.0  -0.589
  O  O1144  1  0.216730  0.555670  0.068810  1.0  -0.5833
  O  O1145  1  0.137130  0.491670  0.036350  1.0  -0.5765
  O  O1146  1  0.473430  0.471970  0.955300  1.0  -0.9298
  O  O1147  1  0.450800  0.439600  0.392450  1.0  -0.5179
  O  O1148  1  0.520600  0.406000  0.399220  1.0  -0.589
  O  O1149  1  0.111000  0.994400  0.402140  1.0  -0.5963
  O  O1150  1  0.175000  0.978800  0.369680  1.0  -0.5746
  O  O1151  1  0.194700  0.334800  0.288630  1.0  -0.9317
  O  O1152  1  0.117470  0.772930  0.725780  1.0  -0.518
  O  O1153  1  0.187270  0.739330  0.732550  1.0  -0.589
  O  O1154  1  0.777670  0.327730  0.735470  1.0  -0.5963
  O  O1155  1  0.841670  0.312130  0.703010  1.0  -0.5746
  O  O1156  1  0.861370  0.668130  0.621960  1.0  -0.9317
  O  O1157  1  0.784130  0.106270  0.059120  1.0  -0.5179
  O  O1158  1  0.853930  0.072670  0.065890  1.0  -0.5892
  O  O1159  1  0.444330  0.661070  0.068810  1.0  -0.589
  O  O1160  1  0.508330  0.645470  0.036350  1.0  -0.5746
  O  O1161  1  0.528030  0.001470  0.955300  1.0  -0.9319
  O  O1162  1  0.011200  0.560400  0.107550  1.0  -0.5177
  O  O1163  1  0.114600  0.594000  0.100780  1.0  -0.5888
  O  O1164  1  0.116600  0.005600  0.097860  1.0  -0.5808
  O  O1165  1  0.196200  0.021200  0.130320  1.0  -0.5742
  O  O1166  1  0.859900  0.665200  0.211370  1.0  -0.9328
  O  O1167  1  0.677870  0.893730  0.440880  1.0  -0.5178
  O  O1168  1  0.781270  0.927330  0.434110  1.0  -0.5889
  O  O1169  1  0.783270  0.338930  0.431190  1.0  -0.5953
  O  O1170  1  0.862870  0.354530  0.463650  1.0  -0.5743
  O  O1171  1  0.526570  0.998530  0.544700  1.0  -0.9328
  O  O1172  1  0.344530  0.227070  0.774220  1.0  -0.5177
  O  O1173  1  0.447930  0.260670  0.767450  1.0  -0.5887
  O  O1174  1  0.449930  0.672270  0.764530  1.0  -0.5808
  O  O1175  1  0.529530  0.687870  0.796990  1.0  -0.5742
  O  O1176  1  0.193230  0.331870  0.878040  1.0  -0.9328
  O  O1177  1  0.549200  0.988800  0.107550  1.0  -0.5183
  O  O1178  1  0.479400  0.885400  0.100780  1.0  -0.5909
  O  O1179  1  0.889000  0.883400  0.097860  1.0  -0.5909
  O  O1180  1  0.825000  0.803800  0.130320  1.0  -0.5736
  O  O1181  1  0.805300  0.140100  0.211370  1.0  -0.9306
  O  O1182  1  0.215870  0.322130  0.440880  1.0  -0.5182
  O  O1183  1  0.146070  0.218730  0.434110  1.0  -0.591
  O  O1184  1  0.555670  0.216730  0.431190  1.0  -0.5829
  O  O1185  1  0.491670  0.137130  0.463650  1.0  -0.5736
  O  O1186  1  0.471970  0.473430  0.544700  1.0  -0.9306
  O  O1187  1  0.882530  0.655470  0.774220  1.0  -0.5183
  O  O1188  1  0.812730  0.552070  0.767450  1.0  -0.5907
  O  O1189  1  0.222330  0.550070  0.764530  1.0  -0.5909
  O  O1190  1  0.158330  0.470470  0.796990  1.0  -0.5735
  O  O1191  1  0.138630  0.806770  0.878040  1.0  -0.9306
  O  O1192  1  0.439600  0.450800  0.107550  1.0  -0.5196
  O  O1193  1  0.406000  0.520600  0.100780  1.0  -0.5886
  O  O1194  1  0.994400  0.111000  0.097860  1.0  -0.5956
  O  O1195  1  0.978800  0.175000  0.130320  1.0  -0.5761
  O  O1196  1  0.334800  0.194700  0.211370  1.0  -0.9333
  O  O1197  1  0.106270  0.784130  0.440880  1.0  -0.5196
  O  O1198  1  0.072670  0.853930  0.434110  1.0  -0.5889
  O  O1199  1  0.661070  0.444330  0.431190  1.0  -0.5884
  O  O1200  1  0.645470  0.508330  0.463650  1.0  -0.5761
  O  O1201  1  0.001470  0.528030  0.544700  1.0  -0.9333
  O  O1202  1  0.772930  0.117470  0.774220  1.0  -0.5196
  O  O1203  1  0.739330  0.187270  0.767450  1.0  -0.5886
  O  O1204  1  0.327730  0.777670  0.764530  1.0  -0.5956
  O  O1205  1  0.312130  0.841670  0.796990  1.0  -0.5761
  O  O1206  1  0.668130  0.861370  0.878040  1.0  -0.9333
  O  O1207  1  0.439600  0.988800  0.607550  1.0  -0.5196
  O  O1208  1  0.406000  0.885400  0.600780  1.0  -0.5911
  O  O1209  1  0.994400  0.883400  0.597860  1.0  -0.5793
  O  O1210  1  0.978800  0.803800  0.630320  1.0  -0.5735
  O  O1211  1  0.334800  0.140100  0.711370  1.0  -0.9323
  O  O1212  1  0.106270  0.322130  0.940880  1.0  -0.5197
  O  O1213  1  0.072670  0.218730  0.934110  1.0  -0.5912
  O  O1214  1  0.661070  0.216730  0.931190  1.0  -0.5934
  O  O1215  1  0.645470  0.137130  0.963650  1.0  -0.5736
  O  O1216  1  0.001470  0.473430  0.044700  1.0  -0.9323
  O  O1217  1  0.772930  0.655470  0.274220  1.0  -0.5196
  O  O1218  1  0.739330  0.552070  0.267450  1.0  -0.591
  O  O1219  1  0.327730  0.550070  0.264530  1.0  -0.5793
  O  O1220  1  0.312130  0.470470  0.296990  1.0  -0.5735
  O  O1221  1  0.668130  0.806770  0.378040  1.0  -0.9323
  O  O1222  1  0.011200  0.450800  0.607550  1.0  -0.5184
  O  O1223  1  0.114600  0.520600  0.600780  1.0  -0.5881
  O  O1224  1  0.116600  0.111000  0.597860  1.0  -0.5934
  O  O1225  1  0.196200  0.175000  0.630320  1.0  -0.5748
  O  O1226  1  0.859900  0.194700  0.711370  1.0  -0.9333
  O  O1227  1  0.677870  0.784130  0.940880  1.0  -0.5184
  O  O1228  1  0.781270  0.853930  0.934110  1.0  -0.5882
  O  O1229  1  0.783270  0.444330  0.931190  1.0  -0.5838
  O  O1230  1  0.862870  0.508330  0.963650  1.0  -0.5749
  O  O1231  1  0.526570  0.528030  0.044700  1.0  -0.9333
  O  O1232  1  0.344530  0.117470  0.274220  1.0  -0.5185
  O  O1233  1  0.447930  0.187270  0.267450  1.0  -0.5879
  O  O1234  1  0.449930  0.777670  0.264530  1.0  -0.5934
  O  O1235  1  0.529530  0.841670  0.296990  1.0  -0.5748
  O  O1236  1  0.193230  0.861370  0.378040  1.0  -0.9333
  O  O1237  1  0.549200  0.560400  0.607550  1.0  -0.5189
  O  O1238  1  0.479400  0.594000  0.600780  1.0  -0.5893
  O  O1239  1  0.889000  0.005600  0.597860  1.0  -0.5958
  O  O1240  1  0.825000  0.021200  0.630320  1.0  -0.5753
  O  O1241  1  0.805300  0.665200  0.711370  1.0  -0.9332
  O  O1242  1  0.215870  0.893730  0.940880  1.0  -0.5189
  O  O1243  1  0.146070  0.927330  0.934110  1.0  -0.5895
  O  O1244  1  0.555670  0.338930  0.931190  1.0  -0.5892
  O  O1245  1  0.491670  0.354530  0.963650  1.0  -0.5753
  O  O1246  1  0.471970  0.998530  0.044700  1.0  -0.933
  O  O1247  1  0.882530  0.227070  0.274220  1.0  -0.5188
  O  O1248  1  0.812730  0.260670  0.267450  1.0  -0.5893
  O  O1249  1  0.222330  0.672270  0.264530  1.0  -0.5957
  O  O1250  1  0.158330  0.687870  0.296990  1.0  -0.5753
  O  O1251  1  0.138630  0.331870  0.378040  1.0  -0.933
  O  O1252  1  0.988800  0.439600  0.892450  1.0  -0.5194
  O  O1253  1  0.885400  0.406000  0.899220  1.0  -0.5901
  O  O1254  1  0.883400  0.994400  0.902140  1.0  -0.5828
  O  O1255  1  0.803800  0.978800  0.869680  1.0  -0.5753
  O  O1256  1  0.140100  0.334800  0.788630  1.0  -0.9314
  O  O1257  1  0.655470  0.772930  0.225780  1.0  -0.5193
  O  O1258  1  0.552070  0.739330  0.232550  1.0  -0.5901
  O  O1259  1  0.550070  0.327730  0.235470  1.0  -0.5828
  O  O1260  1  0.470470  0.312130  0.203010  1.0  -0.5753
  O  O1261  1  0.806770  0.668130  0.121960  1.0  -0.9313
  O  O1262  1  0.322130  0.106270  0.559120  1.0  -0.5194
  O  O1263  1  0.218730  0.072670  0.565890  1.0  -0.5902
  O  O1264  1  0.216730  0.661070  0.568810  1.0  -0.5963
  O  O1265  1  0.137130  0.645470  0.536350  1.0  -0.5754
  O  O1266  1  0.473430  0.001470  0.455300  1.0  -0.9312
  O  O1267  1  0.450800  0.011200  0.892450  1.0  -0.518
  O  O1268  1  0.520600  0.114600  0.899220  1.0  -0.5918
  O  O1269  1  0.111000  0.116600  0.902140  1.0  -0.591
  O  O1270  1  0.175000  0.196200  0.869680  1.0  -0.5728
  O  O1271  1  0.194700  0.859900  0.788630  1.0  -0.9309
  O  O1272  1  0.117470  0.344530  0.225780  1.0  -0.5181
  O  O1273  1  0.187270  0.447930  0.232550  1.0  -0.5916
  O  O1274  1  0.777670  0.449930  0.235470  1.0  -0.591
  O  O1275  1  0.841670  0.529530  0.203010  1.0  -0.5728
  O  O1276  1  0.861370  0.193230  0.121960  1.0  -0.9309
  O  O1277  1  0.784130  0.677870  0.559120  1.0  -0.518
  O  O1278  1  0.853930  0.781270  0.565890  1.0  -0.5919
  O  O1279  1  0.444330  0.783270  0.568810  1.0  -0.5824
  O  O1280  1  0.508330  0.862870  0.536350  1.0  -0.5729
  O  O1281  1  0.528030  0.526570  0.455300  1.0  -0.9309
  O  O1282  1  0.560400  0.549200  0.892450  1.0  -0.5186
  O  O1283  1  0.594000  0.479400  0.899220  1.0  -0.5885
  O  O1284  1  0.005600  0.889000  0.902140  1.0  -0.5959
  O  O1285  1  0.021200  0.825000  0.869680  1.0  -0.5752
  O  O1286  1  0.665200  0.805300  0.788630  1.0  -0.9303
  O  O1287  1  0.227070  0.882530  0.225780  1.0  -0.5186
  O  O1288  1  0.260670  0.812730  0.232550  1.0  -0.5885
  O  O1289  1  0.672270  0.222330  0.235470  1.0  -0.5959
  O  O1290  1  0.687870  0.158330  0.203010  1.0  -0.5752
  O  O1291  1  0.331870  0.138630  0.121960  1.0  -0.9303
  O  O1292  1  0.893730  0.215870  0.559120  1.0  -0.5186
  O  O1293  1  0.927330  0.146070  0.565890  1.0  -0.5887
  O  O1294  1  0.338930  0.555670  0.568810  1.0  -0.5884
  O  O1295  1  0.354530  0.491670  0.536350  1.0  -0.5752
  O  O1296  1  0.998530  0.471970  0.455300  1.0  -0.9303
