# generated using pymatgen
data_Cd5H24(C2O)32
_symmetry_space_group_name_H-M   'P 1'
_cell_length_a   31.20090000
_cell_length_b   31.20090000
_cell_length_c   31.20090000
_cell_angle_alpha   90.00000000
_cell_angle_beta   90.00000000
_cell_angle_gamma   90.00000000
_symmetry_Int_Tables_number   1
_chemical_formula_structural   Cd5H24(C2O)32
_chemical_formula_sum   'Cd60 H288 C768 O384'
_cell_volume   30373.95636382
_cell_formula_units_Z   12
loop_
 _symmetry_equiv_pos_site_id
 _symmetry_equiv_pos_as_xyz
  1  'x, y, z'
loop_
 _atom_site_type_symbol
 _atom_site_label
 _atom_site_symmetry_multiplicity
 _atom_site_fract_x
 _atom_site_fract_y
 _atom_site_fract_z
 _atom_site_occupancy
 _atom_site_charge
  Cd  Cd1  1  0.062040  0.120440  0.923950  1.0  1.0584
  Cd  Cd2  1  0.562040  0.620440  0.423950  1.0  1.0584
  Cd  Cd3  1  0.437960  0.879560  0.423950  1.0  1.0583
  Cd  Cd4  1  0.937960  0.379560  0.923950  1.0  1.0583
  Cd  Cd5  1  0.937960  0.620440  0.576050  1.0  1.058
  Cd  Cd6  1  0.437960  0.120440  0.076050  1.0  1.058
  Cd  Cd7  1  0.562040  0.379560  0.076050  1.0  1.0585
  Cd  Cd8  1  0.062040  0.879560  0.576050  1.0  1.0585
  Cd  Cd9  1  0.923950  0.062040  0.120440  1.0  1.0575
  Cd  Cd10  1  0.423950  0.562040  0.620440  1.0  1.0575
  Cd  Cd11  1  0.423950  0.437960  0.879560  1.0  1.0581
  Cd  Cd12  1  0.923950  0.937960  0.379560  1.0  1.0581
  Cd  Cd13  1  0.576050  0.937960  0.620440  1.0  1.0574
  Cd  Cd14  1  0.076050  0.437960  0.120440  1.0  1.0574
  Cd  Cd15  1  0.076050  0.562040  0.379560  1.0  1.0584
  Cd  Cd16  1  0.576050  0.062040  0.879560  1.0  1.0584
  Cd  Cd17  1  0.120440  0.923950  0.062040  1.0  1.0579
  Cd  Cd18  1  0.620440  0.423950  0.562040  1.0  1.0579
  Cd  Cd19  1  0.879560  0.423950  0.437960  1.0  1.0577
  Cd  Cd20  1  0.379560  0.923950  0.937960  1.0  1.0577
  Cd  Cd21  1  0.620440  0.576050  0.937960  1.0  1.0578
  Cd  Cd22  1  0.120440  0.076050  0.437960  1.0  1.0578
  Cd  Cd23  1  0.379560  0.076050  0.562040  1.0  1.0576
  Cd  Cd24  1  0.879560  0.576050  0.062040  1.0  1.0576
  Cd  Cd25  1  0.370440  0.312040  0.173950  1.0  1.0579
  Cd  Cd26  1  0.870440  0.812040  0.673950  1.0  1.0579
  Cd  Cd27  1  0.129560  0.687960  0.673950  1.0  1.0577
  Cd  Cd28  1  0.629560  0.187960  0.173950  1.0  1.0577
  Cd  Cd29  1  0.870440  0.187960  0.826050  1.0  1.058
  Cd  Cd30  1  0.370440  0.687960  0.326050  1.0  1.058
  Cd  Cd31  1  0.629560  0.812040  0.326050  1.0  1.058
  Cd  Cd32  1  0.129560  0.312040  0.826050  1.0  1.058
  Cd  Cd33  1  0.312040  0.173950  0.370440  1.0  1.0582
  Cd  Cd34  1  0.812040  0.673950  0.870440  1.0  1.0582
  Cd  Cd35  1  0.687960  0.673950  0.129560  1.0  1.0589
  Cd  Cd36  1  0.187960  0.173950  0.629560  1.0  1.0589
  Cd  Cd37  1  0.187960  0.826050  0.870440  1.0  1.0581
  Cd  Cd38  1  0.687960  0.326050  0.370440  1.0  1.0581
  Cd  Cd39  1  0.812040  0.326050  0.629560  1.0  1.0589
  Cd  Cd40  1  0.312040  0.826050  0.129560  1.0  1.0589
  Cd  Cd41  1  0.173950  0.370440  0.312040  1.0  1.0577
  Cd  Cd42  1  0.673950  0.870440  0.812040  1.0  1.0577
  Cd  Cd43  1  0.673950  0.129560  0.687960  1.0  1.0578
  Cd  Cd44  1  0.173950  0.629560  0.187960  1.0  1.0578
  Cd  Cd45  1  0.826050  0.870440  0.187960  1.0  1.0573
  Cd  Cd46  1  0.326050  0.370440  0.687960  1.0  1.0573
  Cd  Cd47  1  0.326050  0.629560  0.812040  1.0  1.0575
  Cd  Cd48  1  0.826050  0.129560  0.312040  1.0  1.0575
  Cd  Cd49  1  0.750000  0.125000  0.000000  1.0  1.0631
  Cd  Cd50  1  0.750000  0.875000  0.500000  1.0  1.0631
  Cd  Cd51  1  0.250000  0.625000  0.500000  1.0  1.0631
  Cd  Cd52  1  0.250000  0.375000  0.000000  1.0  1.0631
  Cd  Cd53  1  0.000000  0.750000  0.125000  1.0  1.0631
  Cd  Cd54  1  0.500000  0.750000  0.875000  1.0  1.0631
  Cd  Cd55  1  0.500000  0.250000  0.625000  1.0  1.0631
  Cd  Cd56  1  0.000000  0.250000  0.375000  1.0  1.0631
  Cd  Cd57  1  0.125000  0.000000  0.750000  1.0  1.0631
  Cd  Cd58  1  0.875000  0.500000  0.750000  1.0  1.0631
  Cd  Cd59  1  0.625000  0.500000  0.250000  1.0  1.0631
  Cd  Cd60  1  0.375000  0.000000  0.250000  1.0  1.0631
  H  H61  1  0.863900  0.212100  0.049800  1.0  0.166
  H  H62  1  0.931500  0.249400  0.043200  1.0  0.1665
  H  H63  1  0.985200  0.213600  0.009700  1.0  0.1146
  H  H64  1  0.920000  0.001200  0.984000  1.0  0.1284
  H  H65  1  0.906800  0.994300  0.910400  1.0  0.1612
  H  H66  1  0.897200  0.056400  0.872200  1.0  0.1317
  H  H67  1  0.363900  0.712100  0.549800  1.0  0.166
  H  H68  1  0.431500  0.749400  0.543200  1.0  0.1665
  H  H69  1  0.485200  0.713600  0.509700  1.0  0.1146
  H  H70  1  0.420000  0.501200  0.484000  1.0  0.1284
  H  H71  1  0.406800  0.494300  0.410400  1.0  0.1612
  H  H72  1  0.397200  0.556400  0.372200  1.0  0.1317
  H  H73  1  0.636100  0.787900  0.549800  1.0  0.1659
  H  H74  1  0.568500  0.750600  0.543200  1.0  0.1666
  H  H75  1  0.514800  0.786400  0.509700  1.0  0.1147
  H  H76  1  0.580000  0.998800  0.484000  1.0  0.1282
  H  H77  1  0.593200  0.005700  0.410400  1.0  0.161
  H  H78  1  0.602800  0.943600  0.372200  1.0  0.1315
  H  H79  1  0.136100  0.287900  0.049800  1.0  0.1659
  H  H80  1  0.068500  0.250600  0.043200  1.0  0.1666
  H  H81  1  0.014800  0.286400  0.009700  1.0  0.1147
  H  H82  1  0.080000  0.498800  0.984000  1.0  0.1282
  H  H83  1  0.093200  0.505700  0.910400  1.0  0.161
  H  H84  1  0.102800  0.443600  0.872200  1.0  0.1315
  H  H85  1  0.136100  0.712100  0.450200  1.0  0.166
  H  H86  1  0.068500  0.749400  0.456800  1.0  0.1667
  H  H87  1  0.014800  0.713600  0.490300  1.0  0.1149
  H  H88  1  0.080000  0.501200  0.516000  1.0  0.1281
  H  H89  1  0.093200  0.494300  0.589600  1.0  0.1611
  H  H90  1  0.102800  0.556400  0.627800  1.0  0.1322
  H  H91  1  0.636100  0.212100  0.950200  1.0  0.166
  H  H92  1  0.568500  0.249400  0.956800  1.0  0.1667
  H  H93  1  0.514800  0.213600  0.990300  1.0  0.1149
  H  H94  1  0.580000  0.001200  0.016000  1.0  0.1281
  H  H95  1  0.593200  0.994300  0.089600  1.0  0.1611
  H  H96  1  0.602800  0.056400  0.127800  1.0  0.1322
  H  H97  1  0.363900  0.287900  0.950200  1.0  0.1662
  H  H98  1  0.431500  0.250600  0.956800  1.0  0.1665
  H  H99  1  0.485200  0.286400  0.990300  1.0  0.1146
  H  H100  1  0.420000  0.498800  0.016000  1.0  0.1284
  H  H101  1  0.406800  0.505700  0.089600  1.0  0.1616
  H  H102  1  0.397200  0.443600  0.127800  1.0  0.1315
  H  H103  1  0.863900  0.787900  0.450200  1.0  0.1662
  H  H104  1  0.931500  0.750600  0.456800  1.0  0.1665
  H  H105  1  0.985200  0.786400  0.490300  1.0  0.1146
  H  H106  1  0.920000  0.998800  0.516000  1.0  0.1284
  H  H107  1  0.906800  0.005700  0.589600  1.0  0.1616
  H  H108  1  0.897200  0.943600  0.627800  1.0  0.1315
  H  H109  1  0.049800  0.863900  0.212100  1.0  0.1669
  H  H110  1  0.043200  0.931500  0.249400  1.0  0.1658
  H  H111  1  0.009700  0.985200  0.213600  1.0  0.115
  H  H112  1  0.984000  0.920000  0.001200  1.0  0.1294
  H  H113  1  0.910400  0.906800  0.994300  1.0  0.1602
  H  H114  1  0.872200  0.897200  0.056400  1.0  0.1318
  H  H115  1  0.549800  0.363900  0.712100  1.0  0.1669
  H  H116  1  0.543200  0.431500  0.749400  1.0  0.1658
  H  H117  1  0.509700  0.485200  0.713600  1.0  0.115
  H  H118  1  0.484000  0.420000  0.501200  1.0  0.1294
  H  H119  1  0.410400  0.406800  0.494300  1.0  0.1602
  H  H120  1  0.372200  0.397200  0.556400  1.0  0.1318
  H  H121  1  0.549800  0.636100  0.787900  1.0  0.1669
  H  H122  1  0.543200  0.568500  0.750600  1.0  0.1654
  H  H123  1  0.509700  0.514800  0.786400  1.0  0.1155
  H  H124  1  0.484000  0.580000  0.998800  1.0  0.1293
  H  H125  1  0.410400  0.593200  0.005700  1.0  0.1615
  H  H126  1  0.372200  0.602800  0.943600  1.0  0.1312
  H  H127  1  0.049800  0.136100  0.287900  1.0  0.1669
  H  H128  1  0.043200  0.068500  0.250600  1.0  0.1654
  H  H129  1  0.009700  0.014800  0.286400  1.0  0.1155
  H  H130  1  0.984000  0.080000  0.498800  1.0  0.1293
  H  H131  1  0.910400  0.093200  0.505700  1.0  0.1615
  H  H132  1  0.872200  0.102800  0.443600  1.0  0.1312
  H  H133  1  0.450200  0.136100  0.712100  1.0  0.1671
  H  H134  1  0.456800  0.068500  0.749400  1.0  0.166
  H  H135  1  0.490300  0.014800  0.713600  1.0  0.1152
  H  H136  1  0.516000  0.080000  0.501200  1.0  0.1292
  H  H137  1  0.589600  0.093200  0.494300  1.0  0.1606
  H  H138  1  0.627800  0.102800  0.556400  1.0  0.1323
  H  H139  1  0.950200  0.636100  0.212100  1.0  0.1671
  H  H140  1  0.956800  0.568500  0.249400  1.0  0.166
  H  H141  1  0.990300  0.514800  0.213600  1.0  0.1152
  H  H142  1  0.016000  0.580000  0.001200  1.0  0.1292
  H  H143  1  0.089600  0.593200  0.994300  1.0  0.1606
  H  H144  1  0.127800  0.602800  0.056400  1.0  0.1323
  H  H145  1  0.950200  0.363900  0.287900  1.0  0.1666
  H  H146  1  0.956800  0.431500  0.250600  1.0  0.1652
  H  H147  1  0.990300  0.485200  0.286400  1.0  0.116
  H  H148  1  0.016000  0.420000  0.498800  1.0  0.1296
  H  H149  1  0.089600  0.406800  0.505700  1.0  0.1608
  H  H150  1  0.127800  0.397200  0.443600  1.0  0.1317
  H  H151  1  0.450200  0.863900  0.787900  1.0  0.1666
  H  H152  1  0.456800  0.931500  0.750600  1.0  0.1652
  H  H153  1  0.490300  0.985200  0.786400  1.0  0.116
  H  H154  1  0.516000  0.920000  0.998800  1.0  0.1296
  H  H155  1  0.589600  0.906800  0.005700  1.0  0.1608
  H  H156  1  0.627800  0.897200  0.943600  1.0  0.1317
  H  H157  1  0.212100  0.049800  0.863900  1.0  0.1665
  H  H158  1  0.249400  0.043200  0.931500  1.0  0.1667
  H  H159  1  0.213600  0.009700  0.985200  1.0  0.1159
  H  H160  1  0.001200  0.984000  0.920000  1.0  0.129
  H  H161  1  0.994300  0.910400  0.906800  1.0  0.1607
  H  H162  1  0.056400  0.872200  0.897200  1.0  0.1299
  H  H163  1  0.712100  0.549800  0.363900  1.0  0.1665
  H  H164  1  0.749400  0.543200  0.431500  1.0  0.1667
  H  H165  1  0.713600  0.509700  0.485200  1.0  0.1159
  H  H166  1  0.501200  0.484000  0.420000  1.0  0.129
  H  H167  1  0.494300  0.410400  0.406800  1.0  0.1607
  H  H168  1  0.556400  0.372200  0.397200  1.0  0.1299
  H  H169  1  0.787900  0.549800  0.636100  1.0  0.1674
  H  H170  1  0.750600  0.543200  0.568500  1.0  0.1663
  H  H171  1  0.786400  0.509700  0.514800  1.0  0.1165
  H  H172  1  0.998800  0.484000  0.580000  1.0  0.129
  H  H173  1  0.005700  0.410400  0.593200  1.0  0.161
  H  H174  1  0.943600  0.372200  0.602800  1.0  0.1299
  H  H175  1  0.287900  0.049800  0.136100  1.0  0.1674
  H  H176  1  0.250600  0.043200  0.068500  1.0  0.1663
  H  H177  1  0.286400  0.009700  0.014800  1.0  0.1165
  H  H178  1  0.498800  0.984000  0.080000  1.0  0.129
  H  H179  1  0.505700  0.910400  0.093200  1.0  0.161
  H  H180  1  0.443600  0.872200  0.102800  1.0  0.1299
  H  H181  1  0.712100  0.450200  0.136100  1.0  0.1667
  H  H182  1  0.749400  0.456800  0.068500  1.0  0.1667
  H  H183  1  0.713600  0.490300  0.014800  1.0  0.1164
  H  H184  1  0.501200  0.516000  0.080000  1.0  0.129
  H  H185  1  0.494300  0.589600  0.093200  1.0  0.161
  H  H186  1  0.556400  0.627800  0.102800  1.0  0.1298
  H  H187  1  0.212100  0.950200  0.636100  1.0  0.1667
  H  H188  1  0.249400  0.956800  0.568500  1.0  0.1667
  H  H189  1  0.213600  0.990300  0.514800  1.0  0.1164
  H  H190  1  0.001200  0.016000  0.580000  1.0  0.129
  H  H191  1  0.994300  0.089600  0.593200  1.0  0.161
  H  H192  1  0.056400  0.127800  0.602800  1.0  0.1298
  H  H193  1  0.287900  0.950200  0.363900  1.0  0.1665
  H  H194  1  0.250600  0.956800  0.431500  1.0  0.1665
  H  H195  1  0.286400  0.990300  0.485200  1.0  0.1164
  H  H196  1  0.498800  0.016000  0.420000  1.0  0.1289
  H  H197  1  0.505700  0.089600  0.406800  1.0  0.1617
  H  H198  1  0.443600  0.127800  0.397200  1.0  0.1297
  H  H199  1  0.787900  0.450200  0.863900  1.0  0.1665
  H  H200  1  0.750600  0.456800  0.931500  1.0  0.1665
  H  H201  1  0.786400  0.490300  0.985200  1.0  0.1164
  H  H202  1  0.998800  0.516000  0.920000  1.0  0.1289
  H  H203  1  0.005700  0.589600  0.906800  1.0  0.1617
  H  H204  1  0.943600  0.627800  0.897200  1.0  0.1297
  H  H205  1  0.462100  0.113900  0.299800  1.0  0.1649
  H  H206  1  0.499400  0.181500  0.293200  1.0  0.1661
  H  H207  1  0.463600  0.235200  0.259700  1.0  0.115
  H  H208  1  0.251200  0.170000  0.234000  1.0  0.1285
  H  H209  1  0.244300  0.156800  0.160400  1.0  0.1604
  H  H210  1  0.306400  0.147200  0.122200  1.0  0.132
  H  H211  1  0.962100  0.613900  0.799800  1.0  0.1649
  H  H212  1  0.999400  0.681500  0.793200  1.0  0.1661
  H  H213  1  0.963600  0.735200  0.759700  1.0  0.115
  H  H214  1  0.751200  0.670000  0.734000  1.0  0.1285
  H  H215  1  0.744300  0.656800  0.660400  1.0  0.1604
  H  H216  1  0.806400  0.647200  0.622200  1.0  0.132
  H  H217  1  0.037900  0.886100  0.799800  1.0  0.1659
  H  H218  1  0.000600  0.818500  0.793200  1.0  0.1656
  H  H219  1  0.036400  0.764800  0.759700  1.0  0.1145
  H  H220  1  0.248800  0.830000  0.734000  1.0  0.128
  H  H221  1  0.255700  0.843200  0.660400  1.0  0.1608
  H  H222  1  0.193600  0.852800  0.622200  1.0  0.1319
  H  H223  1  0.537900  0.386100  0.299800  1.0  0.1659
  H  H224  1  0.500600  0.318500  0.293200  1.0  0.1656
  H  H225  1  0.536400  0.264800  0.259700  1.0  0.1145
  H  H226  1  0.748800  0.330000  0.234000  1.0  0.128
  H  H227  1  0.755700  0.343200  0.160400  1.0  0.1608
  H  H228  1  0.693600  0.352800  0.122200  1.0  0.1319
  H  H229  1  0.962100  0.386100  0.700200  1.0  0.1658
  H  H230  1  0.999400  0.318500  0.706800  1.0  0.1661
  H  H231  1  0.963600  0.264800  0.740300  1.0  0.1146
  H  H232  1  0.751200  0.330000  0.766000  1.0  0.1284
  H  H233  1  0.744300  0.343200  0.839600  1.0  0.1603
  H  H234  1  0.806400  0.352800  0.877800  1.0  0.1322
  H  H235  1  0.462100  0.886100  0.200200  1.0  0.1658
  H  H236  1  0.499400  0.818500  0.206800  1.0  0.1661
  H  H237  1  0.463600  0.764800  0.240300  1.0  0.1146
  H  H238  1  0.251200  0.830000  0.266000  1.0  0.1284
  H  H239  1  0.244300  0.843200  0.339600  1.0  0.1603
  H  H240  1  0.306400  0.852800  0.377800  1.0  0.1322
  H  H241  1  0.537900  0.613900  0.200200  1.0  0.1653
  H  H242  1  0.500600  0.681500  0.206800  1.0  0.1661
  H  H243  1  0.536400  0.735200  0.240300  1.0  0.1155
  H  H244  1  0.748800  0.670000  0.266000  1.0  0.1283
  H  H245  1  0.755700  0.656800  0.339600  1.0  0.1604
  H  H246  1  0.693600  0.647200  0.377800  1.0  0.1317
  H  H247  1  0.037900  0.113900  0.700200  1.0  0.1653
  H  H248  1  0.000600  0.181500  0.706800  1.0  0.1661
  H  H249  1  0.036400  0.235200  0.740300  1.0  0.1155
  H  H250  1  0.248800  0.170000  0.766000  1.0  0.1283
  H  H251  1  0.255700  0.156800  0.839600  1.0  0.1604
  H  H252  1  0.193600  0.147200  0.877800  1.0  0.1317
  H  H253  1  0.113900  0.299800  0.462100  1.0  0.1676
  H  H254  1  0.181500  0.293200  0.499400  1.0  0.1657
  H  H255  1  0.235200  0.259700  0.463600  1.0  0.1152
  H  H256  1  0.170000  0.234000  0.251200  1.0  0.1292
  H  H257  1  0.156800  0.160400  0.244300  1.0  0.1605
  H  H258  1  0.147200  0.122200  0.306400  1.0  0.1303
  H  H259  1  0.613900  0.799800  0.962100  1.0  0.1676
  H  H260  1  0.681500  0.793200  0.999400  1.0  0.1657
  H  H261  1  0.735200  0.759700  0.963600  1.0  0.1152
  H  H262  1  0.670000  0.734000  0.751200  1.0  0.1292
  H  H263  1  0.656800  0.660400  0.744300  1.0  0.1605
  H  H264  1  0.647200  0.622200  0.806400  1.0  0.1303
  H  H265  1  0.886100  0.799800  0.037900  1.0  0.1672
  H  H266  1  0.818500  0.793200  0.000600  1.0  0.1649
  H  H267  1  0.764800  0.759700  0.036400  1.0  0.1157
  H  H268  1  0.830000  0.734000  0.248800  1.0  0.1293
  H  H269  1  0.843200  0.660400  0.255700  1.0  0.1607
  H  H270  1  0.852800  0.622200  0.193600  1.0  0.1302
  H  H271  1  0.386100  0.299800  0.537900  1.0  0.1672
  H  H272  1  0.318500  0.293200  0.500600  1.0  0.1649
  H  H273  1  0.264800  0.259700  0.536400  1.0  0.1157
  H  H274  1  0.330000  0.234000  0.748800  1.0  0.1293
  H  H275  1  0.343200  0.160400  0.755700  1.0  0.1607
  H  H276  1  0.352800  0.122200  0.693600  1.0  0.1302
  H  H277  1  0.386100  0.700200  0.962100  1.0  0.1672
  H  H278  1  0.318500  0.706800  0.999400  1.0  0.1659
  H  H279  1  0.264800  0.740300  0.963600  1.0  0.1151
  H  H280  1  0.330000  0.766000  0.751200  1.0  0.1293
  H  H281  1  0.343200  0.839600  0.744300  1.0  0.1604
  H  H282  1  0.352800  0.877800  0.806400  1.0  0.1301
  H  H283  1  0.886100  0.200200  0.462100  1.0  0.1672
  H  H284  1  0.818500  0.206800  0.499400  1.0  0.1659
  H  H285  1  0.764800  0.240300  0.463600  1.0  0.1151
  H  H286  1  0.830000  0.266000  0.251200  1.0  0.1293
  H  H287  1  0.843200  0.339600  0.244300  1.0  0.1604
  H  H288  1  0.852800  0.377800  0.306400  1.0  0.1301
  H  H289  1  0.613900  0.200200  0.537900  1.0  0.167
  H  H290  1  0.681500  0.206800  0.500600  1.0  0.1653
  H  H291  1  0.735200  0.240300  0.536400  1.0  0.1152
  H  H292  1  0.670000  0.266000  0.748800  1.0  0.1297
  H  H293  1  0.656800  0.339600  0.755700  1.0  0.1615
  H  H294  1  0.647200  0.377800  0.693600  1.0  0.1301
  H  H295  1  0.113900  0.700200  0.037900  1.0  0.167
  H  H296  1  0.181500  0.706800  0.000600  1.0  0.1653
  H  H297  1  0.235200  0.740300  0.036400  1.0  0.1152
  H  H298  1  0.170000  0.766000  0.248800  1.0  0.1297
  H  H299  1  0.156800  0.839600  0.255700  1.0  0.1615
  H  H300  1  0.147200  0.877800  0.193600  1.0  0.1301
  H  H301  1  0.299800  0.462100  0.113900  1.0  0.1664
  H  H302  1  0.293200  0.499400  0.181500  1.0  0.1669
  H  H303  1  0.259700  0.463600  0.235200  1.0  0.1156
  H  H304  1  0.234000  0.251200  0.170000  1.0  0.129
  H  H305  1  0.160400  0.244300  0.156800  1.0  0.1616
  H  H306  1  0.122200  0.306400  0.147200  1.0  0.131
  H  H307  1  0.799800  0.962100  0.613900  1.0  0.1664
  H  H308  1  0.793200  0.999400  0.681500  1.0  0.1669
  H  H309  1  0.759700  0.963600  0.735200  1.0  0.1156
  H  H310  1  0.734000  0.751200  0.670000  1.0  0.129
  H  H311  1  0.660400  0.744300  0.656800  1.0  0.1616
  H  H312  1  0.622200  0.806400  0.647200  1.0  0.131
  H  H313  1  0.799800  0.037900  0.886100  1.0  0.1672
  H  H314  1  0.793200  0.000600  0.818500  1.0  0.1671
  H  H315  1  0.759700  0.036400  0.764800  1.0  0.1157
  H  H316  1  0.734000  0.248800  0.830000  1.0  0.1293
  H  H317  1  0.660400  0.255700  0.843200  1.0  0.1619
  H  H318  1  0.622200  0.193600  0.852800  1.0  0.1314
  H  H319  1  0.299800  0.537900  0.386100  1.0  0.1672
  H  H320  1  0.293200  0.500600  0.318500  1.0  0.1671
  H  H321  1  0.259700  0.536400  0.264800  1.0  0.1157
  H  H322  1  0.234000  0.748800  0.330000  1.0  0.1293
  H  H323  1  0.160400  0.755700  0.343200  1.0  0.1619
  H  H324  1  0.122200  0.693600  0.352800  1.0  0.1314
  H  H325  1  0.700200  0.962100  0.386100  1.0  0.1674
  H  H326  1  0.706800  0.999400  0.318500  1.0  0.1674
  H  H327  1  0.740300  0.963600  0.264800  1.0  0.1166
  H  H328  1  0.766000  0.751200  0.330000  1.0  0.1294
  H  H329  1  0.839600  0.744300  0.343200  1.0  0.1618
  H  H330  1  0.877800  0.806400  0.352800  1.0  0.132
  H  H331  1  0.200200  0.462100  0.886100  1.0  0.1674
  H  H332  1  0.206800  0.499400  0.818500  1.0  0.1674
  H  H333  1  0.240300  0.463600  0.764800  1.0  0.1166
  H  H334  1  0.266000  0.251200  0.830000  1.0  0.1294
  H  H335  1  0.339600  0.244300  0.843200  1.0  0.1618
  H  H336  1  0.377800  0.306400  0.852800  1.0  0.132
  H  H337  1  0.200200  0.537900  0.613900  1.0  0.1666
  H  H338  1  0.206800  0.500600  0.681500  1.0  0.167
  H  H339  1  0.240300  0.536400  0.735200  1.0  0.1163
  H  H340  1  0.266000  0.748800  0.670000  1.0  0.129
  H  H341  1  0.339600  0.755700  0.656800  1.0  0.1616
  H  H342  1  0.377800  0.693600  0.647200  1.0  0.1318
  H  H343  1  0.700200  0.037900  0.113900  1.0  0.1666
  H  H344  1  0.706800  0.000600  0.181500  1.0  0.167
  H  H345  1  0.740300  0.036400  0.235200  1.0  0.1163
  H  H346  1  0.766000  0.248800  0.170000  1.0  0.129
  H  H347  1  0.839600  0.255700  0.156800  1.0  0.1616
  H  H348  1  0.877800  0.193600  0.147200  1.0  0.1318
  C  C349  1  0.880700  0.164400  0.006400  1.0  -0.0687
  C  C350  1  0.885900  0.201900  0.032500  1.0  -0.085
  C  C351  1  0.926700  0.222800  0.030500  1.0  -0.1164
  C  C352  1  0.958000  0.201500  0.008900  1.0  -0.0025
  C  C353  1  0.954000  0.165700  0.986900  1.0  0.0485
  C  C354  1  0.915400  0.146200  0.985900  1.0  -0.0098
  C  C355  1  0.911800  0.102700  0.963000  1.0  0.0318
  C  C356  1  0.918200  0.064900  0.987600  1.0  -0.0653
  C  C357  1  0.916000  0.025700  0.967600  1.0  -0.0471
  C  C358  1  0.908100  0.021000  0.923500  1.0  -0.1473
  C  C359  1  0.902600  0.058300  0.901500  1.0  -0.0083
  C  C360  1  0.904300  0.098500  0.919000  1.0  -0.1231
  C  C361  1  0.837300  0.145500  0.006500  1.0  0.7429
  C  C362  1  0.993000  0.149800  0.961400  1.0  0.5095
  C  C363  1  0.921200  0.065500  0.035800  1.0  0.7362
  C  C364  1  0.895600  0.135800  0.888600  1.0  0.7212
  C  C365  1  0.380700  0.664400  0.506400  1.0  -0.0687
  C  C366  1  0.385900  0.701900  0.532500  1.0  -0.085
  C  C367  1  0.426700  0.722800  0.530500  1.0  -0.1164
  C  C368  1  0.458000  0.701500  0.508900  1.0  -0.0025
  C  C369  1  0.454000  0.665700  0.486900  1.0  0.0485
  C  C370  1  0.415400  0.646200  0.485900  1.0  -0.0098
  C  C371  1  0.411800  0.602700  0.463000  1.0  0.0318
  C  C372  1  0.418200  0.564900  0.487600  1.0  -0.0653
  C  C373  1  0.416000  0.525700  0.467600  1.0  -0.0471
  C  C374  1  0.408100  0.521000  0.423500  1.0  -0.1473
  C  C375  1  0.402600  0.558300  0.401500  1.0  -0.0083
  C  C376  1  0.404300  0.598500  0.419000  1.0  -0.1231
  C  C377  1  0.337300  0.645500  0.506500  1.0  0.7429
  C  C378  1  0.493000  0.649800  0.461400  1.0  0.5095
  C  C379  1  0.421200  0.565500  0.535800  1.0  0.7362
  C  C380  1  0.395600  0.635800  0.388600  1.0  0.7212
  C  C381  1  0.619300  0.835600  0.506400  1.0  -0.0693
  C  C382  1  0.614100  0.798100  0.532500  1.0  -0.0838
  C  C383  1  0.573300  0.777200  0.530500  1.0  -0.1152
  C  C384  1  0.542000  0.798500  0.508900  1.0  -0.0018
  C  C385  1  0.546000  0.834300  0.486900  1.0  0.0469
  C  C386  1  0.584600  0.853800  0.485900  1.0  -0.0097
  C  C387  1  0.588200  0.897300  0.463000  1.0  0.0315
  C  C388  1  0.581800  0.935100  0.487600  1.0  -0.0653
  C  C389  1  0.584000  0.974300  0.467600  1.0  -0.0489
  C  C390  1  0.591900  0.979000  0.423500  1.0  -0.1468
  C  C391  1  0.597400  0.941700  0.401500  1.0  -0.0098
  C  C392  1  0.595700  0.901500  0.419000  1.0  -0.1238
  C  C393  1  0.662700  0.854500  0.506500  1.0  0.7428
  C  C394  1  0.507000  0.850200  0.461400  1.0  0.5071
  C  C395  1  0.578800  0.934500  0.535800  1.0  0.7355
  C  C396  1  0.604400  0.864200  0.388600  1.0  0.7216
  C  C397  1  0.119300  0.335600  0.006400  1.0  -0.0693
  C  C398  1  0.114100  0.298100  0.032500  1.0  -0.0838
  C  C399  1  0.073300  0.277200  0.030500  1.0  -0.1152
  C  C400  1  0.042000  0.298500  0.008900  1.0  -0.0018
  C  C401  1  0.046000  0.334300  0.986900  1.0  0.0469
  C  C402  1  0.084600  0.353800  0.985900  1.0  -0.0097
  C  C403  1  0.088200  0.397300  0.963000  1.0  0.0315
  C  C404  1  0.081800  0.435100  0.987600  1.0  -0.0653
  C  C405  1  0.084000  0.474300  0.967600  1.0  -0.0489
  C  C406  1  0.091900  0.479000  0.923500  1.0  -0.1468
  C  C407  1  0.097400  0.441700  0.901500  1.0  -0.0098
  C  C408  1  0.095700  0.401500  0.919000  1.0  -0.1238
  C  C409  1  0.162700  0.354500  0.006500  1.0  0.7428
  C  C410  1  0.007000  0.350200  0.961400  1.0  0.5071
  C  C411  1  0.078800  0.434500  0.035800  1.0  0.7355
  C  C412  1  0.104400  0.364200  0.888600  1.0  0.7216
  C  C413  1  0.119300  0.664400  0.493600  1.0  -0.0687
  C  C414  1  0.114100  0.701900  0.467500  1.0  -0.084
  C  C415  1  0.073300  0.722800  0.469500  1.0  -0.1173
  C  C416  1  0.042000  0.701500  0.491100  1.0  -0.0026
  C  C417  1  0.046000  0.665700  0.513100  1.0  0.0474
  C  C418  1  0.084600  0.646200  0.514100  1.0  -0.01
  C  C419  1  0.088200  0.602700  0.537000  1.0  0.0315
  C  C420  1  0.081800  0.564900  0.512400  1.0  -0.0658
  C  C421  1  0.084000  0.525700  0.532400  1.0  -0.0461
  C  C422  1  0.091900  0.521000  0.576500  1.0  -0.1473
  C  C423  1  0.097400  0.558300  0.598500  1.0  -0.0087
  C  C424  1  0.095700  0.598500  0.581000  1.0  -0.1234
  C  C425  1  0.162700  0.645500  0.493500  1.0  0.7434
  C  C426  1  0.007000  0.649800  0.538600  1.0  0.5071
  C  C427  1  0.078800  0.565500  0.464200  1.0  0.7358
  C  C428  1  0.104400  0.635800  0.611400  1.0  0.7202
  C  C429  1  0.619300  0.164400  0.993600  1.0  -0.0687
  C  C430  1  0.614100  0.201900  0.967500  1.0  -0.084
  C  C431  1  0.573300  0.222800  0.969500  1.0  -0.1173
  C  C432  1  0.542000  0.201500  0.991100  1.0  -0.0026
  C  C433  1  0.546000  0.165700  0.013100  1.0  0.0474
  C  C434  1  0.584600  0.146200  0.014100  1.0  -0.01
  C  C435  1  0.588200  0.102700  0.037000  1.0  0.0315
  C  C436  1  0.581800  0.064900  0.012400  1.0  -0.0658
  C  C437  1  0.584000  0.025700  0.032400  1.0  -0.0461
  C  C438  1  0.591900  0.021000  0.076500  1.0  -0.1473
  C  C439  1  0.597400  0.058300  0.098500  1.0  -0.0087
  C  C440  1  0.595700  0.098500  0.081000  1.0  -0.1234
  C  C441  1  0.662700  0.145500  0.993500  1.0  0.7434
  C  C442  1  0.507000  0.149800  0.038600  1.0  0.5071
  C  C443  1  0.578800  0.065500  0.964200  1.0  0.7358
  C  C444  1  0.604400  0.135800  0.111400  1.0  0.7202
  C  C445  1  0.380700  0.335600  0.993600  1.0  -0.0695
  C  C446  1  0.385900  0.298100  0.967500  1.0  -0.0849
  C  C447  1  0.426700  0.277200  0.969500  1.0  -0.1158
  C  C448  1  0.458000  0.298500  0.991100  1.0  -0.0024
  C  C449  1  0.454000  0.334300  0.013100  1.0  0.0479
  C  C450  1  0.415400  0.353800  0.014100  1.0  -0.0096
  C  C451  1  0.411800  0.397300  0.037000  1.0  0.0318
  C  C452  1  0.418200  0.435100  0.012400  1.0  -0.066
  C  C453  1  0.416000  0.474300  0.032400  1.0  -0.0469
  C  C454  1  0.408100  0.479000  0.076500  1.0  -0.1493
  C  C455  1  0.402600  0.441700  0.098500  1.0  -0.0086
  C  C456  1  0.404300  0.401500  0.081000  1.0  -0.124
  C  C457  1  0.337300  0.354500  0.993500  1.0  0.7424
  C  C458  1  0.493000  0.350200  0.038600  1.0  0.5112
  C  C459  1  0.421200  0.434500  0.964200  1.0  0.7349
  C  C460  1  0.395600  0.364200  0.111400  1.0  0.7231
  C  C461  1  0.880700  0.835600  0.493600  1.0  -0.0695
  C  C462  1  0.885900  0.798100  0.467500  1.0  -0.0849
  C  C463  1  0.926700  0.777200  0.469500  1.0  -0.1158
  C  C464  1  0.958000  0.798500  0.491100  1.0  -0.0024
  C  C465  1  0.954000  0.834300  0.513100  1.0  0.0479
  C  C466  1  0.915400  0.853800  0.514100  1.0  -0.0096
  C  C467  1  0.911800  0.897300  0.537000  1.0  0.0318
  C  C468  1  0.918200  0.935100  0.512400  1.0  -0.066
  C  C469  1  0.916000  0.974300  0.532400  1.0  -0.0469
  C  C470  1  0.908100  0.979000  0.576500  1.0  -0.1493
  C  C471  1  0.902600  0.941700  0.598500  1.0  -0.0086
  C  C472  1  0.904300  0.901500  0.581000  1.0  -0.124
  C  C473  1  0.837300  0.854500  0.493500  1.0  0.7424
  C  C474  1  0.993000  0.850200  0.538600  1.0  0.5112
  C  C475  1  0.921200  0.934500  0.464200  1.0  0.7349
  C  C476  1  0.895600  0.864200  0.611400  1.0  0.7231
  C  C477  1  0.006400  0.880700  0.164400  1.0  -0.0662
  C  C478  1  0.032500  0.885900  0.201900  1.0  -0.0824
  C  C479  1  0.030500  0.926700  0.222800  1.0  -0.1131
  C  C480  1  0.008900  0.958000  0.201500  1.0  -0.0036
  C  C481  1  0.986900  0.954000  0.165700  1.0  0.0511
  C  C482  1  0.985900  0.915400  0.146200  1.0  -0.0083
  C  C483  1  0.963000  0.911800  0.102700  1.0  0.0313
  C  C484  1  0.987600  0.918200  0.064900  1.0  -0.0639
  C  C485  1  0.967600  0.916000  0.025700  1.0  -0.0491
  C  C486  1  0.923500  0.908100  0.021000  1.0  -0.1482
  C  C487  1  0.901500  0.902600  0.058300  1.0  -0.0084
  C  C488  1  0.919000  0.904300  0.098500  1.0  -0.1219
  C  C489  1  0.006500  0.837300  0.145500  1.0  0.7439
  C  C490  1  0.961400  0.993000  0.149800  1.0  0.5049
  C  C491  1  0.035800  0.921200  0.065500  1.0  0.7343
  C  C492  1  0.888600  0.895600  0.135800  1.0  0.7242
  C  C493  1  0.506400  0.380700  0.664400  1.0  -0.0662
  C  C494  1  0.532500  0.385900  0.701900  1.0  -0.0824
  C  C495  1  0.530500  0.426700  0.722800  1.0  -0.1131
  C  C496  1  0.508900  0.458000  0.701500  1.0  -0.0036
  C  C497  1  0.486900  0.454000  0.665700  1.0  0.0511
  C  C498  1  0.485900  0.415400  0.646200  1.0  -0.0083
  C  C499  1  0.463000  0.411800  0.602700  1.0  0.0313
  C  C500  1  0.487600  0.418200  0.564900  1.0  -0.0639
  C  C501  1  0.467600  0.416000  0.525700  1.0  -0.0491
  C  C502  1  0.423500  0.408100  0.521000  1.0  -0.1482
  C  C503  1  0.401500  0.402600  0.558300  1.0  -0.0084
  C  C504  1  0.419000  0.404300  0.598500  1.0  -0.1219
  C  C505  1  0.506500  0.337300  0.645500  1.0  0.7439
  C  C506  1  0.461400  0.493000  0.649800  1.0  0.5049
  C  C507  1  0.535800  0.421200  0.565500  1.0  0.7343
  C  C508  1  0.388600  0.395600  0.635800  1.0  0.7242
  C  C509  1  0.506400  0.619300  0.835600  1.0  -0.0656
  C  C510  1  0.532500  0.614100  0.798100  1.0  -0.0846
  C  C511  1  0.530500  0.573300  0.777200  1.0  -0.1128
  C  C512  1  0.508900  0.542000  0.798500  1.0  -0.0035
  C  C513  1  0.486900  0.546000  0.834300  1.0  0.0512
  C  C514  1  0.485900  0.584600  0.853800  1.0  -0.0086
  C  C515  1  0.463000  0.588200  0.897300  1.0  0.0311
  C  C516  1  0.487600  0.581800  0.935100  1.0  -0.0639
  C  C517  1  0.467600  0.584000  0.974300  1.0  -0.0488
  C  C518  1  0.423500  0.591900  0.979000  1.0  -0.1509
  C  C519  1  0.401500  0.597400  0.941700  1.0  -0.0077
  C  C520  1  0.419000  0.595700  0.901500  1.0  -0.1214
  C  C521  1  0.506500  0.662700  0.854500  1.0  0.7425
  C  C522  1  0.461400  0.507000  0.850200  1.0  0.5067
  C  C523  1  0.535800  0.578800  0.934500  1.0  0.7347
  C  C524  1  0.388600  0.604400  0.864200  1.0  0.7254
  C  C525  1  0.006400  0.119300  0.335600  1.0  -0.0656
  C  C526  1  0.032500  0.114100  0.298100  1.0  -0.0846
  C  C527  1  0.030500  0.073300  0.277200  1.0  -0.1128
  C  C528  1  0.008900  0.042000  0.298500  1.0  -0.0035
  C  C529  1  0.986900  0.046000  0.334300  1.0  0.0512
  C  C530  1  0.985900  0.084600  0.353800  1.0  -0.0086
  C  C531  1  0.963000  0.088200  0.397300  1.0  0.0311
  C  C532  1  0.987600  0.081800  0.435100  1.0  -0.0639
  C  C533  1  0.967600  0.084000  0.474300  1.0  -0.0488
  C  C534  1  0.923500  0.091900  0.479000  1.0  -0.1509
  C  C535  1  0.901500  0.097400  0.441700  1.0  -0.0077
  C  C536  1  0.919000  0.095700  0.401500  1.0  -0.1214
  C  C537  1  0.006500  0.162700  0.354500  1.0  0.7425
  C  C538  1  0.961400  0.007000  0.350200  1.0  0.5067
  C  C539  1  0.035800  0.078800  0.434500  1.0  0.7347
  C  C540  1  0.888600  0.104400  0.364200  1.0  0.7254
  C  C541  1  0.493600  0.119300  0.664400  1.0  -0.066
  C  C542  1  0.467500  0.114100  0.701900  1.0  -0.0842
  C  C543  1  0.469500  0.073300  0.722800  1.0  -0.1139
  C  C544  1  0.491100  0.042000  0.701500  1.0  -0.0043
  C  C545  1  0.513100  0.046000  0.665700  1.0  0.0516
  C  C546  1  0.514100  0.084600  0.646200  1.0  -0.0081
  C  C547  1  0.537000  0.088200  0.602700  1.0  0.0312
  C  C548  1  0.512400  0.081800  0.564900  1.0  -0.0649
  C  C549  1  0.532400  0.084000  0.525700  1.0  -0.0485
  C  C550  1  0.576500  0.091900  0.521000  1.0  -0.1493
  C  C551  1  0.598500  0.097400  0.558300  1.0  -0.0055
  C  C552  1  0.581000  0.095700  0.598500  1.0  -0.1224
  C  C553  1  0.493500  0.162700  0.645500  1.0  0.7431
  C  C554  1  0.538600  0.007000  0.649800  1.0  0.5069
  C  C555  1  0.464200  0.078800  0.565500  1.0  0.7334
  C  C556  1  0.611400  0.104400  0.635800  1.0  0.7254
  C  C557  1  0.993600  0.619300  0.164400  1.0  -0.066
  C  C558  1  0.967500  0.614100  0.201900  1.0  -0.0842
  C  C559  1  0.969500  0.573300  0.222800  1.0  -0.1139
  C  C560  1  0.991100  0.542000  0.201500  1.0  -0.0043
  C  C561  1  0.013100  0.546000  0.165700  1.0  0.0516
  C  C562  1  0.014100  0.584600  0.146200  1.0  -0.0081
  C  C563  1  0.037000  0.588200  0.102700  1.0  0.0312
  C  C564  1  0.012400  0.581800  0.064900  1.0  -0.0649
  C  C565  1  0.032400  0.584000  0.025700  1.0  -0.0485
  C  C566  1  0.076500  0.591900  0.021000  1.0  -0.1493
  C  C567  1  0.098500  0.597400  0.058300  1.0  -0.0055
  C  C568  1  0.081000  0.595700  0.098500  1.0  -0.1224
  C  C569  1  0.993500  0.662700  0.145500  1.0  0.7431
  C  C570  1  0.038600  0.507000  0.149800  1.0  0.5069
  C  C571  1  0.964200  0.578800  0.065500  1.0  0.7334
  C  C572  1  0.111400  0.604400  0.135800  1.0  0.7254
  C  C573  1  0.993600  0.380700  0.335600  1.0  -0.0663
  C  C574  1  0.967500  0.385900  0.298100  1.0  -0.083
  C  C575  1  0.969500  0.426700  0.277200  1.0  -0.1133
  C  C576  1  0.991100  0.458000  0.298500  1.0  -0.0033
  C  C577  1  0.013100  0.454000  0.334300  1.0  0.0518
  C  C578  1  0.014100  0.415400  0.353800  1.0  -0.0095
  C  C579  1  0.037000  0.411800  0.397300  1.0  0.0314
  C  C580  1  0.012400  0.418200  0.435100  1.0  -0.0638
  C  C581  1  0.032400  0.416000  0.474300  1.0  -0.0492
  C  C582  1  0.076500  0.408100  0.479000  1.0  -0.1507
  C  C583  1  0.098500  0.402600  0.441700  1.0  -0.0053
  C  C584  1  0.081000  0.404300  0.401500  1.0  -0.1208
  C  C585  1  0.993500  0.337300  0.354500  1.0  0.7436
  C  C586  1  0.038600  0.493000  0.350200  1.0  0.5066
  C  C587  1  0.964200  0.421200  0.434500  1.0  0.7334
  C  C588  1  0.111400  0.395600  0.364200  1.0  0.7246
  C  C589  1  0.493600  0.880700  0.835600  1.0  -0.0663
  C  C590  1  0.467500  0.885900  0.798100  1.0  -0.083
  C  C591  1  0.469500  0.926700  0.777200  1.0  -0.1133
  C  C592  1  0.491100  0.958000  0.798500  1.0  -0.0033
  C  C593  1  0.513100  0.954000  0.834300  1.0  0.0518
  C  C594  1  0.514100  0.915400  0.853800  1.0  -0.0095
  C  C595  1  0.537000  0.911800  0.897300  1.0  0.0314
  C  C596  1  0.512400  0.918200  0.935100  1.0  -0.0638
  C  C597  1  0.532400  0.916000  0.974300  1.0  -0.0492
  C  C598  1  0.576500  0.908100  0.979000  1.0  -0.1507
  C  C599  1  0.598500  0.902600  0.941700  1.0  -0.0053
  C  C600  1  0.581000  0.904300  0.901500  1.0  -0.1208
  C  C601  1  0.493500  0.837300  0.854500  1.0  0.7436
  C  C602  1  0.538600  0.993000  0.850200  1.0  0.5066
  C  C603  1  0.464200  0.921200  0.934500  1.0  0.7334
  C  C604  1  0.611400  0.895600  0.864200  1.0  0.7246
  C  C605  1  0.164400  0.006400  0.880700  1.0  -0.0662
  C  C606  1  0.201900  0.032500  0.885900  1.0  -0.0812
  C  C607  1  0.222800  0.030500  0.926700  1.0  -0.1139
  C  C608  1  0.201500  0.008900  0.958000  1.0  -0.0007
  C  C609  1  0.165700  0.986900  0.954000  1.0  0.0498
  C  C610  1  0.146200  0.985900  0.915400  1.0  -0.0095
  C  C611  1  0.102700  0.963000  0.911800  1.0  0.0307
  C  C612  1  0.064900  0.987600  0.918200  1.0  -0.0655
  C  C613  1  0.025700  0.967600  0.916000  1.0  -0.0466
  C  C614  1  0.021000  0.923500  0.908100  1.0  -0.1546
  C  C615  1  0.058300  0.901500  0.902600  1.0  -0.011
  C  C616  1  0.098500  0.919000  0.904300  1.0  -0.1224
  C  C617  1  0.145500  0.006500  0.837300  1.0  0.7419
  C  C618  1  0.149800  0.961400  0.993000  1.0  0.5081
  C  C619  1  0.065500  0.035800  0.921200  1.0  0.7341
  C  C620  1  0.135800  0.888600  0.895600  1.0  0.7175
  C  C621  1  0.664400  0.506400  0.380700  1.0  -0.0662
  C  C622  1  0.701900  0.532500  0.385900  1.0  -0.0812
  C  C623  1  0.722800  0.530500  0.426700  1.0  -0.1139
  C  C624  1  0.701500  0.508900  0.458000  1.0  -0.0007
  C  C625  1  0.665700  0.486900  0.454000  1.0  0.0498
  C  C626  1  0.646200  0.485900  0.415400  1.0  -0.0095
  C  C627  1  0.602700  0.463000  0.411800  1.0  0.0307
  C  C628  1  0.564900  0.487600  0.418200  1.0  -0.0655
  C  C629  1  0.525700  0.467600  0.416000  1.0  -0.0466
  C  C630  1  0.521000  0.423500  0.408100  1.0  -0.1546
  C  C631  1  0.558300  0.401500  0.402600  1.0  -0.011
  C  C632  1  0.598500  0.419000  0.404300  1.0  -0.1224
  C  C633  1  0.645500  0.506500  0.337300  1.0  0.7419
  C  C634  1  0.649800  0.461400  0.493000  1.0  0.5081
  C  C635  1  0.565500  0.535800  0.421200  1.0  0.7341
  C  C636  1  0.635800  0.388600  0.395600  1.0  0.7175
  C  C637  1  0.835600  0.506400  0.619300  1.0  -0.0667
  C  C638  1  0.798100  0.532500  0.614100  1.0  -0.0822
  C  C639  1  0.777200  0.530500  0.573300  1.0  -0.1153
  C  C640  1  0.798500  0.508900  0.542000  1.0  -0.0028
  C  C641  1  0.834300  0.486900  0.546000  1.0  0.0471
  C  C642  1  0.853800  0.485900  0.584600  1.0  -0.0099
  C  C643  1  0.897300  0.463000  0.588200  1.0  0.0313
  C  C644  1  0.935100  0.487600  0.581800  1.0  -0.0651
  C  C645  1  0.974300  0.467600  0.584000  1.0  -0.0473
  C  C646  1  0.979000  0.423500  0.591900  1.0  -0.1522
  C  C647  1  0.941700  0.401500  0.597400  1.0  -0.0105
  C  C648  1  0.901500  0.419000  0.595700  1.0  -0.1235
  C  C649  1  0.854500  0.506500  0.662700  1.0  0.7427
  C  C650  1  0.850200  0.461400  0.507000  1.0  0.5116
  C  C651  1  0.934500  0.535800  0.578800  1.0  0.7335
  C  C652  1  0.864200  0.388600  0.604400  1.0  0.719
  C  C653  1  0.335600  0.006400  0.119300  1.0  -0.0667
  C  C654  1  0.298100  0.032500  0.114100  1.0  -0.0822
  C  C655  1  0.277200  0.030500  0.073300  1.0  -0.1153
  C  C656  1  0.298500  0.008900  0.042000  1.0  -0.0028
  C  C657  1  0.334300  0.986900  0.046000  1.0  0.0471
  C  C658  1  0.353800  0.985900  0.084600  1.0  -0.0099
  C  C659  1  0.397300  0.963000  0.088200  1.0  0.0313
  C  C660  1  0.435100  0.987600  0.081800  1.0  -0.0651
  C  C661  1  0.474300  0.967600  0.084000  1.0  -0.0473
  C  C662  1  0.479000  0.923500  0.091900  1.0  -0.1522
  C  C663  1  0.441700  0.901500  0.097400  1.0  -0.0105
  C  C664  1  0.401500  0.919000  0.095700  1.0  -0.1235
  C  C665  1  0.354500  0.006500  0.162700  1.0  0.7427
  C  C666  1  0.350200  0.961400  0.007000  1.0  0.5116
  C  C667  1  0.434500  0.035800  0.078800  1.0  0.7335
  C  C668  1  0.364200  0.888600  0.104400  1.0  0.719
  C  C669  1  0.664400  0.493600  0.119300  1.0  -0.0667
  C  C670  1  0.701900  0.467500  0.114100  1.0  -0.0805
  C  C671  1  0.722800  0.469500  0.073300  1.0  -0.1149
  C  C672  1  0.701500  0.491100  0.042000  1.0  -0.0025
  C  C673  1  0.665700  0.513100  0.046000  1.0  0.0491
  C  C674  1  0.646200  0.514100  0.084600  1.0  -0.0094
  C  C675  1  0.602700  0.537000  0.088200  1.0  0.0309
  C  C676  1  0.564900  0.512400  0.081800  1.0  -0.0663
  C  C677  1  0.525700  0.532400  0.084000  1.0  -0.0468
  C  C678  1  0.521000  0.576500  0.091900  1.0  -0.1551
  C  C679  1  0.558300  0.598500  0.097400  1.0  -0.0095
  C  C680  1  0.598500  0.581000  0.095700  1.0  -0.1216
  C  C681  1  0.645500  0.493500  0.162700  1.0  0.7414
  C  C682  1  0.649800  0.538600  0.007000  1.0  0.5101
  C  C683  1  0.565500  0.464200  0.078800  1.0  0.7333
  C  C684  1  0.635800  0.611400  0.104400  1.0  0.7176
  C  C685  1  0.164400  0.993600  0.619300  1.0  -0.0667
  C  C686  1  0.201900  0.967500  0.614100  1.0  -0.0805
  C  C687  1  0.222800  0.969500  0.573300  1.0  -0.1149
  C  C688  1  0.201500  0.991100  0.542000  1.0  -0.0025
  C  C689  1  0.165700  0.013100  0.546000  1.0  0.0491
  C  C690  1  0.146200  0.014100  0.584600  1.0  -0.0094
  C  C691  1  0.102700  0.037000  0.588200  1.0  0.0309
  C  C692  1  0.064900  0.012400  0.581800  1.0  -0.0663
  C  C693  1  0.025700  0.032400  0.584000  1.0  -0.0468
  C  C694  1  0.021000  0.076500  0.591900  1.0  -0.1551
  C  C695  1  0.058300  0.098500  0.597400  1.0  -0.0095
  C  C696  1  0.098500  0.081000  0.595700  1.0  -0.1216
  C  C697  1  0.145500  0.993500  0.662700  1.0  0.7414
  C  C698  1  0.149800  0.038600  0.507000  1.0  0.5101
  C  C699  1  0.065500  0.964200  0.578800  1.0  0.7333
  C  C700  1  0.135800  0.111400  0.604400  1.0  0.7176
  C  C701  1  0.335600  0.993600  0.380700  1.0  -0.0667
  C  C702  1  0.298100  0.967500  0.385900  1.0  -0.0822
  C  C703  1  0.277200  0.969500  0.426700  1.0  -0.1148
  C  C704  1  0.298500  0.991100  0.458000  1.0  -0.0003
  C  C705  1  0.334300  0.013100  0.454000  1.0  0.0481
  C  C706  1  0.353800  0.014100  0.415400  1.0  -0.0095
  C  C707  1  0.397300  0.037000  0.411800  1.0  0.0316
  C  C708  1  0.435100  0.012400  0.418200  1.0  -0.0661
  C  C709  1  0.474300  0.032400  0.416000  1.0  -0.0474
  C  C710  1  0.479000  0.076500  0.408100  1.0  -0.1531
  C  C711  1  0.441700  0.098500  0.402600  1.0  -0.0096
  C  C712  1  0.401500  0.081000  0.404300  1.0  -0.1219
  C  C713  1  0.354500  0.993500  0.337300  1.0  0.7429
  C  C714  1  0.350200  0.038600  0.493000  1.0  0.5106
  C  C715  1  0.434500  0.964200  0.421200  1.0  0.7338
  C  C716  1  0.364200  0.111400  0.395600  1.0  0.7177
  C  C717  1  0.835600  0.493600  0.880700  1.0  -0.0667
  C  C718  1  0.798100  0.467500  0.885900  1.0  -0.0822
  C  C719  1  0.777200  0.469500  0.926700  1.0  -0.1148
  C  C720  1  0.798500  0.491100  0.958000  1.0  -0.0003
  C  C721  1  0.834300  0.513100  0.954000  1.0  0.0481
  C  C722  1  0.853800  0.514100  0.915400  1.0  -0.0095
  C  C723  1  0.897300  0.537000  0.911800  1.0  0.0316
  C  C724  1  0.935100  0.512400  0.918200  1.0  -0.0661
  C  C725  1  0.974300  0.532400  0.916000  1.0  -0.0474
  C  C726  1  0.979000  0.576500  0.908100  1.0  -0.1531
  C  C727  1  0.941700  0.598500  0.902600  1.0  -0.0096
  C  C728  1  0.901500  0.581000  0.904300  1.0  -0.1219
  C  C729  1  0.854500  0.493500  0.837300  1.0  0.7429
  C  C730  1  0.850200  0.538600  0.993000  1.0  0.5106
  C  C731  1  0.934500  0.464200  0.921200  1.0  0.7338
  C  C732  1  0.864200  0.611400  0.895600  1.0  0.7177
  C  C733  1  0.414400  0.130700  0.256400  1.0  -0.067
  C  C734  1  0.451900  0.135900  0.282500  1.0  -0.0804
  C  C735  1  0.472800  0.176700  0.280500  1.0  -0.1135
  C  C736  1  0.451500  0.208000  0.258900  1.0  -0.0037
  C  C737  1  0.415700  0.204000  0.236900  1.0  0.0502
  C  C738  1  0.396200  0.165400  0.235900  1.0  -0.0095
  C  C739  1  0.352700  0.161800  0.213000  1.0  0.0309
  C  C740  1  0.314900  0.168200  0.237600  1.0  -0.0655
  C  C741  1  0.275700  0.166000  0.217600  1.0  -0.046
  C  C742  1  0.271000  0.158100  0.173500  1.0  -0.1544
  C  C743  1  0.308300  0.152600  0.151500  1.0  -0.0057
  C  C744  1  0.348500  0.154300  0.169000  1.0  -0.1223
  C  C745  1  0.395500  0.087300  0.256500  1.0  0.7408
  C  C746  1  0.399800  0.243000  0.211400  1.0  0.5048
  C  C747  1  0.315500  0.171200  0.285800  1.0  0.7353
  C  C748  1  0.385800  0.145600  0.138600  1.0  0.721
  C  C749  1  0.914400  0.630700  0.756400  1.0  -0.067
  C  C750  1  0.951900  0.635900  0.782500  1.0  -0.0804
  C  C751  1  0.972800  0.676700  0.780500  1.0  -0.1135
  C  C752  1  0.951500  0.708000  0.758900  1.0  -0.0037
  C  C753  1  0.915700  0.704000  0.736900  1.0  0.0502
  C  C754  1  0.896200  0.665400  0.735900  1.0  -0.0095
  C  C755  1  0.852700  0.661800  0.713000  1.0  0.0309
  C  C756  1  0.814900  0.668200  0.737600  1.0  -0.0655
  C  C757  1  0.775700  0.666000  0.717600  1.0  -0.046
  C  C758  1  0.771000  0.658100  0.673500  1.0  -0.1544
  C  C759  1  0.808300  0.652600  0.651500  1.0  -0.0057
  C  C760  1  0.848500  0.654300  0.669000  1.0  -0.1223
  C  C761  1  0.895500  0.587300  0.756500  1.0  0.7408
  C  C762  1  0.899800  0.743000  0.711400  1.0  0.5048
  C  C763  1  0.815500  0.671200  0.785800  1.0  0.7353
  C  C764  1  0.885800  0.645600  0.638600  1.0  0.721
  C  C765  1  0.085600  0.869300  0.756400  1.0  -0.0667
  C  C766  1  0.048100  0.864100  0.782500  1.0  -0.0826
  C  C767  1  0.027200  0.823300  0.780500  1.0  -0.1144
  C  C768  1  0.048500  0.792000  0.758900  1.0  -0.0031
  C  C769  1  0.084300  0.796000  0.736900  1.0  0.0488
  C  C770  1  0.103800  0.834600  0.735900  1.0  -0.0091
  C  C771  1  0.147300  0.838200  0.713000  1.0  0.0313
  C  C772  1  0.185100  0.831800  0.737600  1.0  -0.0652
  C  C773  1  0.224300  0.834000  0.717600  1.0  -0.0465
  C  C774  1  0.229000  0.841900  0.673500  1.0  -0.1522
  C  C775  1  0.191700  0.847400  0.651500  1.0  -0.0075
  C  C776  1  0.151500  0.845700  0.669000  1.0  -0.123
  C  C777  1  0.104500  0.912700  0.756500  1.0  0.7412
  C  C778  1  0.100200  0.757000  0.711400  1.0  0.5078
  C  C779  1  0.184500  0.828800  0.785800  1.0  0.7363
  C  C780  1  0.114200  0.854400  0.638600  1.0  0.7229
  C  C781  1  0.585600  0.369300  0.256400  1.0  -0.0667
  C  C782  1  0.548100  0.364100  0.282500  1.0  -0.0826
  C  C783  1  0.527200  0.323300  0.280500  1.0  -0.1144
  C  C784  1  0.548500  0.292000  0.258900  1.0  -0.0031
  C  C785  1  0.584300  0.296000  0.236900  1.0  0.0488
  C  C786  1  0.603800  0.334600  0.235900  1.0  -0.0091
  C  C787  1  0.647300  0.338200  0.213000  1.0  0.0313
  C  C788  1  0.685100  0.331800  0.237600  1.0  -0.0652
  C  C789  1  0.724300  0.334000  0.217600  1.0  -0.0465
  C  C790  1  0.729000  0.341900  0.173500  1.0  -0.1522
  C  C791  1  0.691700  0.347400  0.151500  1.0  -0.0075
  C  C792  1  0.651500  0.345700  0.169000  1.0  -0.123
  C  C793  1  0.604500  0.412700  0.256500  1.0  0.7412
  C  C794  1  0.600200  0.257000  0.211400  1.0  0.5078
  C  C795  1  0.684500  0.328800  0.285800  1.0  0.7363
  C  C796  1  0.614200  0.354400  0.138600  1.0  0.7229
  C  C797  1  0.914400  0.369300  0.743600  1.0  -0.0666
  C  C798  1  0.951900  0.364100  0.717500  1.0  -0.0819
  C  C799  1  0.972800  0.323300  0.719500  1.0  -0.1145
  C  C800  1  0.951500  0.292000  0.741100  1.0  -0.0029
  C  C801  1  0.915700  0.296000  0.763100  1.0  0.0502
  C  C802  1  0.896200  0.334600  0.764100  1.0  -0.0091
  C  C803  1  0.852700  0.338200  0.787000  1.0  0.0307
  C  C804  1  0.814900  0.331800  0.762400  1.0  -0.0664
  C  C805  1  0.775700  0.334000  0.782400  1.0  -0.0447
  C  C806  1  0.771000  0.341900  0.826500  1.0  -0.1552
  C  C807  1  0.808300  0.347400  0.848500  1.0  -0.0062
  C  C808  1  0.848500  0.345700  0.831000  1.0  -0.1231
  C  C809  1  0.895500  0.412700  0.743500  1.0  0.7399
  C  C810  1  0.899800  0.257000  0.788600  1.0  0.507
  C  C811  1  0.815500  0.328800  0.714200  1.0  0.7358
  C  C812  1  0.885800  0.354400  0.861400  1.0  0.7226
  C  C813  1  0.414400  0.869300  0.243600  1.0  -0.0666
  C  C814  1  0.451900  0.864100  0.217500  1.0  -0.0819
  C  C815  1  0.472800  0.823300  0.219500  1.0  -0.1145
  C  C816  1  0.451500  0.792000  0.241100  1.0  -0.0029
  C  C817  1  0.415700  0.796000  0.263100  1.0  0.0502
  C  C818  1  0.396200  0.834600  0.264100  1.0  -0.0091
  C  C819  1  0.352700  0.838200  0.287000  1.0  0.0307
  C  C820  1  0.314900  0.831800  0.262400  1.0  -0.0664
  C  C821  1  0.275700  0.834000  0.282400  1.0  -0.0447
  C  C822  1  0.271000  0.841900  0.326500  1.0  -0.1552
  C  C823  1  0.308300  0.847400  0.348500  1.0  -0.0062
  C  C824  1  0.348500  0.845700  0.331000  1.0  -0.1231
  C  C825  1  0.395500  0.912700  0.243500  1.0  0.7399
  C  C826  1  0.399800  0.757000  0.288600  1.0  0.507
  C  C827  1  0.315500  0.828800  0.214200  1.0  0.7358
  C  C828  1  0.385800  0.854400  0.361400  1.0  0.7226
  C  C829  1  0.585600  0.630700  0.243600  1.0  -0.0666
  C  C830  1  0.548100  0.635900  0.217500  1.0  -0.0817
  C  C831  1  0.527200  0.676700  0.219500  1.0  -0.1153
  C  C832  1  0.548500  0.708000  0.241100  1.0  -0.0025
  C  C833  1  0.584300  0.704000  0.263100  1.0  0.0487
  C  C834  1  0.603800  0.665400  0.264100  1.0  -0.0097
  C  C835  1  0.647300  0.661800  0.287000  1.0  0.0315
  C  C836  1  0.685100  0.668200  0.262400  1.0  -0.0651
  C  C837  1  0.724300  0.666000  0.282400  1.0  -0.0451
  C  C838  1  0.729000  0.658100  0.326500  1.0  -0.1526
  C  C839  1  0.691700  0.652600  0.348500  1.0  -0.0061
  C  C840  1  0.651500  0.654300  0.331000  1.0  -0.1235
  C  C841  1  0.604500  0.587300  0.243500  1.0  0.7417
  C  C842  1  0.600200  0.743000  0.288600  1.0  0.5073
  C  C843  1  0.684500  0.671200  0.214200  1.0  0.7349
  C  C844  1  0.614200  0.645600  0.361400  1.0  0.7219
  C  C845  1  0.085600  0.130700  0.743600  1.0  -0.0666
  C  C846  1  0.048100  0.135900  0.717500  1.0  -0.0817
  C  C847  1  0.027200  0.176700  0.719500  1.0  -0.1153
  C  C848  1  0.048500  0.208000  0.741100  1.0  -0.0025
  C  C849  1  0.084300  0.204000  0.763100  1.0  0.0487
  C  C850  1  0.103800  0.165400  0.764100  1.0  -0.0097
  C  C851  1  0.147300  0.161800  0.787000  1.0  0.0315
  C  C852  1  0.185100  0.168200  0.762400  1.0  -0.0651
  C  C853  1  0.224300  0.166000  0.782400  1.0  -0.0451
  C  C854  1  0.229000  0.158100  0.826500  1.0  -0.1526
  C  C855  1  0.191700  0.152600  0.848500  1.0  -0.0061
  C  C856  1  0.151500  0.154300  0.831000  1.0  -0.1235
  C  C857  1  0.104500  0.087300  0.743500  1.0  0.7417
  C  C858  1  0.100200  0.243000  0.788600  1.0  0.5073
  C  C859  1  0.184500  0.171200  0.714200  1.0  0.7349
  C  C860  1  0.114200  0.145600  0.861400  1.0  0.7219
  C  C861  1  0.130700  0.256400  0.414400  1.0  -0.067
  C  C862  1  0.135900  0.282500  0.451900  1.0  -0.0866
  C  C863  1  0.176700  0.280500  0.472800  1.0  -0.1134
  C  C864  1  0.208000  0.258900  0.451500  1.0  -0.0018
  C  C865  1  0.204000  0.236900  0.415700  1.0  0.0491
  C  C866  1  0.165400  0.235900  0.396200  1.0  -0.0084
  C  C867  1  0.161800  0.213000  0.352700  1.0  0.0313
  C  C868  1  0.168200  0.237600  0.314900  1.0  -0.0629
  C  C869  1  0.166000  0.217600  0.275700  1.0  -0.0482
  C  C870  1  0.158100  0.173500  0.271000  1.0  -0.147
  C  C871  1  0.152600  0.151500  0.308300  1.0  -0.0116
  C  C872  1  0.154300  0.169000  0.348500  1.0  -0.1212
  C  C873  1  0.087300  0.256500  0.395500  1.0  0.7424
  C  C874  1  0.243000  0.211400  0.399800  1.0  0.5105
  C  C875  1  0.171200  0.285800  0.315500  1.0  0.7341
  C  C876  1  0.145600  0.138600  0.385800  1.0  0.7222
  C  C877  1  0.630700  0.756400  0.914400  1.0  -0.067
  C  C878  1  0.635900  0.782500  0.951900  1.0  -0.0866
  C  C879  1  0.676700  0.780500  0.972800  1.0  -0.1134
  C  C880  1  0.708000  0.758900  0.951500  1.0  -0.0018
  C  C881  1  0.704000  0.736900  0.915700  1.0  0.0491
  C  C882  1  0.665400  0.735900  0.896200  1.0  -0.0084
  C  C883  1  0.661800  0.713000  0.852700  1.0  0.0313
  C  C884  1  0.668200  0.737600  0.814900  1.0  -0.0629
  C  C885  1  0.666000  0.717600  0.775700  1.0  -0.0482
  C  C886  1  0.658100  0.673500  0.771000  1.0  -0.147
  C  C887  1  0.652600  0.651500  0.808300  1.0  -0.0116
  C  C888  1  0.654300  0.669000  0.848500  1.0  -0.1212
  C  C889  1  0.587300  0.756500  0.895500  1.0  0.7424
  C  C890  1  0.743000  0.711400  0.899800  1.0  0.5105
  C  C891  1  0.671200  0.785800  0.815500  1.0  0.7341
  C  C892  1  0.645600  0.638600  0.885800  1.0  0.7222
  C  C893  1  0.869300  0.756400  0.085600  1.0  -0.0672
  C  C894  1  0.864100  0.782500  0.048100  1.0  -0.0853
  C  C895  1  0.823300  0.780500  0.027200  1.0  -0.1134
  C  C896  1  0.792000  0.758900  0.048500  1.0  -0.0015
  C  C897  1  0.796000  0.736900  0.084300  1.0  0.0491
  C  C898  1  0.834600  0.735900  0.103800  1.0  -0.0096
  C  C899  1  0.838200  0.713000  0.147300  1.0  0.0311
  C  C900  1  0.831800  0.737600  0.185100  1.0  -0.0622
  C  C901  1  0.834000  0.717600  0.224300  1.0  -0.049
  C  C902  1  0.841900  0.673500  0.229000  1.0  -0.1486
  C  C903  1  0.847400  0.651500  0.191700  1.0  -0.0102
  C  C904  1  0.845700  0.669000  0.151500  1.0  -0.1194
  C  C905  1  0.912700  0.756500  0.104500  1.0  0.7428
  C  C906  1  0.757000  0.711400  0.100200  1.0  0.5073
  C  C907  1  0.828800  0.785800  0.184500  1.0  0.7335
  C  C908  1  0.854400  0.638600  0.114200  1.0  0.7213
  C  C909  1  0.369300  0.256400  0.585600  1.0  -0.0672
  C  C910  1  0.364100  0.282500  0.548100  1.0  -0.0853
  C  C911  1  0.323300  0.280500  0.527200  1.0  -0.1134
  C  C912  1  0.292000  0.258900  0.548500  1.0  -0.0015
  C  C913  1  0.296000  0.236900  0.584300  1.0  0.0491
  C  C914  1  0.334600  0.235900  0.603800  1.0  -0.0096
  C  C915  1  0.338200  0.213000  0.647300  1.0  0.0311
  C  C916  1  0.331800  0.237600  0.685100  1.0  -0.0622
  C  C917  1  0.334000  0.217600  0.724300  1.0  -0.049
  C  C918  1  0.341900  0.173500  0.729000  1.0  -0.1486
  C  C919  1  0.347400  0.151500  0.691700  1.0  -0.0102
  C  C920  1  0.345700  0.169000  0.651500  1.0  -0.1194
  C  C921  1  0.412700  0.256500  0.604500  1.0  0.7428
  C  C922  1  0.257000  0.211400  0.600200  1.0  0.5073
  C  C923  1  0.328800  0.285800  0.684500  1.0  0.7335
  C  C924  1  0.354400  0.138600  0.614200  1.0  0.7213
  C  C925  1  0.369300  0.743600  0.914400  1.0  -0.0669
  C  C926  1  0.364100  0.717500  0.951900  1.0  -0.0837
  C  C927  1  0.323300  0.719500  0.972800  1.0  -0.1132
  C  C928  1  0.292000  0.741100  0.951500  1.0  -0.0012
  C  C929  1  0.296000  0.763100  0.915700  1.0  0.048
  C  C930  1  0.334600  0.764100  0.896200  1.0  -0.0083
  C  C931  1  0.338200  0.787000  0.852700  1.0  0.0312
  C  C932  1  0.331800  0.762400  0.814900  1.0  -0.064
  C  C933  1  0.334000  0.782400  0.775700  1.0  -0.049
  C  C934  1  0.341900  0.826500  0.771000  1.0  -0.1474
  C  C935  1  0.347400  0.848500  0.808300  1.0  -0.0096
  C  C936  1  0.345700  0.831000  0.848500  1.0  -0.1202
  C  C937  1  0.412700  0.743500  0.895500  1.0  0.7428
  C  C938  1  0.257000  0.788600  0.899800  1.0  0.5072
  C  C939  1  0.328800  0.714200  0.815500  1.0  0.7338
  C  C940  1  0.354400  0.861400  0.885800  1.0  0.7197
  C  C941  1  0.869300  0.243600  0.414400  1.0  -0.0669
  C  C942  1  0.864100  0.217500  0.451900  1.0  -0.0837
  C  C943  1  0.823300  0.219500  0.472800  1.0  -0.1132
  C  C944  1  0.792000  0.241100  0.451500  1.0  -0.0012
  C  C945  1  0.796000  0.263100  0.415700  1.0  0.048
  C  C946  1  0.834600  0.264100  0.396200  1.0  -0.0083
  C  C947  1  0.838200  0.287000  0.352700  1.0  0.0312
  C  C948  1  0.831800  0.262400  0.314900  1.0  -0.064
  C  C949  1  0.834000  0.282400  0.275700  1.0  -0.049
  C  C950  1  0.841900  0.326500  0.271000  1.0  -0.1474
  C  C951  1  0.847400  0.348500  0.308300  1.0  -0.0096
  C  C952  1  0.845700  0.331000  0.348500  1.0  -0.1202
  C  C953  1  0.912700  0.243500  0.395500  1.0  0.7428
  C  C954  1  0.757000  0.288600  0.399800  1.0  0.5072
  C  C955  1  0.828800  0.214200  0.315500  1.0  0.7338
  C  C956  1  0.854400  0.361400  0.385800  1.0  0.7197
  C  C957  1  0.630700  0.243600  0.585600  1.0  -0.0671
  C  C958  1  0.635900  0.217500  0.548100  1.0  -0.0849
  C  C959  1  0.676700  0.219500  0.527200  1.0  -0.1133
  C  C960  1  0.708000  0.241100  0.548500  1.0  -0.001
  C  C961  1  0.704000  0.263100  0.584300  1.0  0.0496
  C  C962  1  0.665400  0.264100  0.603800  1.0  -0.009
  C  C963  1  0.661800  0.287000  0.647300  1.0  0.0315
  C  C964  1  0.668200  0.262400  0.685100  1.0  -0.063
  C  C965  1  0.666000  0.282400  0.724300  1.0  -0.0491
  C  C966  1  0.658100  0.326500  0.729000  1.0  -0.1508
  C  C967  1  0.652600  0.348500  0.691700  1.0  -0.0098
  C  C968  1  0.654300  0.331000  0.651500  1.0  -0.1185
  C  C969  1  0.587300  0.243500  0.604500  1.0  0.7422
  C  C970  1  0.743000  0.288600  0.600200  1.0  0.5113
  C  C971  1  0.671200  0.214200  0.684500  1.0  0.7338
  C  C972  1  0.645600  0.361400  0.614200  1.0  0.722
  C  C973  1  0.130700  0.743600  0.085600  1.0  -0.0671
  C  C974  1  0.135900  0.717500  0.048100  1.0  -0.0849
  C  C975  1  0.176700  0.719500  0.027200  1.0  -0.1133
  C  C976  1  0.208000  0.741100  0.048500  1.0  -0.001
  C  C977  1  0.204000  0.763100  0.084300  1.0  0.0496
  C  C978  1  0.165400  0.764100  0.103800  1.0  -0.009
  C  C979  1  0.161800  0.787000  0.147300  1.0  0.0315
  C  C980  1  0.168200  0.762400  0.185100  1.0  -0.063
  C  C981  1  0.166000  0.782400  0.224300  1.0  -0.0491
  C  C982  1  0.158100  0.826500  0.229000  1.0  -0.1508
  C  C983  1  0.152600  0.848500  0.191700  1.0  -0.0098
  C  C984  1  0.154300  0.831000  0.151500  1.0  -0.1185
  C  C985  1  0.087300  0.743500  0.104500  1.0  0.7422
  C  C986  1  0.243000  0.788600  0.100200  1.0  0.5113
  C  C987  1  0.171200  0.714200  0.184500  1.0  0.7338
  C  C988  1  0.145600  0.861400  0.114200  1.0  0.722
  C  C989  1  0.256400  0.414400  0.130700  1.0  -0.0679
  C  C990  1  0.282500  0.451900  0.135900  1.0  -0.083
  C  C991  1  0.280500  0.472800  0.176700  1.0  -0.1166
  C  C992  1  0.258900  0.451500  0.208000  1.0  -0.0023
  C  C993  1  0.236900  0.415700  0.204000  1.0  0.0498
  C  C994  1  0.235900  0.396200  0.165400  1.0  -0.0096
  C  C995  1  0.213000  0.352700  0.161800  1.0  0.0316
  C  C996  1  0.237600  0.314900  0.168200  1.0  -0.0666
  C  C997  1  0.217600  0.275700  0.166000  1.0  -0.049
  C  C998  1  0.173500  0.271000  0.158100  1.0  -0.149
  C  C999  1  0.151500  0.308300  0.152600  1.0  -0.0088
  C  C1000  1  0.169000  0.348500  0.154300  1.0  -0.1234
  C  C1001  1  0.256500  0.395500  0.087300  1.0  0.7452
  C  C1002  1  0.211400  0.399800  0.243000  1.0  0.5071
  C  C1003  1  0.285800  0.315500  0.171200  1.0  0.7349
  C  C1004  1  0.138600  0.385800  0.145600  1.0  0.7204
  C  C1005  1  0.756400  0.914400  0.630700  1.0  -0.0679
  C  C1006  1  0.782500  0.951900  0.635900  1.0  -0.083
  C  C1007  1  0.780500  0.972800  0.676700  1.0  -0.1166
  C  C1008  1  0.758900  0.951500  0.708000  1.0  -0.0023
  C  C1009  1  0.736900  0.915700  0.704000  1.0  0.0498
  C  C1010  1  0.735900  0.896200  0.665400  1.0  -0.0096
  C  C1011  1  0.713000  0.852700  0.661800  1.0  0.0316
  C  C1012  1  0.737600  0.814900  0.668200  1.0  -0.0666
  C  C1013  1  0.717600  0.775700  0.666000  1.0  -0.049
  C  C1014  1  0.673500  0.771000  0.658100  1.0  -0.149
  C  C1015  1  0.651500  0.808300  0.652600  1.0  -0.0088
  C  C1016  1  0.669000  0.848500  0.654300  1.0  -0.1234
  C  C1017  1  0.756500  0.895500  0.587300  1.0  0.7452
  C  C1018  1  0.711400  0.899800  0.743000  1.0  0.5071
  C  C1019  1  0.785800  0.815500  0.671200  1.0  0.7349
  C  C1020  1  0.638600  0.885800  0.645600  1.0  0.7204
  C  C1021  1  0.756400  0.085600  0.869300  1.0  -0.0681
  C  C1022  1  0.782500  0.048100  0.864100  1.0  -0.0827
  C  C1023  1  0.780500  0.027200  0.823300  1.0  -0.1158
  C  C1024  1  0.758900  0.048500  0.792000  1.0  -0.0044
  C  C1025  1  0.736900  0.084300  0.796000  1.0  0.0485
  C  C1026  1  0.735900  0.103800  0.834600  1.0  -0.0097
  C  C1027  1  0.713000  0.147300  0.838200  1.0  0.0316
  C  C1028  1  0.737600  0.185100  0.831800  1.0  -0.0667
  C  C1029  1  0.717600  0.224300  0.834000  1.0  -0.0498
  C  C1030  1  0.673500  0.229000  0.841900  1.0  -0.1492
  C  C1031  1  0.651500  0.191700  0.847400  1.0  -0.0098
  C  C1032  1  0.669000  0.151500  0.845700  1.0  -0.1243
  C  C1033  1  0.756500  0.104500  0.912700  1.0  0.7442
  C  C1034  1  0.711400  0.100200  0.757000  1.0  0.5107
  C  C1035  1  0.785800  0.184500  0.828800  1.0  0.7341
  C  C1036  1  0.638600  0.114200  0.854400  1.0  0.7214
  C  C1037  1  0.256400  0.585600  0.369300  1.0  -0.0681
  C  C1038  1  0.282500  0.548100  0.364100  1.0  -0.0827
  C  C1039  1  0.280500  0.527200  0.323300  1.0  -0.1158
  C  C1040  1  0.258900  0.548500  0.292000  1.0  -0.0044
  C  C1041  1  0.236900  0.584300  0.296000  1.0  0.0485
  C  C1042  1  0.235900  0.603800  0.334600  1.0  -0.0097
  C  C1043  1  0.213000  0.647300  0.338200  1.0  0.0316
  C  C1044  1  0.237600  0.685100  0.331800  1.0  -0.0667
  C  C1045  1  0.217600  0.724300  0.334000  1.0  -0.0498
  C  C1046  1  0.173500  0.729000  0.341900  1.0  -0.1492
  C  C1047  1  0.151500  0.691700  0.347400  1.0  -0.0098
  C  C1048  1  0.169000  0.651500  0.345700  1.0  -0.1243
  C  C1049  1  0.256500  0.604500  0.412700  1.0  0.7442
  C  C1050  1  0.211400  0.600200  0.257000  1.0  0.5107
  C  C1051  1  0.285800  0.684500  0.328800  1.0  0.7341
  C  C1052  1  0.138600  0.614200  0.354400  1.0  0.7214
  C  C1053  1  0.743600  0.914400  0.369300  1.0  -0.0681
  C  C1054  1  0.717500  0.951900  0.364100  1.0  -0.0832
  C  C1055  1  0.719500  0.972800  0.323300  1.0  -0.1169
  C  C1056  1  0.741100  0.951500  0.292000  1.0  -0.004
  C  C1057  1  0.763100  0.915700  0.296000  1.0  0.0487
  C  C1058  1  0.764100  0.896200  0.334600  1.0  -0.0101
  C  C1059  1  0.787000  0.852700  0.338200  1.0  0.0317
  C  C1060  1  0.762400  0.814900  0.331800  1.0  -0.0672
  C  C1061  1  0.782400  0.775700  0.334000  1.0  -0.0483
  C  C1062  1  0.826500  0.771000  0.341900  1.0  -0.1493
  C  C1063  1  0.848500  0.808300  0.347400  1.0  -0.0067
  C  C1064  1  0.831000  0.848500  0.345700  1.0  -0.1236
  C  C1065  1  0.743500  0.895500  0.412700  1.0  0.7445
  C  C1066  1  0.788600  0.899800  0.257000  1.0  0.51
  C  C1067  1  0.714200  0.815500  0.328800  1.0  0.733
  C  C1068  1  0.861400  0.885800  0.354400  1.0  0.7208
  C  C1069  1  0.243600  0.414400  0.869300  1.0  -0.0681
  C  C1070  1  0.217500  0.451900  0.864100  1.0  -0.0832
  C  C1071  1  0.219500  0.472800  0.823300  1.0  -0.1169
  C  C1072  1  0.241100  0.451500  0.792000  1.0  -0.004
  C  C1073  1  0.263100  0.415700  0.796000  1.0  0.0487
  C  C1074  1  0.264100  0.396200  0.834600  1.0  -0.0101
  C  C1075  1  0.287000  0.352700  0.838200  1.0  0.0317
  C  C1076  1  0.262400  0.314900  0.831800  1.0  -0.0672
  C  C1077  1  0.282400  0.275700  0.834000  1.0  -0.0483
  C  C1078  1  0.326500  0.271000  0.841900  1.0  -0.1493
  C  C1079  1  0.348500  0.308300  0.847400  1.0  -0.0067
  C  C1080  1  0.331000  0.348500  0.845700  1.0  -0.1236
  C  C1081  1  0.243500  0.395500  0.912700  1.0  0.7445
  C  C1082  1  0.288600  0.399800  0.757000  1.0  0.51
  C  C1083  1  0.214200  0.315500  0.828800  1.0  0.733
  C  C1084  1  0.361400  0.385800  0.854400  1.0  0.7208
  C  C1085  1  0.243600  0.585600  0.630700  1.0  -0.069
  C  C1086  1  0.217500  0.548100  0.635900  1.0  -0.0832
  C  C1087  1  0.219500  0.527200  0.676700  1.0  -0.1155
  C  C1088  1  0.241100  0.548500  0.708000  1.0  -0.003
  C  C1089  1  0.263100  0.584300  0.704000  1.0  0.0492
  C  C1090  1  0.264100  0.603800  0.665400  1.0  -0.0096
  C  C1091  1  0.287000  0.647300  0.661800  1.0  0.0317
  C  C1092  1  0.262400  0.685100  0.668200  1.0  -0.067
  C  C1093  1  0.282400  0.724300  0.666000  1.0  -0.0502
  C  C1094  1  0.326500  0.729000  0.658100  1.0  -0.1499
  C  C1095  1  0.348500  0.691700  0.652600  1.0  -0.0072
  C  C1096  1  0.331000  0.651500  0.654300  1.0  -0.1241
  C  C1097  1  0.243500  0.604500  0.587300  1.0  0.7446
  C  C1098  1  0.288600  0.600200  0.743000  1.0  0.5096
  C  C1099  1  0.214200  0.684500  0.671200  1.0  0.7337
  C  C1100  1  0.361400  0.614200  0.645600  1.0  0.7213
  C  C1101  1  0.743600  0.085600  0.130700  1.0  -0.069
  C  C1102  1  0.717500  0.048100  0.135900  1.0  -0.0832
  C  C1103  1  0.719500  0.027200  0.176700  1.0  -0.1155
  C  C1104  1  0.741100  0.048500  0.208000  1.0  -0.003
  C  C1105  1  0.763100  0.084300  0.204000  1.0  0.0492
  C  C1106  1  0.764100  0.103800  0.165400  1.0  -0.0096
  C  C1107  1  0.787000  0.147300  0.161800  1.0  0.0317
  C  C1108  1  0.762400  0.185100  0.168200  1.0  -0.067
  C  C1109  1  0.782400  0.224300  0.166000  1.0  -0.0502
  C  C1110  1  0.826500  0.229000  0.158100  1.0  -0.1499
  C  C1111  1  0.848500  0.191700  0.152600  1.0  -0.0072
  C  C1112  1  0.831000  0.151500  0.154300  1.0  -0.1241
  C  C1113  1  0.743500  0.104500  0.087300  1.0  0.7446
  C  C1114  1  0.788600  0.100200  0.243000  1.0  0.5096
  C  C1115  1  0.714200  0.184500  0.171200  1.0  0.7337
  C  C1116  1  0.861400  0.114200  0.145600  1.0  0.7213
  O  O1117  1  0.831100  0.107400  0.009100  1.0  -0.5367
  O  O1118  1  0.805500  0.172400  0.002500  1.0  -0.5771
  O  O1119  1  0.996200  0.149700  0.926000  1.0  -0.4933
  O  O1120  1  0.019300  0.131000  0.977700  1.0  -0.5211
  O  O1121  1  0.946400  0.089600  0.053300  1.0  -0.5181
  O  O1122  1  0.900100  0.038600  0.055300  1.0  -0.5364
  O  O1123  1  0.899400  0.130400  0.850300  1.0  -0.5205
  O  O1124  1  0.881800  0.170700  0.904600  1.0  -0.5998
  O  O1125  1  0.331100  0.607400  0.509100  1.0  -0.5367
  O  O1126  1  0.305500  0.672400  0.502500  1.0  -0.5771
  O  O1127  1  0.496200  0.649700  0.426000  1.0  -0.4933
  O  O1128  1  0.519300  0.631000  0.477700  1.0  -0.5211
  O  O1129  1  0.446400  0.589600  0.553300  1.0  -0.5181
  O  O1130  1  0.400100  0.538600  0.555300  1.0  -0.5364
  O  O1131  1  0.399400  0.630400  0.350300  1.0  -0.5205
  O  O1132  1  0.381800  0.670700  0.404600  1.0  -0.5998
  O  O1133  1  0.668900  0.892600  0.509100  1.0  -0.5351
  O  O1134  1  0.694500  0.827600  0.502500  1.0  -0.5763
  O  O1135  1  0.503800  0.850300  0.426000  1.0  -0.4932
  O  O1136  1  0.480700  0.869000  0.477700  1.0  -0.5215
  O  O1137  1  0.553600  0.910400  0.553300  1.0  -0.5161
  O  O1138  1  0.599900  0.961400  0.555300  1.0  -0.5375
  O  O1139  1  0.600600  0.869600  0.350300  1.0  -0.5214
  O  O1140  1  0.618200  0.829300  0.404600  1.0  -0.6005
  O  O1141  1  0.168900  0.392600  0.009100  1.0  -0.5351
  O  O1142  1  0.194500  0.327600  0.002500  1.0  -0.5763
  O  O1143  1  0.003800  0.350300  0.926000  1.0  -0.4932
  O  O1144  1  0.980700  0.369000  0.977700  1.0  -0.5215
  O  O1145  1  0.053600  0.410400  0.053300  1.0  -0.5161
  O  O1146  1  0.099900  0.461400  0.055300  1.0  -0.5375
  O  O1147  1  0.100600  0.369600  0.850300  1.0  -0.5214
  O  O1148  1  0.118200  0.329300  0.904600  1.0  -0.6005
  O  O1149  1  0.168900  0.607400  0.490900  1.0  -0.5382
  O  O1150  1  0.194500  0.672400  0.497500  1.0  -0.5769
  O  O1151  1  0.003800  0.649700  0.574000  1.0  -0.4956
  O  O1152  1  0.980700  0.631000  0.522300  1.0  -0.5223
  O  O1153  1  0.053600  0.589600  0.446700  1.0  -0.5159
  O  O1154  1  0.099900  0.538600  0.444700  1.0  -0.5366
  O  O1155  1  0.100600  0.630400  0.649700  1.0  -0.5225
  O  O1156  1  0.118200  0.670700  0.595400  1.0  -0.5996
  O  O1157  1  0.668900  0.107400  0.990900  1.0  -0.5382
  O  O1158  1  0.694500  0.172400  0.997500  1.0  -0.5769
  O  O1159  1  0.503800  0.149700  0.074000  1.0  -0.4956
  O  O1160  1  0.480700  0.131000  0.022300  1.0  -0.5223
  O  O1161  1  0.553600  0.089600  0.946700  1.0  -0.5159
  O  O1162  1  0.599900  0.038600  0.944700  1.0  -0.5366
  O  O1163  1  0.600600  0.130400  0.149700  1.0  -0.5225
  O  O1164  1  0.618200  0.170700  0.095400  1.0  -0.5996
  O  O1165  1  0.331100  0.392600  0.990900  1.0  -0.5351
  O  O1166  1  0.305500  0.327600  0.997500  1.0  -0.5772
  O  O1167  1  0.496200  0.350300  0.074000  1.0  -0.4938
  O  O1168  1  0.519300  0.369000  0.022300  1.0  -0.5214
  O  O1169  1  0.446400  0.410400  0.946700  1.0  -0.5159
  O  O1170  1  0.400100  0.461400  0.944700  1.0  -0.5376
  O  O1171  1  0.399400  0.369600  0.149700  1.0  -0.5217
  O  O1172  1  0.381800  0.329300  0.095400  1.0  -0.5991
  O  O1173  1  0.831100  0.892600  0.490900  1.0  -0.5351
  O  O1174  1  0.805500  0.827600  0.497500  1.0  -0.5772
  O  O1175  1  0.996200  0.850300  0.574000  1.0  -0.4938
  O  O1176  1  0.019300  0.869000  0.522300  1.0  -0.5214
  O  O1177  1  0.946400  0.910400  0.446700  1.0  -0.5159
  O  O1178  1  0.900100  0.961400  0.444700  1.0  -0.5376
  O  O1179  1  0.899400  0.869600  0.649700  1.0  -0.5217
  O  O1180  1  0.881800  0.829300  0.595400  1.0  -0.5991
  O  O1181  1  0.009100  0.831100  0.107400  1.0  -0.5382
  O  O1182  1  0.002500  0.805500  0.172400  1.0  -0.5838
  O  O1183  1  0.926000  0.996200  0.149700  1.0  -0.4932
  O  O1184  1  0.977700  0.019300  0.131000  1.0  -0.5225
  O  O1185  1  0.053300  0.946400  0.089600  1.0  -0.5143
  O  O1186  1  0.055300  0.900100  0.038600  1.0  -0.5383
  O  O1187  1  0.850300  0.899400  0.130400  1.0  -0.5237
  O  O1188  1  0.904600  0.881800  0.170700  1.0  -0.6128
  O  O1189  1  0.509100  0.331100  0.607400  1.0  -0.5382
  O  O1190  1  0.502500  0.305500  0.672400  1.0  -0.5838
  O  O1191  1  0.426000  0.496200  0.649700  1.0  -0.4932
  O  O1192  1  0.477700  0.519300  0.631000  1.0  -0.5225
  O  O1193  1  0.553300  0.446400  0.589600  1.0  -0.5143
  O  O1194  1  0.555300  0.400100  0.538600  1.0  -0.5383
  O  O1195  1  0.350300  0.399400  0.630400  1.0  -0.5237
  O  O1196  1  0.404600  0.381800  0.670700  1.0  -0.6128
  O  O1197  1  0.509100  0.668900  0.892600  1.0  -0.5378
  O  O1198  1  0.502500  0.694500  0.827600  1.0  -0.5812
  O  O1199  1  0.426000  0.503800  0.850300  1.0  -0.4926
  O  O1200  1  0.477700  0.480700  0.869000  1.0  -0.5199
  O  O1201  1  0.553300  0.553600  0.910400  1.0  -0.5118
  O  O1202  1  0.555300  0.599900  0.961400  1.0  -0.5397
  O  O1203  1  0.350300  0.600600  0.869600  1.0  -0.5246
  O  O1204  1  0.404600  0.618200  0.829300  1.0  -0.6112
  O  O1205  1  0.009100  0.168900  0.392600  1.0  -0.5378
  O  O1206  1  0.002500  0.194500  0.327600  1.0  -0.5812
  O  O1207  1  0.926000  0.003800  0.350300  1.0  -0.4926
  O  O1208  1  0.977700  0.980700  0.369000  1.0  -0.5199
  O  O1209  1  0.053300  0.053600  0.410400  1.0  -0.5118
  O  O1210  1  0.055300  0.099900  0.461400  1.0  -0.5397
  O  O1211  1  0.850300  0.100600  0.369600  1.0  -0.5246
  O  O1212  1  0.904600  0.118200  0.329300  1.0  -0.6112
  O  O1213  1  0.490900  0.168900  0.607400  1.0  -0.5362
  O  O1214  1  0.497500  0.194500  0.672400  1.0  -0.5825
  O  O1215  1  0.574000  0.003800  0.649700  1.0  -0.491
  O  O1216  1  0.522300  0.980700  0.631000  1.0  -0.5203
  O  O1217  1  0.446700  0.053600  0.589600  1.0  -0.5114
  O  O1218  1  0.444700  0.099900  0.538600  1.0  -0.5382
  O  O1219  1  0.649700  0.100600  0.630400  1.0  -0.5212
  O  O1220  1  0.595400  0.118200  0.670700  1.0  -0.6122
  O  O1221  1  0.990900  0.668900  0.107400  1.0  -0.5362
  O  O1222  1  0.997500  0.694500  0.172400  1.0  -0.5825
  O  O1223  1  0.074000  0.503800  0.149700  1.0  -0.491
  O  O1224  1  0.022300  0.480700  0.131000  1.0  -0.5203
  O  O1225  1  0.946700  0.553600  0.089600  1.0  -0.5114
  O  O1226  1  0.944700  0.599900  0.038600  1.0  -0.5382
  O  O1227  1  0.149700  0.600600  0.130400  1.0  -0.5212
  O  O1228  1  0.095400  0.618200  0.170700  1.0  -0.6122
  O  O1229  1  0.990900  0.331100  0.392600  1.0  -0.5364
  O  O1230  1  0.997500  0.305500  0.327600  1.0  -0.5801
  O  O1231  1  0.074000  0.496200  0.350300  1.0  -0.4907
  O  O1232  1  0.022300  0.519300  0.369000  1.0  -0.5212
  O  O1233  1  0.946700  0.446400  0.410400  1.0  -0.512
  O  O1234  1  0.944700  0.400100  0.461400  1.0  -0.5388
  O  O1235  1  0.149700  0.399400  0.369600  1.0  -0.5216
  O  O1236  1  0.095400  0.381800  0.329300  1.0  -0.6127
  O  O1237  1  0.490900  0.831100  0.892600  1.0  -0.5364
  O  O1238  1  0.497500  0.805500  0.827600  1.0  -0.5801
  O  O1239  1  0.574000  0.996200  0.850300  1.0  -0.4907
  O  O1240  1  0.522300  0.019300  0.869000  1.0  -0.5212
  O  O1241  1  0.446700  0.946400  0.910400  1.0  -0.512
  O  O1242  1  0.444700  0.900100  0.961400  1.0  -0.5388
  O  O1243  1  0.649700  0.899400  0.869600  1.0  -0.5216
  O  O1244  1  0.595400  0.881800  0.829300  1.0  -0.6127
  O  O1245  1  0.107400  0.009100  0.831100  1.0  -0.5416
  O  O1246  1  0.172400  0.002500  0.805500  1.0  -0.5762
  O  O1247  1  0.149700  0.926000  0.996200  1.0  -0.4918
  O  O1248  1  0.131000  0.977700  0.019300  1.0  -0.5218
  O  O1249  1  0.089600  0.053300  0.946400  1.0  -0.5142
  O  O1250  1  0.038600  0.055300  0.900100  1.0  -0.5376
  O  O1251  1  0.130400  0.850300  0.899400  1.0  -0.5143
  O  O1252  1  0.170700  0.904600  0.881800  1.0  -0.6058
  O  O1253  1  0.607400  0.509100  0.331100  1.0  -0.5416
  O  O1254  1  0.672400  0.502500  0.305500  1.0  -0.5762
  O  O1255  1  0.649700  0.426000  0.496200  1.0  -0.4918
  O  O1256  1  0.631000  0.477700  0.519300  1.0  -0.5218
  O  O1257  1  0.589600  0.553300  0.446400  1.0  -0.5142
  O  O1258  1  0.538600  0.555300  0.400100  1.0  -0.5376
  O  O1259  1  0.630400  0.350300  0.399400  1.0  -0.5143
  O  O1260  1  0.670700  0.404600  0.381800  1.0  -0.6058
  O  O1261  1  0.892600  0.509100  0.668900  1.0  -0.5389
  O  O1262  1  0.827600  0.502500  0.694500  1.0  -0.5777
  O  O1263  1  0.850300  0.426000  0.503800  1.0  -0.4911
  O  O1264  1  0.869000  0.477700  0.480700  1.0  -0.5229
  O  O1265  1  0.910400  0.553300  0.553600  1.0  -0.5151
  O  O1266  1  0.961400  0.555300  0.599900  1.0  -0.5383
  O  O1267  1  0.869600  0.350300  0.600600  1.0  -0.5141
  O  O1268  1  0.829300  0.404600  0.618200  1.0  -0.6057
  O  O1269  1  0.392600  0.009100  0.168900  1.0  -0.5389
  O  O1270  1  0.327600  0.002500  0.194500  1.0  -0.5777
  O  O1271  1  0.350300  0.926000  0.003800  1.0  -0.4911
  O  O1272  1  0.369000  0.977700  0.980700  1.0  -0.5229
  O  O1273  1  0.410400  0.053300  0.053600  1.0  -0.5151
  O  O1274  1  0.461400  0.055300  0.099900  1.0  -0.5383
  O  O1275  1  0.369600  0.850300  0.100600  1.0  -0.5141
  O  O1276  1  0.329300  0.904600  0.118200  1.0  -0.6057
  O  O1277  1  0.607400  0.490900  0.168900  1.0  -0.5412
  O  O1278  1  0.672400  0.497500  0.194500  1.0  -0.5793
  O  O1279  1  0.649700  0.574000  0.003800  1.0  -0.4911
  O  O1280  1  0.631000  0.522300  0.980700  1.0  -0.5229
  O  O1281  1  0.589600  0.446700  0.053600  1.0  -0.5149
  O  O1282  1  0.538600  0.444700  0.099900  1.0  -0.5384
  O  O1283  1  0.630400  0.649700  0.100600  1.0  -0.5155
  O  O1284  1  0.670700  0.595400  0.118200  1.0  -0.6061
  O  O1285  1  0.107400  0.990900  0.668900  1.0  -0.5412
  O  O1286  1  0.172400  0.997500  0.694500  1.0  -0.5793
  O  O1287  1  0.149700  0.074000  0.503800  1.0  -0.4911
  O  O1288  1  0.131000  0.022300  0.480700  1.0  -0.5229
  O  O1289  1  0.089600  0.946700  0.553600  1.0  -0.5149
  O  O1290  1  0.038600  0.944700  0.599900  1.0  -0.5384
  O  O1291  1  0.130400  0.149700  0.600600  1.0  -0.5155
  O  O1292  1  0.170700  0.095400  0.618200  1.0  -0.6061
  O  O1293  1  0.392600  0.990900  0.331100  1.0  -0.5404
  O  O1294  1  0.327600  0.997500  0.305500  1.0  -0.5764
  O  O1295  1  0.350300  0.074000  0.496200  1.0  -0.4922
  O  O1296  1  0.369000  0.022300  0.519300  1.0  -0.5227
  O  O1297  1  0.410400  0.946700  0.446400  1.0  -0.5167
  O  O1298  1  0.461400  0.944700  0.400100  1.0  -0.5377
  O  O1299  1  0.369600  0.149700  0.399400  1.0  -0.5152
  O  O1300  1  0.329300  0.095400  0.381800  1.0  -0.6068
  O  O1301  1  0.892600  0.490900  0.831100  1.0  -0.5404
  O  O1302  1  0.827600  0.497500  0.805500  1.0  -0.5764
  O  O1303  1  0.850300  0.574000  0.996200  1.0  -0.4922
  O  O1304  1  0.869000  0.522300  0.019300  1.0  -0.5227
  O  O1305  1  0.910400  0.446700  0.946400  1.0  -0.5167
  O  O1306  1  0.961400  0.444700  0.900100  1.0  -0.5377
  O  O1307  1  0.869600  0.649700  0.899400  1.0  -0.5152
  O  O1308  1  0.829300  0.595400  0.881800  1.0  -0.6068
  O  O1309  1  0.357400  0.081100  0.259100  1.0  -0.5413
  O  O1310  1  0.422400  0.055500  0.252500  1.0  -0.5755
  O  O1311  1  0.399700  0.246200  0.176000  1.0  -0.4918
  O  O1312  1  0.381000  0.269300  0.227700  1.0  -0.5206
  O  O1313  1  0.339600  0.196400  0.303300  1.0  -0.512
  O  O1314  1  0.288600  0.150100  0.305300  1.0  -0.5373
  O  O1315  1  0.380400  0.149400  0.100300  1.0  -0.5203
  O  O1316  1  0.420700  0.131800  0.154600  1.0  -0.609
  O  O1317  1  0.857400  0.581100  0.759100  1.0  -0.5413
  O  O1318  1  0.922400  0.555500  0.752500  1.0  -0.5755
  O  O1319  1  0.899700  0.746200  0.676000  1.0  -0.4918
  O  O1320  1  0.881000  0.769300  0.727700  1.0  -0.5206
  O  O1321  1  0.839600  0.696400  0.803300  1.0  -0.512
  O  O1322  1  0.788600  0.650100  0.805300  1.0  -0.5373
  O  O1323  1  0.880400  0.649400  0.600300  1.0  -0.5203
  O  O1324  1  0.920700  0.631800  0.654600  1.0  -0.609
  O  O1325  1  0.142600  0.918900  0.759100  1.0  -0.5392
  O  O1326  1  0.077600  0.944500  0.752500  1.0  -0.5763
  O  O1327  1  0.100300  0.753800  0.676000  1.0  -0.4914
  O  O1328  1  0.119000  0.730700  0.727700  1.0  -0.519
  O  O1329  1  0.160400  0.803600  0.803300  1.0  -0.5124
  O  O1330  1  0.211400  0.849900  0.805300  1.0  -0.5375
  O  O1331  1  0.119600  0.850600  0.600300  1.0  -0.5197
  O  O1332  1  0.079300  0.868200  0.654600  1.0  -0.6088
  O  O1333  1  0.642600  0.418900  0.259100  1.0  -0.5392
  O  O1334  1  0.577600  0.444500  0.252500  1.0  -0.5763
  O  O1335  1  0.600300  0.253800  0.176000  1.0  -0.4914
  O  O1336  1  0.619000  0.230700  0.227700  1.0  -0.519
  O  O1337  1  0.660400  0.303600  0.303300  1.0  -0.5124
  O  O1338  1  0.711400  0.349900  0.305300  1.0  -0.5375
  O  O1339  1  0.619600  0.350600  0.100300  1.0  -0.5197
  O  O1340  1  0.579300  0.368200  0.154600  1.0  -0.6088
  O  O1341  1  0.857400  0.418900  0.740900  1.0  -0.5412
  O  O1342  1  0.922400  0.444500  0.747500  1.0  -0.574
  O  O1343  1  0.899700  0.253800  0.824000  1.0  -0.4925
  O  O1344  1  0.881000  0.230700  0.772300  1.0  -0.5193
  O  O1345  1  0.839600  0.303600  0.696700  1.0  -0.5105
  O  O1346  1  0.788600  0.349900  0.694700  1.0  -0.5379
  O  O1347  1  0.880400  0.350600  0.899700  1.0  -0.5213
  O  O1348  1  0.920700  0.368200  0.845400  1.0  -0.6064
  O  O1349  1  0.357400  0.918900  0.240900  1.0  -0.5412
  O  O1350  1  0.422400  0.944500  0.247500  1.0  -0.574
  O  O1351  1  0.399700  0.753800  0.324000  1.0  -0.4925
  O  O1352  1  0.381000  0.730700  0.272300  1.0  -0.5193
  O  O1353  1  0.339600  0.803600  0.196700  1.0  -0.5105
  O  O1354  1  0.288600  0.849900  0.194700  1.0  -0.5379
  O  O1355  1  0.380400  0.850600  0.399700  1.0  -0.5213
  O  O1356  1  0.420700  0.868200  0.345400  1.0  -0.6064
  O  O1357  1  0.642600  0.581100  0.240900  1.0  -0.5399
  O  O1358  1  0.577600  0.555500  0.247500  1.0  -0.5738
  O  O1359  1  0.600300  0.746200  0.324000  1.0  -0.494
  O  O1360  1  0.619000  0.769300  0.272300  1.0  -0.5215
  O  O1361  1  0.660400  0.696400  0.196700  1.0  -0.5116
  O  O1362  1  0.711400  0.650100  0.194700  1.0  -0.5368
  O  O1363  1  0.619600  0.649400  0.399700  1.0  -0.5199
  O  O1364  1  0.579300  0.631800  0.345400  1.0  -0.6086
  O  O1365  1  0.142600  0.081100  0.740900  1.0  -0.5399
  O  O1366  1  0.077600  0.055500  0.747500  1.0  -0.5738
  O  O1367  1  0.100300  0.246200  0.824000  1.0  -0.494
  O  O1368  1  0.119000  0.269300  0.772300  1.0  -0.5215
  O  O1369  1  0.160400  0.196400  0.696700  1.0  -0.5116
  O  O1370  1  0.211400  0.150100  0.694700  1.0  -0.5368
  O  O1371  1  0.119600  0.149400  0.899700  1.0  -0.5199
  O  O1372  1  0.079300  0.131800  0.845400  1.0  -0.6086
  O  O1373  1  0.081100  0.259100  0.357400  1.0  -0.5374
  O  O1374  1  0.055500  0.252500  0.422400  1.0  -0.5829
  O  O1375  1  0.246200  0.176000  0.399700  1.0  -0.4915
  O  O1376  1  0.269300  0.227700  0.381000  1.0  -0.5207
  O  O1377  1  0.196400  0.303300  0.339600  1.0  -0.5145
  O  O1378  1  0.150100  0.305300  0.288600  1.0  -0.5371
  O  O1379  1  0.149400  0.100300  0.380400  1.0  -0.5156
  O  O1380  1  0.131800  0.154600  0.420700  1.0  -0.6073
  O  O1381  1  0.581100  0.759100  0.857400  1.0  -0.5374
  O  O1382  1  0.555500  0.752500  0.922400  1.0  -0.5829
  O  O1383  1  0.746200  0.676000  0.899700  1.0  -0.4915
  O  O1384  1  0.769300  0.727700  0.881000  1.0  -0.5207
  O  O1385  1  0.696400  0.803300  0.839600  1.0  -0.5145
  O  O1386  1  0.650100  0.805300  0.788600  1.0  -0.5371
  O  O1387  1  0.649400  0.600300  0.880400  1.0  -0.5156
  O  O1388  1  0.631800  0.654600  0.920700  1.0  -0.6073
  O  O1389  1  0.918900  0.759100  0.142600  1.0  -0.5381
  O  O1390  1  0.944500  0.752500  0.077600  1.0  -0.5788
  O  O1391  1  0.753800  0.676000  0.100300  1.0  -0.4922
  O  O1392  1  0.730700  0.727700  0.119000  1.0  -0.5218
  O  O1393  1  0.803600  0.803300  0.160400  1.0  -0.5134
  O  O1394  1  0.849900  0.805300  0.211400  1.0  -0.5389
  O  O1395  1  0.850600  0.600300  0.119600  1.0  -0.5159
  O  O1396  1  0.868200  0.654600  0.079300  1.0  -0.6073
  O  O1397  1  0.418900  0.259100  0.642600  1.0  -0.5381
  O  O1398  1  0.444500  0.252500  0.577600  1.0  -0.5788
  O  O1399  1  0.253800  0.176000  0.600300  1.0  -0.4922
  O  O1400  1  0.230700  0.227700  0.619000  1.0  -0.5218
  O  O1401  1  0.303600  0.303300  0.660400  1.0  -0.5134
  O  O1402  1  0.349900  0.305300  0.711400  1.0  -0.5389
  O  O1403  1  0.350600  0.100300  0.619600  1.0  -0.5159
  O  O1404  1  0.368200  0.154600  0.579300  1.0  -0.6073
  O  O1405  1  0.418900  0.740900  0.857400  1.0  -0.5388
  O  O1406  1  0.444500  0.747500  0.922400  1.0  -0.5826
  O  O1407  1  0.253800  0.824000  0.899700  1.0  -0.4929
  O  O1408  1  0.230700  0.772300  0.881000  1.0  -0.5222
  O  O1409  1  0.303600  0.696700  0.839600  1.0  -0.5143
  O  O1410  1  0.349900  0.694700  0.788600  1.0  -0.5379
  O  O1411  1  0.350600  0.899700  0.880400  1.0  -0.5165
  O  O1412  1  0.368200  0.845400  0.920700  1.0  -0.6086
  O  O1413  1  0.918900  0.240900  0.357400  1.0  -0.5388
  O  O1414  1  0.944500  0.247500  0.422400  1.0  -0.5826
  O  O1415  1  0.753800  0.324000  0.399700  1.0  -0.4929
  O  O1416  1  0.730700  0.272300  0.381000  1.0  -0.5222
  O  O1417  1  0.803600  0.196700  0.339600  1.0  -0.5143
  O  O1418  1  0.849900  0.194700  0.288600  1.0  -0.5379
  O  O1419  1  0.850600  0.399700  0.380400  1.0  -0.5165
  O  O1420  1  0.868200  0.345400  0.420700  1.0  -0.6086
  O  O1421  1  0.581100  0.240900  0.642600  1.0  -0.5385
  O  O1422  1  0.555500  0.247500  0.577600  1.0  -0.5794
  O  O1423  1  0.746200  0.324000  0.600300  1.0  -0.4911
  O  O1424  1  0.769300  0.272300  0.619000  1.0  -0.5214
  O  O1425  1  0.696400  0.196700  0.660400  1.0  -0.5141
  O  O1426  1  0.650100  0.194700  0.711400  1.0  -0.5384
  O  O1427  1  0.649400  0.399700  0.619600  1.0  -0.5158
  O  O1428  1  0.631800  0.345400  0.579300  1.0  -0.607
  O  O1429  1  0.081100  0.740900  0.142600  1.0  -0.5385
  O  O1430  1  0.055500  0.747500  0.077600  1.0  -0.5794
  O  O1431  1  0.246200  0.824000  0.100300  1.0  -0.4911
  O  O1432  1  0.269300  0.772300  0.119000  1.0  -0.5214
  O  O1433  1  0.196400  0.696700  0.160400  1.0  -0.5141
  O  O1434  1  0.150100  0.694700  0.211400  1.0  -0.5384
  O  O1435  1  0.149400  0.899700  0.119600  1.0  -0.5158
  O  O1436  1  0.131800  0.845400  0.079300  1.0  -0.607
  O  O1437  1  0.259100  0.357400  0.081100  1.0  -0.5378
  O  O1438  1  0.252500  0.422400  0.055500  1.0  -0.5803
  O  O1439  1  0.176000  0.399700  0.246200  1.0  -0.4948
  O  O1440  1  0.227700  0.381000  0.269300  1.0  -0.5234
  O  O1441  1  0.303300  0.339600  0.196400  1.0  -0.5207
  O  O1442  1  0.305300  0.288600  0.150100  1.0  -0.538
  O  O1443  1  0.100300  0.380400  0.149400  1.0  -0.5236
  O  O1444  1  0.154600  0.420700  0.131800  1.0  -0.603
  O  O1445  1  0.759100  0.857400  0.581100  1.0  -0.5378
  O  O1446  1  0.752500  0.922400  0.555500  1.0  -0.5803
  O  O1447  1  0.676000  0.899700  0.746200  1.0  -0.4948
  O  O1448  1  0.727700  0.881000  0.769300  1.0  -0.5234
  O  O1449  1  0.803300  0.839600  0.696400  1.0  -0.5207
  O  O1450  1  0.805300  0.788600  0.650100  1.0  -0.538
  O  O1451  1  0.600300  0.880400  0.649400  1.0  -0.5236
  O  O1452  1  0.654600  0.920700  0.631800  1.0  -0.603
  O  O1453  1  0.759100  0.142600  0.918900  1.0  -0.5351
  O  O1454  1  0.752500  0.077600  0.944500  1.0  -0.5821
  O  O1455  1  0.676000  0.100300  0.753800  1.0  -0.4933
  O  O1456  1  0.727700  0.119000  0.730700  1.0  -0.5238
  O  O1457  1  0.803300  0.160400  0.803600  1.0  -0.518
  O  O1458  1  0.805300  0.211400  0.849900  1.0  -0.5395
  O  O1459  1  0.600300  0.119600  0.850600  1.0  -0.5232
  O  O1460  1  0.654600  0.079300  0.868200  1.0  -0.6027
  O  O1461  1  0.259100  0.642600  0.418900  1.0  -0.5351
  O  O1462  1  0.252500  0.577600  0.444500  1.0  -0.5821
  O  O1463  1  0.176000  0.600300  0.253800  1.0  -0.4933
  O  O1464  1  0.227700  0.619000  0.230700  1.0  -0.5238
  O  O1465  1  0.303300  0.660400  0.303600  1.0  -0.518
  O  O1466  1  0.305300  0.711400  0.349900  1.0  -0.5395
  O  O1467  1  0.100300  0.619600  0.350600  1.0  -0.5232
  O  O1468  1  0.154600  0.579300  0.368200  1.0  -0.6027
  O  O1469  1  0.740900  0.857400  0.418900  1.0  -0.5354
  O  O1470  1  0.747500  0.922400  0.444500  1.0  -0.5796
  O  O1471  1  0.824000  0.899700  0.253800  1.0  -0.4918
  O  O1472  1  0.772300  0.881000  0.230700  1.0  -0.5231
  O  O1473  1  0.696700  0.839600  0.303600  1.0  -0.5184
  O  O1474  1  0.694700  0.788600  0.349900  1.0  -0.5379
  O  O1475  1  0.899700  0.880400  0.350600  1.0  -0.5217
  O  O1476  1  0.845400  0.920700  0.368200  1.0  -0.6036
  O  O1477  1  0.240900  0.357400  0.918900  1.0  -0.5354
  O  O1478  1  0.247500  0.422400  0.944500  1.0  -0.5796
  O  O1479  1  0.324000  0.399700  0.753800  1.0  -0.4918
  O  O1480  1  0.272300  0.381000  0.730700  1.0  -0.5231
  O  O1481  1  0.196700  0.339600  0.803600  1.0  -0.5184
  O  O1482  1  0.194700  0.288600  0.849900  1.0  -0.5379
  O  O1483  1  0.399700  0.380400  0.850600  1.0  -0.5217
  O  O1484  1  0.345400  0.420700  0.868200  1.0  -0.6036
  O  O1485  1  0.240900  0.642600  0.581100  1.0  -0.5341
  O  O1486  1  0.247500  0.577600  0.555500  1.0  -0.5774
  O  O1487  1  0.324000  0.600300  0.746200  1.0  -0.4923
  O  O1488  1  0.272300  0.619000  0.769300  1.0  -0.5231
  O  O1489  1  0.196700  0.660400  0.696400  1.0  -0.5173
  O  O1490  1  0.194700  0.711400  0.650100  1.0  -0.5383
  O  O1491  1  0.399700  0.619600  0.649400  1.0  -0.5211
  O  O1492  1  0.345400  0.579300  0.631800  1.0  -0.6039
  O  O1493  1  0.740900  0.142600  0.081100  1.0  -0.5341
  O  O1494  1  0.747500  0.077600  0.055500  1.0  -0.5774
  O  O1495  1  0.824000  0.100300  0.246200  1.0  -0.4923
  O  O1496  1  0.772300  0.119000  0.269300  1.0  -0.5231
  O  O1497  1  0.696700  0.160400  0.196400  1.0  -0.5173
  O  O1498  1  0.694700  0.211400  0.150100  1.0  -0.5383
  O  O1499  1  0.899700  0.119600  0.149400  1.0  -0.5211
  O  O1500  1  0.845400  0.079300  0.131800  1.0  -0.6039
