# generated using pymatgen
data_Zn12H148C243O56
_symmetry_space_group_name_H-M   'P 1'
_cell_length_a   31.03680000
_cell_length_b   31.03680000
_cell_length_c   31.03680000
_cell_angle_alpha   108.28390000
_cell_angle_beta   108.28390000
_cell_angle_gamma   111.87290000
_symmetry_Int_Tables_number   1
_chemical_formula_structural   Zn12H148C243O56
_chemical_formula_sum   'Zn24 H296 C486 O112'
_cell_volume   22984.41845668
_cell_formula_units_Z   2
loop_
 _symmetry_equiv_pos_site_id
 _symmetry_equiv_pos_as_xyz
  1  'x, y, z'
loop_
 _atom_site_type_symbol
 _atom_site_label
 _atom_site_symmetry_multiplicity
 _atom_site_fract_x
 _atom_site_fract_y
 _atom_site_fract_z
 _atom_site_occupancy
 _atom_site_charge
  Zn  Zn1  1  0.585740  0.889040  0.581360  1.0  1.0184
  Zn  Zn2  1  0.636790  0.867990  0.505760  1.0  1.0169
  Zn  Zn3  1  0.642690  0.814750  0.581580  1.0  1.086
  Zn  Zn4  1  0.307680  0.004380  0.418640  1.0  1.0183
  Zn  Zn5  1  0.362230  0.131030  0.494240  1.0  1.0153
  Zn  Zn6  1  0.233170  0.061110  0.418420  1.0  1.0856
  Zn  Zn7  1  0.110960  0.692320  0.696700  1.0  1.0208
  Zn  Zn8  1  0.132010  0.637770  0.768800  1.0  1.016
  Zn  Zn9  1  0.185250  0.766830  0.827940  1.0  1.0886
  Zn  Zn10  1  0.995620  0.414260  0.303300  1.0  1.0208
  Zn  Zn11  1  0.868970  0.363210  0.231200  1.0  1.0139
  Zn  Zn12  1  0.938890  0.357310  0.172060  1.0  1.0881
  Zn  Zn13  1  0.442320  0.360960  0.196700  1.0  1.0229
  Zn  Zn14  1  0.387770  0.382010  0.268800  1.0  1.0154
  Zn  Zn15  1  0.516830  0.435250  0.327940  1.0  1.0881
  Zn  Zn16  1  0.164260  0.245620  0.803300  1.0  1.019
  Zn  Zn17  1  0.113210  0.118970  0.731200  1.0  1.0155
  Zn  Zn18  1  0.107310  0.188890  0.672060  1.0  1.0877
  Zn  Zn19  1  0.754380  0.557680  0.918640  1.0  1.0179
  Zn  Zn20  1  0.881030  0.612230  0.994240  1.0  1.0159
  Zn  Zn21  1  0.811110  0.483170  0.918420  1.0  1.0854
  Zn  Zn22  1  0.639040  0.835740  0.081360  1.0  1.0181
  Zn  Zn23  1  0.617990  0.886790  0.005760  1.0  1.0179
  Zn  Zn24  1  0.564750  0.892690  0.081580  1.0  1.0844
  H  H25  1  0.825300  0.381000  0.681500  1.0  0.1103
  H  H26  1  0.844100  0.448300  0.757200  1.0  0.1113
  H  H27  1  0.743000  0.339700  0.776500  1.0  0.1065
  H  H28  1  0.724000  0.272200  0.700600  1.0  0.1183
  H  H29  1  0.726500  0.166000  0.513300  1.0  0.1095
  H  H30  1  0.775000  0.319500  0.597300  1.0  0.1075
  H  H31  1  0.744700  0.221500  0.657400  1.0  0.1099
  H  H32  1  0.716300  0.023600  0.522700  1.0  0.1064
  H  H33  1  0.750900  0.110700  0.538400  1.0  0.1086
  H  H34  1  0.673700  0.133300  0.617600  1.0  0.1158
  H  H35  1  0.639100  0.046300  0.602000  1.0  0.1093
  H  H36  1  0.628700  0.304100  0.932000  1.0  0.115
  H  H37  1  0.703400  0.377500  0.949100  1.0  0.1103
  H  H38  1  0.609300  0.409200  0.858300  1.0  0.1094
  H  H39  1  0.534700  0.335800  0.841300  1.0  0.1157
  H  H40  1  0.561500  0.221200  0.880900  1.0  0.1095
  H  H41  1  0.475200  0.289900  0.861300  1.0  0.1177
  H  H42  1  0.407400  0.142000  0.842000  1.0  0.112
  H  H43  1  0.668100  0.143100  0.878800  1.0  0.1165
  H  H44  1  0.509700  0.072200  0.792300  1.0  0.1079
  H  H45  1  0.585900  0.187800  0.940700  1.0  0.1156
  H  H46  1  0.526800  0.982700  0.660100  1.0  0.0962
  H  H47  1  0.654500  0.065100  0.825800  1.0  0.124
  H  H48  1  0.653400  0.008500  0.758300  1.0  0.0727
  H  H49  1  0.255800  0.130100  0.751300  1.0  0.0995
  H  H50  1  0.337300  0.136500  0.777400  1.0  0.1061
  H  H51  1  0.405800  0.286700  0.882900  1.0  0.1076
  H  H52  1  0.324200  0.277600  0.862000  1.0  0.1091
  H  H53  1  0.811600  0.287700  0.021300  1.0  0.1024
  H  H54  1  0.650800  0.198800  0.012800  1.0  0.1084
  H  H55  1  0.727600  0.253600  0.092000  1.0  0.0986
  H  H56  1  0.736200  0.234700  0.942900  1.0  0.1112
  H  H57  1  0.613580  0.819590  0.399760  1.0  0.1837
  H  H58  1  0.522000  0.041700  0.727500  1.0  0.1134
  H  H59  1  0.832600  0.509500  0.859900  1.0  0.3278
  H  H60  1  0.676110  0.909010  0.610800  1.0  0.1967
  H  H61  1  0.117930  0.570920  0.790400  1.0  0.2361
  H  H62  1  0.699500  0.143800  0.318500  1.0  0.1113
  H  H63  1  0.691100  0.086900  0.242800  1.0  0.1106
  H  H64  1  0.563200  0.966500  0.223500  1.0  0.1074
  H  H65  1  0.571600  0.023400  0.299400  1.0  0.1202
  H  H66  1  0.652700  0.213200  0.486700  1.0  0.1109
  H  H67  1  0.722200  0.177700  0.402700  1.0  0.105
  H  H68  1  0.564100  0.087300  0.342600  1.0  0.1082
  H  H69  1  0.500900  0.193600  0.477300  1.0  0.1071
  H  H70  1  0.572300  0.212500  0.461600  1.0  0.107
  H  H71  1  0.515700  0.056100  0.382400  1.0  0.1153
  H  H72  1  0.444300  0.037100  0.398000  1.0  0.1079
  H  H73  1  0.372100  0.696700  0.068000  1.0  0.1157
  H  H74  1  0.428400  0.754300  0.050900  1.0  0.1097
  H  H75  1  0.550900  0.751000  0.141700  1.0  0.1093
  H  H76  1  0.494500  0.693400  0.158700  1.0  0.1166
  H  H77  1  0.340300  0.680600  0.119100  1.0  0.109
  H  H78  1  0.428600  0.613900  0.138700  1.0  0.1192
  H  H79  1  0.300000  0.565400  0.158000  1.0  0.1131
  H  H80  1  0.264300  0.789300  0.121200  1.0  0.1149
  H  H81  1  0.279900  0.717400  0.207700  1.0  0.1099
  H  H82  1  0.247100  0.645200  0.059300  1.0  0.1154
  H  H83  1  0.322600  0.866700  0.339900  1.0  0.0944
  H  H84  1  0.239300  0.828700  0.174200  1.0  0.1228
  H  H85  1  0.250200  0.895100  0.241700  1.0  0.0763
  H  H86  1  0.378800  0.504500  0.248700  1.0  0.0991
  H  H87  1  0.359100  0.559900  0.222600  1.0  0.1067
  H  H88  1  0.403800  0.522900  0.117100  1.0  0.1076
  H  H89  1  0.415600  0.462200  0.138000  1.0  0.1083
  H  H90  1  0.266400  0.790300  0.978700  1.0  0.102
  H  H91  1  0.186000  0.638000  0.987200  1.0  0.1086
  H  H92  1  0.161600  0.635600  0.908000  1.0  0.0988
  H  H93  1  0.291800  0.793300  0.057100  1.0  0.1118
  H  H94  1  0.419830  0.213820  0.600240  1.0  0.1867
  H  H95  1  0.314200  0.794500  0.272500  1.0  0.1118
  H  H96  1  0.649600  0.972700  0.140100  1.0  0.3287
  H  H97  1  0.298210  0.065310  0.389200  1.0  0.1996
  H  H98  1  0.780530  0.327530  0.209600  1.0  0.2378
  H  H99  1  0.619000  0.300500  0.444300  1.0  0.1082
  H  H100  1  0.551700  0.308900  0.395800  1.0  0.111
  H  H101  1  0.660300  0.436800  0.403300  1.0  0.1067
  H  H102  1  0.727800  0.428400  0.451800  1.0  0.1196
  H  H103  1  0.834000  0.347300  0.560500  1.0  0.1091
  H  H104  1  0.680500  0.277800  0.455500  1.0  0.1075
  H  H105  1  0.778500  0.435900  0.523200  1.0  0.1083
  H  H106  1  0.976400  0.499100  0.692700  1.0  0.1068
  H  H107  1  0.889300  0.427700  0.640200  1.0  0.1086
  H  H108  1  0.866700  0.484300  0.540400  1.0  0.1143
  H  H109  1  0.953700  0.555700  0.592800  1.0  0.1082
  H  H110  1  0.695900  0.627900  0.324600  1.0  0.1135
  H  H111  1  0.622500  0.571600  0.325900  1.0  0.1097
  H  H112  1  0.590800  0.449100  0.200100  1.0  0.109
  H  H113  1  0.664200  0.505500  0.198900  1.0  0.1178
  H  H114  1  0.778800  0.659700  0.340300  1.0  0.1119
  H  H115  1  0.710100  0.571400  0.185300  1.0  0.1169
  H  H116  1  0.858000  0.700000  0.265400  1.0  0.113
  H  H117  1  0.856900  0.735700  0.525000  1.0  0.1157
  H  H118  1  0.927800  0.720100  0.437500  1.0  0.1097
  H  H119  1  0.812200  0.752900  0.398100  1.0  0.1151
  H  H120  1  0.017300  0.677400  0.544100  1.0  0.096
  H  H121  1  0.934900  0.760700  0.589400  1.0  0.1237
  H  H122  1  0.991500  0.749800  0.644900  1.0  0.0736
  H  H123  1  0.869900  0.621200  0.125700  1.0  0.0984
  H  H124  1  0.863500  0.640900  0.200800  1.0  0.1057
  H  H125  1  0.713300  0.596200  0.119100  1.0  0.1071
  H  H126  1  0.722400  0.584400  0.046600  1.0  0.1076
  H  H127  1  0.712300  0.733600  0.523900  1.0  0.1021
  H  H128  1  0.801200  0.814000  0.452000  1.0  0.1065
  H  H129  1  0.746400  0.838400  0.474000  1.0  0.0989
  H  H130  1  0.765300  0.708200  0.501500  1.0  0.1127
  H  H131  1  0.180410  0.580170  0.793990  1.0  0.1843
  H  H132  1  0.958300  0.685800  0.480300  1.0  0.1111
  H  H133  1  0.490500  0.350400  0.323100  1.0  0.3281
  H  H134  1  0.090990  0.701790  0.767100  1.0  0.2
  H  H135  1  0.429080  0.219470  0.547000  1.0  0.2363
  H  H136  1  0.856200  0.174700  0.555700  1.0  0.1099
  H  H137  1  0.913100  0.155900  0.604200  1.0  0.1108
  H  H138  1  0.033500  0.257000  0.596700  1.0  0.1076
  H  H139  1  0.976600  0.276000  0.548200  1.0  0.1195
  H  H140  1  0.786800  0.273500  0.439500  1.0  0.11
  H  H141  1  0.822300  0.225000  0.544500  1.0  0.1084
  H  H142  1  0.912700  0.255300  0.476800  1.0  0.1086
  H  H143  1  0.806400  0.283700  0.307300  1.0  0.1066
  H  H144  1  0.787500  0.249100  0.359800  1.0  0.1091
  H  H145  1  0.943900  0.326300  0.459600  1.0  0.1146
  H  H146  1  0.962900  0.360900  0.407200  1.0  0.108
  H  H147  1  0.303300  0.371300  0.675400  1.0  0.1153
  H  H148  1  0.245700  0.296600  0.674100  1.0  0.1102
  H  H149  1  0.249000  0.390700  0.799900  1.0  0.1088
  H  H150  1  0.306600  0.465300  0.801100  1.0  0.117
  H  H151  1  0.319400  0.438500  0.659700  1.0  0.1099
  H  H152  1  0.386100  0.524800  0.814700  1.0  0.1175
  H  H153  1  0.434600  0.592600  0.734600  1.0  0.112
  H  H154  1  0.210700  0.331900  0.475000  1.0  0.1142
  H  H155  1  0.282600  0.490300  0.562500  1.0  0.1087
  H  H156  1  0.354800  0.414100  0.601900  1.0  0.1161
  H  H157  1  0.133300  0.473200  0.455900  1.0  0.0947
  H  H158  1  0.171300  0.345500  0.410600  1.0  0.1229
  H  H159  1  0.104900  0.346600  0.355100  1.0  0.0741
  H  H160  1  0.495500  0.744200  0.874300  1.0  0.0989
  H  H161  1  0.440100  0.662700  0.799200  1.0  0.1058
  H  H162  1  0.477100  0.594200  0.880900  1.0  0.1075
  H  H163  1  0.537800  0.675800  0.953400  1.0  0.1084
  H  H164  1  0.209700  0.188400  0.476100  1.0  0.1026
  H  H165  1  0.362000  0.349200  0.548000  1.0  0.1083
  H  H166  1  0.364400  0.272400  0.526000  1.0  0.0963
  H  H167  1  0.206700  0.263800  0.498500  1.0  0.1127
  H  H168  1  0.786180  0.386420  0.206010  1.0  0.184
  H  H169  1  0.205500  0.478000  0.519700  1.0  0.1096
  H  H170  1  0.027300  0.167400  0.676900  1.0  0.33
  H  H171  1  0.934690  0.323890  0.232900  1.0  0.1975
  H  H172  1  0.672470  0.882070  0.453000  1.0  0.2372
  H  H173  1  0.050500  0.869000  0.944300  1.0  0.1095
  H  H174  1  0.058900  0.801700  0.895800  1.0  0.1116
  H  H175  1  0.186800  0.910300  0.903300  1.0  0.1072
  H  H176  1  0.178400  0.977800  0.951800  1.0  0.1188
  H  H177  1  0.097300  0.084000  0.060500  1.0  0.1097
  H  H178  1  0.027800  0.930500  0.955500  1.0  0.1079
  H  H179  1  0.185900  0.028500  0.023200  1.0  0.1087
  H  H180  1  0.249100  0.226400  0.192700  1.0  0.1073
  H  H181  1  0.177700  0.139300  0.140200  1.0  0.1089
  H  H182  1  0.234300  0.116700  0.040400  1.0  0.115
  H  H183  1  0.305700  0.203700  0.092800  1.0  0.1091
  H  H184  1  0.377900  0.945900  0.824600  1.0  0.115
  H  H185  1  0.321600  0.872500  0.825900  1.0  0.1098
  H  H186  1  0.199100  0.840800  0.700100  1.0  0.1092
  H  H187  1  0.255500  0.914200  0.698900  1.0  0.1163
  H  H188  1  0.409700  0.028800  0.840300  1.0  0.112
  H  H189  1  0.321400  0.960100  0.685300  1.0  0.117
  H  H190  1  0.450000  0.108000  0.765400  1.0  0.113
  H  H191  1  0.485700  0.106900  0.025000  1.0  0.1161
  H  H192  1  0.470100  0.177800  0.937500  1.0  0.1087
  H  H193  1  0.502900  0.062200  0.898100  1.0  0.1145
  H  H194  1  0.427400  0.267300  0.044100  1.0  0.0968
  H  H195  1  0.510700  0.184900  0.089400  1.0  0.1241
  H  H196  1  0.499800  0.241500  0.144900  1.0  0.073
  H  H197  1  0.371200  0.119900  0.625700  1.0  0.0997
  H  H198  1  0.390900  0.113500  0.700800  1.0  0.1049
  H  H199  1  0.346200  0.963300  0.619100  1.0  0.1071
  H  H200  1  0.334400  0.972400  0.546600  1.0  0.107
  H  H201  1  0.483600  0.962300  0.023900  1.0  0.102
  H  H202  1  0.564000  0.051200  0.952000  1.0  0.1078
  H  H203  1  0.588400  0.996400  0.974000  1.0  0.0981
  H  H204  1  0.458200  0.015300  0.001500  1.0  0.1126
  H  H205  1  0.330170  0.430410  0.293990  1.0  0.1856
  H  H206  1  0.435800  0.208300  0.980300  1.0  0.1118
  H  H207  1  0.100400  0.740500  0.823100  1.0  0.3314
  H  H208  1  0.451790  0.340990  0.267100  1.0  0.1958
  H  H209  1  0.969470  0.679080  0.047000  1.0  0.237
  H  H210  1  0.924700  0.106200  0.055700  1.0  0.1097
  H  H211  1  0.905900  0.163100  0.104200  1.0  0.1107
  H  H212  1  0.007000  0.283500  0.096700  1.0  0.1079
  H  H213  1  0.026000  0.226600  0.048200  1.0  0.1205
  H  H214  1  0.023500  0.036800  0.939500  1.0  0.1101
  H  H215  1  0.975000  0.072300  0.044500  1.0  0.1083
  H  H216  1  0.005300  0.162700  0.976800  1.0  0.1067
  H  H217  1  0.033700  0.056400  0.807300  1.0  0.106
  H  H218  1  0.999100  0.037500  0.859800  1.0  0.1092
  H  H219  1  0.076300  0.193900  0.959600  1.0  0.1138
  H  H220  1  0.110900  0.212900  0.907200  1.0  0.108
  H  H221  1  0.121300  0.553300  0.175400  1.0  0.115
  H  H222  1  0.046600  0.495700  0.174100  1.0  0.1098
  H  H223  1  0.140700  0.499000  0.299900  1.0  0.1087
  H  H224  1  0.215300  0.556600  0.301100  1.0  0.1164
  H  H225  1  0.188500  0.569400  0.159700  1.0  0.1098
  H  H226  1  0.274800  0.636100  0.314700  1.0  0.1177
  H  H227  1  0.342600  0.684600  0.234600  1.0  0.1117
  H  H228  1  0.081900  0.460700  0.975000  1.0  0.1146
  H  H229  1  0.240300  0.532600  0.062500  1.0  0.1075
  H  H230  1  0.164100  0.604800  0.101900  1.0  0.115
  H  H231  1  0.223200  0.383300  0.955900  1.0  0.0938
  H  H232  1  0.095500  0.421300  0.910600  1.0  0.1227
  H  H233  1  0.096600  0.354900  0.855100  1.0  0.0751
  H  H234  1  0.494200  0.745500  0.374300  1.0  0.0988
  H  H235  1  0.412700  0.690100  0.299200  1.0  0.1065
  H  H236  1  0.344200  0.727100  0.380900  1.0  0.1081
  H  H237  1  0.425800  0.787800  0.453400  1.0  0.1078
  H  H238  1  0.938400  0.459700  0.976100  1.0  0.1028
  H  H239  1  0.099200  0.612000  0.048000  1.0  0.1079
  H  H240  1  0.022400  0.614400  0.026000  1.0  0.0992
  H  H241  1  0.013800  0.456700  0.998500  1.0  0.1122
  H  H242  1  0.136420  0.036180  0.706010  1.0  0.184
  H  H243  1  0.228000  0.455500  0.019700  1.0  0.1097
  H  H244  1  0.917400  0.277300  0.176900  1.0  0.3283
  H  H245  1  0.073890  0.184690  0.732900  1.0  0.1995
  H  H246  1  0.632070  0.922470  0.953000  1.0  0.2372
  H  H247  1  0.893800  0.949500  0.818500  1.0  0.1111
  H  H248  1  0.836900  0.941100  0.742800  1.0  0.1109
  H  H249  1  0.716500  0.813200  0.723500  1.0  0.1068
  H  H250  1  0.773400  0.821600  0.799400  1.0  0.1198
  H  H251  1  0.963200  0.902700  0.986700  1.0  0.1097
  H  H252  1  0.927700  0.972200  0.902700  1.0  0.1063
  H  H253  1  0.837300  0.814100  0.842600  1.0  0.1095
  H  H254  1  0.943600  0.750900  0.977300  1.0  0.1062
  H  H255  1  0.962500  0.822300  0.961600  1.0  0.1088
  H  H256  1  0.806100  0.765700  0.882400  1.0  0.1154
  H  H257  1  0.787100  0.694300  0.898000  1.0  0.108
  H  H258  1  0.446700  0.622100  0.568000  1.0  0.1154
  H  H259  1  0.504300  0.678400  0.550900  1.0  0.1092
  H  H260  1  0.501000  0.800900  0.641700  1.0  0.1095
  H  H261  1  0.443400  0.744500  0.658700  1.0  0.1178
  H  H262  1  0.430600  0.590300  0.619100  1.0  0.1082
  H  H263  1  0.363900  0.678600  0.638700  1.0  0.1175
  H  H264  1  0.315400  0.550000  0.658000  1.0  0.1125
  H  H265  1  0.539300  0.514300  0.621200  1.0  0.1169
  H  H266  1  0.467400  0.529900  0.707700  1.0  0.1101
  H  H267  1  0.395200  0.497100  0.559300  1.0  0.1151
  H  H268  1  0.616700  0.572600  0.839900  1.0  0.095
  H  H269  1  0.578700  0.489300  0.674200  1.0  0.1231
  H  H270  1  0.645100  0.500200  0.741700  1.0  0.0753
  H  H271  1  0.254500  0.628800  0.748700  1.0  0.0992
  H  H272  1  0.309900  0.609100  0.722600  1.0  0.1067
  H  H273  1  0.272900  0.653800  0.617100  1.0  0.1071
  H  H274  1  0.212200  0.665600  0.638000  1.0  0.1086
  H  H275  1  0.540300  0.516400  0.478700  1.0  0.1025
  H  H276  1  0.388000  0.436000  0.487200  1.0  0.1086
  H  H277  1  0.385600  0.411600  0.408000  1.0  0.0977
  H  H278  1  0.543300  0.541800  0.557100  1.0  0.1125
  H  H279  1  0.963820  0.669830  0.100240  1.0  0.1862
  H  H280  1  0.544500  0.564200  0.772500  1.0  0.1116
  H  H281  1  0.722700  0.899600  0.640100  1.0  0.3258
  H  H282  1  0.815310  0.548210  0.889200  1.0  0.1997
  H  H283  1  0.077530  0.030530  0.709600  1.0  0.235
  H  H284  1  0.131000  0.075300  0.181500  1.0  0.11
  H  H285  1  0.198300  0.094100  0.257200  1.0  0.1109
  H  H286  1  0.089700  0.993000  0.276500  1.0  0.1063
  H  H287  1  0.022200  0.974000  0.200600  1.0  0.1193
  H  H288  1  0.916000  0.976500  0.013300  1.0  0.1086
  H  H289  1  0.069500  0.025000  0.097300  1.0  0.1079
  H  H290  1  0.971500  0.994700  0.157400  1.0  0.1099
  H  H291  1  0.773600  0.966300  0.022700  1.0  0.107
  H  H292  1  0.860700  0.000900  0.038400  1.0  0.1086
  H  H293  1  0.883300  0.923700  0.117600  1.0  0.1154
  H  H294  1  0.796300  0.889100  0.102000  1.0  0.1089
  H  H295  1  0.054100  0.878700  0.432000  1.0  0.1151
  H  H296  1  0.127500  0.953400  0.449100  1.0  0.1108
  H  H297  1  0.159200  0.859300  0.358300  1.0  0.1093
  H  H298  1  0.085800  0.784700  0.341300  1.0  0.1168
  H  H299  1  0.971200  0.811500  0.380900  1.0  0.11
  H  H300  1  0.039900  0.725200  0.361300  1.0  0.1195
  H  H301  1  0.892000  0.657400  0.342000  1.0  0.1137
  H  H302  1  0.893100  0.918100  0.378800  1.0  0.1154
  H  H303  1  0.822200  0.759700  0.292300  1.0  0.1082
  H  H304  1  0.937800  0.835900  0.440700  1.0  0.1151
  H  H305  1  0.732700  0.776800  0.160100  1.0  0.0949
  H  H306  1  0.815100  0.904500  0.325800  1.0  0.1225
  H  H307  1  0.758500  0.903400  0.258300  1.0  0.0759
  H  H308  1  0.880100  0.505800  0.251300  1.0  0.0988
  H  H309  1  0.886500  0.587300  0.277400  1.0  0.1075
  H  H310  1  0.036700  0.655800  0.382900  1.0  0.1084
  H  H311  1  0.027600  0.574200  0.362000  1.0  0.1079
  H  H312  1  0.037700  0.061600  0.521300  1.0  0.1024
  H  H313  1  0.948800  0.900800  0.512800  1.0  0.1091
  H  H314  1  0.003600  0.977600  0.592000  1.0  0.0981
  H  H315  1  0.984700  0.986200  0.442900  1.0  0.1124
  H  H316  1  0.569590  0.863580  0.899760  1.0  0.1836
  H  H317  1  0.791700  0.772000  0.227500  1.0  0.1127
  H  H318  1  0.259500  0.082600  0.359900  1.0  0.3299
  H  H319  1  0.659010  0.926110  0.110800  1.0  0.1962
  H  H320  1  0.320920  0.367930  0.290400  1.0  0.2376
  C  C321  1  0.772800  0.319960  0.683540  1.0  0.0636
  C  C322  1  0.808770  0.372700  0.700490  1.0  -0.1445
  C  C323  1  0.820080  0.413040  0.745900  1.0  -0.0526
  C  C324  1  0.795430  0.400640  0.774370  1.0  -0.1919
  C  C325  1  0.759460  0.347900  0.757420  1.0  -0.0439
  C  C326  1  0.748150  0.307560  0.712010  1.0  -0.1425
  C  C327  1  0.733010  0.185450  0.584580  1.0  0.0564
  C  C328  1  0.735430  0.193940  0.543790  1.0  -0.0722
  C  C329  1  0.751180  0.244160  0.548540  1.0  0.0581
  C  C330  1  0.764510  0.285890  0.594100  1.0  -0.1132
  C  C331  1  0.762100  0.277410  0.634890  1.0  0.0217
  C  C332  1  0.746340  0.227190  0.630130  1.0  -0.1042
  C  C333  1  0.674280  0.026270  0.560790  1.0  -0.1515
  C  C334  1  0.707740  0.045570  0.541730  1.0  -0.0488
  C  C335  1  0.728470  0.097740  0.551110  1.0  -0.1332
  C  C336  1  0.715750  0.130640  0.579570  1.0  0.0382
  C  C337  1  0.682290  0.111360  0.598650  1.0  -0.1143
  C  C338  1  0.661550  0.059180  0.589250  1.0  -0.0473
  C  C339  1  0.574310  0.312700  0.884990  1.0  0.0336
  C  C340  1  0.624850  0.325200  0.917290  1.0  -0.133
  C  C341  1  0.669580  0.369210  0.927510  1.0  -0.0474
  C  C342  1  0.663760  0.400700  0.905420  1.0  -0.1345
  C  C343  1  0.613220  0.388190  0.873130  1.0  -0.0379
  C  C344  1  0.568490  0.344190  0.862900  1.0  -0.0961
  C  C345  1  0.485060  0.174430  0.861470  1.0  0.0533
  C  C346  1  0.529410  0.219800  0.873130  1.0  -0.1196
  C  C347  1  0.525720  0.263070  0.873090  1.0  0.0155
  C  C348  1  0.477670  0.260960  0.861390  1.0  -0.0941
  C  C349  1  0.433330  0.215600  0.849750  1.0  0.0378
  C  C350  1  0.437020  0.172320  0.849780  1.0  -0.0801
  C  C351  1  0.634730  0.171630  0.917520  1.0  0.0433
  C  C352  1  0.635920  0.139610  0.875530  1.0  -0.1115
  C  C353  1  0.589100  0.102370  0.828630  1.0  -0.0455
  C  C354  1  0.541090  0.097160  0.823710  1.0  -0.1227
  C  C355  1  0.539900  0.129180  0.865700  1.0  0.0456
  C  C356  1  0.586720  0.166410  0.912610  1.0  -0.1124
  C  C357  1  0.380500  0.210800  0.835100  1.0  0.0747
  C  C358  1  0.713500  0.446300  0.914000  1.0  0.7195
  C  C359  1  0.647900  0.967800  0.548700  1.0  0.7012
  C  C360  1  0.591220  0.992020  0.703200  1.0  0.0258
  C  C361  1  0.554000  0.000400  0.694200  1.0  -0.096
  C  C362  1  0.589300  0.064700  0.783000  1.0  0.0566
  C  C363  1  0.628000  0.050700  0.792100  1.0  -0.2115
  C  C364  1  0.626300  0.015800  0.750900  1.0  -0.051
  C  C365  1  0.590900  0.954700  0.658400  1.0  0.6434
  C  C366  1  0.280900  0.202400  0.804700  1.0  -0.1472
  C  C367  1  0.286000  0.161500  0.779500  1.0  -0.0714
  C  C368  1  0.335400  0.165600  0.795000  1.0  -0.1549
  C  C369  1  0.375200  0.253700  0.857700  1.0  -0.1474
  C  C370  1  0.326300  0.248800  0.844100  1.0  -0.0775
  C  C371  1  0.230000  0.197900  0.790500  1.0  0.7443
  C  C372  1  0.779100  0.270100  0.020000  1.0  -0.0214
  C  C373  1  0.778000  0.277600  0.066000  1.0  -0.1115
  C  C374  1  0.826100  0.311900  0.117200  1.0  0.7192
  C  C375  1  0.684400  0.208900  0.969300  1.0  0.0743
  C  C376  1  0.683100  0.216300  0.014000  1.0  -0.1356
  C  C377  1  0.729600  0.250000  0.062000  1.0  -0.0387
  C  C378  1  0.734200  0.237800  0.972800  1.0  -0.1521
  C  C379  1  0.551300  0.037800  0.735700  1.0  -0.1407
  C  C380  1  0.808300  0.443900  0.823400  1.0  0.6067
  C  C381  1  0.636420  0.089260  0.316460  1.0  0.0624
  C  C382  1  0.672210  0.108280  0.299510  1.0  -0.142
  C  C383  1  0.667140  0.074180  0.254100  1.0  -0.051
  C  C384  1  0.626270  0.021060  0.225630  1.0  -0.1921
  C  C385  1  0.590480  0.002040  0.242580  1.0  -0.0412
  C  C386  1  0.595550  0.036140  0.287990  1.0  -0.143
  C  C387  1  0.600870  0.148430  0.415420  1.0  0.0547
  C  C388  1  0.650150  0.191640  0.456210  1.0  -0.0744
  C  C389  1  0.695620  0.202640  0.451460  1.0  0.0579
  C  C390  1  0.691790  0.170410  0.405900  1.0  -0.112
  C  C391  1  0.642520  0.127210  0.365110  1.0  0.0186
  C  C392  1  0.597060  0.116210  0.369870  1.0  -0.1085
  C  C393  1  0.465480  0.113490  0.439210  1.0  -0.1529
  C  C394  1  0.503840  0.166010  0.458270  1.0  -0.0497
  C  C395  1  0.546630  0.177360  0.448890  1.0  -0.1307
  C  C396  1  0.551070  0.136180  0.420430  1.0  0.0367
  C  C397  1  0.512710  0.083640  0.401350  1.0  -0.1105
  C  C398  1  0.469930  0.072300  0.410750  1.0  -0.0471
  C  C399  1  0.427710  0.689320  0.115010  1.0  0.032
  C  C400  1  0.407910  0.707560  0.082710  1.0  -0.1347
  C  C401  1  0.441700  0.742070  0.072490  1.0  -0.049
  C  C402  1  0.495280  0.758340  0.094580  1.0  -0.1356
  C  C403  1  0.515060  0.740090  0.126870  1.0  -0.037
  C  C404  1  0.481290  0.705590  0.137100  1.0  -0.0958
  C  C405  1  0.312960  0.623590  0.138530  1.0  0.05
  C  C406  1  0.346670  0.656280  0.126870  1.0  -0.1188
  C  C407  1  0.389980  0.652630  0.126910  1.0  0.0135
  C  C408  1  0.399570  0.616280  0.138610  1.0  -0.0935
  C  C409  1  0.365850  0.583580  0.150250  1.0  0.0368
  C  C410  1  0.322540  0.587240  0.150220  1.0  -0.0786
  C  C411  1  0.254110  0.717210  0.082480  1.0  0.0484
  C  C412  1  0.264080  0.760390  0.124470  1.0  -0.1155
  C  C413  1  0.273740  0.760470  0.171370  1.0  -0.0457
  C  C414  1  0.273450  0.717380  0.176290  1.0  -0.1239
  C  C415  1  0.263480  0.674200  0.134300  1.0  0.048
  C  C416  1  0.253800  0.674110  0.087390  1.0  -0.1151
  C  C417  1  0.375700  0.545400  0.164900  1.0  0.0752
  C  C418  1  0.532300  0.799500  0.086000  1.0  0.718
  C  C419  1  0.419100  0.099200  0.451300  1.0  0.7018
  C  C420  1  0.288820  0.888020  0.296800  1.0  0.0308
  C  C421  1  0.306200  0.859800  0.305800  1.0  -0.0932
  C  C422  1  0.281700  0.806300  0.217000  1.0  0.0577
  C  C423  1  0.258600  0.835900  0.207900  1.0  -0.2112
  C  C424  1  0.264900  0.875400  0.249100  1.0  -0.06
  C  C425  1  0.296300  0.932500  0.341600  1.0  0.6454
  C  C426  1  0.397700  0.476200  0.195300  1.0  -0.1478
  C  C427  1  0.382000  0.506500  0.220500  1.0  -0.0693
  C  C428  1  0.370600  0.540400  0.205000  1.0  -0.1541
  C  C429  1  0.396000  0.517500  0.142300  1.0  -0.1433
  C  C430  1  0.404700  0.482200  0.155900  1.0  -0.0762
  C  C431  1  0.407400  0.439500  0.209500  1.0  0.7446
  C  C432  1  0.250100  0.759100  0.980000  1.0  -0.0213
  C  C433  1  0.211600  0.712000  0.934000  1.0  -0.113
  C  C434  1  0.194700  0.708900  0.882800  1.0  0.7269
  C  C435  1  0.239600  0.715100  0.030700  1.0  0.0741
  C  C436  1  0.202300  0.669100  0.986000  1.0  -0.1322
  C  C437  1  0.188000  0.667600  0.938000  1.0  -0.0377
  C  C438  1  0.265000  0.761400  0.027200  1.0  -0.15
  C  C439  1  0.302100  0.815600  0.264300  1.0  -0.1417
  C  C440  1  0.620500  0.984900  0.176600  1.0  0.6042
  C  C441  1  0.680040  0.363580  0.452840  1.0  0.0623
  C  C442  1  0.627300  0.327790  0.436070  1.0  -0.1396
  C  C443  1  0.586960  0.332860  0.407040  1.0  -0.0539
  C  C444  1  0.599360  0.373730  0.394790  1.0  -0.1917
  C  C445  1  0.652100  0.409520  0.411560  1.0  -0.0435
  C  C446  1  0.692440  0.404450  0.440590  1.0  -0.1414
  C  C447  1  0.814550  0.399130  0.547560  1.0  0.0569
  C  C448  1  0.806060  0.349850  0.541490  1.0  -0.0745
  C  C449  1  0.755840  0.304380  0.507020  1.0  0.0571
  C  C450  1  0.714110  0.308210  0.478620  1.0  -0.1136
  C  C451  1  0.722590  0.357480  0.484690  1.0  0.0176
  C  C452  1  0.772810  0.402940  0.519150  1.0  -0.1061
  C  C453  1  0.973730  0.534520  0.648010  1.0  -0.1512
  C  C454  1  0.954430  0.496160  0.662170  1.0  -0.0488
  C  C455  1  0.902260  0.453370  0.630730  1.0  -0.1328
  C  C456  1  0.869360  0.448930  0.585110  1.0  0.0388
  C  C457  1  0.888640  0.487290  0.570930  1.0  -0.1119
  C  C458  1  0.940820  0.530070  0.602370  1.0  -0.0493
  C  C459  1  0.687300  0.572290  0.261610  1.0  0.0317
  C  C460  1  0.674800  0.592090  0.299650  1.0  -0.1318
  C  C461  1  0.630790  0.558300  0.300370  1.0  -0.049
  C  C462  1  0.599300  0.504720  0.263060  1.0  -0.1355
  C  C463  1  0.611810  0.484940  0.225030  1.0  -0.0389
  C  C464  1  0.655810  0.518710  0.224300  1.0  -0.0966
  C  C465  1  0.825570  0.687040  0.310630  1.0  0.052
  C  C466  1  0.780200  0.653330  0.309610  1.0  -0.1169
  C  C467  1  0.736930  0.610020  0.262650  1.0  0.0131
  C  C468  1  0.739040  0.600430  0.216710  1.0  -0.0951
  C  C469  1  0.784400  0.634150  0.217730  1.0  0.0388
  C  C470  1  0.827680  0.677460  0.264700  1.0  -0.0838
  C  C471  1  0.828370  0.745890  0.463100  1.0  0.0457
  C  C472  1  0.860390  0.735920  0.496310  1.0  -0.1104
  C  C473  1  0.897630  0.726260  0.486730  1.0  -0.0452
  C  C474  1  0.902840  0.726550  0.443930  1.0  -0.1265
  C  C475  1  0.870820  0.736520  0.410720  1.0  0.0494
  C  C476  1  0.833590  0.746200  0.420310  1.0  -0.1111
  C  C477  1  0.789200  0.624300  0.169700  1.0  0.0742
  C  C478  1  0.553700  0.467700  0.267200  1.0  0.7269
  C  C479  1  0.032200  0.580900  0.680100  1.0  0.7015
  C  C480  1  0.007980  0.711180  0.599200  1.0  0.0265
  C  C481  1  0.999600  0.693800  0.553600  1.0  -0.0961
  C  C482  1  0.935300  0.718300  0.524600  1.0  0.0586
  C  C483  1  0.949300  0.741400  0.577300  1.0  -0.2159
  C  C484  1  0.984200  0.735100  0.610500  1.0  -0.0624
  C  C485  1  0.045300  0.703700  0.636200  1.0  0.642
  C  C486  1  0.797600  0.602300  0.078500  1.0  -0.1491
  C  C487  1  0.838500  0.618000  0.124500  1.0  -0.0662
  C  C488  1  0.834400  0.629400  0.169800  1.0  -0.1496
  C  C489  1  0.746300  0.604000  0.121500  1.0  -0.1414
  C  C490  1  0.751200  0.595300  0.077500  1.0  -0.0749
  C  C491  1  0.802100  0.592600  0.032100  1.0  0.7511
  C  C492  1  0.729900  0.749900  0.509000  1.0  -0.0224
  C  C493  1  0.722400  0.788400  0.500400  1.0  -0.113
  C  C494  1  0.688100  0.805300  0.514200  1.0  0.7229
  C  C495  1  0.791100  0.760400  0.475500  1.0  0.0753
  C  C496  1  0.783700  0.797700  0.466800  1.0  -0.1341
  C  C497  1  0.750000  0.812000  0.479600  1.0  -0.0396
  C  C498  1  0.762200  0.735000  0.496400  1.0  -0.1532
  C  C499  1  0.962200  0.697900  0.513500  1.0  -0.1407
  C  C500  1  0.556100  0.379500  0.364400  1.0  0.6048
  C  C501  1  0.910740  0.227200  0.547160  1.0  0.0618
  C  C502  1  0.891720  0.191230  0.563930  1.0  -0.1411
  C  C503  1  0.925820  0.179920  0.592960  1.0  -0.0509
  C  C504  1  0.978940  0.204570  0.605210  1.0  -0.1921
  C  C505  1  0.997960  0.240540  0.588440  1.0  -0.0412
  C  C506  1  0.963860  0.251850  0.559410  1.0  -0.1439
  C  C507  1  0.851570  0.266990  0.452440  1.0  0.0546
  C  C508  1  0.808360  0.264570  0.458510  1.0  -0.0737
  C  C509  1  0.797360  0.248820  0.492980  1.0  0.0552
  C  C510  1  0.829590  0.235490  0.521380  1.0  -0.1098
  C  C511  1  0.872790  0.237900  0.515310  1.0  0.0159
  C  C512  1  0.883790  0.253660  0.480850  1.0  -0.107
  C  C513  1  0.886510  0.325720  0.351990  1.0  -0.153
  C  C514  1  0.833990  0.292260  0.337830  1.0  -0.0497
  C  C515  1  0.822640  0.271530  0.369270  1.0  -0.132
  C  C516  1  0.863820  0.284250  0.414890  1.0  0.0357
  C  C517  1  0.916360  0.317710  0.429070  1.0  -0.1107
  C  C518  1  0.927700  0.338450  0.397630  1.0  -0.0464
  C  C519  1  0.310680  0.425690  0.738390  1.0  0.0351
  C  C520  1  0.292440  0.375150  0.700350  1.0  -0.1348
  C  C521  1  0.257930  0.330420  0.699630  1.0  -0.0479
  C  C522  1  0.241660  0.336240  0.736940  1.0  -0.1343
  C  C523  1  0.259910  0.386780  0.774970  1.0  -0.041
  C  C524  1  0.294410  0.431510  0.775700  1.0  -0.0987
  C  C525  1  0.376410  0.514940  0.689370  1.0  0.0539
  C  C526  1  0.343720  0.470590  0.690390  1.0  -0.1215
  C  C527  1  0.347370  0.474280  0.737350  1.0  0.015
  C  C528  1  0.383720  0.522330  0.783290  1.0  -0.0891
  C  C529  1  0.416420  0.566670  0.782270  1.0  0.0388
  C  C530  1  0.412760  0.562980  0.735300  1.0  -0.0804
  C  C531  1  0.282790  0.365270  0.536900  1.0  0.0488
  C  C532  1  0.239610  0.364080  0.503690  1.0  -0.1156
  C  C533  1  0.239530  0.410900  0.513270  1.0  -0.0455
  C  C534  1  0.282620  0.458910  0.556070  1.0  -0.1241
  C  C535  1  0.325800  0.460100  0.589280  1.0  0.0485
  C  C536  1  0.325890  0.413280  0.579690  1.0  -0.1147
  C  C537  1  0.454600  0.619500  0.830300  1.0  0.0764
  C  C538  1  0.200500  0.286500  0.732800  1.0  0.7275
  C  C539  1  0.900800  0.352100  0.319900  1.0  0.7008
  C  C540  1  0.111980  0.408780  0.400800  1.0  0.0197
  C  C541  1  0.140200  0.446000  0.446400  1.0  -0.0968
  C  C542  1  0.193700  0.410700  0.475400  1.0  0.053
  C  C543  1  0.164100  0.372000  0.422700  1.0  -0.2149
  C  C544  1  0.124600  0.373700  0.389500  1.0  -0.0666
  C  C545  1  0.067500  0.409100  0.363800  1.0  0.6426
  C  C546  1  0.523800  0.719100  0.921500  1.0  -0.1473
  C  C547  1  0.493500  0.714000  0.875500  1.0  -0.0705
  C  C548  1  0.459600  0.664600  0.830200  1.0  -0.1538
  C  C549  1  0.482500  0.624800  0.878500  1.0  -0.1459
  C  C550  1  0.517800  0.673700  0.922500  1.0  -0.0739
  C  C551  1  0.560500  0.770000  0.967900  1.0  0.7454
  C  C552  1  0.240900  0.220900  0.491000  1.0  -0.0192
  C  C553  1  0.288000  0.222000  0.499600  1.0  -0.1115
  C  C554  1  0.291100  0.173900  0.485800  1.0  0.7197
  C  C555  1  0.284900  0.315600  0.524500  1.0  0.0751
  C  C556  1  0.330900  0.316900  0.533200  1.0  -0.133
  C  C557  1  0.332400  0.270400  0.520400  1.0  -0.0375
  C  C558  1  0.238600  0.265800  0.503600  1.0  -0.1539
  C  C559  1  0.184400  0.448700  0.486500  1.0  -0.1404
  C  C560  1  0.015100  0.191700  0.635600  1.0  0.6075
  C  C561  1  0.113580  0.930040  0.952840  1.0  0.0609
  C  C562  1  0.077790  0.877300  0.936070  1.0  -0.1431
  C  C563  1  0.082860  0.836960  0.907040  1.0  -0.0556
  C  C564  1  0.123730  0.849360  0.894790  1.0  -0.192
  C  C565  1  0.159520  0.902100  0.911560  1.0  -0.0423
  C  C566  1  0.154450  0.942440  0.940590  1.0  -0.1429
  C  C567  1  0.149130  0.064550  0.047560  1.0  0.0524
  C  C568  1  0.099850  0.056060  0.041490  1.0  -0.0729
  C  C569  1  0.054380  0.005840  0.007020  1.0  0.0547
  C  C570  1  0.058210  0.964110  0.978620  1.0  -0.1109
  C  C571  1  0.107480  0.972590  0.984690  1.0  0.0162
  C  C572  1  0.152940  0.022810  0.019150  1.0  -0.1068
  C  C573  1  0.284520  0.223730  0.148010  1.0  -0.1515
  C  C574  1  0.246160  0.204430  0.162170  1.0  -0.0502
  C  C575  1  0.203370  0.152260  0.130730  1.0  -0.1316
  C  C576  1  0.198930  0.119360  0.085110  1.0  0.0355
  C  C577  1  0.237290  0.138640  0.070930  1.0  -0.1126
  C  C578  1  0.280070  0.190820  0.102370  1.0  -0.051
  C  C579  1  0.322290  0.937300  0.761610  1.0  0.0327
  C  C580  1  0.342090  0.924800  0.799650  1.0  -0.1343
  C  C581  1  0.308300  0.880790  0.800370  1.0  -0.0469
  C  C582  1  0.254720  0.849300  0.763060  1.0  -0.1343
  C  C583  1  0.234940  0.861810  0.725030  1.0  -0.0388
  C  C584  1  0.268710  0.905810  0.724300  1.0  -0.0965
  C  C585  1  0.437040  0.075570  0.810630  1.0  0.0522
  C  C586  1  0.403330  0.030200  0.809610  1.0  -0.1172
  C  C587  1  0.360020  0.986930  0.762650  1.0  0.0139
  C  C588  1  0.350430  0.989040  0.716710  1.0  -0.0932
  C  C589  1  0.384150  0.034400  0.717730  1.0  0.039
  C  C590  1  0.427460  0.077680  0.764700  1.0  -0.0833
  C  C591  1  0.495890  0.078370  0.963100  1.0  0.0476
  C  C592  1  0.485920  0.110390  0.996310  1.0  -0.1111
  C  C593  1  0.476260  0.147630  0.986730  1.0  -0.0457
  C  C594  1  0.476550  0.152840  0.943930  1.0  -0.127
  C  C595  1  0.486520  0.120820  0.910720  1.0  0.0482
  C  C596  1  0.496200  0.083590  0.920310  1.0  -0.1117
  C  C597  1  0.374300  0.039200  0.669700  1.0  0.0751
  C  C598  1  0.217700  0.803700  0.767200  1.0  0.727
  C  C599  1  0.330900  0.282200  0.180100  1.0  0.7027
  C  C600  1  0.461180  0.257980  0.099200  1.0  0.0321
  C  C601  1  0.443800  0.249600  0.053600  1.0  -0.0981
  C  C602  1  0.468300  0.185300  0.024600  1.0  0.0566
  C  C603  1  0.491400  0.199300  0.077300  1.0  -0.2175
  C  C604  1  0.485100  0.234200  0.110500  1.0  -0.055
  C  C605  1  0.453700  0.295300  0.136200  1.0  0.6435
  C  C606  1  0.352300  0.047600  0.578500  1.0  -0.1494
  C  C607  1  0.368000  0.088500  0.624500  1.0  -0.0696
  C  C608  1  0.379400  0.084400  0.669800  1.0  -0.1533
  C  C609  1  0.354000  0.996300  0.621500  1.0  -0.1443
  C  C610  1  0.345300  0.001200  0.577500  1.0  -0.0756
  C  C611  1  0.342600  0.052100  0.532100  1.0  0.7516
  C  C612  1  0.499900  0.979900  0.009000  1.0  -0.0215
  C  C613  1  0.538400  0.972400  0.000400  1.0  -0.1124
  C  C614  1  0.555300  0.938100  0.014200  1.0  0.7207
  C  C615  1  0.510400  0.041100  0.975500  1.0  0.0758
  C  C616  1  0.547700  0.033700  0.966800  1.0  -0.1323
  C  C617  1  0.562000  0.000000  0.979600  1.0  -0.0379
  C  C618  1  0.485000  0.012200  0.996400  1.0  -0.1547
  C  C619  1  0.447900  0.212200  0.013500  1.0  -0.1364
  C  C620  1  0.129500  0.806100  0.864400  1.0  0.605
  C  C621  1  0.977200  0.160740  0.047160  1.0  0.0631
  C  C622  1  0.941230  0.141720  0.063930  1.0  -0.1376
  C  C623  1  0.929920  0.175820  0.092960  1.0  -0.0529
  C  C624  1  0.954570  0.228940  0.105210  1.0  -0.1919
  C  C625  1  0.990540  0.247960  0.088440  1.0  -0.0418
  C  C626  1  0.001850  0.213860  0.059410  1.0  -0.1429
  C  C627  1  0.016990  0.101570  0.952440  1.0  0.0559
  C  C628  1  0.014570  0.058360  0.958510  1.0  -0.0711
  C  C629  1  0.998820  0.047360  0.992980  1.0  0.0574
  C  C630  1  0.985490  0.079590  0.021380  1.0  -0.1121
  C  C631  1  0.987900  0.122790  0.015310  1.0  0.0173
  C  C632  1  0.003660  0.133790  0.980850  1.0  -0.1071
  C  C633  1  0.075720  0.136510  0.851990  1.0  -0.1532
  C  C634  1  0.042260  0.083990  0.837830  1.0  -0.049
  C  C635  1  0.021530  0.072640  0.869270  1.0  -0.1289
  C  C636  1  0.034250  0.113820  0.914890  1.0  0.0348
  C  C637  1  0.067710  0.166360  0.929070  1.0  -0.1112
  C  C638  1  0.088450  0.177700  0.897630  1.0  -0.0481
  C  C639  1  0.175690  0.560680  0.238390  1.0  0.0344
  C  C640  1  0.125150  0.542440  0.200350  1.0  -0.1322
  C  C641  1  0.080420  0.507930  0.199630  1.0  -0.0478
  C  C642  1  0.086240  0.491660  0.236940  1.0  -0.1357
  C  C643  1  0.136780  0.509910  0.274970  1.0  -0.0396
  C  C644  1  0.181510  0.544410  0.275700  1.0  -0.0971
  C  C645  1  0.264940  0.626410  0.189370  1.0  0.0533
  C  C646  1  0.220590  0.593720  0.190390  1.0  -0.1207
  C  C647  1  0.224280  0.597370  0.237350  1.0  0.013
  C  C648  1  0.272330  0.633720  0.283290  1.0  -0.0894
  C  C649  1  0.316670  0.666420  0.282270  1.0  0.0395
  C  C650  1  0.312980  0.662760  0.235300  1.0  -0.0802
  C  C651  1  0.115270  0.532790  0.036900  1.0  0.048
  C  C652  1  0.114080  0.489610  0.003690  1.0  -0.1129
  C  C653  1  0.160900  0.489530  0.013270  1.0  -0.0432
  C  C654  1  0.208910  0.532620  0.056070  1.0  -0.1265
  C  C655  1  0.210100  0.575800  0.089280  1.0  0.0482
  C  C656  1  0.163280  0.575890  0.079690  1.0  -0.1119
  C  C657  1  0.369500  0.704600  0.330300  1.0  0.0777
  C  C658  1  0.036500  0.450500  0.232800  1.0  0.7257
  C  C659  1  0.102100  0.150800  0.819900  1.0  0.7018
  C  C660  1  0.158780  0.361980  0.900800  1.0  0.0307
  C  C661  1  0.196000  0.390200  0.946400  1.0  -0.0924
  C  C662  1  0.160700  0.443700  0.975400  1.0  0.0556
  C  C663  1  0.122000  0.414100  0.922700  1.0  -0.2159
  C  C664  1  0.123700  0.374600  0.889500  1.0  -0.0616
  C  C665  1  0.159100  0.317500  0.863800  1.0  0.644
  C  C666  1  0.469100  0.773800  0.421500  1.0  -0.1493
  C  C667  1  0.464000  0.743500  0.375500  1.0  -0.0684
  C  C668  1  0.414600  0.709600  0.330200  1.0  -0.1518
  C  C669  1  0.374800  0.732500  0.378500  1.0  -0.1467
  C  C670  1  0.423700  0.767800  0.422500  1.0  -0.0772
  C  C671  1  0.520000  0.810500  0.467900  1.0  0.7455
  C  C672  1  0.970900  0.490900  0.991000  1.0  -0.0222
  C  C673  1  0.972000  0.538000  0.999600  1.0  -0.1128
  C  C674  1  0.923900  0.541100  0.985800  1.0  0.721
  C  C675  1  0.065600  0.534900  0.024500  1.0  0.0746
  C  C676  1  0.066900  0.580900  0.033200  1.0  -0.1335
  C  C677  1  0.020400  0.582400  0.020400  1.0  -0.0377
  C  C678  1  0.015800  0.488600  0.003600  1.0  -0.1526
  C  C679  1  0.198700  0.434400  0.986500  1.0  -0.1393
  C  C680  1  0.941700  0.265100  0.135600  1.0  0.6083
  C  C681  1  0.839260  0.886420  0.816460  1.0  0.0618
  C  C682  1  0.858280  0.922210  0.799510  1.0  -0.1416
  C  C683  1  0.824180  0.917140  0.754100  1.0  -0.0506
  C  C684  1  0.771060  0.876270  0.725630  1.0  -0.1921
  C  C685  1  0.752040  0.840480  0.742580  1.0  -0.0402
  C  C686  1  0.786140  0.845550  0.787990  1.0  -0.1411
  C  C687  1  0.898430  0.850870  0.915420  1.0  0.0583
  C  C688  1  0.941640  0.900150  0.956210  1.0  -0.0732
  C  C689  1  0.952640  0.945620  0.951460  1.0  0.0579
  C  C690  1  0.920410  0.941790  0.905900  1.0  -0.1136
  C  C691  1  0.877210  0.892520  0.865110  1.0  0.0183
  C  C692  1  0.866210  0.847060  0.869870  1.0  -0.1063
  C  C693  1  0.863490  0.715480  0.939210  1.0  -0.1518
  C  C694  1  0.916010  0.753840  0.958270  1.0  -0.0472
  C  C695  1  0.927360  0.796630  0.948890  1.0  -0.1331
  C  C696  1  0.886180  0.801070  0.920430  1.0  0.0394
  C  C697  1  0.833640  0.762710  0.901350  1.0  -0.1127
  C  C698  1  0.822300  0.719930  0.910750  1.0  -0.0461
  C  C699  1  0.439320  0.677710  0.615010  1.0  0.033
  C  C700  1  0.457560  0.657910  0.582710  1.0  -0.1313
  C  C701  1  0.492070  0.691700  0.572490  1.0  -0.0494
  C  C702  1  0.508340  0.745280  0.594580  1.0  -0.1351
  C  C703  1  0.490090  0.765060  0.626870  1.0  -0.0392
  C  C704  1  0.455590  0.731290  0.637100  1.0  -0.0991
  C  C705  1  0.373590  0.562960  0.638530  1.0  0.0531
  C  C706  1  0.406280  0.596670  0.626870  1.0  -0.119
  C  C707  1  0.402630  0.639980  0.626910  1.0  0.0153
  C  C708  1  0.366280  0.649570  0.638610  1.0  -0.0941
  C  C709  1  0.333580  0.615850  0.650250  1.0  0.0375
  C  C710  1  0.337240  0.572540  0.650220  1.0  -0.0811
  C  C711  1  0.467210  0.504110  0.582480  1.0  0.0457
  C  C712  1  0.510390  0.514080  0.624470  1.0  -0.1127
  C  C713  1  0.510470  0.523740  0.671370  1.0  -0.0464
  C  C714  1  0.467380  0.523450  0.676290  1.0  -0.1209
  C  C715  1  0.424200  0.513480  0.634300  1.0  0.0452
  C  C716  1  0.424110  0.503800  0.587390  1.0  -0.1134
  C  C717  1  0.295400  0.625700  0.664900  1.0  0.0747
  C  C718  1  0.549500  0.782300  0.586000  1.0  0.7273
  C  C719  1  0.849200  0.669100  0.951300  1.0  0.7028
  C  C720  1  0.638020  0.538820  0.796800  1.0  0.0283
  C  C721  1  0.609800  0.556200  0.805800  1.0  -0.0964
  C  C722  1  0.556300  0.531700  0.717000  1.0  0.0571
  C  C723  1  0.585900  0.508600  0.707900  1.0  -0.2127
  C  C724  1  0.625400  0.514900  0.749100  1.0  -0.0599
  C  C725  1  0.682500  0.546300  0.841600  1.0  0.6415
  C  C726  1  0.226200  0.647700  0.695300  1.0  -0.1479
  C  C727  1  0.256500  0.632000  0.720500  1.0  -0.0687
  C  C728  1  0.290400  0.620600  0.705000  1.0  -0.1548
  C  C729  1  0.267500  0.646000  0.642300  1.0  -0.1425
  C  C730  1  0.232200  0.654700  0.655900  1.0  -0.0773
  C  C731  1  0.189500  0.657400  0.709500  1.0  0.7458
  C  C732  1  0.509100  0.500100  0.480000  1.0  -0.0181
  C  C733  1  0.462000  0.461600  0.434000  1.0  -0.1123
  C  C734  1  0.458900  0.444700  0.382800  1.0  0.7271
  C  C735  1  0.465100  0.489600  0.530700  1.0  0.0746
  C  C736  1  0.419100  0.452300  0.486000  1.0  -0.1322
  C  C737  1  0.417600  0.438000  0.438000  1.0  -0.0375
  C  C738  1  0.511400  0.515000  0.527200  1.0  -0.15
  C  C739  1  0.565600  0.552100  0.764300  1.0  -0.1406
  C  C740  1  0.734900  0.870500  0.676600  1.0  0.6055
  C  C741  1  0.069960  0.022800  0.183540  1.0  0.0622
  C  C742  1  0.122700  0.058770  0.200490  1.0  -0.1436
  C  C743  1  0.163040  0.070080  0.245900  1.0  -0.0517
  C  C744  1  0.150640  0.045430  0.274370  1.0  -0.1916
  C  C745  1  0.097900  0.009460  0.257420  1.0  -0.043
  C  C746  1  0.057560  0.998150  0.212010  1.0  -0.1417
  C  C747  1  0.935450  0.983010  0.084580  1.0  0.0544
  C  C748  1  0.943940  0.985430  0.043790  1.0  -0.0716
  C  C749  1  0.994160  0.001180  0.048540  1.0  0.0585
  C  C750  1  0.035890  0.014510  0.094100  1.0  -0.1147
  C  C751  1  0.027410  0.012100  0.134890  1.0  0.0196
  C  C752  1  0.977190  0.996340  0.130130  1.0  -0.1031
  C  C753  1  0.776270  0.924280  0.060790  1.0  -0.1527
  C  C754  1  0.795570  0.957740  0.041730  1.0  -0.0495
  C  C755  1  0.847740  0.978470  0.051110  1.0  -0.1315
  C  C756  1  0.880640  0.965750  0.079570  1.0  0.0364
  C  C757  1  0.861360  0.932290  0.098650  1.0  -0.1128
  C  C758  1  0.809180  0.911550  0.089250  1.0  -0.0474
  C  C759  1  0.062700  0.824310  0.384990  1.0  0.0318
  C  C760  1  0.075200  0.874850  0.417290  1.0  -0.1328
  C  C761  1  0.119210  0.919580  0.427510  1.0  -0.0499
  C  C762  1  0.150700  0.913760  0.405420  1.0  -0.1344
  C  C763  1  0.138190  0.863220  0.373130  1.0  -0.0395
  C  C764  1  0.094190  0.818490  0.362900  1.0  -0.0945
  C  C765  1  0.924430  0.735060  0.361470  1.0  0.0495
  C  C766  1  0.969800  0.779410  0.373130  1.0  -0.1185
  C  C767  1  0.013070  0.775720  0.373090  1.0  0.0133
  C  C768  1  0.010960  0.727670  0.361390  1.0  -0.094
  C  C769  1  0.965600  0.683330  0.349750  1.0  0.0369
  C  C770  1  0.922320  0.687020  0.349780  1.0  -0.0801
  C  C771  1  0.921630  0.884730  0.417520  1.0  0.0481
  C  C772  1  0.889610  0.885920  0.375530  1.0  -0.1166
  C  C773  1  0.852370  0.839100  0.328630  1.0  -0.0459
  C  C774  1  0.847160  0.791090  0.323710  1.0  -0.1257
  C  C775  1  0.879180  0.789900  0.365700  1.0  0.0487
  C  C776  1  0.916410  0.836720  0.412610  1.0  -0.1145
  C  C777  1  0.960800  0.630500  0.335100  1.0  0.0746
  C  C778  1  0.196300  0.963500  0.414000  1.0  0.7195
  C  C779  1  0.717800  0.897900  0.048700  1.0  0.7006
  C  C780  1  0.742020  0.841220  0.203200  1.0  0.022
  C  C781  1  0.750400  0.804000  0.194200  1.0  -0.101
  C  C782  1  0.814700  0.839300  0.283000  1.0  0.0596
  C  C783  1  0.800700  0.878000  0.292100  1.0  -0.2134
  C  C784  1  0.765800  0.876300  0.250900  1.0  -0.0578
  C  C785  1  0.704700  0.840900  0.158400  1.0  0.642
  C  C786  1  0.952400  0.530900  0.304700  1.0  -0.1472
  C  C787  1  0.911500  0.536000  0.279500  1.0  -0.0698
  C  C788  1  0.915600  0.585400  0.295000  1.0  -0.1544
  C  C789  1  0.003700  0.625200  0.357700  1.0  -0.1428
  C  C790  1  0.998800  0.576300  0.344100  1.0  -0.0736
  C  C791  1  0.947900  0.480000  0.290500  1.0  0.7445
  C  C792  1  0.020100  0.029100  0.520000  1.0  -0.0234
  C  C793  1  0.027600  0.028000  0.566000  1.0  -0.1115
  C  C794  1  0.061900  0.076100  0.617200  1.0  0.7206
  C  C795  1  0.958900  0.934400  0.469300  1.0  0.075
  C  C796  1  0.966300  0.933100  0.514000  1.0  -0.135
  C  C797  1  0.000000  0.979600  0.562000  1.0  -0.0395
  C  C798  1  0.987800  0.984200  0.472800  1.0  -0.1529
  C  C799  1  0.787800  0.801300  0.235700  1.0  -0.1416
  C  C800  1  0.193900  0.058300  0.323400  1.0  0.6058
  C  C801  1  0.487300  0.125000  0.862300  1.0  -0.0314
  C  C802  1  0.262700  0.625000  0.137700  1.0  -0.0312
  C  C803  1  0.875000  0.737300  0.362300  1.0  -0.0309
  C  C804  1  0.375000  0.512700  0.637700  1.0  -0.0315
  C  C805  1  0.750000  0.250000  0.500000  1.0  -0.0374
  C  C806  1  0.000000  0.000000  0.000000  1.0  -0.0374
  O  O807  1  0.628300  0.859000  0.431900  1.0  -0.5338
  O  O808  1  0.616030  0.952350  0.562480  1.0  -0.6071
  O  O809  1  0.666510  0.943880  0.528550  1.0  -0.5771
  O  O810  1  0.643890  0.876790  0.578580  1.0  -0.9024
  O  O811  1  0.551760  0.927520  0.614120  1.0  -0.5774
  O  O812  1  0.631790  0.951300  0.667450  1.0  -0.5603
  O  O813  1  0.227700  0.236510  0.816890  1.0  -0.5972
  O  O814  1  0.189280  0.156000  0.752000  1.0  -0.6109
  O  O815  1  0.870210  0.335440  0.118650  1.0  -0.6075
  O  O816  1  0.820590  0.315290  0.155820  1.0  -0.5957
  O  O817  1  0.704670  0.475930  0.897000  1.0  -0.6383
  O  O818  1  0.755820  0.450290  0.934890  1.0  -0.5533
  O  O819  1  0.790880  0.430490  0.851250  1.0  -0.5674
  O  O820  1  0.827600  0.490100  0.831500  1.0  -0.4856
  O  O821  1  0.427100  0.196400  0.568100  1.0  -0.5317
  O  O822  1  0.389870  0.053550  0.437520  1.0  -0.6099
  O  O823  1  0.415330  0.137960  0.471450  1.0  -0.5781
  O  O824  1  0.298210  0.065310  0.421420  1.0  -0.9067
  O  O825  1  0.313400  0.937640  0.385880  1.0  -0.5749
  O  O826  1  0.283850  0.964340  0.332550  1.0  -0.562
  O  O827  1  0.419620  0.410810  0.183110  1.0  -0.597
  O  O828  1  0.404000  0.437280  0.248000  1.0  -0.6091
  O  O829  1  0.216790  0.751560  0.881350  1.0  -0.6068
  O  O830  1  0.159470  0.664770  0.844180  1.0  -0.5961
  O  O831  1  0.578930  0.807670  0.103000  1.0  -0.6401
  O  O832  1  0.515400  0.820930  0.065110  1.0  -0.5526
  O  O833  1  0.579240  0.939630  0.148750  1.0  -0.5663
  O  O834  1  0.658600  0.996100  0.168500  1.0  -0.4928
  O  O835  1  0.141000  0.572900  0.769300  1.0  -0.5423
  O  O836  1  0.047650  0.610130  0.663680  1.0  -0.6046
  O  O837  1  0.056120  0.584670  0.722630  1.0  -0.577
  O  O838  1  0.123210  0.701790  0.767100  1.0  -0.9073
  O  O839  1  0.072480  0.686600  0.624240  1.0  -0.5781
  O  O840  1  0.048700  0.716150  0.680490  1.0  -0.56
  O  O841  1  0.763490  0.580380  0.991190  1.0  -0.596
  O  O842  1  0.844000  0.596000  0.033280  1.0  -0.6107
  O  O843  1  0.664560  0.783210  0.534770  1.0  -0.6091
  O  O844  1  0.684710  0.840530  0.505300  1.0  -0.5957
  O  O845  1  0.524070  0.421070  0.228740  1.0  -0.6396
  O  O846  1  0.549710  0.484600  0.305530  1.0  -0.5529
  O  O847  1  0.569510  0.420760  0.360390  1.0  -0.5666
  O  O848  1  0.509900  0.341400  0.337500  1.0  -0.4876
  O  O849  1  0.803600  0.371700  0.230700  1.0  -0.5407
  O  O850  1  0.946450  0.383970  0.336320  1.0  -0.6042
  O  O851  1  0.862040  0.333490  0.277370  1.0  -0.5779
  O  O852  1  0.934690  0.356110  0.232900  1.0  -0.905
  O  O853  1  0.062360  0.448240  0.375760  1.0  -0.5736
  O  O854  1  0.035660  0.368210  0.319510  1.0  -0.564
  O  O855  1  0.589190  0.772300  0.008810  1.0  -0.5947
  O  O856  1  0.562720  0.810720  0.966720  1.0  -0.6099
  O  O857  1  0.248440  0.129790  0.465230  1.0  -0.6078
  O  O858  1  0.335230  0.179410  0.494700  1.0  -0.597
  O  O859  1  0.192330  0.295330  0.771260  1.0  -0.6372
  O  O860  1  0.179070  0.244180  0.694470  1.0  -0.5547
  O  O861  1  0.060370  0.209120  0.639610  1.0  -0.5649
  O  O862  1  0.003900  0.172400  0.662500  1.0  -0.4865
  O  O863  1  0.322900  0.391000  0.269300  1.0  -0.5383
  O  O864  1  0.360130  0.297650  0.163680  1.0  -0.6062
  O  O865  1  0.334670  0.306120  0.222630  1.0  -0.5789
  O  O866  1  0.451790  0.373210  0.267100  1.0  -0.9047
  O  O867  1  0.436600  0.322480  0.124240  1.0  -0.5775
  O  O868  1  0.466150  0.298700  0.180490  1.0  -0.5587
  O  O869  1  0.330380  0.013490  0.491190  1.0  -0.5978
  O  O870  1  0.346000  0.094000  0.533280  1.0  -0.6095
  O  O871  1  0.533210  0.914560  0.034770  1.0  -0.6074
  O  O872  1  0.590530  0.934710  0.005300  1.0  -0.5949
  O  O873  1  0.171070  0.774070  0.728740  1.0  -0.6388
  O  O874  1  0.234600  0.799710  0.805530  1.0  -0.553
  O  O875  1  0.170760  0.819510  0.860390  1.0  -0.5673
  O  O876  1  0.091400  0.759900  0.837500  1.0  -0.4886
  O  O877  1  0.121700  0.053600  0.730700  1.0  -0.5383
  O  O878  1  0.133970  0.196450  0.836320  1.0  -0.6055
  O  O879  1  0.083490  0.112040  0.777370  1.0  -0.5776
  O  O880  1  0.106110  0.184690  0.732900  1.0  -0.9072
  O  O881  1  0.198240  0.312360  0.875760  1.0  -0.573
  O  O882  1  0.118210  0.285660  0.819510  1.0  -0.5642
  O  O883  1  0.522300  0.839190  0.508810  1.0  -0.5961
  O  O884  1  0.560720  0.812720  0.466720  1.0  -0.6092
  O  O885  1  0.879790  0.498440  0.965230  1.0  -0.6083
  O  O886  1  0.929410  0.585230  0.994700  1.0  -0.5986
  O  O887  1  0.045330  0.442330  0.271260  1.0  -0.6377
  O  O888  1  0.994180  0.429070  0.194470  1.0  -0.5535
  O  O889  1  0.959120  0.310370  0.139610  1.0  -0.5669
  O  O890  1  0.922400  0.253900  0.162500  1.0  -0.4869
  O  O891  1  0.946400  0.677100  0.068100  1.0  -0.5324
  O  O892  1  0.803550  0.639870  0.937520  1.0  -0.6076
  O  O893  1  0.887960  0.665330  0.971450  1.0  -0.5782
  O  O894  1  0.815310  0.548210  0.921420  1.0  -0.9067
  O  O895  1  0.687640  0.563400  0.885880  1.0  -0.5761
  O  O896  1  0.714340  0.533850  0.832550  1.0  -0.5615
  O  O897  1  0.160810  0.669620  0.683110  1.0  -0.5936
  O  O898  1  0.187280  0.654000  0.748000  1.0  -0.6088
  O  O899  1  0.501560  0.466790  0.381350  1.0  -0.6087
  O  O900  1  0.414770  0.409470  0.344180  1.0  -0.5947
  O  O901  1  0.557670  0.828930  0.603000  1.0  -0.6402
  O  O902  1  0.570930  0.765400  0.565110  1.0  -0.5543
  O  O903  1  0.689630  0.829240  0.648750  1.0  -0.566
  O  O904  1  0.746100  0.908600  0.668500  1.0  -0.488
  O  O905  1  0.609000  0.878300  0.931900  1.0  -0.5331
  O  O906  1  0.702350  0.866030  0.062480  1.0  -0.6066
  O  O907  1  0.693880  0.916510  0.028550  1.0  -0.5764
  O  O908  1  0.626790  0.893890  0.078580  1.0  -0.9035
  O  O909  1  0.677520  0.801760  0.114120  1.0  -0.5782
  O  O910  1  0.701300  0.881790  0.167450  1.0  -0.5595
  O  O911  1  0.986510  0.477700  0.316890  1.0  -0.5955
  O  O912  1  0.906000  0.439280  0.252000  1.0  -0.6094
  O  O913  1  0.085440  0.120210  0.618650  1.0  -0.6087
  O  O914  1  0.065290  0.070590  0.655820  1.0  -0.5942
  O  O915  1  0.225930  0.954670  0.397000  1.0  -0.6386
  O  O916  1  0.200290  0.005820  0.434890  1.0  -0.554
  O  O917  1  0.180490  0.040880  0.351250  1.0  -0.5657
  O  O918  1  0.240100  0.077600  0.331500  1.0  -0.4861
