# generated using pymatgen
data_AgPH30C30(NF3)2
_symmetry_space_group_name_H-M   'P 1'
_cell_length_a   24.44780000
_cell_length_b   24.44780000
_cell_length_c   38.47260000
_cell_angle_alpha   71.47430000
_cell_angle_beta   71.47430000
_cell_angle_gamma   89.99990000
_symmetry_Int_Tables_number   1
_chemical_formula_structural   AgPH30C30(NF3)2
_chemical_formula_sum   'Ag16 P16 H480 C480 N32 F96'
_cell_volume   20542.74986541
_cell_formula_units_Z   16
loop_
 _symmetry_equiv_pos_site_id
 _symmetry_equiv_pos_as_xyz
  1  'x, y, z'
loop_
 _atom_site_type_symbol
 _atom_site_label
 _atom_site_symmetry_multiplicity
 _atom_site_fract_x
 _atom_site_fract_y
 _atom_site_fract_z
 _atom_site_occupancy
 _atom_site_charge
  Ag  Ag1  1  0.172010  0.688780  0.996580  1.0  0.2398
  Ag  Ag2  1  0.331410  0.314640  0.996580  1.0  0.2383
  Ag  Ag3  1  0.188780  0.831410  0.496580  1.0  0.2364
  Ag  Ag4  1  0.814640  0.672010  0.496580  1.0  0.2374
  Ag  Ag5  1  0.168590  0.811220  0.003420  1.0  0.2378
  Ag  Ag6  1  0.327990  0.185360  0.003420  1.0  0.2401
  Ag  Ag7  1  0.685360  0.668590  0.503420  1.0  0.2365
  Ag  Ag8  1  0.311220  0.827990  0.503420  1.0  0.2371
  Ag  Ag9  1  0.827990  0.311220  0.003420  1.0  0.2378
  Ag  Ag10  1  0.668590  0.685360  0.003420  1.0  0.2403
  Ag  Ag11  1  0.811220  0.168590  0.503420  1.0  0.2372
  Ag  Ag12  1  0.185360  0.327990  0.503420  1.0  0.2362
  Ag  Ag13  1  0.831410  0.188780  0.996580  1.0  0.2391
  Ag  Ag14  1  0.672010  0.814640  0.996580  1.0  0.2384
  Ag  Ag15  1  0.314640  0.331410  0.496580  1.0  0.2372
  Ag  Ag16  1  0.688780  0.172010  0.496580  1.0  0.2363
  P  P17  1  0.450300  0.834600  0.915000  1.0  1.7471
  P  P18  1  0.134700  0.250400  0.915000  1.0  1.7482
  P  P19  1  0.334600  0.634700  0.415000  1.0  1.7478
  P  P20  1  0.750400  0.950300  0.415000  1.0  1.746
  P  P21  1  0.365300  0.665400  0.085000  1.0  1.746
  P  P22  1  0.049700  0.249600  0.085000  1.0  1.7469
  P  P23  1  0.749600  0.865300  0.585000  1.0  1.7462
  P  P24  1  0.165400  0.549700  0.585000  1.0  1.7457
  P  P25  1  0.549700  0.165400  0.085000  1.0  1.7443
  P  P26  1  0.865300  0.749600  0.085000  1.0  1.7478
  P  P27  1  0.665400  0.365300  0.585000  1.0  1.7441
  P  P28  1  0.249600  0.049700  0.585000  1.0  1.7442
  P  P29  1  0.634700  0.334600  0.915000  1.0  1.7475
  P  P30  1  0.950300  0.750400  0.915000  1.0  1.7462
  P  P31  1  0.250400  0.134700  0.415000  1.0  1.7469
  P  P32  1  0.834600  0.450300  0.415000  1.0  1.7469
  H  H33  1  0.305600  0.734900  0.953200  1.0  0.1194
  H  H34  1  0.372800  0.757900  0.892400  1.0  0.0792
  H  H35  1  0.252200  0.727500  0.850600  1.0  0.0957
  H  H36  1  0.180600  0.707700  0.912800  1.0  0.1164
  H  H37  1  0.619100  0.163000  0.580800  1.0  0.1026
  H  H38  1  0.587500  0.094500  0.644000  1.0  0.1082
  H  H39  1  0.656500  0.969300  0.599800  1.0  0.1183
  H  H40  1  0.686400  0.038900  0.536800  1.0  0.1016
  H  H41  1  0.377300  0.908500  0.804800  1.0  0.1035
  H  H42  1  0.318400  0.870000  0.828200  1.0  0.1725
  H  H43  1  0.368100  0.863900  0.845600  1.0  0.128
  H  H44  1  0.491700  0.859900  0.696600  1.0  0.1011
  H  H45  1  0.517400  0.800900  0.704000  1.0  0.1246
  H  H46  1  0.463100  0.808000  0.691000  1.0  0.1091
  H  H47  1  0.376700  0.635700  0.815200  1.0  0.1556
  H  H48  1  0.365900  0.647600  0.854000  1.0  0.1184
  H  H49  1  0.317900  0.655200  0.835000  1.0  0.1134
  H  H50  1  0.427000  0.700000  0.730600  1.0  0.114
  H  H51  1  0.433600  0.926400  0.762200  1.0  0.1099
  H  H52  1  0.430700  0.918800  0.724200  1.0  0.1131
  H  H53  1  0.715600  0.966500  0.687000  1.0  0.112
  H  H54  1  0.699700  0.024700  0.663400  1.0  0.1725
  H  H55  1  0.710500  0.974300  0.646600  1.0  0.1225
  H  H56  1  0.453400  0.966000  0.677600  1.0  0.1335
  H  H57  1  0.503500  0.974400  0.639000  1.0  0.1117
  H  H58  1  0.492900  0.024600  0.656000  1.0  0.1224
  H  H59  1  0.485800  0.864600  0.796400  1.0  0.0995
  H  H60  1  0.536200  0.895300  0.802200  1.0  0.1123
  H  H61  1  0.543800  0.837500  0.793400  1.0  0.1102
  H  H62  1  0.687800  0.912800  0.731200  1.0  0.1222
  H  H63  1  0.241200  0.311900  0.953200  1.0  0.1202
  H  H64  1  0.234800  0.349700  0.892400  1.0  0.0785
  H  H65  1  0.397200  0.421900  0.850600  1.0  0.096
  H  H66  1  0.406600  0.379500  0.912800  1.0  0.1134
  H  H67  1  0.300100  0.256200  0.580800  1.0  0.1015
  H  H68  1  0.268500  0.261500  0.644000  1.0  0.1071
  H  H69  1  0.243700  0.430900  0.599800  1.0  0.1162
  H  H70  1  0.276800  0.424300  0.536800  1.0  0.102
  H  H71  1  0.317900  0.286700  0.804800  1.0  0.1032
  H  H72  1  0.353400  0.301800  0.828200  1.0  0.1745
  H  H73  1  0.286300  0.290500  0.845600  1.0  0.1263
  H  H74  1  0.311700  0.443500  0.696600  1.0  0.1002
  H  H75  1  0.278600  0.495100  0.704000  1.0  0.1226
  H  H76  1  0.345900  0.501000  0.691000  1.0  0.1112
  H  H77  1  0.308100  0.549100  0.815200  1.0  0.1584
  H  H78  1  0.280100  0.498400  0.854000  1.0  0.1179
  H  H79  1  0.347100  0.509800  0.835000  1.0  0.1142
  H  H80  1  0.342400  0.569400  0.730600  1.0  0.1156
  H  H81  1  0.304200  0.311400  0.762200  1.0  0.1104
  H  H82  1  0.345100  0.357000  0.724200  1.0  0.1155
  H  H83  1  0.097400  0.346500  0.687000  1.0  0.1178
  H  H84  1  0.136900  0.311900  0.663400  1.0  0.1749
  H  H85  1  0.142900  0.379100  0.646600  1.0  0.1244
  H  H86  1  0.369000  0.356400  0.677600  1.0  0.1315
  H  H87  1  0.357500  0.386600  0.639000  1.0  0.1133
  H  H88  1  0.351100  0.319400  0.656000  1.0  0.1247
  H  H89  1  0.217800  0.339000  0.796400  1.0  0.0975
  H  H90  1  0.161600  0.302500  0.802200  1.0  0.1109
  H  H91  1  0.162800  0.369100  0.793400  1.0  0.1109
  H  H92  1  0.081000  0.356000  0.731200  1.0  0.1197
  H  H93  1  0.234900  0.741200  0.453200  1.0  0.1206
  H  H94  1  0.257900  0.734800  0.392400  1.0  0.0778
  H  H95  1  0.227500  0.897200  0.350600  1.0  0.0952
  H  H96  1  0.207700  0.906600  0.412800  1.0  0.1145
  H  H97  1  0.663000  0.800100  0.080800  1.0  0.1012
  H  H98  1  0.594500  0.768500  0.144000  1.0  0.1099
  H  H99  1  0.469300  0.743700  0.099800  1.0  0.1164
  H  H100  1  0.538900  0.776800  0.036800  1.0  0.1004
  H  H101  1  0.408500  0.817900  0.304800  1.0  0.1062
  H  H102  1  0.370000  0.853400  0.328200  1.0  0.1759
  H  H103  1  0.363900  0.786300  0.345600  1.0  0.1278
  H  H104  1  0.359900  0.811700  0.196600  1.0  0.1022
  H  H105  1  0.300900  0.778600  0.204000  1.0  0.1245
  H  H106  1  0.308000  0.845900  0.191000  1.0  0.112
  H  H107  1  0.135700  0.808100  0.315200  1.0  0.1574
  H  H108  1  0.147600  0.780100  0.354000  1.0  0.1199
  H  H109  1  0.155200  0.847100  0.335000  1.0  0.1133
  H  H110  1  0.200000  0.842400  0.230600  1.0  0.1172
  H  H111  1  0.426400  0.804200  0.262200  1.0  0.1086
  H  H112  1  0.418800  0.845100  0.224200  1.0  0.1176
  H  H113  1  0.466500  0.597400  0.187000  1.0  0.1127
  H  H114  1  0.524700  0.636900  0.163400  1.0  0.1655
  H  H115  1  0.474300  0.642900  0.146600  1.0  0.1203
  H  H116  1  0.466000  0.869000  0.177600  1.0  0.131
  H  H117  1  0.474400  0.857500  0.139000  1.0  0.1123
  H  H118  1  0.524600  0.851100  0.156000  1.0  0.1214
  H  H119  1  0.364600  0.717800  0.296400  1.0  0.0991
  H  H120  1  0.395300  0.661600  0.302200  1.0  0.1109
  H  H121  1  0.337500  0.662800  0.293400  1.0  0.1107
  H  H122  1  0.412800  0.581000  0.231200  1.0  0.1205
  H  H123  1  0.811900  0.805600  0.453200  1.0  0.1206
  H  H124  1  0.849700  0.872800  0.392400  1.0  0.0802
  H  H125  1  0.921900  0.752200  0.350600  1.0  0.0947
  H  H126  1  0.879500  0.680600  0.412800  1.0  0.1148
  H  H127  1  0.756200  0.119100  0.080800  1.0  0.1003
  H  H128  1  0.761500  0.087500  0.144000  1.0  0.1079
  H  H129  1  0.930900  0.156500  0.099800  1.0  0.1152
  H  H130  1  0.924300  0.186400  0.036800  1.0  0.1018
  H  H131  1  0.786700  0.877300  0.304800  1.0  0.103
  H  H132  1  0.801800  0.818400  0.328200  1.0  0.1715
  H  H133  1  0.790500  0.868100  0.345600  1.0  0.1283
  H  H134  1  0.943500  0.991700  0.196600  1.0  0.0995
  H  H135  1  0.995100  0.017400  0.204000  1.0  0.1237
  H  H136  1  0.001000  0.963100  0.191000  1.0  0.1101
  H  H137  1  0.049100  0.876700  0.315200  1.0  0.1592
  H  H138  1  0.998400  0.865900  0.354000  1.0  0.1167
  H  H139  1  0.009800  0.817900  0.335000  1.0  0.1104
  H  H140  1  0.069400  0.927000  0.230600  1.0  0.1144
  H  H141  1  0.811400  0.933600  0.262200  1.0  0.1079
  H  H142  1  0.857000  0.930700  0.224200  1.0  0.1127
  H  H143  1  0.846500  0.215600  0.187000  1.0  0.1111
  H  H144  1  0.811900  0.199700  0.163400  1.0  0.1718
  H  H145  1  0.879100  0.210500  0.146600  1.0  0.1213
  H  H146  1  0.856400  0.953400  0.177600  1.0  0.1315
  H  H147  1  0.886600  0.003500  0.139000  1.0  0.111
  H  H148  1  0.819400  0.992900  0.156000  1.0  0.1236
  H  H149  1  0.839000  0.985800  0.296400  1.0  0.0983
  H  H150  1  0.802500  0.036200  0.302200  1.0  0.1104
  H  H151  1  0.869100  0.043800  0.293400  1.0  0.1098
  H  H152  1  0.856000  0.187800  0.231200  1.0  0.1241
  H  H153  1  0.258800  0.765100  0.046800  1.0  0.1196
  H  H154  1  0.265200  0.742100  0.107600  1.0  0.079
  H  H155  1  0.102800  0.772500  0.149400  1.0  0.0947
  H  H156  1  0.093400  0.792300  0.087200  1.0  0.1185
  H  H157  1  0.199900  0.337000  0.419200  1.0  0.1014
  H  H158  1  0.231500  0.405500  0.356000  1.0  0.1081
  H  H159  1  0.256300  0.530700  0.400200  1.0  0.1165
  H  H160  1  0.223200  0.461100  0.463200  1.0  0.101
  H  H161  1  0.182100  0.591500  0.195200  1.0  0.105
  H  H162  1  0.146600  0.630000  0.171800  1.0  0.1752
  H  H163  1  0.213700  0.636100  0.154400  1.0  0.1275
  H  H164  1  0.188300  0.640100  0.303400  1.0  0.1003
  H  H165  1  0.221400  0.699100  0.296000  1.0  0.1222
  H  H166  1  0.154100  0.692000  0.309000  1.0  0.1097
  H  H167  1  0.191900  0.864300  0.184800  1.0  0.1567
  H  H168  1  0.219900  0.852400  0.146000  1.0  0.118
  H  H169  1  0.152900  0.844800  0.165000  1.0  0.1125
  H  H170  1  0.157600  0.800000  0.269400  1.0  0.1158
  H  H171  1  0.195800  0.573600  0.237800  1.0  0.1099
  H  H172  1  0.154900  0.581200  0.275800  1.0  0.1137
  H  H173  1  0.402600  0.533500  0.313000  1.0  0.1186
  H  H174  1  0.363100  0.475300  0.336600  1.0  0.1711
  H  H175  1  0.357100  0.525700  0.353400  1.0  0.1249
  H  H176  1  0.131000  0.534000  0.322400  1.0  0.1322
  H  H177  1  0.142500  0.525600  0.361000  1.0  0.114
  H  H178  1  0.148900  0.475400  0.344000  1.0  0.1217
  H  H179  1  0.282200  0.635400  0.203600  1.0  0.1004
  H  H180  1  0.338400  0.604700  0.197800  1.0  0.1113
  H  H181  1  0.337200  0.662500  0.206600  1.0  0.1146
  H  H182  1  0.419000  0.587200  0.268800  1.0  0.12
  H  H183  1  0.194400  0.188100  0.046800  1.0  0.1207
  H  H184  1  0.127200  0.150300  0.107600  1.0  0.0798
  H  H185  1  0.247800  0.078100  0.149400  1.0  0.0954
  H  H186  1  0.319400  0.120500  0.087200  1.0  0.1139
  H  H187  1  0.880900  0.243800  0.419200  1.0  0.0989
  H  H188  1  0.912500  0.238500  0.356000  1.0  0.1084
  H  H189  1  0.843500  0.069100  0.400200  1.0  0.1178
  H  H190  1  0.813600  0.075700  0.463200  1.0  0.102
  H  H191  1  0.122700  0.213300  0.195200  1.0  0.1037
  H  H192  1  0.181600  0.198200  0.171800  1.0  0.1717
  H  H193  1  0.131900  0.209500  0.154400  1.0  0.1281
  H  H194  1  0.008300  0.056500  0.303400  1.0  0.1013
  H  H195  1  0.982600  0.004900  0.296000  1.0  0.1222
  H  H196  1  0.036900  0.999000  0.309000  1.0  0.1104
  H  H197  1  0.123300  0.950900  0.184800  1.0  0.1565
  H  H198  1  0.134100  0.001600  0.146000  1.0  0.1174
  H  H199  1  0.182100  0.990200  0.165000  1.0  0.1141
  H  H200  1  0.073000  0.930600  0.269400  1.0  0.1162
  H  H201  1  0.066400  0.188600  0.237800  1.0  0.1092
  H  H202  1  0.069300  0.143000  0.275800  1.0  0.1147
  H  H203  1  0.784400  0.153500  0.313000  1.0  0.1119
  H  H204  1  0.800300  0.188100  0.336600  1.0  0.1747
  H  H205  1  0.789500  0.120900  0.353400  1.0  0.1221
  H  H206  1  0.046600  0.143600  0.322400  1.0  0.1373
  H  H207  1  0.996500  0.113400  0.361000  1.0  0.1142
  H  H208  1  0.007100  0.180600  0.344000  1.0  0.1216
  H  H209  1  0.014200  0.161000  0.203600  1.0  0.0987
  H  H210  1  0.963800  0.197500  0.197800  1.0  0.112
  H  H211  1  0.956200  0.130900  0.206600  1.0  0.1127
  H  H212  1  0.812200  0.144000  0.268800  1.0  0.1207
  H  H213  1  0.688100  0.758800  0.546800  1.0  0.1212
  H  H214  1  0.650300  0.765200  0.607600  1.0  0.0788
  H  H215  1  0.578100  0.602800  0.649400  1.0  0.095
  H  H216  1  0.620500  0.593400  0.587200  1.0  0.1114
  H  H217  1  0.743800  0.699900  0.919200  1.0  0.1017
  H  H218  1  0.738500  0.731500  0.856000  1.0  0.108
  H  H219  1  0.569100  0.756300  0.900200  1.0  0.1161
  H  H220  1  0.575700  0.723200  0.963200  1.0  0.1019
  H  H221  1  0.713300  0.682100  0.695200  1.0  0.1043
  H  H222  1  0.698200  0.646600  0.671800  1.0  0.1778
  H  H223  1  0.709500  0.713700  0.654400  1.0  0.128
  H  H224  1  0.556500  0.688300  0.803400  1.0  0.0999
  H  H225  1  0.504900  0.721400  0.796000  1.0  0.1222
  H  H226  1  0.499000  0.654100  0.809000  1.0  0.1095
  H  H227  1  0.450900  0.691900  0.684800  1.0  0.1571
  H  H228  1  0.501600  0.719900  0.646000  1.0  0.1196
  H  H229  1  0.490200  0.652900  0.665000  1.0  0.1102
  H  H230  1  0.430600  0.657600  0.769400  1.0  0.1181
  H  H231  1  0.688600  0.695800  0.737800  1.0  0.1088
  H  H232  1  0.643000  0.654900  0.775800  1.0  0.1146
  H  H233  1  0.653500  0.902600  0.813000  1.0  0.1105
  H  H234  1  0.688100  0.863100  0.836600  1.0  0.1723
  H  H235  1  0.620900  0.857100  0.853400  1.0  0.1195
  H  H236  1  0.643600  0.631000  0.822400  1.0  0.1283
  H  H237  1  0.613400  0.642500  0.861000  1.0  0.1139
  H  H238  1  0.680600  0.648900  0.844000  1.0  0.123
  H  H239  1  0.661000  0.782200  0.703600  1.0  0.0978
  H  H240  1  0.697500  0.838400  0.697800  1.0  0.112
  H  H241  1  0.630900  0.837200  0.706600  1.0  0.1091
  H  H242  1  0.644000  0.919000  0.768800  1.0  0.1205
  H  H243  1  0.265100  0.694400  0.546800  1.0  0.1194
  H  H244  1  0.242100  0.627200  0.607600  1.0  0.0797
  H  H245  1  0.272500  0.747800  0.649400  1.0  0.0947
  H  H246  1  0.292300  0.819400  0.587200  1.0  0.1147
  H  H247  1  0.837000  0.380900  0.919200  1.0  0.1013
  H  H248  1  0.905500  0.412500  0.856000  1.0  0.1087
  H  H249  1  0.030700  0.343500  0.900200  1.0  0.1175
  H  H250  1  0.961100  0.313600  0.963200  1.0  0.1029
  H  H251  1  0.091500  0.622700  0.695200  1.0  0.1049
  H  H252  1  0.130000  0.681600  0.671800  1.0  0.1755
  H  H253  1  0.136100  0.631900  0.654400  1.0  0.1304
  H  H254  1  0.140100  0.508300  0.803400  1.0  0.1037
  H  H255  1  0.199100  0.482600  0.796000  1.0  0.1196
  H  H256  1  0.192000  0.536900  0.809000  1.0  0.1114
  H  H257  1  0.364300  0.623300  0.684800  1.0  0.157
  H  H258  1  0.352400  0.634100  0.646000  1.0  0.1203
  H  H259  1  0.344800  0.682100  0.665000  1.0  0.1113
  H  H260  1  0.300000  0.573000  0.769400  1.0  0.1159
  H  H261  1  0.073600  0.566400  0.737800  1.0  0.1096
  H  H262  1  0.081200  0.569300  0.775800  1.0  0.1142
  H  H263  1  0.033500  0.284400  0.813000  1.0  0.1104
  H  H264  1  0.975300  0.300300  0.836600  1.0  0.1675
  H  H265  1  0.025700  0.289500  0.853400  1.0  0.1226
  H  H266  1  0.034000  0.546600  0.822400  1.0  0.1325
  H  H267  1  0.025600  0.496500  0.861000  1.0  0.1119
  H  H268  1  0.975400  0.507100  0.844000  1.0  0.1246
  H  H269  1  0.135400  0.514200  0.703600  1.0  0.1
  H  H270  1  0.104700  0.463800  0.697800  1.0  0.1107
  H  H271  1  0.162500  0.456200  0.706600  1.0  0.1144
  H  H272  1  0.087200  0.312200  0.768800  1.0  0.1222
  H  H273  1  0.694400  0.265100  0.046800  1.0  0.1198
  H  H274  1  0.627200  0.242100  0.107600  1.0  0.0787
  H  H275  1  0.747800  0.272500  0.149400  1.0  0.0956
  H  H276  1  0.819400  0.292300  0.087200  1.0  0.118
  H  H277  1  0.380900  0.837000  0.419200  1.0  0.1011
  H  H278  1  0.412500  0.905500  0.356000  1.0  0.1082
  H  H279  1  0.343500  0.030700  0.400200  1.0  0.1175
  H  H280  1  0.313600  0.961100  0.463200  1.0  0.1028
  H  H281  1  0.622700  0.091500  0.195200  1.0  0.1044
  H  H282  1  0.681600  0.130000  0.171800  1.0  0.1715
  H  H283  1  0.631900  0.136100  0.154400  1.0  0.126
  H  H284  1  0.508300  0.140100  0.303400  1.0  0.1011
  H  H285  1  0.482600  0.199100  0.296000  1.0  0.1231
  H  H286  1  0.536900  0.192000  0.309000  1.0  0.1077
  H  H287  1  0.623300  0.364300  0.184800  1.0  0.1557
  H  H288  1  0.634100  0.352400  0.146000  1.0  0.1185
  H  H289  1  0.682100  0.344800  0.165000  1.0  0.1144
  H  H290  1  0.573000  0.300000  0.269400  1.0  0.1158
  H  H291  1  0.566400  0.073600  0.237800  1.0  0.1102
  H  H292  1  0.569300  0.081200  0.275800  1.0  0.1138
  H  H293  1  0.284400  0.033500  0.313000  1.0  0.1117
  H  H294  1  0.300300  0.975300  0.336600  1.0  0.169
  H  H295  1  0.289500  0.025700  0.353400  1.0  0.1235
  H  H296  1  0.546600  0.034000  0.322400  1.0  0.1379
  H  H297  1  0.496500  0.025600  0.361000  1.0  0.1126
  H  H298  1  0.507100  0.975400  0.344000  1.0  0.1239
  H  H299  1  0.514200  0.135400  0.203600  1.0  0.1014
  H  H300  1  0.463800  0.104700  0.197800  1.0  0.1119
  H  H301  1  0.456200  0.162500  0.206600  1.0  0.1139
  H  H302  1  0.312200  0.087200  0.268800  1.0  0.1211
  H  H303  1  0.758800  0.688100  0.046800  1.0  0.12
  H  H304  1  0.765200  0.650300  0.107600  1.0  0.0792
  H  H305  1  0.602800  0.578100  0.149400  1.0  0.0948
  H  H306  1  0.593400  0.620500  0.087200  1.0  0.113
  H  H307  1  0.699900  0.743800  0.419200  1.0  0.1025
  H  H308  1  0.731500  0.738500  0.356000  1.0  0.1081
  H  H309  1  0.756300  0.569100  0.400200  1.0  0.1175
  H  H310  1  0.723200  0.575700  0.463200  1.0  0.102
  H  H311  1  0.682100  0.713300  0.195200  1.0  0.1041
  H  H312  1  0.646600  0.698200  0.171800  1.0  0.175
  H  H313  1  0.713700  0.709500  0.154400  1.0  0.1263
  H  H314  1  0.688300  0.556500  0.303400  1.0  0.1011
  H  H315  1  0.721400  0.504900  0.296000  1.0  0.1233
  H  H316  1  0.654100  0.499000  0.309000  1.0  0.1107
  H  H317  1  0.691900  0.450900  0.184800  1.0  0.1571
  H  H318  1  0.719900  0.501600  0.146000  1.0  0.1182
  H  H319  1  0.652900  0.490200  0.165000  1.0  0.1144
  H  H320  1  0.657600  0.430600  0.269400  1.0  0.1161
  H  H321  1  0.695800  0.688600  0.237800  1.0  0.1101
  H  H322  1  0.654900  0.643000  0.275800  1.0  0.1137
  H  H323  1  0.902600  0.653500  0.313000  1.0  0.1191
  H  H324  1  0.863100  0.688100  0.336600  1.0  0.1741
  H  H325  1  0.857100  0.620900  0.353400  1.0  0.1237
  H  H326  1  0.631000  0.643600  0.322400  1.0  0.1313
  H  H327  1  0.642500  0.613400  0.361000  1.0  0.1154
  H  H328  1  0.648900  0.680600  0.344000  1.0  0.1241
  H  H329  1  0.782200  0.661000  0.203600  1.0  0.0976
  H  H330  1  0.838400  0.697500  0.197800  1.0  0.112
  H  H331  1  0.837200  0.630900  0.206600  1.0  0.1112
  H  H332  1  0.919000  0.644000  0.268800  1.0  0.1208
  H  H333  1  0.765100  0.258800  0.546800  1.0  0.1208
  H  H334  1  0.742100  0.265200  0.607600  1.0  0.0788
  H  H335  1  0.772500  0.102800  0.649400  1.0  0.0948
  H  H336  1  0.792300  0.093400  0.587200  1.0  0.1132
  H  H337  1  0.337000  0.199900  0.919200  1.0  0.1021
  H  H338  1  0.405500  0.231500  0.856000  1.0  0.1093
  H  H339  1  0.530700  0.256300  0.900200  1.0  0.1165
  H  H340  1  0.461100  0.223200  0.963200  1.0  0.1009
  H  H341  1  0.591500  0.182100  0.695200  1.0  0.1062
  H  H342  1  0.630000  0.146600  0.671800  1.0  0.1765
  H  H343  1  0.636100  0.213700  0.654400  1.0  0.1308
  H  H344  1  0.640100  0.188300  0.803400  1.0  0.103
  H  H345  1  0.699100  0.221400  0.796000  1.0  0.1215
  H  H346  1  0.692000  0.154100  0.809000  1.0  0.1091
  H  H347  1  0.864300  0.191900  0.684800  1.0  0.158
  H  H348  1  0.852400  0.219900  0.646000  1.0  0.1199
  H  H349  1  0.844800  0.152900  0.665000  1.0  0.1104
  H  H350  1  0.800000  0.157600  0.769400  1.0  0.1179
  H  H351  1  0.573600  0.195800  0.737800  1.0  0.1088
  H  H352  1  0.581200  0.154900  0.775800  1.0  0.1161
  H  H353  1  0.533500  0.402600  0.813000  1.0  0.1105
  H  H354  1  0.475300  0.363100  0.836600  1.0  0.1672
  H  H355  1  0.525700  0.357100  0.853400  1.0  0.1219
  H  H356  1  0.534000  0.131000  0.822400  1.0  0.1285
  H  H357  1  0.525600  0.142500  0.861000  1.0  0.1137
  H  H358  1  0.475400  0.148900  0.844000  1.0  0.1231
  H  H359  1  0.635400  0.282200  0.703600  1.0  0.1004
  H  H360  1  0.604700  0.338400  0.697800  1.0  0.1106
  H  H361  1  0.662500  0.337200  0.706600  1.0  0.1129
  H  H362  1  0.587200  0.419000  0.768800  1.0  0.1218
  H  H363  1  0.188100  0.194400  0.546800  1.0  0.1208
  H  H364  1  0.150300  0.127200  0.607600  1.0  0.0796
  H  H365  1  0.078100  0.247800  0.649400  1.0  0.0941
  H  H366  1  0.120500  0.319400  0.587200  1.0  0.1145
  H  H367  1  0.243800  0.880900  0.919200  1.0  0.1001
  H  H368  1  0.238500  0.912500  0.856000  1.0  0.1081
  H  H369  1  0.069100  0.843500  0.900200  1.0  0.1161
  H  H370  1  0.075700  0.813600  0.963200  1.0  0.1021
  H  H371  1  0.213300  0.122700  0.695200  1.0  0.1037
  H  H372  1  0.198200  0.181600  0.671800  1.0  0.175
  H  H373  1  0.209500  0.131900  0.654400  1.0  0.1287
  H  H374  1  0.056500  0.008300  0.803400  1.0  0.0988
  H  H375  1  0.004900  0.982600  0.796000  1.0  0.1193
  H  H376  1  0.999000  0.036900  0.809000  1.0  0.1113
  H  H377  1  0.950900  0.123300  0.684800  1.0  0.1539
  H  H378  1  0.001600  0.134100  0.646000  1.0  0.1182
  H  H379  1  0.990200  0.182100  0.665000  1.0  0.1126
  H  H380  1  0.930600  0.073000  0.769400  1.0  0.1156
  H  H381  1  0.188600  0.066400  0.737800  1.0  0.1088
  H  H382  1  0.143000  0.069300  0.775800  1.0  0.1155
  H  H383  1  0.153500  0.784400  0.813000  1.0  0.1105
  H  H384  1  0.188100  0.800300  0.836600  1.0  0.1744
  H  H385  1  0.120900  0.789500  0.853400  1.0  0.1206
  H  H386  1  0.143600  0.046600  0.822400  1.0  0.1316
  H  H387  1  0.113400  0.996500  0.861000  1.0  0.111
  H  H388  1  0.180600  0.007100  0.844000  1.0  0.1222
  H  H389  1  0.161000  0.014200  0.703600  1.0  0.0994
  H  H390  1  0.197500  0.963800  0.697800  1.0  0.1113
  H  H391  1  0.130900  0.956200  0.706600  1.0  0.1115
  H  H392  1  0.144000  0.812200  0.768800  1.0  0.1224
  H  H393  1  0.741200  0.234900  0.953200  1.0  0.12
  H  H394  1  0.734800  0.257900  0.892400  1.0  0.0779
  H  H395  1  0.897200  0.227500  0.850600  1.0  0.0951
  H  H396  1  0.906600  0.207700  0.912800  1.0  0.1164
  H  H397  1  0.800100  0.663000  0.580800  1.0  0.1012
  H  H398  1  0.768500  0.594500  0.644000  1.0  0.1073
  H  H399  1  0.743700  0.469300  0.599800  1.0  0.117
  H  H400  1  0.776800  0.538900  0.536800  1.0  0.101
  H  H401  1  0.817900  0.408500  0.804800  1.0  0.1032
  H  H402  1  0.853400  0.370000  0.828200  1.0  0.1765
  H  H403  1  0.786300  0.363900  0.845600  1.0  0.126
  H  H404  1  0.811700  0.359900  0.696600  1.0  0.1013
  H  H405  1  0.778600  0.300900  0.704000  1.0  0.123
  H  H406  1  0.845900  0.308000  0.691000  1.0  0.111
  H  H407  1  0.808100  0.135700  0.815200  1.0  0.157
  H  H408  1  0.780100  0.147600  0.854000  1.0  0.1185
  H  H409  1  0.847100  0.155200  0.835000  1.0  0.1126
  H  H410  1  0.842400  0.200000  0.730600  1.0  0.1156
  H  H411  1  0.804200  0.426400  0.762200  1.0  0.1088
  H  H412  1  0.845100  0.418800  0.724200  1.0  0.1148
  H  H413  1  0.597400  0.466500  0.687000  1.0  0.1176
  H  H414  1  0.636900  0.524700  0.663400  1.0  0.1729
  H  H415  1  0.642900  0.474300  0.646600  1.0  0.1246
  H  H416  1  0.869000  0.466000  0.677600  1.0  0.1321
  H  H417  1  0.857500  0.474400  0.639000  1.0  0.1128
  H  H418  1  0.851100  0.524600  0.656000  1.0  0.121
  H  H419  1  0.717800  0.364600  0.796400  1.0  0.099
  H  H420  1  0.661600  0.395300  0.802200  1.0  0.1114
  H  H421  1  0.662800  0.337500  0.793400  1.0  0.1115
  H  H422  1  0.581000  0.412800  0.731200  1.0  0.1193
  H  H423  1  0.805600  0.811900  0.953200  1.0  0.1206
  H  H424  1  0.872800  0.849700  0.892400  1.0  0.0803
  H  H425  1  0.752200  0.921900  0.850600  1.0  0.0953
  H  H426  1  0.680600  0.879500  0.912800  1.0  0.1139
  H  H427  1  0.119100  0.756200  0.580800  1.0  0.0988
  H  H428  1  0.087500  0.761500  0.644000  1.0  0.1073
  H  H429  1  0.156500  0.930900  0.599800  1.0  0.1163
  H  H430  1  0.186400  0.924300  0.536800  1.0  0.1018
  H  H431  1  0.877300  0.786700  0.804800  1.0  0.1014
  H  H432  1  0.818400  0.801800  0.828200  1.0  0.1717
  H  H433  1  0.868100  0.790500  0.845600  1.0  0.1279
  H  H434  1  0.991700  0.943500  0.696600  1.0  0.0997
  H  H435  1  0.017400  0.995100  0.704000  1.0  0.124
  H  H436  1  0.963100  0.001000  0.691000  1.0  0.1108
  H  H437  1  0.876700  0.049100  0.815200  1.0  0.1579
  H  H438  1  0.865900  0.998400  0.854000  1.0  0.1183
  H  H439  1  0.817900  0.009800  0.835000  1.0  0.1136
  H  H440  1  0.927000  0.069400  0.730600  1.0  0.1146
  H  H441  1  0.933600  0.811400  0.762200  1.0  0.1097
  H  H442  1  0.930700  0.857000  0.724200  1.0  0.1127
  H  H443  1  0.215600  0.846500  0.687000  1.0  0.1124
  H  H444  1  0.199700  0.811900  0.663400  1.0  0.1759
  H  H445  1  0.210500  0.879100  0.646600  1.0  0.1238
  H  H446  1  0.953400  0.856400  0.677600  1.0  0.132
  H  H447  1  0.003500  0.886600  0.639000  1.0  0.1133
  H  H448  1  0.992900  0.819400  0.656000  1.0  0.1222
  H  H449  1  0.985800  0.839000  0.796400  1.0  0.0979
  H  H450  1  0.036200  0.802500  0.802200  1.0  0.1115
  H  H451  1  0.043800  0.869100  0.793400  1.0  0.1106
  H  H452  1  0.187800  0.856000  0.731200  1.0  0.1215
  H  H453  1  0.311900  0.241200  0.453200  1.0  0.1206
  H  H454  1  0.349700  0.234800  0.392400  1.0  0.0791
  H  H455  1  0.421900  0.397200  0.350600  1.0  0.0956
  H  H456  1  0.379500  0.406600  0.412800  1.0  0.1128
  H  H457  1  0.256200  0.300100  0.080800  1.0  0.1022
  H  H458  1  0.261500  0.268500  0.144000  1.0  0.1079
  H  H459  1  0.430900  0.243700  0.099800  1.0  0.1158
  H  H460  1  0.424300  0.276800  0.036800  1.0  0.1007
  H  H461  1  0.286700  0.317900  0.304800  1.0  0.1045
  H  H462  1  0.301800  0.353400  0.328200  1.0  0.1769
  H  H463  1  0.290500  0.286300  0.345600  1.0  0.1279
  H  H464  1  0.443500  0.311700  0.196600  1.0  0.1009
  H  H465  1  0.495100  0.278600  0.204000  1.0  0.1239
  H  H466  1  0.501000  0.345900  0.191000  1.0  0.1121
  H  H467  1  0.549100  0.308100  0.315200  1.0  0.16
  H  H468  1  0.498400  0.280100  0.354000  1.0  0.1192
  H  H469  1  0.509800  0.347100  0.335000  1.0  0.1138
  H  H470  1  0.569400  0.342400  0.230600  1.0  0.1164
  H  H471  1  0.311400  0.304200  0.262200  1.0  0.1078
  H  H472  1  0.357000  0.345100  0.224200  1.0  0.1172
  H  H473  1  0.346500  0.097400  0.187000  1.0  0.1124
  H  H474  1  0.311900  0.136900  0.163400  1.0  0.1697
  H  H475  1  0.379100  0.142900  0.146600  1.0  0.1196
  H  H476  1  0.356400  0.369000  0.177600  1.0  0.1302
  H  H477  1  0.386600  0.357500  0.139000  1.0  0.1113
  H  H478  1  0.319400  0.351100  0.156000  1.0  0.1241
  H  H479  1  0.339000  0.217800  0.296400  1.0  0.0982
  H  H480  1  0.302500  0.161600  0.302200  1.0  0.1094
  H  H481  1  0.369100  0.162800  0.293400  1.0  0.1114
  H  H482  1  0.356000  0.081000  0.231200  1.0  0.1208
  H  H483  1  0.734900  0.305600  0.453200  1.0  0.1196
  H  H484  1  0.757900  0.372800  0.392400  1.0  0.0799
  H  H485  1  0.727500  0.252200  0.350600  1.0  0.0956
  H  H486  1  0.707700  0.180600  0.412800  1.0  0.115
  H  H487  1  0.163000  0.619100  0.080800  1.0  0.1005
  H  H488  1  0.094500  0.587500  0.144000  1.0  0.1088
  H  H489  1  0.969300  0.656500  0.099800  1.0  0.1186
  H  H490  1  0.038900  0.686400  0.036800  1.0  0.1011
  H  H491  1  0.908500  0.377300  0.304800  1.0  0.1039
  H  H492  1  0.870000  0.318400  0.328200  1.0  0.1733
  H  H493  1  0.863900  0.368100  0.345600  1.0  0.13
  H  H494  1  0.859900  0.491700  0.196600  1.0  0.1015
  H  H495  1  0.800900  0.517400  0.204000  1.0  0.1239
  H  H496  1  0.808000  0.463100  0.191000  1.0  0.1118
  H  H497  1  0.635700  0.376700  0.315200  1.0  0.1565
  H  H498  1  0.647600  0.365900  0.354000  1.0  0.1194
  H  H499  1  0.655200  0.317900  0.335000  1.0  0.1079
  H  H500  1  0.700000  0.427000  0.230600  1.0  0.1147
  H  H501  1  0.926400  0.433600  0.262200  1.0  0.1081
  H  H502  1  0.918800  0.430700  0.224200  1.0  0.1127
  H  H503  1  0.966500  0.715600  0.187000  1.0  0.1106
  H  H504  1  0.024700  0.699700  0.163400  1.0  0.1652
  H  H505  1  0.974300  0.710500  0.146600  1.0  0.1227
  H  H506  1  0.966000  0.453400  0.177600  1.0  0.1333
  H  H507  1  0.974400  0.503500  0.139000  1.0  0.1112
  H  H508  1  0.024600  0.492900  0.156000  1.0  0.1235
  H  H509  1  0.864600  0.485800  0.296400  1.0  0.0989
  H  H510  1  0.895300  0.536200  0.302200  1.0  0.1113
  H  H511  1  0.837500  0.543800  0.293400  1.0  0.1095
  H  H512  1  0.912800  0.687800  0.231200  1.0  0.1229
  C  C513  1  0.293800  0.733800  0.932400  1.0  0.1331
  C  C514  1  0.333100  0.748100  0.895800  1.0  -0.172
  C  C515  1  0.319900  0.749400  0.864400  1.0  0.121
  C  C516  1  0.263300  0.731300  0.871400  1.0  -0.1781
  C  C517  1  0.220600  0.717600  0.908800  1.0  0.1464
  C  C518  1  0.627700  0.123700  0.584600  1.0  0.1406
  C  C519  1  0.607800  0.082800  0.622400  1.0  -0.1507
  C  C520  1  0.617900  0.024900  0.628200  1.0  0.0564
  C  C521  1  0.648900  0.007900  0.596200  1.0  -0.154
  C  C522  1  0.667600  0.050600  0.558800  1.0  0.1555
  C  C523  1  0.362000  0.765100  0.824000  1.0  -0.1186
  C  C524  1  0.382000  0.825300  0.804000  1.0  -0.0107
  C  C525  1  0.424800  0.842800  0.766400  1.0  -0.0164
  C  C526  1  0.443100  0.799300  0.749000  1.0  -0.0793
  C  C527  1  0.423200  0.739000  0.769600  1.0  -0.0709
  C  C528  1  0.383200  0.721900  0.807600  1.0  0.0263
  C  C529  1  0.358800  0.870800  0.822400  1.0  -0.3124
  C  C530  1  0.483000  0.819000  0.706000  1.0  -0.3739
  C  C531  1  0.359000  0.659300  0.830000  1.0  -0.3671
  C  C532  1  0.447300  0.906100  0.744200  1.0  -0.1427
  C  C533  1  0.549800  0.906700  0.745200  1.0  0.062
  C  C534  1  0.607700  0.922600  0.728200  1.0  0.0102
  C  C535  1  0.631700  0.961200  0.688600  1.0  0.1463
  C  C536  1  0.595300  0.979300  0.669400  1.0  -0.1086
  C  C537  1  0.533900  0.960200  0.685600  1.0  0.0535
  C  C538  1  0.512600  0.923400  0.725200  1.0  0.0351
  C  C539  1  0.695200  0.984200  0.669600  1.0  -0.3926
  C  C540  1  0.491800  0.983900  0.662200  1.0  -0.3552
  C  C541  1  0.526800  0.872800  0.788400  1.0  -0.3627
  C  C542  1  0.273800  0.333800  0.932400  1.0  0.1352
  C  C543  1  0.271100  0.356100  0.895800  1.0  -0.1753
  C  C544  1  0.315700  0.386200  0.864400  1.0  0.1233
  C  C545  1  0.365300  0.397300  0.871400  1.0  -0.1786
  C  C546  1  0.370600  0.373600  0.908800  1.0  0.1523
  C  C547  1  0.287700  0.291700  0.584600  1.0  0.1372
  C  C548  1  0.269800  0.294800  0.622400  1.0  -0.1519
  C  C549  1  0.253900  0.346900  0.628200  1.0  0.0584
  C  C550  1  0.254900  0.395900  0.596200  1.0  -0.1573
  C  C551  1  0.273600  0.390600  0.558800  1.0  0.1566
  C  C552  1  0.314000  0.410900  0.824000  1.0  -0.1166
  C  C553  1  0.314000  0.370700  0.804000  1.0  -0.0091
  C  C554  1  0.308800  0.390800  0.766400  1.0  -0.0104
  C  C555  1  0.307900  0.451700  0.749000  1.0  -0.0794
  C  C556  1  0.307200  0.491400  0.769600  1.0  -0.0672
  C  C557  1  0.309200  0.470500  0.807600  1.0  0.0299
  C  C558  1  0.318800  0.306800  0.822400  1.0  -0.3144
  C  C559  1  0.311000  0.475000  0.706000  1.0  -0.3763
  C  C560  1  0.311000  0.510700  0.830000  1.0  -0.3677
  C  C561  1  0.308500  0.349700  0.744200  1.0  -0.1442
  C  C562  1  0.205000  0.348100  0.745200  1.0  0.0608
  C  C563  1  0.164100  0.349200  0.728200  1.0  0.0086
  C  C564  1  0.179700  0.350200  0.688600  1.0  0.1477
  C  C565  1  0.235300  0.351300  0.669400  1.0  -0.1082
  C  C566  1  0.280500  0.354200  0.685600  1.0  0.0552
  C  C567  1  0.262200  0.351400  0.725200  1.0  0.0347
  C  C568  1  0.135200  0.346200  0.669600  1.0  -0.3912
  C  C569  1  0.346000  0.353900  0.662200  1.0  -0.3571
  C  C570  1  0.184800  0.338800  0.788400  1.0  -0.3649
  C  C571  1  0.233800  0.773800  0.432400  1.0  0.1379
  C  C572  1  0.248100  0.771100  0.395800  1.0  -0.1784
  C  C573  1  0.249400  0.815700  0.364400  1.0  0.1219
  C  C574  1  0.231300  0.865300  0.371400  1.0  -0.1787
  C  C575  1  0.217600  0.870600  0.408800  1.0  0.1457
  C  C576  1  0.623700  0.787700  0.084600  1.0  0.1378
  C  C577  1  0.582800  0.769800  0.122400  1.0  -0.154
  C  C578  1  0.524900  0.753900  0.128200  1.0  0.0579
  C  C579  1  0.507900  0.754900  0.096200  1.0  -0.1556
  C  C580  1  0.550600  0.773600  0.058800  1.0  0.157
  C  C581  1  0.265100  0.814000  0.324000  1.0  -0.1185
  C  C582  1  0.325300  0.814000  0.304000  1.0  -0.0101
  C  C583  1  0.342800  0.808800  0.266400  1.0  -0.0096
  C  C584  1  0.299300  0.807900  0.249000  1.0  -0.0779
  C  C585  1  0.239000  0.807200  0.269600  1.0  -0.0676
  C  C586  1  0.221900  0.809200  0.307600  1.0  0.0286
  C  C587  1  0.370800  0.818800  0.322400  1.0  -0.3145
  C  C588  1  0.319000  0.811000  0.206000  1.0  -0.3768
  C  C589  1  0.159300  0.811000  0.330000  1.0  -0.372
  C  C590  1  0.406100  0.808500  0.244200  1.0  -0.1445
  C  C591  1  0.406700  0.705000  0.245200  1.0  0.0608
  C  C592  1  0.422600  0.664100  0.228200  1.0  0.0069
  C  C593  1  0.461200  0.679700  0.188600  1.0  0.1468
  C  C594  1  0.479300  0.735300  0.169400  1.0  -0.1081
  C  C595  1  0.460200  0.780500  0.185600  1.0  0.0518
  C  C596  1  0.423400  0.762200  0.225200  1.0  0.0327
  C  C597  1  0.484200  0.635200  0.169600  1.0  -0.3888
  C  C598  1  0.483900  0.846000  0.162200  1.0  -0.3566
  C  C599  1  0.372800  0.684800  0.288400  1.0  -0.3594
  C  C600  1  0.833800  0.793800  0.432400  1.0  0.1279
  C  C601  1  0.856100  0.833100  0.395800  1.0  -0.1739
  C  C602  1  0.886200  0.819900  0.364400  1.0  0.1229
  C  C603  1  0.897300  0.763300  0.371400  1.0  -0.1762
  C  C604  1  0.873600  0.720600  0.408800  1.0  0.143
  C  C605  1  0.791700  0.127700  0.084600  1.0  0.1441
  C  C606  1  0.794800  0.107800  0.122400  1.0  -0.1519
  C  C607  1  0.846900  0.117900  0.128200  1.0  0.059
  C  C608  1  0.895900  0.148900  0.096200  1.0  -0.1565
  C  C609  1  0.890600  0.167600  0.058800  1.0  0.1574
  C  C610  1  0.910900  0.862000  0.324000  1.0  -0.1189
  C  C611  1  0.870700  0.882000  0.304000  1.0  -0.0112
  C  C612  1  0.890800  0.924800  0.266400  1.0  -0.0135
  C  C613  1  0.951700  0.943100  0.249000  1.0  -0.0792
  C  C614  1  0.991400  0.923200  0.269600  1.0  -0.0668
  C  C615  1  0.970500  0.883200  0.307600  1.0  0.0273
  C  C616  1  0.806800  0.858800  0.322400  1.0  -0.316
  C  C617  1  0.975000  0.983000  0.206000  1.0  -0.3764
  C  C618  1  0.010700  0.859000  0.330000  1.0  -0.3689
  C  C619  1  0.849700  0.947300  0.244200  1.0  -0.1418
  C  C620  1  0.848100  0.049800  0.245200  1.0  0.0608
  C  C621  1  0.849200  0.107700  0.228200  1.0  0.007
  C  C622  1  0.850200  0.131700  0.188600  1.0  0.147
  C  C623  1  0.851300  0.095300  0.169400  1.0  -0.1069
  C  C624  1  0.854200  0.033900  0.185600  1.0  0.0508
  C  C625  1  0.851400  0.012600  0.225200  1.0  0.0324
  C  C626  1  0.846200  0.195200  0.169600  1.0  -0.3883
  C  C627  1  0.853900  0.991800  0.162200  1.0  -0.3524
  C  C628  1  0.838800  0.026800  0.288400  1.0  -0.3659
  C  C629  1  0.226200  0.766200  0.067600  1.0  0.1362
  C  C630  1  0.228900  0.751900  0.104200  1.0  -0.1717
  C  C631  1  0.184300  0.750600  0.135600  1.0  0.1217
  C  C632  1  0.134700  0.768700  0.128600  1.0  -0.1776
  C  C633  1  0.129400  0.782400  0.091200  1.0  0.1467
  C  C634  1  0.212300  0.376300  0.415400  1.0  0.1323
  C  C635  1  0.230200  0.417200  0.377600  1.0  -0.1503
  C  C636  1  0.246100  0.475100  0.371800  1.0  0.0558
  C  C637  1  0.245100  0.492100  0.403800  1.0  -0.1575
  C  C638  1  0.226400  0.449400  0.441200  1.0  0.1584
  C  C639  1  0.186000  0.734900  0.176000  1.0  -0.1178
  C  C640  1  0.186000  0.674700  0.196000  1.0  -0.0111
  C  C641  1  0.191200  0.657200  0.233600  1.0  -0.0144
  C  C642  1  0.192100  0.700700  0.251000  1.0  -0.0787
  C  C643  1  0.192800  0.761000  0.230400  1.0  -0.0696
  C  C644  1  0.190800  0.778100  0.192400  1.0  0.0269
  C  C645  1  0.181200  0.629200  0.177600  1.0  -0.3118
  C  C646  1  0.189000  0.681000  0.294000  1.0  -0.3773
  C  C647  1  0.189000  0.840700  0.170000  1.0  -0.367
  C  C648  1  0.191500  0.593900  0.255800  1.0  -0.1432
  C  C649  1  0.295000  0.593300  0.254800  1.0  0.0614
  C  C650  1  0.335900  0.577400  0.271800  1.0  0.0086
  C  C651  1  0.320300  0.538800  0.311400  1.0  0.1462
  C  C652  1  0.264700  0.520700  0.330600  1.0  -0.1085
  C  C653  1  0.219500  0.539800  0.314400  1.0  0.0534
  C  C654  1  0.237800  0.576600  0.274800  1.0  0.0345
  C  C655  1  0.364800  0.515800  0.330400  1.0  -0.3907
  C  C656  1  0.154000  0.516100  0.337800  1.0  -0.3578
  C  C657  1  0.315200  0.627200  0.211600  1.0  -0.3635
  C  C658  1  0.206200  0.166200  0.067600  1.0  0.1308
  C  C659  1  0.166900  0.143900  0.104200  1.0  -0.1725
  C  C660  1  0.180100  0.113800  0.135600  1.0  0.1249
  C  C661  1  0.236700  0.102700  0.128600  1.0  -0.1767
  C  C662  1  0.279400  0.126400  0.091200  1.0  0.1503
  C  C663  1  0.872300  0.208300  0.415400  1.0  0.1434
  C  C664  1  0.892200  0.205200  0.377600  1.0  -0.1547
  C  C665  1  0.882100  0.153100  0.371800  1.0  0.0569
  C  C666  1  0.851100  0.104100  0.403800  1.0  -0.1565
  C  C667  1  0.832400  0.109400  0.441200  1.0  0.1532
  C  C668  1  0.138000  0.089100  0.176000  1.0  -0.1173
  C  C669  1  0.118000  0.129300  0.196000  1.0  -0.009
  C  C670  1  0.075200  0.109200  0.233600  1.0  -0.0141
  C  C671  1  0.056900  0.048300  0.251000  1.0  -0.0776
  C  C672  1  0.076800  0.008600  0.230400  1.0  -0.0686
  C  C673  1  0.116800  0.029500  0.192400  1.0  0.0279
  C  C674  1  0.141200  0.193200  0.177600  1.0  -0.3147
  C  C675  1  0.017000  0.025000  0.294000  1.0  -0.3745
  C  C676  1  0.141000  0.989300  0.170000  1.0  -0.3688
  C  C677  1  0.052700  0.150300  0.255800  1.0  -0.1449
  C  C678  1  0.950200  0.151900  0.254800  1.0  0.0596
  C  C679  1  0.892300  0.150800  0.271800  1.0  0.0096
  C  C680  1  0.868300  0.149800  0.311400  1.0  0.1463
  C  C681  1  0.904700  0.148700  0.330600  1.0  -0.1087
  C  C682  1  0.966100  0.145800  0.314400  1.0  0.0524
  C  C683  1  0.987400  0.148600  0.274800  1.0  0.0345
  C  C684  1  0.804800  0.153800  0.330400  1.0  -0.3932
  C  C685  1  0.008200  0.146100  0.337800  1.0  -0.3546
  C  C686  1  0.973200  0.161200  0.211600  1.0  -0.3654
  C  C687  1  0.666200  0.726200  0.567600  1.0  0.1335
  C  C688  1  0.643900  0.728900  0.604200  1.0  -0.1764
  C  C689  1  0.613800  0.684300  0.635600  1.0  0.1235
  C  C690  1  0.602700  0.634700  0.628600  1.0  -0.1834
  C  C691  1  0.626400  0.629400  0.591200  1.0  0.1529
  C  C692  1  0.708300  0.712300  0.915400  1.0  0.1369
  C  C693  1  0.705200  0.730200  0.877600  1.0  -0.1519
  C  C694  1  0.653100  0.746100  0.871800  1.0  0.0577
  C  C695  1  0.604100  0.745100  0.903800  1.0  -0.1576
  C  C696  1  0.609400  0.726400  0.941200  1.0  0.1567
  C  C697  1  0.589100  0.686000  0.676000  1.0  -0.1186
  C  C698  1  0.629300  0.686000  0.696000  1.0  -0.0123
  C  C699  1  0.609200  0.691200  0.733600  1.0  -0.0104
  C  C700  1  0.548300  0.692100  0.751000  1.0  -0.0782
  C  C701  1  0.508600  0.692800  0.730400  1.0  -0.0666
  C  C702  1  0.529500  0.690800  0.692400  1.0  0.0307
  C  C703  1  0.693200  0.681200  0.677600  1.0  -0.3166
  C  C704  1  0.525000  0.689000  0.794000  1.0  -0.3776
  C  C705  1  0.489300  0.689000  0.670000  1.0  -0.3681
  C  C706  1  0.650300  0.691500  0.755800  1.0  -0.1444
  C  C707  1  0.651900  0.795000  0.754800  1.0  0.0605
  C  C708  1  0.650800  0.835900  0.771800  1.0  0.006
  C  C709  1  0.649800  0.820300  0.811400  1.0  0.1486
  C  C710  1  0.648700  0.764700  0.830600  1.0  -0.1078
  C  C711  1  0.645800  0.719500  0.814400  1.0  0.054
  C  C712  1  0.648600  0.737800  0.774800  1.0  0.033
  C  C713  1  0.653800  0.864800  0.830400  1.0  -0.3871
  C  C714  1  0.646100  0.654000  0.837800  1.0  -0.3548
  C  C715  1  0.661200  0.815200  0.711600  1.0  -0.366
  C  C716  1  0.266200  0.706200  0.567600  1.0  0.1385
  C  C717  1  0.251900  0.666900  0.604200  1.0  -0.1707
  C  C718  1  0.250600  0.680100  0.635600  1.0  0.1226
  C  C719  1  0.268700  0.736700  0.628600  1.0  -0.1735
  C  C720  1  0.282400  0.779400  0.591200  1.0  0.1436
  C  C721  1  0.876300  0.372300  0.915400  1.0  0.1391
  C  C722  1  0.917200  0.392200  0.877600  1.0  -0.1539
  C  C723  1  0.975100  0.382100  0.871800  1.0  0.0542
  C  C724  1  0.992100  0.351100  0.903800  1.0  -0.1588
  C  C725  1  0.949400  0.332400  0.941200  1.0  0.1512
  C  C726  1  0.234900  0.638000  0.676000  1.0  -0.1178
  C  C727  1  0.174700  0.618000  0.696000  1.0  -0.0106
  C  C728  1  0.157200  0.575200  0.733600  1.0  -0.0114
  C  C729  1  0.200700  0.556900  0.751000  1.0  -0.0753
  C  C730  1  0.261000  0.576800  0.730400  1.0  -0.0647
  C  C731  1  0.278100  0.616800  0.692400  1.0  0.0265
  C  C732  1  0.129200  0.641200  0.677600  1.0  -0.314
  C  C733  1  0.181000  0.517000  0.794000  1.0  -0.376
  C  C734  1  0.340700  0.641000  0.670000  1.0  -0.3693
  C  C735  1  0.093900  0.552700  0.755800  1.0  -0.1449
  C  C736  1  0.093300  0.450200  0.754800  1.0  0.0619
  C  C737  1  0.077400  0.392300  0.771800  1.0  0.0066
  C  C738  1  0.038800  0.368300  0.811400  1.0  0.1455
  C  C739  1  0.020700  0.404700  0.830600  1.0  -0.1078
  C  C740  1  0.039800  0.466100  0.814400  1.0  0.0523
  C  C741  1  0.076600  0.487400  0.774800  1.0  0.0303
  C  C742  1  0.015800  0.304800  0.830400  1.0  -0.3886
  C  C743  1  0.016100  0.508200  0.837800  1.0  -0.3546
  C  C744  1  0.127200  0.473200  0.711600  1.0  -0.3638
  C  C745  1  0.706200  0.266200  0.067600  1.0  0.1351
  C  C746  1  0.666900  0.251900  0.104200  1.0  -0.174
  C  C747  1  0.680100  0.250600  0.135600  1.0  0.1217
  C  C748  1  0.736700  0.268700  0.128600  1.0  -0.175
  C  C749  1  0.779400  0.282400  0.091200  1.0  0.1466
  C  C750  1  0.372300  0.876300  0.415400  1.0  0.1364
  C  C751  1  0.392200  0.917200  0.377600  1.0  -0.1497
  C  C752  1  0.382100  0.975100  0.371800  1.0  0.0567
  C  C753  1  0.351100  0.992100  0.403800  1.0  -0.1587
  C  C754  1  0.332400  0.949400  0.441200  1.0  0.1501
  C  C755  1  0.638000  0.234900  0.176000  1.0  -0.1178
  C  C756  1  0.618000  0.174700  0.196000  1.0  -0.0088
  C  C757  1  0.575200  0.157200  0.233600  1.0  -0.012
  C  C758  1  0.556900  0.200700  0.251000  1.0  -0.0771
  C  C759  1  0.576800  0.261000  0.230400  1.0  -0.0683
  C  C760  1  0.616800  0.278100  0.192400  1.0  0.026
  C  C761  1  0.641200  0.129200  0.177600  1.0  -0.3139
  C  C762  1  0.517000  0.181000  0.294000  1.0  -0.374
  C  C763  1  0.641000  0.340700  0.170000  1.0  -0.3694
  C  C764  1  0.552700  0.093900  0.255800  1.0  -0.1444
  C  C765  1  0.450200  0.093300  0.254800  1.0  0.0613
  C  C766  1  0.392300  0.077400  0.271800  1.0  0.0082
  C  C767  1  0.368300  0.038800  0.311400  1.0  0.1473
  C  C768  1  0.404700  0.020700  0.330600  1.0  -0.1088
  C  C769  1  0.466100  0.039800  0.314400  1.0  0.0549
  C  C770  1  0.487400  0.076600  0.274800  1.0  0.0334
  C  C771  1  0.304800  0.015800  0.330400  1.0  -0.3925
  C  C772  1  0.508200  0.016100  0.337800  1.0  -0.3556
  C  C773  1  0.473200  0.127200  0.211600  1.0  -0.3635
  C  C774  1  0.726200  0.666200  0.067600  1.0  0.1376
  C  C775  1  0.728900  0.643900  0.104200  1.0  -0.1736
  C  C776  1  0.684300  0.613800  0.135600  1.0  0.1253
  C  C777  1  0.634700  0.602700  0.128600  1.0  -0.181
  C  C778  1  0.629400  0.626400  0.091200  1.0  0.1526
  C  C779  1  0.712300  0.708300  0.415400  1.0  0.1404
  C  C780  1  0.730200  0.705200  0.377600  1.0  -0.1514
  C  C781  1  0.746100  0.653100  0.371800  1.0  0.0567
  C  C782  1  0.745100  0.604100  0.403800  1.0  -0.1569
  C  C783  1  0.726400  0.609400  0.441200  1.0  0.1569
  C  C784  1  0.686000  0.589100  0.176000  1.0  -0.1177
  C  C785  1  0.686000  0.629300  0.196000  1.0  -0.0115
  C  C786  1  0.691200  0.609200  0.233600  1.0  -0.0145
  C  C787  1  0.692100  0.548300  0.251000  1.0  -0.0792
  C  C788  1  0.692800  0.508600  0.230400  1.0  -0.071
  C  C789  1  0.690800  0.529500  0.192400  1.0  0.029
  C  C790  1  0.681200  0.693200  0.177600  1.0  -0.3133
  C  C791  1  0.689000  0.525000  0.294000  1.0  -0.376
  C  C792  1  0.689000  0.489300  0.170000  1.0  -0.3658
  C  C793  1  0.691500  0.650300  0.255800  1.0  -0.1448
  C  C794  1  0.795000  0.651900  0.254800  1.0  0.0598
  C  C795  1  0.835900  0.650800  0.271800  1.0  0.0105
  C  C796  1  0.820300  0.649800  0.311400  1.0  0.1478
  C  C797  1  0.764700  0.648700  0.330600  1.0  -0.1081
  C  C798  1  0.719500  0.645800  0.314400  1.0  0.052
  C  C799  1  0.737800  0.648600  0.274800  1.0  0.0338
  C  C800  1  0.864800  0.653800  0.330400  1.0  -0.3915
  C  C801  1  0.654000  0.646100  0.337800  1.0  -0.3577
  C  C802  1  0.815200  0.661200  0.211600  1.0  -0.3649
  C  C803  1  0.766200  0.226200  0.567600  1.0  0.1364
  C  C804  1  0.751900  0.228900  0.604200  1.0  -0.1743
  C  C805  1  0.750600  0.184300  0.635600  1.0  0.1219
  C  C806  1  0.768700  0.134700  0.628600  1.0  -0.1786
  C  C807  1  0.782400  0.129400  0.591200  1.0  0.1454
  C  C808  1  0.376300  0.212300  0.915400  1.0  0.1371
  C  C809  1  0.417200  0.230200  0.877600  1.0  -0.1523
  C  C810  1  0.475100  0.246100  0.871800  1.0  0.0546
  C  C811  1  0.492100  0.245100  0.903800  1.0  -0.1572
  C  C812  1  0.449400  0.226400  0.941200  1.0  0.1534
  C  C813  1  0.734900  0.186000  0.676000  1.0  -0.1185
  C  C814  1  0.674700  0.186000  0.696000  1.0  -0.0121
  C  C815  1  0.657200  0.191200  0.733600  1.0  -0.0136
  C  C816  1  0.700700  0.192100  0.751000  1.0  -0.0783
  C  C817  1  0.761000  0.192800  0.730400  1.0  -0.0659
  C  C818  1  0.778100  0.190800  0.692400  1.0  0.028
  C  C819  1  0.629200  0.181200  0.677600  1.0  -0.3153
  C  C820  1  0.681000  0.189000  0.794000  1.0  -0.3783
  C  C821  1  0.840700  0.189000  0.670000  1.0  -0.3706
  C  C822  1  0.593900  0.191500  0.755800  1.0  -0.1428
  C  C823  1  0.593300  0.295000  0.754800  1.0  0.0616
  C  C824  1  0.577400  0.335900  0.771800  1.0  0.0062
  C  C825  1  0.538800  0.320300  0.811400  1.0  0.1474
  C  C826  1  0.520700  0.264700  0.830600  1.0  -0.1084
  C  C827  1  0.539800  0.219500  0.814400  1.0  0.0515
  C  C828  1  0.576600  0.237800  0.774800  1.0  0.0307
  C  C829  1  0.515800  0.364800  0.830400  1.0  -0.388
  C  C830  1  0.516100  0.154000  0.837800  1.0  -0.3542
  C  C831  1  0.627200  0.315200  0.711600  1.0  -0.3638
  C  C832  1  0.166200  0.206200  0.567600  1.0  0.1294
  C  C833  1  0.143900  0.166900  0.604200  1.0  -0.1734
  C  C834  1  0.113800  0.180100  0.635600  1.0  0.1239
  C  C835  1  0.102700  0.236700  0.628600  1.0  -0.1773
  C  C836  1  0.126400  0.279400  0.591200  1.0  0.1447
  C  C837  1  0.208300  0.872300  0.915400  1.0  0.1415
  C  C838  1  0.205200  0.892200  0.877600  1.0  -0.1546
  C  C839  1  0.153100  0.882100  0.871800  1.0  0.0555
  C  C840  1  0.104100  0.851100  0.903800  1.0  -0.1569
  C  C841  1  0.109400  0.832400  0.941200  1.0  0.1551
  C  C842  1  0.089100  0.138000  0.676000  1.0  -0.1175
  C  C843  1  0.129300  0.118000  0.696000  1.0  -0.0082
  C  C844  1  0.109200  0.075200  0.733600  1.0  -0.0097
  C  C845  1  0.048300  0.056900  0.751000  1.0  -0.0755
  C  C846  1  0.008600  0.076800  0.730400  1.0  -0.0684
  C  C847  1  0.029500  0.116800  0.692400  1.0  0.0268
  C  C848  1  0.193200  0.141200  0.677600  1.0  -0.3172
  C  C849  1  0.025000  0.017000  0.794000  1.0  -0.3763
  C  C850  1  0.989300  0.141000  0.670000  1.0  -0.369
  C  C851  1  0.150300  0.052700  0.755800  1.0  -0.1449
  C  C852  1  0.151900  0.950200  0.754800  1.0  0.0605
  C  C853  1  0.150800  0.892300  0.771800  1.0  0.0083
  C  C854  1  0.149800  0.868300  0.811400  1.0  0.146
  C  C855  1  0.148700  0.904700  0.830600  1.0  -0.1085
  C  C856  1  0.145800  0.966100  0.814400  1.0  0.0521
  C  C857  1  0.148600  0.987400  0.774800  1.0  0.0332
  C  C858  1  0.153800  0.804800  0.830400  1.0  -0.3899
  C  C859  1  0.146100  0.008200  0.837800  1.0  -0.353
  C  C860  1  0.161200  0.973200  0.711600  1.0  -0.3665
  C  C861  1  0.773800  0.233800  0.932400  1.0  0.1361
  C  C862  1  0.771100  0.248100  0.895800  1.0  -0.1719
  C  C863  1  0.815700  0.249400  0.864400  1.0  0.1217
  C  C864  1  0.865300  0.231300  0.871400  1.0  -0.1765
  C  C865  1  0.870600  0.217600  0.908800  1.0  0.1472
  C  C866  1  0.787700  0.623700  0.584600  1.0  0.1356
  C  C867  1  0.769800  0.582800  0.622400  1.0  -0.1537
  C  C868  1  0.753900  0.524900  0.628200  1.0  0.0579
  C  C869  1  0.754900  0.507900  0.596200  1.0  -0.1551
  C  C870  1  0.773600  0.550600  0.558800  1.0  0.1588
  C  C871  1  0.814000  0.265100  0.824000  1.0  -0.1179
  C  C872  1  0.814000  0.325300  0.804000  1.0  -0.0113
  C  C873  1  0.808800  0.342800  0.766400  1.0  -0.0136
  C  C874  1  0.807900  0.299300  0.749000  1.0  -0.0795
  C  C875  1  0.807200  0.239000  0.769600  1.0  -0.0677
  C  C876  1  0.809200  0.221900  0.807600  1.0  0.0293
  C  C877  1  0.818800  0.370800  0.822400  1.0  -0.3118
  C  C878  1  0.811000  0.319000  0.706000  1.0  -0.3767
  C  C879  1  0.811000  0.159300  0.830000  1.0  -0.3656
  C  C880  1  0.808500  0.406100  0.744200  1.0  -0.1448
  C  C881  1  0.705000  0.406700  0.745200  1.0  0.0614
  C  C882  1  0.664100  0.422600  0.728200  1.0  0.0107
  C  C883  1  0.679700  0.461200  0.688600  1.0  0.1461
  C  C884  1  0.735300  0.479300  0.669400  1.0  -0.109
  C  C885  1  0.780500  0.460200  0.685600  1.0  0.056
  C  C886  1  0.762200  0.423400  0.725200  1.0  0.034
  C  C887  1  0.635200  0.484200  0.669600  1.0  -0.3886
  C  C888  1  0.846000  0.483900  0.662200  1.0  -0.3581
  C  C889  1  0.684800  0.372800  0.788400  1.0  -0.363
  C  C890  1  0.793800  0.833800  0.932400  1.0  0.1286
  C  C891  1  0.833100  0.856100  0.895800  1.0  -0.1711
  C  C892  1  0.819900  0.886200  0.864400  1.0  0.123
  C  C893  1  0.763300  0.897300  0.871400  1.0  -0.1777
  C  C894  1  0.720600  0.873600  0.908800  1.0  0.1473
  C  C895  1  0.127700  0.791700  0.584600  1.0  0.146
  C  C896  1  0.107800  0.794800  0.622400  1.0  -0.1527
  C  C897  1  0.117900  0.846900  0.628200  1.0  0.0569
  C  C898  1  0.148900  0.895900  0.596200  1.0  -0.1559
  C  C899  1  0.167600  0.890600  0.558800  1.0  0.156
  C  C900  1  0.862000  0.910900  0.824000  1.0  -0.1188
  C  C901  1  0.882000  0.870700  0.804000  1.0  -0.0092
  C  C902  1  0.924800  0.890800  0.766400  1.0  -0.0142
  C  C903  1  0.943100  0.951700  0.749000  1.0  -0.0797
  C  C904  1  0.923200  0.991400  0.769600  1.0  -0.0714
  C  C905  1  0.883200  0.970500  0.807600  1.0  0.0261
  C  C906  1  0.858800  0.806800  0.822400  1.0  -0.3131
  C  C907  1  0.983000  0.975000  0.706000  1.0  -0.374
  C  C908  1  0.859000  0.010700  0.830000  1.0  -0.3681
  C  C909  1  0.947300  0.849700  0.744200  1.0  -0.142
  C  C910  1  0.049800  0.848100  0.745200  1.0  0.0602
  C  C911  1  0.107700  0.849200  0.728200  1.0  0.0092
  C  C912  1  0.131700  0.850200  0.688600  1.0  0.1456
  C  C913  1  0.095300  0.851300  0.669400  1.0  -0.1064
  C  C914  1  0.033900  0.854200  0.685600  1.0  0.0503
  C  C915  1  0.012600  0.851400  0.725200  1.0  0.0344
  C  C916  1  0.195200  0.846200  0.669600  1.0  -0.3931
  C  C917  1  0.991800  0.853900  0.662200  1.0  -0.3523
  C  C918  1  0.026800  0.838800  0.788400  1.0  -0.3651
  C  C919  1  0.333800  0.273800  0.432400  1.0  0.1293
  C  C920  1  0.356100  0.271100  0.395800  1.0  -0.1785
  C  C921  1  0.386200  0.315700  0.364400  1.0  0.123
  C  C922  1  0.397300  0.365300  0.371400  1.0  -0.1807
  C  C923  1  0.373600  0.370600  0.408800  1.0  0.1521
  C  C924  1  0.291700  0.287700  0.084600  1.0  0.1392
  C  C925  1  0.294800  0.269800  0.122400  1.0  -0.1522
  C  C926  1  0.346900  0.253900  0.128200  1.0  0.0582
  C  C927  1  0.395900  0.254900  0.096200  1.0  -0.1581
  C  C928  1  0.390600  0.273600  0.058800  1.0  0.1563
  C  C929  1  0.410900  0.314000  0.324000  1.0  -0.1172
  C  C930  1  0.370700  0.314000  0.304000  1.0  -0.0109
  C  C931  1  0.390800  0.308800  0.266400  1.0  -0.01
  C  C932  1  0.451700  0.307900  0.249000  1.0  -0.0777
  C  C933  1  0.491400  0.307200  0.269600  1.0  -0.0644
  C  C934  1  0.470500  0.309200  0.307600  1.0  0.0302
  C  C935  1  0.306800  0.318800  0.322400  1.0  -0.3154
  C  C936  1  0.475000  0.311000  0.206000  1.0  -0.3765
  C  C937  1  0.510700  0.311000  0.330000  1.0  -0.3687
  C  C938  1  0.349700  0.308500  0.244200  1.0  -0.1421
  C  C939  1  0.348100  0.205000  0.245200  1.0  0.0609
  C  C940  1  0.349200  0.164100  0.228200  1.0  0.0062
  C  C941  1  0.350200  0.179700  0.188600  1.0  0.1469
  C  C942  1  0.351300  0.235300  0.169400  1.0  -0.1083
  C  C943  1  0.354200  0.280500  0.185600  1.0  0.0522
  C  C944  1  0.351400  0.262200  0.225200  1.0  0.0338
  C  C945  1  0.346200  0.135200  0.169600  1.0  -0.3875
  C  C946  1  0.353900  0.346000  0.162200  1.0  -0.3543
  C  C947  1  0.338800  0.184800  0.288400  1.0  -0.3658
  C  C948  1  0.733800  0.293800  0.432400  1.0  0.1392
  C  C949  1  0.748100  0.333100  0.395800  1.0  -0.1702
  C  C950  1  0.749400  0.319900  0.364400  1.0  0.1218
  C  C951  1  0.731300  0.263300  0.371400  1.0  -0.1769
  C  C952  1  0.717600  0.220600  0.408800  1.0  0.14
  C  C953  1  0.123700  0.627700  0.084600  1.0  0.1393
  C  C954  1  0.082800  0.607800  0.122400  1.0  -0.1538
  C  C955  1  0.024900  0.617900  0.128200  1.0  0.0582
  C  C956  1  0.007900  0.648900  0.096200  1.0  -0.154
  C  C957  1  0.050600  0.667600  0.058800  1.0  0.1569
  C  C958  1  0.765100  0.362000  0.324000  1.0  -0.119
  C  C959  1  0.825300  0.382000  0.304000  1.0  -0.0111
  C  C960  1  0.842800  0.424800  0.266400  1.0  -0.0133
  C  C961  1  0.799300  0.443100  0.249000  1.0  -0.0789
  C  C962  1  0.739000  0.423200  0.269600  1.0  -0.0658
  C  C963  1  0.721900  0.383200  0.307600  1.0  0.0253
  C  C964  1  0.870800  0.358800  0.322400  1.0  -0.3153
  C  C965  1  0.819000  0.483000  0.206000  1.0  -0.3753
  C  C966  1  0.659300  0.359000  0.330000  1.0  -0.3698
  C  C967  1  0.906100  0.447300  0.244200  1.0  -0.1445
  C  C968  1  0.906700  0.549800  0.245200  1.0  0.0604
  C  C969  1  0.922600  0.607700  0.228200  1.0  0.0065
  C  C970  1  0.961200  0.631700  0.188600  1.0  0.1466
  C  C971  1  0.979300  0.595300  0.169400  1.0  -0.1081
  C  C972  1  0.960200  0.533900  0.185600  1.0  0.0555
  C  C973  1  0.923400  0.512600  0.225200  1.0  0.0327
  C  C974  1  0.984200  0.695200  0.169600  1.0  -0.387
  C  C975  1  0.983900  0.491800  0.162200  1.0  -0.3543
  C  C976  1  0.872800  0.526800  0.288400  1.0  -0.3592
  C  C977  1  0.444850  0.694850  0.750000  1.0  -0.1742
  C  C978  1  0.650000  0.900000  0.750000  1.0  -0.1648
  C  C979  1  0.305150  0.555150  0.750000  1.0  -0.176
  C  C980  1  0.100000  0.350000  0.750000  1.0  -0.161
  C  C981  1  0.194850  0.805150  0.250000  1.0  -0.1756
  C  C982  1  0.400000  0.600000  0.250000  1.0  -0.1643
  C  C983  1  0.055150  0.944850  0.250000  1.0  -0.1754
  C  C984  1  0.850000  0.150000  0.250000  1.0  -0.165
  C  C985  1  0.555150  0.305150  0.250000  1.0  -0.176
  C  C986  1  0.350000  0.100000  0.250000  1.0  -0.161
  C  C987  1  0.694850  0.444850  0.250000  1.0  -0.1742
  C  C988  1  0.900000  0.650000  0.250000  1.0  -0.1648
  C  C989  1  0.805150  0.194850  0.750000  1.0  -0.1754
  C  C990  1  0.600000  0.400000  0.750000  1.0  -0.165
  C  C991  1  0.944850  0.055150  0.750000  1.0  -0.1756
  C  C992  1  0.150000  0.850000  0.750000  1.0  -0.1643
  N  N993  1  0.237500  0.717600  0.939000  1.0  -0.3659
  N  N994  1  0.659900  0.109300  0.554000  1.0  -0.3353
  N  N995  1  0.323500  0.343400  0.939000  1.0  -0.3641
  N  N996  1  0.286100  0.336700  0.554000  1.0  -0.3382
  N  N997  1  0.217600  0.823500  0.439000  1.0  -0.363
  N  N998  1  0.609300  0.786100  0.054000  1.0  -0.3403
  N  N999  1  0.843400  0.737500  0.439000  1.0  -0.3602
  N  N1000  1  0.836700  0.159900  0.054000  1.0  -0.337
  N  N1001  1  0.176500  0.782400  0.061000  1.0  -0.3693
  N  N1002  1  0.213900  0.390700  0.446000  1.0  -0.3358
  N  N1003  1  0.262500  0.156600  0.061000  1.0  -0.3642
  N  N1004  1  0.840100  0.163300  0.446000  1.0  -0.3361
  N  N1005  1  0.656600  0.676500  0.561000  1.0  -0.3652
  N  N1006  1  0.663300  0.713900  0.946000  1.0  -0.3403
  N  N1007  1  0.282400  0.762500  0.561000  1.0  -0.3609
  N  N1008  1  0.890700  0.340100  0.946000  1.0  -0.3351
  N  N1009  1  0.762500  0.282400  0.061000  1.0  -0.3664
  N  N1010  1  0.340100  0.890700  0.446000  1.0  -0.3347
  N  N1011  1  0.676500  0.656600  0.061000  1.0  -0.3665
  N  N1012  1  0.713900  0.663300  0.446000  1.0  -0.3367
  N  N1013  1  0.782400  0.176500  0.561000  1.0  -0.3662
  N  N1014  1  0.390700  0.213900  0.946000  1.0  -0.3376
  N  N1015  1  0.156600  0.262500  0.561000  1.0  -0.3608
  N  N1016  1  0.163300  0.840100  0.946000  1.0  -0.3381
  N  N1017  1  0.823500  0.217600  0.939000  1.0  -0.3679
  N  N1018  1  0.786100  0.609300  0.554000  1.0  -0.3388
  N  N1019  1  0.737500  0.843400  0.939000  1.0  -0.361
  N  N1020  1  0.159900  0.836700  0.554000  1.0  -0.3346
  N  N1021  1  0.343400  0.323500  0.439000  1.0  -0.3621
  N  N1022  1  0.336700  0.286100  0.054000  1.0  -0.3419
  N  N1023  1  0.717600  0.237500  0.439000  1.0  -0.3629
  N  N1024  1  0.109300  0.659900  0.054000  1.0  -0.3359
  F  F1025  1  0.471500  0.781100  0.903400  1.0  -0.4197
  F  F1026  1  0.395500  0.796200  0.947000  1.0  -0.3774
  F  F1027  1  0.429100  0.888100  0.926600  1.0  -0.3311
  F  F1028  1  0.505000  0.872900  0.883200  1.0  -0.3822
  F  F1029  1  0.417400  0.848500  0.885400  1.0  -0.4541
  F  F1030  1  0.483100  0.820600  0.944800  1.0  -0.3942
  F  F1031  1  0.125100  0.315500  0.903400  1.0  -0.4147
  F  F1032  1  0.157500  0.256800  0.947000  1.0  -0.3843
  F  F1033  1  0.144300  0.185300  0.926600  1.0  -0.3325
  F  F1034  1  0.111800  0.243900  0.883200  1.0  -0.3796
  F  F1035  1  0.197200  0.266100  0.885400  1.0  -0.454
  F  F1036  1  0.072100  0.234600  0.944800  1.0  -0.3839
  F  F1037  1  0.281100  0.625100  0.403400  1.0  -0.4175
  F  F1038  1  0.296200  0.657500  0.447000  1.0  -0.3806
  F  F1039  1  0.388100  0.644300  0.426600  1.0  -0.3336
  F  F1040  1  0.372900  0.611800  0.383200  1.0  -0.3787
  F  F1041  1  0.348500  0.697200  0.385400  1.0  -0.4542
  F  F1042  1  0.320600  0.572100  0.444800  1.0  -0.3917
  F  F1043  1  0.815500  0.971500  0.403400  1.0  -0.4097
  F  F1044  1  0.756800  0.895500  0.447000  1.0  -0.3836
  F  F1045  1  0.685300  0.929100  0.426600  1.0  -0.3259
  F  F1046  1  0.743900  0.005000  0.383200  1.0  -0.3807
  F  F1047  1  0.766100  0.917400  0.385400  1.0  -0.4549
  F  F1048  1  0.734600  0.983100  0.444800  1.0  -0.3943
  F  F1049  1  0.374900  0.718900  0.096600  1.0  -0.4176
  F  F1050  1  0.342500  0.703800  0.053000  1.0  -0.3781
  F  F1051  1  0.355700  0.611900  0.073400  1.0  -0.3349
  F  F1052  1  0.388200  0.627100  0.116800  1.0  -0.3823
  F  F1053  1  0.302800  0.651500  0.114600  1.0  -0.4549
  F  F1054  1  0.427900  0.679400  0.055200  1.0  -0.3914
  F  F1055  1  0.028500  0.184500  0.096600  1.0  -0.4158
  F  F1056  1  0.104500  0.243200  0.053000  1.0  -0.3804
  F  F1057  1  0.070900  0.314700  0.073400  1.0  -0.3359
  F  F1058  1  0.995000  0.256100  0.116800  1.0  -0.3786
  F  F1059  1  0.082600  0.233900  0.114600  1.0  -0.4569
  F  F1060  1  0.016900  0.265400  0.055200  1.0  -0.3931
  F  F1061  1  0.684500  0.874900  0.596600  1.0  -0.4104
  F  F1062  1  0.743200  0.842500  0.553000  1.0  -0.3791
  F  F1063  1  0.814700  0.855700  0.573400  1.0  -0.3267
  F  F1064  1  0.756100  0.888200  0.616800  1.0  -0.381
  F  F1065  1  0.733900  0.802800  0.614600  1.0  -0.4533
  F  F1066  1  0.765400  0.927900  0.555200  1.0  -0.3931
  F  F1067  1  0.218900  0.528500  0.596600  1.0  -0.4163
  F  F1068  1  0.203800  0.604500  0.553000  1.0  -0.3803
  F  F1069  1  0.111900  0.570900  0.573400  1.0  -0.3291
  F  F1070  1  0.127100  0.495000  0.616800  1.0  -0.3829
  F  F1071  1  0.151500  0.582600  0.614600  1.0  -0.4538
  F  F1072  1  0.179400  0.516900  0.555200  1.0  -0.3968
  F  F1073  1  0.528500  0.218900  0.096600  1.0  -0.4171
  F  F1074  1  0.604500  0.203800  0.053000  1.0  -0.3776
  F  F1075  1  0.570900  0.111900  0.073400  1.0  -0.3345
  F  F1076  1  0.495000  0.127100  0.116800  1.0  -0.3795
  F  F1077  1  0.582600  0.151500  0.114600  1.0  -0.4562
  F  F1078  1  0.516900  0.179400  0.055200  1.0  -0.3911
  F  F1079  1  0.874900  0.684500  0.096600  1.0  -0.4157
  F  F1080  1  0.842500  0.743200  0.053000  1.0  -0.3789
  F  F1081  1  0.855700  0.814700  0.073400  1.0  -0.3334
  F  F1082  1  0.888200  0.756100  0.116800  1.0  -0.3801
  F  F1083  1  0.802800  0.733900  0.114600  1.0  -0.4546
  F  F1084  1  0.927900  0.765400  0.055200  1.0  -0.3887
  F  F1085  1  0.718900  0.374900  0.596600  1.0  -0.4173
  F  F1086  1  0.703800  0.342500  0.553000  1.0  -0.3802
  F  F1087  1  0.611900  0.355700  0.573400  1.0  -0.3302
  F  F1088  1  0.627100  0.388200  0.616800  1.0  -0.3815
  F  F1089  1  0.651500  0.302800  0.614600  1.0  -0.4521
  F  F1090  1  0.679400  0.427900  0.555200  1.0  -0.3983
  F  F1091  1  0.184500  0.028500  0.596600  1.0  -0.4104
  F  F1092  1  0.243200  0.104500  0.553000  1.0  -0.3814
  F  F1093  1  0.314700  0.070900  0.573400  1.0  -0.3279
  F  F1094  1  0.256100  0.995000  0.616800  1.0  -0.3791
  F  F1095  1  0.233900  0.082600  0.614600  1.0  -0.4576
  F  F1096  1  0.265400  0.016900  0.555200  1.0  -0.3943
  F  F1097  1  0.625100  0.281100  0.903400  1.0  -0.4196
  F  F1098  1  0.657500  0.296200  0.947000  1.0  -0.3845
  F  F1099  1  0.644300  0.388100  0.926600  1.0  -0.3355
  F  F1100  1  0.611800  0.372900  0.883200  1.0  -0.3828
  F  F1101  1  0.697200  0.348500  0.885400  1.0  -0.4546
  F  F1102  1  0.572100  0.320600  0.944800  1.0  -0.3844
  F  F1103  1  0.971500  0.815500  0.903400  1.0  -0.415
  F  F1104  1  0.895500  0.756800  0.947000  1.0  -0.3813
  F  F1105  1  0.929100  0.685300  0.926600  1.0  -0.3305
  F  F1106  1  0.005000  0.743900  0.883200  1.0  -0.3806
  F  F1107  1  0.917400  0.766100  0.885400  1.0  -0.4566
  F  F1108  1  0.983100  0.734600  0.944800  1.0  -0.3965
  F  F1109  1  0.315500  0.125100  0.403400  1.0  -0.4097
  F  F1110  1  0.256800  0.157500  0.447000  1.0  -0.3823
  F  F1111  1  0.185300  0.144300  0.426600  1.0  -0.3249
  F  F1112  1  0.243900  0.111800  0.383200  1.0  -0.3821
  F  F1113  1  0.266100  0.197200  0.385400  1.0  -0.4516
  F  F1114  1  0.234600  0.072100  0.444800  1.0  -0.3886
  F  F1115  1  0.781100  0.471500  0.403400  1.0  -0.4163
  F  F1116  1  0.796200  0.395500  0.447000  1.0  -0.378
  F  F1117  1  0.888100  0.429100  0.426600  1.0  -0.3338
  F  F1118  1  0.872900  0.505000  0.383200  1.0  -0.3792
  F  F1119  1  0.848500  0.417400  0.385400  1.0  -0.4552
  F  F1120  1  0.820600  0.483100  0.444800  1.0  -0.3922
