# generated using pymatgen
data_FeNi2H44C31N18O5
_symmetry_space_group_name_H-M   'P 1'
_cell_length_a   24.68400000
_cell_length_b   15.20200000
_cell_length_c   25.36800000
_cell_angle_alpha   90.00000000
_cell_angle_beta   97.78000000
_cell_angle_gamma   90.00000000
_symmetry_Int_Tables_number   1
_chemical_formula_structural   FeNi2H44C31N18O5
_chemical_formula_sum   'Fe8 Ni16 H352 C248 N144 O40'
_cell_volume   9431.62160543
_cell_formula_units_Z   8
loop_
 _symmetry_equiv_pos_site_id
 _symmetry_equiv_pos_as_xyz
  1  'x, y, z'
loop_
 _atom_site_type_symbol
 _atom_site_label
 _atom_site_symmetry_multiplicity
 _atom_site_fract_x
 _atom_site_fract_y
 _atom_site_fract_z
 _atom_site_occupancy
 _atom_site_charge
  Fe  Fe1  1  0.153000  0.173190  0.152000  1.0  -0.3291
  Fe  Fe2  1  0.653000  0.673190  0.152000  1.0  -0.3291
  Fe  Fe3  1  0.847000  0.173190  0.348000  1.0  -0.3322
  Fe  Fe4  1  0.347000  0.673190  0.348000  1.0  -0.3322
  Fe  Fe5  1  0.847000  0.826810  0.848000  1.0  -0.3303
  Fe  Fe6  1  0.347000  0.326810  0.848000  1.0  -0.3303
  Fe  Fe7  1  0.153000  0.826810  0.652000  1.0  -0.3277
  Fe  Fe8  1  0.653000  0.326810  0.652000  1.0  -0.3277
  Ni  Ni9  1  0.228900  0.415050  0.279640  1.0  0.6174
  Ni  Ni10  1  0.728900  0.915050  0.279640  1.0  0.6174
  Ni  Ni11  1  0.771100  0.415050  0.220360  1.0  0.6169
  Ni  Ni12  1  0.271100  0.915050  0.220360  1.0  0.6169
  Ni  Ni13  1  0.771100  0.584950  0.720360  1.0  0.6165
  Ni  Ni14  1  0.271100  0.084950  0.720360  1.0  0.6165
  Ni  Ni15  1  0.228900  0.584950  0.779640  1.0  0.6162
  Ni  Ni16  1  0.728900  0.084950  0.779640  1.0  0.6162
  Ni  Ni17  1  0.250000  0.250000  0.000000  1.0  0.5207
  Ni  Ni18  1  0.750000  0.250000  0.500000  1.0  0.5207
  Ni  Ni19  1  0.750000  0.750000  0.000000  1.0  0.5207
  Ni  Ni20  1  0.250000  0.750000  0.500000  1.0  0.5207
  Ni  Ni21  1  0.000000  0.095330  0.250000  1.0  0.6288
  Ni  Ni22  1  0.500000  0.595330  0.250000  1.0  0.6288
  Ni  Ni23  1  0.000000  0.904670  0.750000  1.0  0.6304
  Ni  Ni24  1  0.500000  0.404670  0.750000  1.0  0.6304
  H  H25  1  0.316500  0.131500  0.990100  1.0  0.2825
  H  H26  1  0.166800  0.159200  0.005100  1.0  0.3028
  H  H27  1  0.277600  0.384700  0.371400  1.0  0.2259
  H  H28  1  0.173400  0.449400  0.189600  1.0  0.2454
  H  H29  1  0.135900  0.387600  0.297000  1.0  0.2665
  H  H30  1  0.323200  0.445800  0.257600  1.0  0.2308
  H  H31  1  0.187900  0.030700  0.974300  1.0  0.1072
  H  H32  1  0.227700  0.074200  0.939400  1.0  0.0999
  H  H33  1  0.242800  0.064900  0.051500  1.0  0.1025
  H  H34  1  0.276100  0.011500  0.014600  1.0  0.1071
  H  H35  1  0.169500  0.195100  0.901400  1.0  0.1101
  H  H36  1  0.120100  0.151000  0.922300  1.0  0.1114
  H  H37  1  0.359100  0.094300  0.070000  1.0  0.1078
  H  H38  1  0.318400  0.153500  0.095300  1.0  0.1136
  H  H39  1  0.156400  0.595000  0.187800  1.0  0.1145
  H  H40  1  0.191700  0.603400  0.243400  1.0  0.1226
  H  H41  1  0.269900  0.549900  0.191200  1.0  0.1038
  H  H42  1  0.236600  0.506000  0.141200  1.0  0.1226
  H  H43  1  0.259900  0.375600  0.168700  1.0  0.1072
  H  H44  1  0.312000  0.432100  0.166800  1.0  0.0897
  H  H45  1  0.357500  0.321600  0.238300  1.0  0.0995
  H  H46  1  0.300000  0.281000  0.236000  1.0  0.0969
  H  H47  1  0.259500  0.264200  0.306400  1.0  0.1051
  H  H48  1  0.291300  0.250800  0.362100  1.0  0.0986
  H  H49  1  0.218900  0.331800  0.414600  1.0  0.0808
  H  H50  1  0.189100  0.281000  0.366100  1.0  0.1027
  H  H51  1  0.140800  0.386200  0.384300  1.0  0.0911
  H  H52  1  0.188800  0.452200  0.390500  1.0  0.0926
  H  H53  1  0.145500  0.545600  0.323000  1.0  0.1077
  H  H54  1  0.092900  0.490800  0.309000  1.0  0.1355
  H  H55  1  0.994900  0.208900  0.321700  1.0  0.2545
  H  H56  1  0.056700  0.279800  0.253500  1.0  0.1042
  H  H57  1  0.023200  0.329500  0.292100  1.0  0.102
  H  H58  1  0.996600  0.998300  0.326300  1.0  0.2887
  H  H59  1  0.012700  0.877000  0.298000  1.0  0.1367
  H  H60  1  0.056200  0.915800  0.266100  1.0  0.1111
  H  H61  1  0.106100  0.028800  0.329900  1.0  0.1115
  H  H62  1  0.078400  0.991800  0.376300  1.0  0.0866
  H  H63  1  0.079400  0.240200  0.360200  1.0  0.0937
  H  H64  1  0.103500  0.184300  0.317900  1.0  0.0945
  H  H65  1  0.998200  0.098300  0.390400  1.0  0.1065
  H  H66  1  0.028800  0.176900  0.419100  1.0  0.1255
  H  H67  1  0.111600  0.265800  0.010800  1.0  0.1208
  H  H68  1  0.081400  0.344300  0.981200  1.0  0.1341
  H  H69  1  0.816500  0.631500  0.990100  1.0  0.2825
  H  H70  1  0.666800  0.659200  0.005100  1.0  0.3028
  H  H71  1  0.777600  0.884700  0.371400  1.0  0.2259
  H  H72  1  0.673400  0.949400  0.189600  1.0  0.2454
  H  H73  1  0.635900  0.887600  0.297000  1.0  0.2665
  H  H74  1  0.823200  0.945800  0.257600  1.0  0.2308
  H  H75  1  0.687900  0.530700  0.974300  1.0  0.1072
  H  H76  1  0.727700  0.574200  0.939400  1.0  0.0999
  H  H77  1  0.742800  0.564900  0.051500  1.0  0.1025
  H  H78  1  0.776100  0.511500  0.014600  1.0  0.1071
  H  H79  1  0.669500  0.695100  0.901400  1.0  0.1101
  H  H80  1  0.620100  0.651000  0.922300  1.0  0.1114
  H  H81  1  0.859100  0.594300  0.070000  1.0  0.1078
  H  H82  1  0.818400  0.653500  0.095300  1.0  0.1136
  H  H83  1  0.656400  0.095000  0.187800  1.0  0.1145
  H  H84  1  0.691700  0.103400  0.243400  1.0  0.1226
  H  H85  1  0.769900  0.049900  0.191200  1.0  0.1038
  H  H86  1  0.736600  0.006000  0.141200  1.0  0.1226
  H  H87  1  0.759900  0.875600  0.168700  1.0  0.1072
  H  H88  1  0.812000  0.932100  0.166800  1.0  0.0897
  H  H89  1  0.857500  0.821600  0.238300  1.0  0.0995
  H  H90  1  0.800000  0.781000  0.236000  1.0  0.0969
  H  H91  1  0.759500  0.764200  0.306400  1.0  0.1051
  H  H92  1  0.791300  0.750800  0.362100  1.0  0.0986
  H  H93  1  0.718900  0.831800  0.414600  1.0  0.0808
  H  H94  1  0.689100  0.781000  0.366100  1.0  0.1027
  H  H95  1  0.640800  0.886200  0.384300  1.0  0.0911
  H  H96  1  0.688800  0.952200  0.390500  1.0  0.0926
  H  H97  1  0.645500  0.045600  0.323000  1.0  0.1077
  H  H98  1  0.592900  0.990800  0.309000  1.0  0.1355
  H  H99  1  0.494900  0.708900  0.321700  1.0  0.2545
  H  H100  1  0.556700  0.779800  0.253500  1.0  0.1042
  H  H101  1  0.523200  0.829500  0.292100  1.0  0.102
  H  H102  1  0.496600  0.498300  0.326300  1.0  0.2887
  H  H103  1  0.512700  0.377000  0.298000  1.0  0.1367
  H  H104  1  0.556200  0.415800  0.266100  1.0  0.1111
  H  H105  1  0.606100  0.528800  0.329900  1.0  0.1115
  H  H106  1  0.578400  0.491800  0.376300  1.0  0.0866
  H  H107  1  0.579400  0.740200  0.360200  1.0  0.0937
  H  H108  1  0.603500  0.684300  0.317900  1.0  0.0945
  H  H109  1  0.498200  0.598300  0.390400  1.0  0.1065
  H  H110  1  0.528800  0.676900  0.419100  1.0  0.1255
  H  H111  1  0.611600  0.765800  0.010800  1.0  0.1208
  H  H112  1  0.581400  0.844300  0.981200  1.0  0.1341
  H  H113  1  0.683500  0.131500  0.509900  1.0  0.2807
  H  H114  1  0.833200  0.159200  0.494900  1.0  0.3032
  H  H115  1  0.722400  0.384700  0.128600  1.0  0.2248
  H  H116  1  0.826600  0.449400  0.310400  1.0  0.2447
  H  H117  1  0.864100  0.387600  0.203000  1.0  0.2653
  H  H118  1  0.676800  0.445800  0.242400  1.0  0.2317
  H  H119  1  0.812100  0.030700  0.525700  1.0  0.1055
  H  H120  1  0.772300  0.074200  0.560600  1.0  0.0987
  H  H121  1  0.757200  0.064900  0.448500  1.0  0.1034
  H  H122  1  0.723900  0.011500  0.485400  1.0  0.1073
  H  H123  1  0.830500  0.195100  0.598600  1.0  0.1097
  H  H124  1  0.879900  0.151000  0.577700  1.0  0.1124
  H  H125  1  0.640900  0.094300  0.430000  1.0  0.1087
  H  H126  1  0.681600  0.153500  0.404700  1.0  0.1135
  H  H127  1  0.843600  0.595000  0.312200  1.0  0.1144
  H  H128  1  0.808300  0.603400  0.256600  1.0  0.123
  H  H129  1  0.730100  0.549900  0.308800  1.0  0.1047
  H  H130  1  0.763400  0.506000  0.358800  1.0  0.1236
  H  H131  1  0.740100  0.375600  0.331300  1.0  0.1074
  H  H132  1  0.688000  0.432100  0.333200  1.0  0.0885
  H  H133  1  0.642500  0.321600  0.261700  1.0  0.0998
  H  H134  1  0.700000  0.281000  0.264000  1.0  0.097
  H  H135  1  0.740500  0.264200  0.193600  1.0  0.104
  H  H136  1  0.708700  0.250800  0.137900  1.0  0.099
  H  H137  1  0.781100  0.331800  0.085400  1.0  0.0794
  H  H138  1  0.810900  0.281000  0.133900  1.0  0.1016
  H  H139  1  0.859200  0.386200  0.115700  1.0  0.0941
  H  H140  1  0.811200  0.452200  0.109500  1.0  0.0909
  H  H141  1  0.854500  0.545600  0.177000  1.0  0.109
  H  H142  1  0.907100  0.490800  0.191000  1.0  0.1389
  H  H143  1  0.005100  0.208900  0.178300  1.0  0.2569
  H  H144  1  0.943300  0.279800  0.246500  1.0  0.1045
  H  H145  1  0.976800  0.329500  0.207900  1.0  0.1042
  H  H146  1  0.003400  0.998300  0.173700  1.0  0.2886
  H  H147  1  0.987300  0.877000  0.202000  1.0  0.1341
  H  H148  1  0.943800  0.915800  0.233900  1.0  0.1084
  H  H149  1  0.893900  0.028800  0.170100  1.0  0.1112
  H  H150  1  0.921600  0.991800  0.123700  1.0  0.0869
  H  H151  1  0.920600  0.240200  0.139800  1.0  0.0946
  H  H152  1  0.896500  0.184300  0.182100  1.0  0.0948
  H  H153  1  0.001800  0.098300  0.109600  1.0  0.1067
  H  H154  1  0.971200  0.176900  0.080900  1.0  0.127
  H  H155  1  0.888400  0.265800  0.489200  1.0  0.1216
  H  H156  1  0.918600  0.344300  0.518800  1.0  0.134
  H  H157  1  0.183500  0.631500  0.509900  1.0  0.2807
  H  H158  1  0.333200  0.659200  0.494900  1.0  0.3032
  H  H159  1  0.222400  0.884700  0.128600  1.0  0.2248
  H  H160  1  0.326600  0.949400  0.310400  1.0  0.2447
  H  H161  1  0.364100  0.887600  0.203000  1.0  0.2653
  H  H162  1  0.176800  0.945800  0.242400  1.0  0.2317
  H  H163  1  0.312100  0.530700  0.525700  1.0  0.1055
  H  H164  1  0.272300  0.574200  0.560600  1.0  0.0987
  H  H165  1  0.257200  0.564900  0.448500  1.0  0.1034
  H  H166  1  0.223900  0.511500  0.485400  1.0  0.1073
  H  H167  1  0.330500  0.695100  0.598600  1.0  0.1097
  H  H168  1  0.379900  0.651000  0.577700  1.0  0.1124
  H  H169  1  0.140900  0.594300  0.430000  1.0  0.1087
  H  H170  1  0.181600  0.653500  0.404700  1.0  0.1135
  H  H171  1  0.343600  0.095000  0.312200  1.0  0.1144
  H  H172  1  0.308300  0.103400  0.256600  1.0  0.123
  H  H173  1  0.230100  0.049900  0.308800  1.0  0.1047
  H  H174  1  0.263400  0.006000  0.358800  1.0  0.1236
  H  H175  1  0.240100  0.875600  0.331300  1.0  0.1074
  H  H176  1  0.188000  0.932100  0.333200  1.0  0.0885
  H  H177  1  0.142500  0.821600  0.261700  1.0  0.0998
  H  H178  1  0.200000  0.781000  0.264000  1.0  0.097
  H  H179  1  0.240500  0.764200  0.193600  1.0  0.104
  H  H180  1  0.208700  0.750800  0.137900  1.0  0.099
  H  H181  1  0.281100  0.831800  0.085400  1.0  0.0794
  H  H182  1  0.310900  0.781000  0.133900  1.0  0.1016
  H  H183  1  0.359200  0.886200  0.115700  1.0  0.0941
  H  H184  1  0.311200  0.952200  0.109500  1.0  0.0909
  H  H185  1  0.354500  0.045600  0.177000  1.0  0.109
  H  H186  1  0.407100  0.990800  0.191000  1.0  0.1389
  H  H187  1  0.505100  0.708900  0.178300  1.0  0.2569
  H  H188  1  0.443300  0.779800  0.246500  1.0  0.1045
  H  H189  1  0.476800  0.829500  0.207900  1.0  0.1042
  H  H190  1  0.503400  0.498300  0.173700  1.0  0.2886
  H  H191  1  0.487300  0.377000  0.202000  1.0  0.1341
  H  H192  1  0.443800  0.415800  0.233900  1.0  0.1084
  H  H193  1  0.393900  0.528800  0.170100  1.0  0.1112
  H  H194  1  0.421600  0.491800  0.123700  1.0  0.0869
  H  H195  1  0.420600  0.740200  0.139800  1.0  0.0946
  H  H196  1  0.396500  0.684300  0.182100  1.0  0.0948
  H  H197  1  0.501800  0.598300  0.109600  1.0  0.1067
  H  H198  1  0.471200  0.676900  0.080900  1.0  0.127
  H  H199  1  0.388400  0.765800  0.489200  1.0  0.1216
  H  H200  1  0.418600  0.844300  0.518800  1.0  0.134
  H  H201  1  0.683500  0.868500  0.009900  1.0  0.2806
  H  H202  1  0.833200  0.840800  0.994900  1.0  0.3032
  H  H203  1  0.722400  0.615300  0.628600  1.0  0.2246
  H  H204  1  0.826600  0.550600  0.810400  1.0  0.2445
  H  H205  1  0.864100  0.612400  0.703000  1.0  0.2648
  H  H206  1  0.676800  0.554200  0.742400  1.0  0.2311
  H  H207  1  0.812100  0.969300  0.025700  1.0  0.1051
  H  H208  1  0.772300  0.925800  0.060600  1.0  0.0976
  H  H209  1  0.757200  0.935100  0.948500  1.0  0.1031
  H  H210  1  0.723900  0.988500  0.985400  1.0  0.1088
  H  H211  1  0.830500  0.804900  0.098600  1.0  0.1096
  H  H212  1  0.879900  0.849000  0.077700  1.0  0.1117
  H  H213  1  0.640900  0.905700  0.930000  1.0  0.1094
  H  H214  1  0.681600  0.846500  0.904700  1.0  0.1138
  H  H215  1  0.843600  0.405000  0.812200  1.0  0.1149
  H  H216  1  0.808300  0.396600  0.756600  1.0  0.1233
  H  H217  1  0.730100  0.450100  0.808800  1.0  0.1041
  H  H218  1  0.763400  0.494000  0.858800  1.0  0.1232
  H  H219  1  0.740100  0.624400  0.831300  1.0  0.1065
  H  H220  1  0.688000  0.567900  0.833200  1.0  0.0885
  H  H221  1  0.642500  0.678400  0.761700  1.0  0.0992
  H  H222  1  0.700000  0.719000  0.764000  1.0  0.096
  H  H223  1  0.740500  0.735800  0.693600  1.0  0.1054
  H  H224  1  0.708700  0.749200  0.637900  1.0  0.1006
  H  H225  1  0.781100  0.668200  0.585400  1.0  0.0797
  H  H226  1  0.810900  0.719000  0.633900  1.0  0.1029
  H  H227  1  0.859200  0.613800  0.615700  1.0  0.0946
  H  H228  1  0.811200  0.547800  0.609500  1.0  0.0914
  H  H229  1  0.854500  0.454400  0.677000  1.0  0.107
  H  H230  1  0.907100  0.509200  0.691000  1.0  0.1377
  H  H231  1  0.005100  0.791100  0.678300  1.0  0.2575
  H  H232  1  0.943300  0.720200  0.746500  1.0  0.1044
  H  H233  1  0.976800  0.670500  0.707900  1.0  0.1041
  H  H234  1  0.003400  0.001700  0.673700  1.0  0.29
  H  H235  1  0.987300  0.123000  0.702000  1.0  0.1414
  H  H236  1  0.943800  0.084200  0.733900  1.0  0.1089
  H  H237  1  0.893900  0.971200  0.670100  1.0  0.1109
  H  H238  1  0.921600  0.008200  0.623700  1.0  0.0875
  H  H239  1  0.920600  0.759800  0.639800  1.0  0.0931
  H  H240  1  0.896500  0.815700  0.682100  1.0  0.0954
  H  H241  1  0.001800  0.901700  0.609600  1.0  0.1073
  H  H242  1  0.971200  0.823100  0.580900  1.0  0.1238
  H  H243  1  0.888400  0.734200  0.989200  1.0  0.1213
  H  H244  1  0.918600  0.655700  0.018800  1.0  0.1333
  H  H245  1  0.183500  0.368500  0.009900  1.0  0.2806
  H  H246  1  0.333200  0.340800  0.994900  1.0  0.3032
  H  H247  1  0.222400  0.115300  0.628600  1.0  0.2246
  H  H248  1  0.326600  0.050600  0.810400  1.0  0.2445
  H  H249  1  0.364100  0.112400  0.703000  1.0  0.2648
  H  H250  1  0.176800  0.054200  0.742400  1.0  0.2311
  H  H251  1  0.312100  0.469300  0.025700  1.0  0.1051
  H  H252  1  0.272300  0.425800  0.060600  1.0  0.0976
  H  H253  1  0.257200  0.435100  0.948500  1.0  0.1031
  H  H254  1  0.223900  0.488500  0.985400  1.0  0.1088
  H  H255  1  0.330500  0.304900  0.098600  1.0  0.1096
  H  H256  1  0.379900  0.349000  0.077700  1.0  0.1117
  H  H257  1  0.140900  0.405700  0.930000  1.0  0.1094
  H  H258  1  0.181600  0.346500  0.904700  1.0  0.1138
  H  H259  1  0.343600  0.905000  0.812200  1.0  0.1149
  H  H260  1  0.308300  0.896600  0.756600  1.0  0.1233
  H  H261  1  0.230100  0.950100  0.808800  1.0  0.1041
  H  H262  1  0.263400  0.994000  0.858800  1.0  0.1232
  H  H263  1  0.240100  0.124400  0.831300  1.0  0.1065
  H  H264  1  0.188000  0.067900  0.833200  1.0  0.0885
  H  H265  1  0.142500  0.178400  0.761700  1.0  0.0992
  H  H266  1  0.200000  0.219000  0.764000  1.0  0.096
  H  H267  1  0.240500  0.235800  0.693600  1.0  0.1054
  H  H268  1  0.208700  0.249200  0.637900  1.0  0.1006
  H  H269  1  0.281100  0.168200  0.585400  1.0  0.0797
  H  H270  1  0.310900  0.219000  0.633900  1.0  0.1029
  H  H271  1  0.359200  0.113800  0.615700  1.0  0.0946
  H  H272  1  0.311200  0.047800  0.609500  1.0  0.0914
  H  H273  1  0.354500  0.954400  0.677000  1.0  0.107
  H  H274  1  0.407100  0.009200  0.691000  1.0  0.1377
  H  H275  1  0.505100  0.291100  0.678300  1.0  0.2575
  H  H276  1  0.443300  0.220200  0.746500  1.0  0.1044
  H  H277  1  0.476800  0.170500  0.707900  1.0  0.1041
  H  H278  1  0.503400  0.501700  0.673700  1.0  0.29
  H  H279  1  0.487300  0.623000  0.702000  1.0  0.1414
  H  H280  1  0.443800  0.584200  0.733900  1.0  0.1089
  H  H281  1  0.393900  0.471200  0.670100  1.0  0.1109
  H  H282  1  0.421600  0.508200  0.623700  1.0  0.0875
  H  H283  1  0.420600  0.259800  0.639800  1.0  0.0931
  H  H284  1  0.396500  0.315700  0.682100  1.0  0.0954
  H  H285  1  0.501800  0.401700  0.609600  1.0  0.1073
  H  H286  1  0.471200  0.323100  0.580900  1.0  0.1238
  H  H287  1  0.388400  0.234200  0.989200  1.0  0.1213
  H  H288  1  0.418600  0.155700  0.018800  1.0  0.1333
  H  H289  1  0.316500  0.868500  0.490100  1.0  0.2823
  H  H290  1  0.166800  0.840800  0.505100  1.0  0.3027
  H  H291  1  0.277600  0.615300  0.871400  1.0  0.2256
  H  H292  1  0.173400  0.550600  0.689600  1.0  0.2469
  H  H293  1  0.135900  0.612400  0.797000  1.0  0.2665
  H  H294  1  0.323200  0.554200  0.757600  1.0  0.2306
  H  H295  1  0.187900  0.969300  0.474300  1.0  0.105
  H  H296  1  0.227700  0.925800  0.439400  1.0  0.0987
  H  H297  1  0.242800  0.935100  0.551500  1.0  0.1024
  H  H298  1  0.276100  0.988500  0.514600  1.0  0.1084
  H  H299  1  0.169500  0.804900  0.401400  1.0  0.1102
  H  H300  1  0.120100  0.849000  0.422300  1.0  0.1121
  H  H301  1  0.359100  0.905700  0.570000  1.0  0.1086
  H  H302  1  0.318400  0.846500  0.595300  1.0  0.1132
  H  H303  1  0.156400  0.405000  0.687800  1.0  0.1149
  H  H304  1  0.191700  0.396600  0.743400  1.0  0.1238
  H  H305  1  0.269900  0.450100  0.691200  1.0  0.1022
  H  H306  1  0.236600  0.494000  0.641200  1.0  0.123
  H  H307  1  0.259900  0.624400  0.668700  1.0  0.1078
  H  H308  1  0.312000  0.567900  0.666800  1.0  0.0898
  H  H309  1  0.357500  0.678400  0.738300  1.0  0.0997
  H  H310  1  0.300000  0.719000  0.736000  1.0  0.0965
  H  H311  1  0.259500  0.735800  0.806400  1.0  0.1072
  H  H312  1  0.291300  0.749200  0.862100  1.0  0.0982
  H  H313  1  0.218900  0.668200  0.914600  1.0  0.0806
  H  H314  1  0.189100  0.719000  0.866100  1.0  0.1006
  H  H315  1  0.140800  0.613800  0.884300  1.0  0.0913
  H  H316  1  0.188800  0.547800  0.890500  1.0  0.0928
  H  H317  1  0.145500  0.454400  0.823000  1.0  0.1072
  H  H318  1  0.092900  0.509200  0.809000  1.0  0.1345
  H  H319  1  0.994900  0.791100  0.821700  1.0  0.2548
  H  H320  1  0.056700  0.720200  0.753500  1.0  0.1036
  H  H321  1  0.023200  0.670500  0.792100  1.0  0.1043
  H  H322  1  0.996600  0.001700  0.826300  1.0  0.2894
  H  H323  1  0.012700  0.123000  0.798000  1.0  0.1401
  H  H324  1  0.056200  0.084200  0.766100  1.0  0.1106
  H  H325  1  0.106100  0.971200  0.829900  1.0  0.1113
  H  H326  1  0.078400  0.008200  0.876300  1.0  0.0862
  H  H327  1  0.079400  0.759800  0.860200  1.0  0.0947
  H  H328  1  0.103500  0.815700  0.817900  1.0  0.095
  H  H329  1  0.998200  0.901700  0.890400  1.0  0.1065
  H  H330  1  0.028800  0.823100  0.919100  1.0  0.1262
  H  H331  1  0.111600  0.734200  0.510800  1.0  0.1206
  H  H332  1  0.081400  0.655700  0.481200  1.0  0.1343
  H  H333  1  0.816500  0.368500  0.490100  1.0  0.2823
  H  H334  1  0.666800  0.340800  0.505100  1.0  0.3027
  H  H335  1  0.777600  0.115300  0.871400  1.0  0.2256
  H  H336  1  0.673400  0.050600  0.689600  1.0  0.2469
  H  H337  1  0.635900  0.112400  0.797000  1.0  0.2665
  H  H338  1  0.823200  0.054200  0.757600  1.0  0.2306
  H  H339  1  0.687900  0.469300  0.474300  1.0  0.105
  H  H340  1  0.727700  0.425800  0.439400  1.0  0.0987
  H  H341  1  0.742800  0.435100  0.551500  1.0  0.1024
  H  H342  1  0.776100  0.488500  0.514600  1.0  0.1084
  H  H343  1  0.669500  0.304900  0.401400  1.0  0.1102
  H  H344  1  0.620100  0.349000  0.422300  1.0  0.1121
  H  H345  1  0.859100  0.405700  0.570000  1.0  0.1086
  H  H346  1  0.818400  0.346500  0.595300  1.0  0.1132
  H  H347  1  0.656400  0.905000  0.687800  1.0  0.1149
  H  H348  1  0.691700  0.896600  0.743400  1.0  0.1238
  H  H349  1  0.769900  0.950100  0.691200  1.0  0.1022
  H  H350  1  0.736600  0.994000  0.641200  1.0  0.123
  H  H351  1  0.759900  0.124400  0.668700  1.0  0.1078
  H  H352  1  0.812000  0.067900  0.666800  1.0  0.0898
  H  H353  1  0.857500  0.178400  0.738300  1.0  0.0997
  H  H354  1  0.800000  0.219000  0.736000  1.0  0.0965
  H  H355  1  0.759500  0.235800  0.806400  1.0  0.1072
  H  H356  1  0.791300  0.249200  0.862100  1.0  0.0982
  H  H357  1  0.718900  0.168200  0.914600  1.0  0.0806
  H  H358  1  0.689100  0.219000  0.866100  1.0  0.1006
  H  H359  1  0.640800  0.113800  0.884300  1.0  0.0913
  H  H360  1  0.688800  0.047800  0.890500  1.0  0.0928
  H  H361  1  0.645500  0.954400  0.823000  1.0  0.1072
  H  H362  1  0.592900  0.009200  0.809000  1.0  0.1345
  H  H363  1  0.494900  0.291100  0.821700  1.0  0.2548
  H  H364  1  0.556700  0.220200  0.753500  1.0  0.1036
  H  H365  1  0.523200  0.170500  0.792100  1.0  0.1043
  H  H366  1  0.496600  0.501700  0.826300  1.0  0.2894
  H  H367  1  0.512700  0.623000  0.798000  1.0  0.1401
  H  H368  1  0.556200  0.584200  0.766100  1.0  0.1106
  H  H369  1  0.606100  0.471200  0.829900  1.0  0.1113
  H  H370  1  0.578400  0.508200  0.876300  1.0  0.0862
  H  H371  1  0.579400  0.259800  0.860200  1.0  0.0947
  H  H372  1  0.603500  0.315700  0.817900  1.0  0.095
  H  H373  1  0.498200  0.401700  0.890400  1.0  0.1065
  H  H374  1  0.528800  0.323100  0.919100  1.0  0.1262
  H  H375  1  0.611600  0.234200  0.510800  1.0  0.1206
  H  H376  1  0.581400  0.155700  0.481200  1.0  0.1343
  C  C377  1  0.180420  0.251600  0.207860  1.0  0.1824
  C  C378  1  0.124810  0.099200  0.094070  1.0  0.2221
  C  C379  1  0.107070  0.120100  0.197320  1.0  0.162
  C  C380  1  0.096010  0.256700  0.131750  1.0  0.227
  C  C381  1  0.199120  0.225600  0.106720  1.0  0.1507
  C  C382  1  0.207420  0.087500  0.172520  1.0  0.2078
  C  C383  1  0.213800  0.077500  0.972900  1.0  0.0231
  C  C384  1  0.257200  0.065900  0.018200  1.0  0.0092
  C  C385  1  0.148700  0.193500  0.930670  1.0  0.08
  C  C386  1  0.338160  0.147600  0.065390  1.0  0.0974
  C  C387  1  0.167100  0.565800  0.221100  1.0  0.0109
  C  C388  1  0.249800  0.498400  0.178300  1.0  0.0517
  C  C389  1  0.280200  0.425100  0.184440  1.0  0.0414
  C  C390  1  0.324400  0.323600  0.254300  1.0  0.0529
  C  C391  1  0.284700  0.292300  0.333400  1.0  0.0466
  C  C392  1  0.207300  0.335100  0.377000  1.0  0.0147
  C  C393  1  0.173800  0.402200  0.370600  1.0  0.0002
  C  C394  1  0.128900  0.500600  0.299700  1.0  -0.0646
  C  C395  1  0.023600  0.278900  0.269600  1.0  0.0233
  C  C396  1  0.020700  0.925800  0.276300  1.0  1e-04
  C  C397  1  0.074200  0.033300  0.347500  1.0  0.0655
  C  C398  1  0.073500  0.188800  0.338300  1.0  0.0746
  C  C399  1  0.032800  0.116600  0.409010  1.0  -0.0302
  C  C400  1  0.047400  0.072200  0.457700  1.0  0.4331
  C  C401  1  0.090700  0.283400  0.977800  1.0  -0.0358
  C  C402  1  0.041000  0.231700  0.967700  1.0  0.0356
  C  C403  1  0.077000  0.489200  0.209300  1.0  0.0898
  C  C404  1  0.044600  0.487800  0.152700  1.0  -0.0022
  C  C405  1  0.366200  0.384600  0.322300  1.0  -0.0024
  C  C406  1  0.108600  0.797200  0.160500  1.0  -0.0577
  C  C407  1  0.411900  0.380600  0.370400  1.0  -0.0072
  C  C408  1  0.680420  0.751600  0.207860  1.0  0.1824
  C  C409  1  0.624810  0.599200  0.094070  1.0  0.2221
  C  C410  1  0.607070  0.620100  0.197320  1.0  0.162
  C  C411  1  0.596010  0.756700  0.131750  1.0  0.227
  C  C412  1  0.699120  0.725600  0.106720  1.0  0.1507
  C  C413  1  0.707420  0.587500  0.172520  1.0  0.2078
  C  C414  1  0.713800  0.577500  0.972900  1.0  0.0231
  C  C415  1  0.757200  0.565900  0.018200  1.0  0.0092
  C  C416  1  0.648700  0.693500  0.930670  1.0  0.08
  C  C417  1  0.838160  0.647600  0.065390  1.0  0.0974
  C  C418  1  0.667100  0.065800  0.221100  1.0  0.0109
  C  C419  1  0.749800  0.998400  0.178300  1.0  0.0517
  C  C420  1  0.780200  0.925100  0.184440  1.0  0.0414
  C  C421  1  0.824400  0.823600  0.254300  1.0  0.0529
  C  C422  1  0.784700  0.792300  0.333400  1.0  0.0466
  C  C423  1  0.707300  0.835100  0.377000  1.0  0.0147
  C  C424  1  0.673800  0.902200  0.370600  1.0  0.0002
  C  C425  1  0.628900  0.000600  0.299700  1.0  -0.0646
  C  C426  1  0.523600  0.778900  0.269600  1.0  0.0233
  C  C427  1  0.520700  0.425800  0.276300  1.0  1e-04
  C  C428  1  0.574200  0.533300  0.347500  1.0  0.0655
  C  C429  1  0.573500  0.688800  0.338300  1.0  0.0746
  C  C430  1  0.532800  0.616600  0.409010  1.0  -0.0302
  C  C431  1  0.547400  0.572200  0.457700  1.0  0.4331
  C  C432  1  0.590700  0.783400  0.977800  1.0  -0.0358
  C  C433  1  0.541000  0.731700  0.967700  1.0  0.0356
  C  C434  1  0.577000  0.989200  0.209300  1.0  0.0898
  C  C435  1  0.544600  0.987800  0.152700  1.0  -0.0022
  C  C436  1  0.866200  0.884600  0.322300  1.0  -0.0024
  C  C437  1  0.608600  0.297200  0.160500  1.0  -0.0577
  C  C438  1  0.911900  0.880600  0.370400  1.0  -0.0072
  C  C439  1  0.819580  0.251600  0.292140  1.0  0.1804
  C  C440  1  0.875190  0.099200  0.405930  1.0  0.223
  C  C441  1  0.892930  0.120100  0.302680  1.0  0.1624
  C  C442  1  0.903990  0.256700  0.368250  1.0  0.2274
  C  C443  1  0.800880  0.225600  0.393280  1.0  0.15
  C  C444  1  0.792580  0.087500  0.327480  1.0  0.2086
  C  C445  1  0.786200  0.077500  0.527100  1.0  0.0212
  C  C446  1  0.742800  0.065900  0.481800  1.0  0.0097
  C  C447  1  0.851300  0.193500  0.569330  1.0  0.079
  C  C448  1  0.661840  0.147600  0.434610  1.0  0.1002
  C  C449  1  0.832900  0.565800  0.278900  1.0  0.0099
  C  C450  1  0.750200  0.498400  0.321700  1.0  0.0513
  C  C451  1  0.719800  0.425100  0.315560  1.0  0.0388
  C  C452  1  0.675600  0.323600  0.245700  1.0  0.0544
  C  C453  1  0.715300  0.292300  0.166600  1.0  0.0463
  C  C454  1  0.792700  0.335100  0.123000  1.0  0.0132
  C  C455  1  0.826200  0.402200  0.129400  1.0  0.0013
  C  C456  1  0.871100  0.500600  0.200300  1.0  -0.0622
  C  C457  1  0.976400  0.278900  0.230400  1.0  0.0241
  C  C458  1  0.979300  0.925800  0.223700  1.0  0.0008
  C  C459  1  0.925800  0.033300  0.152500  1.0  0.0658
  C  C460  1  0.926500  0.188800  0.161700  1.0  0.0765
  C  C461  1  0.967200  0.116600  0.090990  1.0  -0.0265
  C  C462  1  0.952600  0.072200  0.042300  1.0  0.433
  C  C463  1  0.909300  0.283400  0.522200  1.0  -0.0348
  C  C464  1  0.959000  0.231700  0.532300  1.0  0.0365
  C  C465  1  0.923000  0.489200  0.290700  1.0  0.089
  C  C466  1  0.955400  0.487800  0.347300  1.0  -0.0034
  C  C467  1  0.633800  0.384600  0.177700  1.0  -0.0059
  C  C468  1  0.891400  0.797200  0.339500  1.0  -0.058
  C  C469  1  0.588100  0.380600  0.129600  1.0  -0.0057
  C  C470  1  0.319580  0.751600  0.292140  1.0  0.1804
  C  C471  1  0.375190  0.599200  0.405930  1.0  0.223
  C  C472  1  0.392930  0.620100  0.302680  1.0  0.1624
  C  C473  1  0.403990  0.756700  0.368250  1.0  0.2274
  C  C474  1  0.300880  0.725600  0.393280  1.0  0.15
  C  C475  1  0.292580  0.587500  0.327480  1.0  0.2086
  C  C476  1  0.286200  0.577500  0.527100  1.0  0.0212
  C  C477  1  0.242800  0.565900  0.481800  1.0  0.0097
  C  C478  1  0.351300  0.693500  0.569330  1.0  0.079
  C  C479  1  0.161840  0.647600  0.434610  1.0  0.1002
  C  C480  1  0.332900  0.065800  0.278900  1.0  0.0099
  C  C481  1  0.250200  0.998400  0.321700  1.0  0.0513
  C  C482  1  0.219800  0.925100  0.315560  1.0  0.0388
  C  C483  1  0.175600  0.823600  0.245700  1.0  0.0544
  C  C484  1  0.215300  0.792300  0.166600  1.0  0.0463
  C  C485  1  0.292700  0.835100  0.123000  1.0  0.0132
  C  C486  1  0.326200  0.902200  0.129400  1.0  0.0013
  C  C487  1  0.371100  0.000600  0.200300  1.0  -0.0622
  C  C488  1  0.476400  0.778900  0.230400  1.0  0.0241
  C  C489  1  0.479300  0.425800  0.223700  1.0  0.0008
  C  C490  1  0.425800  0.533300  0.152500  1.0  0.0658
  C  C491  1  0.426500  0.688800  0.161700  1.0  0.0765
  C  C492  1  0.467200  0.616600  0.090990  1.0  -0.0265
  C  C493  1  0.452600  0.572200  0.042300  1.0  0.433
  C  C494  1  0.409300  0.783400  0.522200  1.0  -0.0348
  C  C495  1  0.459000  0.731700  0.532300  1.0  0.0365
  C  C496  1  0.423000  0.989200  0.290700  1.0  0.089
  C  C497  1  0.455400  0.987800  0.347300  1.0  -0.0034
  C  C498  1  0.133800  0.884600  0.177700  1.0  -0.0059
  C  C499  1  0.391400  0.297200  0.339500  1.0  -0.058
  C  C500  1  0.088100  0.880600  0.129600  1.0  -0.0057
  C  C501  1  0.819580  0.748400  0.792140  1.0  0.1801
  C  C502  1  0.875190  0.900800  0.905930  1.0  0.223
  C  C503  1  0.892930  0.879900  0.802680  1.0  0.1627
  C  C504  1  0.903990  0.743300  0.868250  1.0  0.2281
  C  C505  1  0.800880  0.774400  0.893280  1.0  0.1497
  C  C506  1  0.792580  0.912500  0.827480  1.0  0.2092
  C  C507  1  0.786200  0.922500  0.027100  1.0  0.0205
  C  C508  1  0.742800  0.934100  0.981800  1.0  0.0084
  C  C509  1  0.851300  0.806500  0.069330  1.0  0.0793
  C  C510  1  0.661840  0.852400  0.934610  1.0  0.1002
  C  C511  1  0.832900  0.434200  0.778900  1.0  0.0112
  C  C512  1  0.750200  0.501600  0.821700  1.0  0.0511
  C  C513  1  0.719800  0.574900  0.815560  1.0  0.0388
  C  C514  1  0.675600  0.676400  0.745700  1.0  0.0555
  C  C515  1  0.715300  0.707700  0.666667  1.0  0.0455
  C  C516  1  0.792700  0.664900  0.623000  1.0  0.0141
  C  C517  1  0.826200  0.597800  0.629400  1.0  0.0007
  C  C518  1  0.871100  0.499400  0.700300  1.0  -0.0629
  C  C519  1  0.976400  0.721100  0.730400  1.0  0.025
  C  C520  1  0.979300  0.074200  0.723700  1.0  0.0
  C  C521  1  0.925800  0.966700  0.652500  1.0  0.0665
  C  C522  1  0.926500  0.811200  0.661700  1.0  0.0759
  C  C523  1  0.967200  0.883400  0.590990  1.0  -0.0266
  C  C524  1  0.952600  0.927800  0.542300  1.0  0.4342
  C  C525  1  0.909300  0.716600  0.022200  1.0  -0.0336
  C  C526  1  0.959000  0.768300  0.032300  1.0  0.0359
  C  C527  1  0.923000  0.510800  0.790700  1.0  0.0891
  C  C528  1  0.955400  0.512200  0.847300  1.0  -0.0022
  C  C529  1  0.633800  0.615400  0.677700  1.0  -0.001
  C  C530  1  0.891400  0.202800  0.839500  1.0  -0.0601
  C  C531  1  0.588100  0.619400  0.629600  1.0  -0.0062
  C  C532  1  0.319580  0.248400  0.792140  1.0  0.1801
  C  C533  1  0.375190  0.400800  0.905930  1.0  0.223
  C  C534  1  0.392930  0.379900  0.802680  1.0  0.1627
  C  C535  1  0.403990  0.243300  0.868250  1.0  0.2281
  C  C536  1  0.300880  0.274400  0.893280  1.0  0.1497
  C  C537  1  0.292580  0.412500  0.827480  1.0  0.2092
  C  C538  1  0.286200  0.422500  0.027100  1.0  0.0205
  C  C539  1  0.242800  0.434100  0.981800  1.0  0.0084
  C  C540  1  0.351300  0.306500  0.069330  1.0  0.0793
  C  C541  1  0.161840  0.352400  0.934610  1.0  0.1002
  C  C542  1  0.332900  0.934200  0.778900  1.0  0.0112
  C  C543  1  0.250200  0.001600  0.821700  1.0  0.0511
  C  C544  1  0.219800  0.074900  0.815560  1.0  0.0388
  C  C545  1  0.175600  0.176400  0.745700  1.0  0.0555
  C  C546  1  0.215300  0.207700  0.666667  1.0  0.0455
  C  C547  1  0.292700  0.164900  0.623000  1.0  0.0141
  C  C548  1  0.326200  0.097800  0.629400  1.0  0.0007
  C  C549  1  0.371100  0.999400  0.700300  1.0  -0.0629
  C  C550  1  0.476400  0.221100  0.730400  1.0  0.025
  C  C551  1  0.479300  0.574200  0.723700  1.0  0.0
  C  C552  1  0.425800  0.466700  0.652500  1.0  0.0665
  C  C553  1  0.426500  0.311200  0.661700  1.0  0.0759
  C  C554  1  0.467200  0.383400  0.590990  1.0  -0.0266
  C  C555  1  0.452600  0.427800  0.542300  1.0  0.4342
  C  C556  1  0.409300  0.216600  0.022200  1.0  -0.0336
  C  C557  1  0.459000  0.268300  0.032300  1.0  0.0359
  C  C558  1  0.423000  0.010800  0.790700  1.0  0.0891
  C  C559  1  0.455400  0.012200  0.847300  1.0  -0.0022
  C  C560  1  0.133800  0.115400  0.677700  1.0  -0.001
  C  C561  1  0.391400  0.702800  0.839500  1.0  -0.0601
  C  C562  1  0.088100  0.119400  0.629600  1.0  -0.0062
  C  C563  1  0.180420  0.748400  0.707860  1.0  0.1811
  C  C564  1  0.124810  0.900800  0.594070  1.0  0.2229
  C  C565  1  0.107070  0.879900  0.697320  1.0  0.1622
  C  C566  1  0.096010  0.743300  0.631750  1.0  0.2274
  C  C567  1  0.199120  0.774400  0.606720  1.0  0.1506
  C  C568  1  0.207420  0.912500  0.672520  1.0  0.2078
  C  C569  1  0.213800  0.922500  0.472900  1.0  0.0216
  C  C570  1  0.257200  0.934100  0.518200  1.0  0.0075
  C  C571  1  0.148700  0.806500  0.430670  1.0  0.0793
  C  C572  1  0.338160  0.852400  0.565390  1.0  0.0983
  C  C573  1  0.167100  0.434200  0.721100  1.0  0.0101
  C  C574  1  0.249800  0.501600  0.678300  1.0  0.0508
  C  C575  1  0.280200  0.574900  0.684440  1.0  0.0416
  C  C576  1  0.324400  0.676400  0.754300  1.0  0.0551
  C  C577  1  0.284700  0.707700  0.833400  1.0  0.0452
  C  C578  1  0.207300  0.664900  0.877000  1.0  0.0129
  C  C579  1  0.173800  0.597800  0.870600  1.0  0.0005
  C  C580  1  0.128900  0.499400  0.799700  1.0  -0.0647
  C  C581  1  0.023600  0.721100  0.769600  1.0  0.0236
  C  C582  1  0.020700  0.074200  0.776300  1.0  -0.0002
  C  C583  1  0.074200  0.966700  0.847500  1.0  0.0663
  C  C584  1  0.073500  0.811200  0.838300  1.0  0.0742
  C  C585  1  0.032800  0.883400  0.909010  1.0  -0.0288
  C  C586  1  0.047400  0.927800  0.957700  1.0  0.4343
  C  C587  1  0.090700  0.716600  0.477800  1.0  -0.0365
  C  C588  1  0.041000  0.768300  0.467700  1.0  0.0372
  C  C589  1  0.077000  0.510800  0.709300  1.0  0.0892
  C  C590  1  0.044600  0.512200  0.652700  1.0  0.0004
  C  C591  1  0.366200  0.615400  0.822300  1.0  -0.0034
  C  C592  1  0.108600  0.202800  0.660500  1.0  -0.0614
  C  C593  1  0.411900  0.619400  0.870400  1.0  -0.0075
  C  C594  1  0.680420  0.248400  0.707860  1.0  0.1811
  C  C595  1  0.624810  0.400800  0.594070  1.0  0.2229
  C  C596  1  0.607070  0.379900  0.697320  1.0  0.1622
  C  C597  1  0.596010  0.243300  0.631750  1.0  0.2274
  C  C598  1  0.699120  0.274400  0.606720  1.0  0.1506
  C  C599  1  0.707420  0.412500  0.672520  1.0  0.2078
  C  C600  1  0.713800  0.422500  0.472900  1.0  0.0216
  C  C601  1  0.757200  0.434100  0.518200  1.0  0.0075
  C  C602  1  0.648700  0.306500  0.430670  1.0  0.0793
  C  C603  1  0.838160  0.352400  0.565390  1.0  0.0983
  C  C604  1  0.667100  0.934200  0.721100  1.0  0.0101
  C  C605  1  0.749800  0.001600  0.678300  1.0  0.0508
  C  C606  1  0.780200  0.074900  0.684440  1.0  0.0416
  C  C607  1  0.824400  0.176400  0.754300  1.0  0.0551
  C  C608  1  0.784700  0.207700  0.833400  1.0  0.0452
  C  C609  1  0.707300  0.164900  0.877000  1.0  0.0129
  C  C610  1  0.673800  0.097800  0.870600  1.0  0.0005
  C  C611  1  0.628900  0.999400  0.799700  1.0  -0.0647
  C  C612  1  0.523600  0.221100  0.769600  1.0  0.0236
  C  C613  1  0.520700  0.574200  0.776300  1.0  -0.0002
  C  C614  1  0.574200  0.466700  0.847500  1.0  0.0663
  C  C615  1  0.573500  0.311200  0.838300  1.0  0.0742
  C  C616  1  0.532800  0.383400  0.909010  1.0  -0.0288
  C  C617  1  0.547400  0.427800  0.957700  1.0  0.4343
  C  C618  1  0.590700  0.216600  0.477800  1.0  -0.0365
  C  C619  1  0.541000  0.268300  0.467700  1.0  0.0372
  C  C620  1  0.577000  0.010800  0.709300  1.0  0.0892
  C  C621  1  0.544600  0.012200  0.652700  1.0  0.0004
  C  C622  1  0.866200  0.115400  0.822300  1.0  -0.0034
  C  C623  1  0.608600  0.702800  0.660500  1.0  -0.0614
  C  C624  1  0.911900  0.119400  0.870400  1.0  -0.0075
  N  N625  1  0.109770  0.053300  0.058560  1.0  -0.438
  N  N626  1  0.061210  0.306600  0.119990  1.0  -0.4989
  N  N627  1  0.227480  0.251800  0.077160  1.0  -0.4871
  N  N628  1  0.196330  0.300500  0.240990  1.0  -0.4166
  N  N629  1  0.078010  0.094100  0.225080  1.0  -0.443
  N  N630  1  0.238490  0.031800  0.184260  1.0  -0.4385
  N  N631  1  0.297280  0.140100  0.017310  1.0  -0.3375
  N  N632  1  0.186950  0.162800  0.978110  1.0  -0.3533
  N  N633  1  0.253700  0.349500  0.351500  1.0  -0.1711
  N  N634  1  0.198000  0.484200  0.209000  1.0  -0.3508
  N  N635  1  0.157830  0.430700  0.311900  1.0  -0.3483
  N  N636  1  0.299360  0.404100  0.244170  1.0  -0.4132
  N  N637  1  0.022000  0.201500  0.301670  1.0  -0.3645
  N  N638  1  0.024440  0.003000  0.306940  1.0  -0.4555
  N  N639  1  0.073010  0.117200  0.369570  1.0  -0.0318
  N  N640  1  0.125530  0.279100  0.935550  1.0  -0.2531
  N  N641  1  0.120620  0.537400  0.241400  1.0  -0.1986
  N  N642  1  0.334920  0.302900  0.312600  1.0  -0.0192
  N  N643  1  0.609770  0.553300  0.058560  1.0  -0.438
  N  N644  1  0.561210  0.806600  0.119990  1.0  -0.4989
  N  N645  1  0.727480  0.751800  0.077160  1.0  -0.4871
  N  N646  1  0.696330  0.800500  0.240990  1.0  -0.4166
  N  N647  1  0.578010  0.594100  0.225080  1.0  -0.443
  N  N648  1  0.738490  0.531800  0.184260  1.0  -0.4385
  N  N649  1  0.797280  0.640100  0.017310  1.0  -0.3375
  N  N650  1  0.686950  0.662800  0.978110  1.0  -0.3533
  N  N651  1  0.753700  0.849500  0.351500  1.0  -0.1711
  N  N652  1  0.698000  0.984200  0.209000  1.0  -0.3508
  N  N653  1  0.657830  0.930700  0.311900  1.0  -0.3483
  N  N654  1  0.799360  0.904100  0.244170  1.0  -0.4132
  N  N655  1  0.522000  0.701500  0.301670  1.0  -0.3645
  N  N656  1  0.524440  0.503000  0.306940  1.0  -0.4555
  N  N657  1  0.573010  0.617200  0.369570  1.0  -0.0318
  N  N658  1  0.625530  0.779100  0.935550  1.0  -0.2531
  N  N659  1  0.620620  0.037400  0.241400  1.0  -0.1986
  N  N660  1  0.834920  0.802900  0.312600  1.0  -0.0192
  N  N661  1  0.890230  0.053300  0.441440  1.0  -0.4409
  N  N662  1  0.938790  0.306600  0.380010  1.0  -0.5005
  N  N663  1  0.772520  0.251800  0.422840  1.0  -0.487
  N  N664  1  0.803670  0.300500  0.259010  1.0  -0.4158
  N  N665  1  0.921990  0.094100  0.274920  1.0  -0.4421
  N  N666  1  0.761510  0.031800  0.315740  1.0  -0.4367
  N  N667  1  0.702720  0.140100  0.482690  1.0  -0.3402
  N  N668  1  0.813050  0.162800  0.521890  1.0  -0.353
  N  N669  1  0.746300  0.349500  0.148500  1.0  -0.1718
  N  N670  1  0.802000  0.484200  0.291000  1.0  -0.3517
  N  N671  1  0.842170  0.430700  0.188100  1.0  -0.3445
  N  N672  1  0.700640  0.404100  0.255830  1.0  -0.4119
  N  N673  1  0.978000  0.201500  0.198330  1.0  -0.3642
  N  N674  1  0.975560  0.003000  0.193060  1.0  -0.4517
  N  N675  1  0.926990  0.117200  0.130430  1.0  -0.0346
  N  N676  1  0.874470  0.279100  0.564450  1.0  -0.2527
  N  N677  1  0.879380  0.537400  0.258600  1.0  -0.1955
  N  N678  1  0.665080  0.302900  0.187400  1.0  -0.0231
  N  N679  1  0.390230  0.553300  0.441440  1.0  -0.4409
  N  N680  1  0.438790  0.806600  0.380010  1.0  -0.5005
  N  N681  1  0.272520  0.751800  0.422840  1.0  -0.487
  N  N682  1  0.303670  0.800500  0.259010  1.0  -0.4158
  N  N683  1  0.421990  0.594100  0.274920  1.0  -0.4421
  N  N684  1  0.261510  0.531800  0.315740  1.0  -0.4367
  N  N685  1  0.202720  0.640100  0.482690  1.0  -0.3402
  N  N686  1  0.313050  0.662800  0.521890  1.0  -0.353
  N  N687  1  0.246300  0.849500  0.148500  1.0  -0.1718
  N  N688  1  0.302000  0.984200  0.291000  1.0  -0.3517
  N  N689  1  0.342170  0.930700  0.188100  1.0  -0.3445
  N  N690  1  0.200640  0.904100  0.255830  1.0  -0.4119
  N  N691  1  0.478000  0.701500  0.198330  1.0  -0.3642
  N  N692  1  0.475560  0.503000  0.193060  1.0  -0.4517
  N  N693  1  0.426990  0.617200  0.130430  1.0  -0.0346
  N  N694  1  0.374470  0.779100  0.564450  1.0  -0.2527
  N  N695  1  0.379380  0.037400  0.258600  1.0  -0.1955
  N  N696  1  0.165080  0.802900  0.187400  1.0  -0.0231
  N  N697  1  0.890230  0.946700  0.941440  1.0  -0.4425
  N  N698  1  0.938790  0.693400  0.880010  1.0  -0.497
  N  N699  1  0.772520  0.748200  0.922840  1.0  -0.4876
  N  N700  1  0.803670  0.699500  0.759010  1.0  -0.4155
  N  N701  1  0.921990  0.905900  0.774920  1.0  -0.4417
  N  N702  1  0.761510  0.968200  0.815740  1.0  -0.4369
  N  N703  1  0.702720  0.859900  0.982690  1.0  -0.3401
  N  N704  1  0.813050  0.837200  0.021890  1.0  -0.3533
  N  N705  1  0.746300  0.650500  0.648500  1.0  -0.1727
  N  N706  1  0.802000  0.515800  0.791000  1.0  -0.3516
  N  N707  1  0.842170  0.569300  0.688100  1.0  -0.3449
  N  N708  1  0.700640  0.595900  0.755830  1.0  -0.4128
  N  N709  1  0.978000  0.798500  0.698330  1.0  -0.3634
  N  N710  1  0.975560  0.997000  0.693060  1.0  -0.4511
  N  N711  1  0.926990  0.882800  0.630430  1.0  -0.0354
  N  N712  1  0.874470  0.720900  0.064450  1.0  -0.2532
  N  N713  1  0.879380  0.462600  0.758600  1.0  -0.1932
  N  N714  1  0.665080  0.697100  0.687400  1.0  -0.0251
  N  N715  1  0.390230  0.446700  0.941440  1.0  -0.4425
  N  N716  1  0.438790  0.193400  0.880010  1.0  -0.497
  N  N717  1  0.272520  0.248200  0.922840  1.0  -0.4876
  N  N718  1  0.303670  0.199500  0.759010  1.0  -0.4155
  N  N719  1  0.421990  0.405900  0.774920  1.0  -0.4417
  N  N720  1  0.261510  0.468200  0.815740  1.0  -0.4369
  N  N721  1  0.202720  0.359900  0.982690  1.0  -0.3401
  N  N722  1  0.313050  0.337200  0.021890  1.0  -0.3533
  N  N723  1  0.246300  0.150500  0.648500  1.0  -0.1727
  N  N724  1  0.302000  0.015800  0.791000  1.0  -0.3516
  N  N725  1  0.342170  0.069300  0.688100  1.0  -0.3449
  N  N726  1  0.200640  0.095900  0.755830  1.0  -0.4128
  N  N727  1  0.478000  0.298500  0.698330  1.0  -0.3634
  N  N728  1  0.475560  0.497000  0.693060  1.0  -0.4511
  N  N729  1  0.426990  0.382800  0.630430  1.0  -0.0354
  N  N730  1  0.374470  0.220900  0.064450  1.0  -0.2532
  N  N731  1  0.379380  0.962600  0.758600  1.0  -0.1932
  N  N732  1  0.165080  0.197100  0.687400  1.0  -0.0251
  N  N733  1  0.109770  0.946700  0.558560  1.0  -0.4394
  N  N734  1  0.061210  0.693400  0.619990  1.0  -0.4977
  N  N735  1  0.227480  0.748200  0.577160  1.0  -0.4868
  N  N736  1  0.196330  0.699500  0.740990  1.0  -0.4168
  N  N737  1  0.078010  0.905900  0.725080  1.0  -0.4425
  N  N738  1  0.238490  0.968200  0.684260  1.0  -0.4388
  N  N739  1  0.297280  0.859900  0.517310  1.0  -0.3377
  N  N740  1  0.186950  0.837200  0.478110  1.0  -0.3535
  N  N741  1  0.253700  0.650500  0.851500  1.0  -0.1715
  N  N742  1  0.198000  0.515800  0.709000  1.0  -0.3513
  N  N743  1  0.157830  0.569300  0.811900  1.0  -0.3482
  N  N744  1  0.299360  0.595900  0.744170  1.0  -0.4133
  N  N745  1  0.022000  0.798500  0.801670  1.0  -0.3642
  N  N746  1  0.024440  0.997000  0.806940  1.0  -0.4551
  N  N747  1  0.073010  0.882800  0.869570  1.0  -0.0323
  N  N748  1  0.125530  0.720900  0.435550  1.0  -0.2537
  N  N749  1  0.120620  0.462600  0.741400  1.0  -0.1976
  N  N750  1  0.334920  0.697100  0.812600  1.0  -0.0192
  N  N751  1  0.609770  0.446700  0.558560  1.0  -0.4394
  N  N752  1  0.561210  0.193400  0.619990  1.0  -0.4977
  N  N753  1  0.727480  0.248200  0.577160  1.0  -0.4868
  N  N754  1  0.696330  0.199500  0.740990  1.0  -0.4168
  N  N755  1  0.578010  0.405900  0.725080  1.0  -0.4425
  N  N756  1  0.738490  0.468200  0.684260  1.0  -0.4388
  N  N757  1  0.797280  0.359900  0.517310  1.0  -0.3377
  N  N758  1  0.686950  0.337200  0.478110  1.0  -0.3535
  N  N759  1  0.753700  0.150500  0.851500  1.0  -0.1715
  N  N760  1  0.698000  0.015800  0.709000  1.0  -0.3513
  N  N761  1  0.657830  0.069300  0.811900  1.0  -0.3482
  N  N762  1  0.799360  0.095900  0.744170  1.0  -0.4133
  N  N763  1  0.522000  0.298500  0.801670  1.0  -0.3642
  N  N764  1  0.524440  0.497000  0.806940  1.0  -0.4551
  N  N765  1  0.573010  0.382800  0.869570  1.0  -0.0323
  N  N766  1  0.625530  0.220900  0.435550  1.0  -0.2537
  N  N767  1  0.620620  0.962600  0.741400  1.0  -0.1976
  N  N768  1  0.834920  0.197100  0.812600  1.0  -0.0192
  O  O769  1  0.099600  0.074800  0.479000  1.0  -0.5705
  O  O770  1  0.056600  0.991600  0.458200  1.0  -0.5222
  O  O771  1  0.013700  0.245500  0.917900  1.0  -0.5786
  O  O772  1  0.035900  0.581300  0.153500  1.0  -0.608
  O  O773  1  0.462580  0.417500  0.396900  1.0  -0.6263
  O  O774  1  0.599600  0.574800  0.479000  1.0  -0.5705
  O  O775  1  0.556600  0.491600  0.458200  1.0  -0.5222
  O  O776  1  0.513700  0.745500  0.917900  1.0  -0.5786
  O  O777  1  0.535900  0.081300  0.153500  1.0  -0.608
  O  O778  1  0.962580  0.917500  0.396900  1.0  -0.6263
  O  O779  1  0.900400  0.074800  0.021000  1.0  -0.5702
  O  O780  1  0.943400  0.991600  0.041800  1.0  -0.5224
  O  O781  1  0.986300  0.245500  0.582100  1.0  -0.5772
  O  O782  1  0.964100  0.581300  0.346500  1.0  -0.6082
  O  O783  1  0.537420  0.417500  0.103100  1.0  -0.6269
  O  O784  1  0.400400  0.574800  0.021000  1.0  -0.5702
  O  O785  1  0.443400  0.491600  0.041800  1.0  -0.5224
  O  O786  1  0.486300  0.745500  0.582100  1.0  -0.5772
  O  O787  1  0.464100  0.081300  0.346500  1.0  -0.6082
  O  O788  1  0.037420  0.917500  0.103100  1.0  -0.6269
  O  O789  1  0.900400  0.925200  0.521000  1.0  -0.5703
  O  O790  1  0.943400  0.008400  0.541800  1.0  -0.5212
  O  O791  1  0.986300  0.754500  0.082100  1.0  -0.579
  O  O792  1  0.964100  0.418700  0.846500  1.0  -0.6107
  O  O793  1  0.537420  0.582500  0.603100  1.0  -0.627
  O  O794  1  0.400400  0.425200  0.521000  1.0  -0.5703
  O  O795  1  0.443400  0.508400  0.541800  1.0  -0.5212
  O  O796  1  0.486300  0.254500  0.082100  1.0  -0.579
  O  O797  1  0.464100  0.918700  0.846500  1.0  -0.6107
  O  O798  1  0.037420  0.082500  0.603100  1.0  -0.627
  O  O799  1  0.099600  0.925200  0.979000  1.0  -0.5714
  O  O800  1  0.056600  0.008400  0.958200  1.0  -0.5215
  O  O801  1  0.013700  0.754500  0.417900  1.0  -0.5804
  O  O802  1  0.035900  0.418700  0.653500  1.0  -0.6086
  O  O803  1  0.462580  0.582500  0.896900  1.0  -0.6271
  O  O804  1  0.599600  0.425200  0.979000  1.0  -0.5714
  O  O805  1  0.556600  0.508400  0.958200  1.0  -0.5215
  O  O806  1  0.513700  0.254500  0.417900  1.0  -0.5804
  O  O807  1  0.535900  0.918700  0.653500  1.0  -0.6086
  O  O808  1  0.962580  0.082500  0.896900  1.0  -0.6271
