# generated using pymatgen
data_Cu3H100C114N12O5
_symmetry_space_group_name_H-M   'P 1'
_cell_length_a   23.87130000
_cell_length_b   23.87130000
_cell_length_c   32.56500000
_cell_angle_alpha   90.00000000
_cell_angle_beta   90.00000000
_cell_angle_gamma   120.00000000
_symmetry_Int_Tables_number   1
_chemical_formula_structural   Cu3H100C114N12O5
_chemical_formula_sum   'Cu9 H300 C342 N36 O15'
_cell_volume   16070.66528142
_cell_formula_units_Z   3
loop_
 _symmetry_equiv_pos_site_id
 _symmetry_equiv_pos_as_xyz
  1  'x, y, z'
loop_
 _atom_site_type_symbol
 _atom_site_label
 _atom_site_symmetry_multiplicity
 _atom_site_fract_x
 _atom_site_fract_y
 _atom_site_fract_z
 _atom_site_occupancy
 _atom_site_charge
  Cu  Cu1  1  0.778890  0.118380  0.682810  1.0  0.785
  Cu  Cu2  1  0.339490  0.221110  0.349480  1.0  0.7834
  Cu  Cu3  1  0.881620  0.660510  0.016140  1.0  0.7825
  Cu  Cu4  1  0.660510  0.881620  0.317190  1.0  0.7843
  Cu  Cu5  1  0.118380  0.778890  0.650520  1.0  0.7835
  Cu  Cu6  1  0.221110  0.339490  0.983860  1.0  0.782
  Cu  Cu7  1  0.600020  0.600020  0.666667  1.0  0.4915
  Cu  Cu8  1  0.000000  0.399980  0.333333  1.0  0.4927
  Cu  Cu9  1  0.399980  0.000000  0.000000  1.0  0.4911
  H  H10  1  0.588300  0.403200  0.611300  1.0  0.1061
  H  H11  1  0.591100  0.473100  0.663400  1.0  0.0841
  H  H12  1  0.672500  0.624800  0.583200  1.0  0.0937
  H  H13  1  0.669700  0.554900  0.531100  1.0  0.1078
  H  H14  1  0.483900  0.397500  0.493700  1.0  0.0994
  H  H15  1  0.537900  0.466300  0.508000  1.0  0.1111
  H  H16  1  0.502300  0.410800  0.540300  1.0  0.1094
  H  H17  1  0.561800  0.264400  0.429600  1.0  0.0948
  H  H18  1  0.601100  0.243100  0.457800  1.0  0.1058
  H  H19  1  0.637200  0.298800  0.425600  1.0  0.1024
  H  H20  1  0.731500  0.467800  0.574100  1.0  0.1035
  H  H21  1  0.768200  0.452300  0.540000  1.0  0.1051
  H  H22  1  0.728200  0.400500  0.573600  1.0  0.091
  H  H23  1  0.647900  0.232900  0.585000  1.0  0.0892
  H  H24  1  0.603700  0.235000  0.550200  1.0  0.1091
  H  H25  1  0.640800  0.294300  0.579700  1.0  0.093
  H  H26  1  0.828800  0.224600  0.530400  1.0  0.1021
  H  H27  1  0.881700  0.288800  0.509700  1.0  0.1173
  H  H28  1  0.834400  0.229800  0.482400  1.0  0.0998
  H  H29  1  0.729600  0.407300  0.444300  1.0  0.0927
  H  H30  1  0.756700  0.375700  0.413900  1.0  0.1114
  H  H31  1  0.804100  0.432500  0.442600  1.0  0.1027
  H  H32  1  0.698500  0.134700  0.546000  1.0  0.1048
  H  H33  1  0.708000  0.081300  0.602400  1.0  0.0986
  H  H34  1  0.783600  0.245500  0.667300  1.0  0.0952
  H  H35  1  0.774000  0.298900  0.610900  1.0  0.11
  H  H36  1  0.807400  0.250400  0.421200  1.0  0.1027
  H  H37  1  0.880000  0.277700  0.367800  1.0  0.0961
  H  H38  1  0.972200  0.461500  0.405800  1.0  0.0953
  H  H39  1  0.899500  0.434200  0.459200  1.0  0.1004
  H  H40  1  0.446900  0.351800  0.371600  1.0  0.1005
  H  H41  1  0.380000  0.185100  0.431000  1.0  0.0886
  H  H42  1  0.465500  0.232800  0.475700  1.0  0.1059
  H  H43  1  0.532300  0.399400  0.416300  1.0  0.113
  H  H44  1  0.763900  0.053200  0.765000  1.0  0.1051
  H  H45  1  0.826700  0.034800  0.809500  1.0  0.1046
  H  H46  1  0.978600  0.136300  0.738500  1.0  0.1093
  H  H47  1  0.915900  0.154900  0.694000  1.0  0.1038
  H  H48  1  0.817100  0.681000  0.939700  1.0  0.0932
  H  H49  1  0.851700  0.751600  0.882900  1.0  0.0988
  H  H50  1  0.033000  0.850600  0.931700  1.0  0.1055
  H  H51  1  0.998500  0.780100  0.988500  1.0  0.0903
  H  H52  1  0.023600  0.765700  0.809900  1.0  0.0725
  H  H53  1  0.943900  0.963300  0.894400  1.0  0.0965
  H  H54  1  0.961900  0.924000  0.924900  1.0  0.1083
  H  H55  1  0.894600  0.890100  0.902800  1.0  0.1031
  H  H56  1  0.042100  0.226500  0.825800  1.0  0.0835
  H  H57  1  0.878000  0.977700  0.767800  1.0  0.0819
  H  H58  1  0.879100  0.925600  0.796600  1.0  0.1143
  H  H59  1  0.928600  0.955200  0.760300  1.0  0.1005
  H  H60  1  0.814900  0.411700  0.277970  1.0  0.107
  H  H61  1  0.882000  0.408900  0.330070  1.0  0.0828
  H  H62  1  0.952300  0.327500  0.249870  1.0  0.0962
  H  H63  1  0.885200  0.330300  0.197770  1.0  0.1069
  H  H64  1  0.913600  0.516100  0.160370  1.0  0.0981
  H  H65  1  0.928400  0.462100  0.174670  1.0  0.1101
  H  H66  1  0.908500  0.497700  0.206970  1.0  0.1083
  H  H67  1  0.702600  0.438200  0.096270  1.0  0.0963
  H  H68  1  0.642000  0.398900  0.124470  1.0  0.1045
  H  H69  1  0.661600  0.362800  0.092270  1.0  0.1016
  H  H70  1  0.736300  0.268500  0.240770  1.0  0.1026
  H  H71  1  0.684100  0.231800  0.206670  1.0  0.104
  H  H72  1  0.672300  0.271800  0.240270  1.0  0.0922
  H  H73  1  0.585000  0.352100  0.251670  1.0  0.0897
  H  H74  1  0.631300  0.396300  0.216870  1.0  0.1096
  H  H75  1  0.653500  0.359200  0.246370  1.0  0.09
  H  H76  1  0.395800  0.171200  0.197070  1.0  0.0998
  H  H77  1  0.407100  0.118300  0.176370  1.0  0.1156
  H  H78  1  0.395400  0.165600  0.149070  1.0  0.0982
  H  H79  1  0.677700  0.270400  0.110970  1.0  0.0948
  H  H80  1  0.619000  0.243300  0.080570  1.0  0.1138
  H  H81  1  0.628400  0.195900  0.109270  1.0  0.1022
  H  H82  1  0.436200  0.301500  0.212670  1.0  0.1049
  H  H83  1  0.373300  0.292000  0.269070  1.0  0.1045
  H  H84  1  0.461900  0.216400  0.333970  1.0  0.095
  H  H85  1  0.524900  0.226000  0.277570  1.0  0.1115
  H  H86  1  0.443000  0.192600  0.087870  1.0  0.1027
  H  H87  1  0.397700  0.120000  0.034470  1.0  0.0942
  H  H88  1  0.489300  0.027800  0.072470  1.0  0.0952
  H  H89  1  0.534700  0.100500  0.125870  1.0  0.0984
  H  H90  1  0.904900  0.553100  0.038270  1.0  0.0987
  H  H91  1  0.805100  0.620000  0.097670  1.0  0.0893
  H  H92  1  0.767300  0.534500  0.142370  1.0  0.1054
  H  H93  1  0.867100  0.467700  0.082970  1.0  0.1135
  H  H94  1  0.289300  0.236100  0.431670  1.0  0.1041
  H  H95  1  0.208100  0.173300  0.476170  1.0  0.1046
  H  H96  1  0.157700  0.021400  0.405170  1.0  0.1071
  H  H97  1  0.239000  0.084100  0.360670  1.0  0.1047
  H  H98  1  0.863900  0.182900  0.606370  1.0  0.0941
  H  H99  1  0.899900  0.148300  0.549570  1.0  0.0986
  H  H100  1  0.817600  0.967000  0.598370  1.0  0.1045
  H  H101  1  0.781600  0.001500  0.655170  1.0  0.0908
  H  H102  1  0.742100  0.976400  0.476570  1.0  0.0732
  H  H103  1  0.019400  0.056100  0.561070  1.0  0.0837
  H  H104  1  0.962100  0.038100  0.591570  1.0  0.1077
  H  H105  1  0.995500  0.105400  0.569470  1.0  0.1032
  H  H106  1  0.184400  0.957900  0.492470  1.0  0.083
  H  H107  1  0.099700  0.122000  0.434470  1.0  0.0822
  H  H108  1  0.046500  0.120900  0.463270  1.0  0.1145
  H  H109  1  0.026600  0.071400  0.426970  1.0  0.1
  H  H110  1  0.596800  0.185100  0.944630  1.0  0.1063
  H  H111  1  0.526900  0.118000  0.996730  1.0  0.0832
  H  H112  1  0.375200  0.047700  0.916530  1.0  0.095
  H  H113  1  0.445100  0.114800  0.864430  1.0  0.1079
  H  H114  1  0.602500  0.086400  0.827030  1.0  0.0981
  H  H115  1  0.533700  0.071600  0.841330  1.0  0.1124
  H  H116  1  0.589200  0.091500  0.873630  1.0  0.1086
  H  H117  1  0.735600  0.297400  0.762930  1.0  0.094
  H  H118  1  0.756900  0.358000  0.791130  1.0  0.1069
  H  H119  1  0.701200  0.338400  0.758930  1.0  0.1039
  H  H120  1  0.532200  0.263700  0.907430  1.0  0.104
  H  H121  1  0.547700  0.315900  0.873330  1.0  0.1053
  H  H122  1  0.599500  0.327700  0.906930  1.0  0.0926
  H  H123  1  0.767100  0.415000  0.918330  1.0  0.0899
  H  H124  1  0.765000  0.368700  0.883530  1.0  0.1058
  H  H125  1  0.705700  0.346500  0.913030  1.0  0.0944
  H  H126  1  0.775400  0.604200  0.863730  1.0  0.1008
  H  H127  1  0.711200  0.592900  0.843030  1.0  0.1144
  H  H128  1  0.770200  0.604600  0.815730  1.0  0.0999
  H  H129  1  0.592700  0.322300  0.777630  1.0  0.0908
  H  H130  1  0.624300  0.381000  0.747230  1.0  0.1116
  H  H131  1  0.567500  0.371600  0.775930  1.0  0.1025
  H  H132  1  0.865300  0.563800  0.879330  1.0  0.1053
  H  H133  1  0.918700  0.626700  0.935730  1.0  0.1
  H  H134  1  0.754500  0.538100  0.000630  1.0  0.095
  H  H135  1  0.701100  0.475100  0.944230  1.0  0.112
  H  H136  1  0.749600  0.557000  0.754530  1.0  0.1026
  H  H137  1  0.722300  0.602300  0.701130  1.0  0.0952
  H  H138  1  0.538500  0.510700  0.739130  1.0  0.0959
  H  H139  1  0.565800  0.465300  0.792530  1.0  0.0982
  H  H140  1  0.648200  0.095100  0.704930  1.0  0.0979
  H  H141  1  0.814900  0.194900  0.764330  1.0  0.0897
  H  H142  1  0.767200  0.232700  0.809030  1.0  0.1056
  H  H143  1  0.600600  0.132900  0.749630  1.0  0.1164
  H  H144  1  0.946800  0.710700  0.098330  1.0  0.1047
  H  H145  1  0.965200  0.791900  0.142830  1.0  0.1037
  H  H146  1  0.863700  0.842300  0.071830  1.0  0.1119
  H  H147  1  0.845100  0.761000  0.027330  1.0  0.1037
  H  H148  1  0.319000  0.136100  0.273030  1.0  0.0955
  H  H149  1  0.248400  0.100100  0.216230  1.0  0.0988
  H  H150  1  0.149400  0.182400  0.265030  1.0  0.1047
  H  H151  1  0.219900  0.218400  0.321830  1.0  0.0904
  H  H152  1  0.234300  0.257900  0.143230  1.0  0.0721
  H  H153  1  0.036700  0.980600  0.227730  1.0  0.0958
  H  H154  1  0.076000  0.037900  0.258230  1.0  0.1079
  H  H155  1  0.109900  0.004500  0.236130  1.0  0.1023
  H  H156  1  0.773500  0.815600  0.159130  1.0  0.0831
  H  H157  1  0.022300  0.900300  0.101130  1.0  0.0839
  H  H158  1  0.074400  0.953500  0.129930  1.0  0.1125
  H  H159  1  0.044800  0.973400  0.093630  1.0  0.1013
  H  H160  1  0.185100  0.596800  0.388700  1.0  0.1064
  H  H161  1  0.118000  0.526900  0.336600  1.0  0.0844
  H  H162  1  0.047700  0.375200  0.416800  1.0  0.0938
  H  H163  1  0.114800  0.445100  0.468900  1.0  0.1074
  H  H164  1  0.086400  0.602500  0.506300  1.0  0.0993
  H  H165  1  0.071600  0.533700  0.492000  1.0  0.1114
  H  H166  1  0.091500  0.589200  0.459700  1.0  0.1082
  H  H167  1  0.297400  0.735600  0.570400  1.0  0.0936
  H  H168  1  0.358000  0.756900  0.542200  1.0  0.108
  H  H169  1  0.338400  0.701200  0.574400  1.0  0.1025
  H  H170  1  0.263700  0.532200  0.425900  1.0  0.1028
  H  H171  1  0.315900  0.547700  0.460000  1.0  0.1049
  H  H172  1  0.327700  0.599500  0.426400  1.0  0.0926
  H  H173  1  0.415000  0.767100  0.415000  1.0  0.0887
  H  H174  1  0.368700  0.765000  0.449800  1.0  0.1083
  H  H175  1  0.346500  0.705700  0.420300  1.0  0.0926
  H  H176  1  0.604200  0.775400  0.469600  1.0  0.1012
  H  H177  1  0.592900  0.711200  0.490300  1.0  0.1171
  H  H178  1  0.604600  0.770200  0.517600  1.0  0.0997
  H  H179  1  0.322300  0.592700  0.555700  1.0  0.0933
  H  H180  1  0.381000  0.624300  0.586100  1.0  0.1124
  H  H181  1  0.371600  0.567500  0.557400  1.0  0.1014
  H  H182  1  0.563800  0.865300  0.454000  1.0  0.1051
  H  H183  1  0.626700  0.918700  0.397600  1.0  0.0982
  H  H184  1  0.538100  0.754500  0.332700  1.0  0.095
  H  H185  1  0.475100  0.701100  0.389100  1.0  0.1102
  H  H186  1  0.557000  0.749600  0.578800  1.0  0.1031
  H  H187  1  0.602300  0.722300  0.632200  1.0  0.0964
  H  H188  1  0.510700  0.538500  0.594200  1.0  0.0955
  H  H189  1  0.465300  0.565800  0.540800  1.0  0.0994
  H  H190  1  0.095100  0.648200  0.628400  1.0  0.1008
  H  H191  1  0.194900  0.814900  0.569000  1.0  0.0896
  H  H192  1  0.232700  0.767200  0.524300  1.0  0.1054
  H  H193  1  0.132900  0.600600  0.583700  1.0  0.1135
  H  H194  1  0.710700  0.946800  0.235000  1.0  0.1047
  H  H195  1  0.791900  0.965200  0.190500  1.0  0.1033
  H  H196  1  0.842300  0.863700  0.261500  1.0  0.1116
  H  H197  1  0.761000  0.845100  0.306000  1.0  0.1042
  H  H198  1  0.136100  0.319000  0.060300  1.0  0.0936
  H  H199  1  0.100100  0.248400  0.117100  1.0  0.0989
  H  H200  1  0.182400  0.149400  0.068300  1.0  0.1067
  H  H201  1  0.218400  0.219900  0.011500  1.0  0.0901
  H  H202  1  0.257900  0.234300  0.190100  1.0  0.0732
  H  H203  1  0.980600  0.036700  0.105600  1.0  0.0958
  H  H204  1  0.037900  0.076000  0.075100  1.0  0.1065
  H  H205  1  0.004500  0.109900  0.097200  1.0  0.1037
  H  H206  1  0.815600  0.773500  0.174200  1.0  0.0821
  H  H207  1  0.900300  0.022300  0.232200  1.0  0.0825
  H  H208  1  0.953500  0.074400  0.203400  1.0  0.1154
  H  H209  1  0.973400  0.044800  0.239700  1.0  0.1028
  H  H210  1  0.403200  0.588300  0.722030  1.0  0.1069
  H  H211  1  0.473100  0.591100  0.669930  1.0  0.0835
  H  H212  1  0.624800  0.672500  0.750130  1.0  0.0957
  H  H213  1  0.554900  0.669700  0.802230  1.0  0.1065
  H  H214  1  0.397500  0.483900  0.839630  1.0  0.0963
  H  H215  1  0.466300  0.537900  0.825330  1.0  0.1091
  H  H216  1  0.410800  0.502300  0.793030  1.0  0.1082
  H  H217  1  0.264400  0.561800  0.903730  1.0  0.0954
  H  H218  1  0.243100  0.601100  0.875530  1.0  0.1056
  H  H219  1  0.298800  0.637200  0.907730  1.0  0.1031
  H  H220  1  0.467800  0.731500  0.759230  1.0  0.1024
  H  H221  1  0.452300  0.768200  0.793330  1.0  0.1044
  H  H222  1  0.400500  0.728200  0.759730  1.0  0.0923
  H  H223  1  0.232900  0.647900  0.748330  1.0  0.0899
  H  H224  1  0.235000  0.603700  0.783130  1.0  0.1081
  H  H225  1  0.294300  0.640800  0.753630  1.0  0.0901
  H  H226  1  0.224600  0.828800  0.802930  1.0  0.0995
  H  H227  1  0.288800  0.881700  0.823630  1.0  0.1168
  H  H228  1  0.229800  0.834400  0.850930  1.0  0.0989
  H  H229  1  0.407300  0.729600  0.889030  1.0  0.0928
  H  H230  1  0.375700  0.756700  0.919430  1.0  0.1128
  H  H231  1  0.432500  0.804100  0.890730  1.0  0.1023
  H  H232  1  0.134700  0.698500  0.787330  1.0  0.1062
  H  H233  1  0.081300  0.708000  0.730930  1.0  0.104
  H  H234  1  0.245500  0.783600  0.666030  1.0  0.095
  H  H235  1  0.298900  0.774000  0.722430  1.0  0.1123
  H  H236  1  0.250400  0.807400  0.912130  1.0  0.1019
  H  H237  1  0.277700  0.880000  0.965530  1.0  0.0941
  H  H238  1  0.461500  0.972200  0.927530  1.0  0.0949
  H  H239  1  0.434200  0.899500  0.874130  1.0  0.098
  H  H240  1  0.351800  0.446900  0.961730  1.0  0.0994
  H  H241  1  0.185100  0.380000  0.902330  1.0  0.0885
  H  H242  1  0.232800  0.465500  0.857630  1.0  0.1046
  H  H243  1  0.399400  0.532300  0.917030  1.0  0.1138
  H  H244  1  0.053200  0.763900  0.568330  1.0  0.1042
  H  H245  1  0.034800  0.826700  0.523830  1.0  0.1042
  H  H246  1  0.136300  0.978600  0.594830  1.0  0.1074
  H  H247  1  0.154900  0.915900  0.639330  1.0  0.1054
  H  H248  1  0.681000  0.817100  0.393630  1.0  0.0938
  H  H249  1  0.751600  0.851700  0.450430  1.0  0.0998
  H  H250  1  0.850600  0.033000  0.401630  1.0  0.1058
  H  H251  1  0.780100  0.998500  0.344830  1.0  0.0926
  H  H252  1  0.765700  0.023600  0.523430  1.0  0.0728
  H  H253  1  0.963300  0.943900  0.438930  1.0  0.0861
  H  H254  1  0.924000  0.961900  0.408430  1.0  0.1076
  H  H255  1  0.890100  0.894600  0.430530  1.0  0.1014
  H  H256  1  0.226500  0.042100  0.507530  1.0  0.0828
  H  H257  1  0.977700  0.878000  0.565530  1.0  0.082
  H  H258  1  0.925600  0.879100  0.536730  1.0  0.1134
  H  H259  1  0.955200  0.928600  0.573030  1.0  0.1011
  H  H260  1  0.411700  0.814900  0.055370  1.0  0.1061
  H  H261  1  0.408900  0.882000  0.003270  1.0  0.0835
  H  H262  1  0.327500  0.952300  0.083470  1.0  0.0955
  H  H263  1  0.330300  0.885200  0.135570  1.0  0.108
  H  H264  1  0.516100  0.913600  0.172970  1.0  0.0975
  H  H265  1  0.462100  0.928400  0.158670  1.0  0.112
  H  H266  1  0.497700  0.908500  0.126370  1.0  0.1096
  H  H267  1  0.438200  0.702600  0.237070  1.0  0.093
  H  H268  1  0.398900  0.642000  0.208870  1.0  0.1075
  H  H269  1  0.362800  0.661600  0.241070  1.0  0.1027
  H  H270  1  0.268500  0.736300  0.092570  1.0  0.104
  H  H271  1  0.231800  0.684100  0.126670  1.0  0.1051
  H  H272  1  0.271800  0.672300  0.093070  1.0  0.0919
  H  H273  1  0.352100  0.585000  0.081670  1.0  0.0908
  H  H274  1  0.396300  0.631300  0.116470  1.0  0.106
  H  H275  1  0.359200  0.653500  0.086970  1.0  0.0946
  H  H276  1  0.171200  0.395800  0.136270  1.0  0.1006
  H  H277  1  0.118300  0.407100  0.156970  1.0  0.1147
  H  H278  1  0.165600  0.395400  0.184270  1.0  0.1004
  H  H279  1  0.270400  0.677700  0.222370  1.0  0.0925
  H  H280  1  0.243300  0.619000  0.252770  1.0  0.1118
  H  H281  1  0.195900  0.628400  0.224070  1.0  0.1025
  H  H282  1  0.301500  0.436200  0.120670  1.0  0.1052
  H  H283  1  0.292000  0.373300  0.064270  1.0  0.1001
  H  H284  1  0.216400  0.461900  0.999370  1.0  0.0955
  H  H285  1  0.226000  0.524900  0.055770  1.0  0.1117
  H  H286  1  0.192600  0.443000  0.245470  1.0  0.1025
  H  H287  1  0.120000  0.397700  0.298870  1.0  0.0951
  H  H288  1  0.027800  0.489300  0.260870  1.0  0.0955
  H  H289  1  0.100500  0.534700  0.207470  1.0  0.0977
  H  H290  1  0.553100  0.904900  0.295070  1.0  0.0991
  H  H291  1  0.620000  0.805100  0.235670  1.0  0.0892
  H  H292  1  0.534500  0.767300  0.190970  1.0  0.1052
  H  H293  1  0.467700  0.867100  0.250370  1.0  0.1151
  H  H294  1  0.236100  0.289300  0.901670  1.0  0.1047
  H  H295  1  0.173300  0.208100  0.857170  1.0  0.1039
  H  H296  1  0.021400  0.157700  0.928170  1.0  0.1108
  H  H297  1  0.084100  0.239000  0.972670  1.0  0.1032
  H  H298  1  0.182900  0.863900  0.726970  1.0  0.0954
  H  H299  1  0.148300  0.899900  0.783770  1.0  0.0985
  H  H300  1  0.967000  0.817600  0.734970  1.0  0.1062
  H  H301  1  0.001500  0.781600  0.678170  1.0  0.09
  H  H302  1  0.976400  0.742100  0.856770  1.0  0.0718
  H  H303  1  0.056100  0.019400  0.772270  1.0  0.0969
  H  H304  1  0.038100  0.962100  0.741770  1.0  0.107
  H  H305  1  0.105400  0.995500  0.763870  1.0  0.1048
  H  H306  1  0.957900  0.184400  0.840870  1.0  0.0814
  H  H307  1  0.122000  0.099700  0.898870  1.0  0.0826
  H  H308  1  0.120900  0.046500  0.870070  1.0  0.112
  H  H309  1  0.071400  0.026600  0.906370  1.0  0.1026
  C  C310  1  0.604900  0.446900  0.605700  1.0  -0.1289
  C  C311  1  0.606600  0.489300  0.637240  1.0  0.1316
  C  C312  1  0.655900  0.581100  0.588690  1.0  0.1292
  C  C313  1  0.654200  0.538800  0.557150  1.0  -0.1273
  C  C314  1  0.628700  0.471700  0.565650  1.0  -0.077
  C  C315  1  0.626000  0.427300  0.531290  1.0  -0.0325
  C  C316  1  0.572700  0.399200  0.506380  1.0  0.0476
  C  C317  1  0.564100  0.351100  0.479800  1.0  -0.0519
  C  C318  1  0.608700  0.331200  0.478090  1.0  0.0411
  C  C319  1  0.662000  0.359300  0.503000  1.0  0.0055
  C  C320  1  0.670600  0.407400  0.529610  1.0  0.1029
  C  C321  1  0.518700  0.420600  0.512800  1.0  -0.4153
  C  C322  1  0.601500  0.279100  0.444400  1.0  -0.4156
  C  C323  1  0.730100  0.434500  0.556800  1.0  -0.4227
  C  C324  1  0.706800  0.331900  0.503500  1.0  -0.0773
  C  C325  1  0.700900  0.289500  0.535800  1.0  0.0111
  C  C326  1  0.742400  0.263000  0.537300  1.0  0.0121
  C  C327  1  0.789900  0.278900  0.506400  1.0  0.0324
  C  C328  1  0.795900  0.321300  0.474000  1.0  0.0118
  C  C329  1  0.754300  0.347700  0.472500  1.0  0.0349
  C  C330  1  0.642900  0.260200  0.565500  1.0  -0.4253
  C  C331  1  0.838400  0.253100  0.507300  1.0  -0.4009
  C  C332  1  0.761800  0.394900  0.440500  1.0  -0.4176
  C  C333  1  0.735400  0.222040  0.572940  1.0  0.0739
  C  C334  1  0.715600  0.156970  0.570410  1.0  -0.1469
  C  C335  1  0.721300  0.125100  0.604100  1.0  0.1399
  C  C336  1  0.766400  0.223200  0.642850  1.0  0.1241
  C  C337  1  0.760800  0.255100  0.609160  1.0  -0.1983
  C  C338  1  0.846400  0.339580  0.445330  1.0  0.1165
  C  C339  1  0.840600  0.292910  0.418050  1.0  -0.2471
  C  C340  1  0.884000  0.309200  0.386190  1.0  0.1147
  C  C341  1  0.939000  0.418900  0.408880  1.0  0.1068
  C  C342  1  0.895600  0.402590  0.440750  1.0  -0.1852
  C  C343  1  0.450660  0.327630  0.392680  1.0  0.1056
  C  C344  1  0.410920  0.228560  0.427980  1.0  0.1017
  C  C345  1  0.461710  0.256890  0.454570  1.0  -0.1342
  C  C346  1  0.506980  0.320580  0.450210  1.0  0.0322
  C  C347  1  0.501450  0.355960  0.419260  1.0  -0.153
  C  C348  1  0.807700  0.070150  0.759600  1.0  0.0669
  C  C349  1  0.844900  0.059270  0.785920  1.0  -0.1116
  C  C350  1  0.908400  0.083830  0.778070  1.0  -0.0134
  C  C351  1  0.934800  0.119370  0.743920  1.0  -0.1448
  C  C352  1  0.897700  0.130350  0.717600  1.0  0.0778
  C  C353  1  0.859700  0.714500  0.938120  1.0  0.1035
  C  C354  1  0.880700  0.757200  0.903810  1.0  -0.0976
  C  C355  1  0.946000  0.808500  0.901420  1.0  -0.0321
  C  C356  1  0.990400  0.817100  0.933340  1.0  -0.1217
  C  C357  1  0.969400  0.774400  0.967640  1.0  0.1254
  C  C358  1  0.971300  0.849700  0.863300  1.0  0.0663
  C  C359  1  0.968400  0.903100  0.864800  1.0  0.0859
  C  C360  1  0.939500  0.921800  0.899900  1.0  -0.4204
  C  C361  1  0.962400  0.081500  0.810400  1.0  -0.0461
  C  C362  1  0.954800  0.019600  0.810200  1.0  0.0376
  C  C363  1  0.905200  0.964000  0.780800  1.0  -0.3932
  C  C364  1  0.842000  0.395100  0.272370  1.0  -0.1299
  C  C365  1  0.882700  0.393400  0.303910  1.0  0.1334
  C  C366  1  0.925200  0.344100  0.255360  1.0  0.1247
  C  C367  1  0.884600  0.345800  0.223820  1.0  -0.1243
  C  C368  1  0.843000  0.371300  0.232320  1.0  -0.0774
  C  C369  1  0.801300  0.374000  0.197960  1.0  -0.0336
  C  C370  1  0.826500  0.427300  0.173050  1.0  0.0486
  C  C371  1  0.787000  0.435900  0.146470  1.0  -0.0527
  C  C372  1  0.722500  0.391300  0.144760  1.0  0.0407
  C  C373  1  0.697300  0.338000  0.169670  1.0  0.0063
  C  C374  1  0.736800  0.329400  0.196280  1.0  0.101
  C  C375  1  0.901900  0.481300  0.179470  1.0  -0.4124
  C  C376  1  0.677600  0.398500  0.111070  1.0  -0.4145
  C  C377  1  0.704400  0.269900  0.223470  1.0  -0.4208
  C  C378  1  0.625100  0.293200  0.170170  1.0  -0.0786
  C  C379  1  0.588600  0.299100  0.202470  1.0  0.0113
  C  C380  1  0.520600  0.257600  0.203970  1.0  0.012
  C  C381  1  0.489000  0.210100  0.173070  1.0  0.031
  C  C382  1  0.525400  0.204100  0.140670  1.0  0.0126
  C  C383  1  0.593400  0.245700  0.139170  1.0  0.0343
  C  C384  1  0.617300  0.357100  0.232170  1.0  -0.4271
  C  C385  1  0.414700  0.161600  0.173970  1.0  -0.3991
  C  C386  1  0.633100  0.238200  0.107170  1.0  -0.4181
  C  C387  1  0.486640  0.264600  0.239610  1.0  0.076
  C  C388  1  0.441370  0.284400  0.237080  1.0  -0.1492
  C  C389  1  0.403800  0.278700  0.270770  1.0  0.1351
  C  C390  1  0.456800  0.233600  0.309520  1.0  0.1275
  C  C391  1  0.494300  0.239200  0.275830  1.0  -0.2019
  C  C392  1  0.493180  0.153600  0.112000  1.0  0.1165
  C  C393  1  0.452310  0.159400  0.084720  1.0  -0.2495
  C  C394  1  0.425200  0.116000  0.052860  1.0  0.1179
  C  C395  1  0.479900  0.061000  0.075550  1.0  0.1119
  C  C396  1  0.506990  0.104400  0.107420  1.0  -0.1839
  C  C397  1  0.876970  0.549340  0.059350  1.0  0.1084
  C  C398  1  0.817640  0.589080  0.094650  1.0  0.1066
  C  C399  1  0.795180  0.538290  0.121240  1.0  -0.1341
  C  C400  1  0.813600  0.493020  0.116880  1.0  0.0333
  C  C401  1  0.854510  0.498550  0.085930  1.0  -0.1525
  C  C402  1  0.262450  0.192300  0.426270  1.0  0.0685
  C  C403  1  0.214370  0.155100  0.452590  1.0  -0.1152
  C  C404  1  0.175430  0.091600  0.444740  1.0  -0.0123
  C  C405  1  0.184570  0.065200  0.410590  1.0  -0.1489
  C  C406  1  0.232650  0.102300  0.384270  1.0  0.077
  C  C407  1  0.854800  0.140300  0.604790  1.0  0.1009
  C  C408  1  0.876500  0.119300  0.570480  1.0  -0.1026
  C  C409  1  0.862500  0.054000  0.568090  1.0  -0.0321
  C  C410  1  0.826700  0.009600  0.600010  1.0  -0.1196
  C  C411  1  0.805000  0.030600  0.634310  1.0  0.1243
  C  C412  1  0.878400  0.028700  0.529970  1.0  0.0631
  C  C413  1  0.934700  0.031600  0.531470  1.0  0.0844
  C  C414  1  0.982300  0.060500  0.566570  1.0  -0.4196
  C  C415  1  0.119100  0.037600  0.477070  1.0  -0.0452
  C  C416  1  0.064800  0.045200  0.476870  1.0  0.0368
  C  C417  1  0.058800  0.094800  0.447470  1.0  -0.394
  C  C418  1  0.553100  0.158000  0.939030  1.0  -0.1292
  C  C419  1  0.510700  0.117300  0.970570  1.0  0.1345
  C  C420  1  0.418900  0.074800  0.922020  1.0  0.1264
  C  C421  1  0.461200  0.115400  0.890480  1.0  -0.1257
  C  C422  1  0.528300  0.157000  0.898980  1.0  -0.0786
  C  C423  1  0.572700  0.198700  0.864620  1.0  -0.0328
  C  C424  1  0.600800  0.173500  0.839710  1.0  0.0484
  C  C425  1  0.648900  0.213000  0.813130  1.0  -0.0532
  C  C426  1  0.668800  0.277500  0.811420  1.0  0.0424
  C  C427  1  0.640700  0.302700  0.836330  1.0  0.0058
  C  C428  1  0.592600  0.263200  0.862940  1.0  0.1024
  C  C429  1  0.579400  0.098100  0.846130  1.0  -0.415
  C  C430  1  0.720900  0.322400  0.777730  1.0  -0.4143
  C  C431  1  0.565500  0.295600  0.890130  1.0  -0.424
  C  C432  1  0.668100  0.374900  0.836830  1.0  -0.0785
  C  C433  1  0.710500  0.411400  0.869130  1.0  0.0107
  C  C434  1  0.737000  0.479400  0.870630  1.0  0.0116
  C  C435  1  0.721100  0.511000  0.839730  1.0  0.0301
  C  C436  1  0.678700  0.474600  0.807330  1.0  0.0111
  C  C437  1  0.652300  0.406600  0.805830  1.0  0.0341
  C  C438  1  0.739800  0.382700  0.898830  1.0  -0.4265
  C  C439  1  0.746900  0.585300  0.840630  1.0  -0.4034
  C  C440  1  0.605100  0.366900  0.773830  1.0  -0.4167
  C  C441  1  0.777960  0.513360  0.906270  1.0  0.0742
  C  C442  1  0.843030  0.558630  0.903740  1.0  -0.1438
  C  C443  1  0.874900  0.596200  0.937430  1.0  0.1397
  C  C444  1  0.776800  0.543200  0.976180  1.0  0.1267
  C  C445  1  0.744900  0.505700  0.942490  1.0  -0.2002
  C  C446  1  0.660420  0.506820  0.778660  1.0  0.1169
  C  C447  1  0.707090  0.547690  0.751380  1.0  -0.2466
  C  C448  1  0.690800  0.574800  0.719520  1.0  0.1176
  C  C449  1  0.581100  0.520100  0.742210  1.0  0.1102
  C  C450  1  0.597410  0.493010  0.774080  1.0  -0.1819
  C  C451  1  0.672370  0.123030  0.726010  1.0  0.1061
  C  C452  1  0.771440  0.182360  0.761310  1.0  0.1043
  C  C453  1  0.743110  0.204820  0.787900  1.0  -0.1318
  C  C454  1  0.679420  0.186400  0.783540  1.0  0.033
  C  C455  1  0.644040  0.145490  0.752590  1.0  -0.1579
  C  C456  1  0.929850  0.737550  0.092930  1.0  0.0679
  C  C457  1  0.940730  0.785630  0.119250  1.0  -0.1118
  C  C458  1  0.916170  0.824570  0.111400  1.0  -0.0113
  C  C459  1  0.880630  0.815430  0.077250  1.0  -0.144
  C  C460  1  0.869650  0.767350  0.050930  1.0  0.0802
  C  C461  1  0.285500  0.145200  0.271450  1.0  0.1004
  C  C462  1  0.242800  0.123500  0.237140  1.0  -0.1009
  C  C463  1  0.191500  0.137500  0.234750  1.0  -0.0321
  C  C464  1  0.182900  0.173300  0.266670  1.0  -0.1228
  C  C465  1  0.225600  0.195000  0.300970  1.0  0.1252
  C  C466  1  0.150300  0.121600  0.196630  1.0  0.0645
  C  C467  1  0.096900  0.065300  0.198130  1.0  0.0865
  C  C468  1  0.078200  0.017700  0.233230  1.0  -0.4202
  C  C469  1  0.918500  0.880900  0.143730  1.0  -0.0474
  C  C470  1  0.980400  0.935200  0.143530  1.0  0.0368
  C  C471  1  0.036000  0.941200  0.114130  1.0  -0.3949
  C  C472  1  0.158000  0.553100  0.394300  1.0  -0.1302
  C  C473  1  0.117300  0.510700  0.362760  1.0  0.1309
  C  C474  1  0.074800  0.418900  0.411310  1.0  0.1306
  C  C475  1  0.115400  0.461200  0.442850  1.0  -0.1269
  C  C476  1  0.157000  0.528300  0.434350  1.0  -0.0774
  C  C477  1  0.198700  0.572700  0.468710  1.0  -0.0334
  C  C478  1  0.173500  0.600800  0.493620  1.0  0.0478
  C  C479  1  0.213000  0.648900  0.520200  1.0  -0.0516
  C  C480  1  0.277500  0.668800  0.521910  1.0  0.0431
  C  C481  1  0.302700  0.640700  0.497000  1.0  0.0056
  C  C482  1  0.263200  0.592600  0.470390  1.0  0.1015
  C  C483  1  0.098100  0.579400  0.487200  1.0  -0.4153
  C  C484  1  0.322400  0.720900  0.555600  1.0  -0.4163
  C  C485  1  0.295600  0.565500  0.443200  1.0  -0.4223
  C  C486  1  0.374900  0.668100  0.496500  1.0  -0.0773
  C  C487  1  0.411400  0.710500  0.464200  1.0  0.0095
  C  C488  1  0.479400  0.737000  0.462700  1.0  0.0123
  C  C489  1  0.511000  0.721100  0.493600  1.0  0.0331
  C  C490  1  0.474600  0.678700  0.526000  1.0  0.0118
  C  C491  1  0.406600  0.652300  0.527500  1.0  0.038
  C  C492  1  0.382700  0.739800  0.434500  1.0  -0.4244
  C  C493  1  0.585300  0.746900  0.492700  1.0  -0.401
  C  C494  1  0.366900  0.605100  0.559500  1.0  -0.4186
  C  C495  1  0.513360  0.777960  0.427060  1.0  0.0748
  C  C496  1  0.558630  0.843030  0.429590  1.0  -0.1462
  C  C497  1  0.596200  0.874900  0.395900  1.0  0.1398
  C  C498  1  0.543200  0.776800  0.357150  1.0  0.1239
  C  C499  1  0.505700  0.744900  0.390840  1.0  -0.2018
  C  C500  1  0.506820  0.660420  0.554670  1.0  0.1164
  C  C501  1  0.547690  0.707090  0.581950  1.0  -0.2461
  C  C502  1  0.574800  0.690800  0.613810  1.0  0.1129
  C  C503  1  0.520100  0.581100  0.591120  1.0  0.1073
  C  C504  1  0.493010  0.597410  0.559250  1.0  -0.1837
  C  C505  1  0.123030  0.672370  0.607320  1.0  0.1065
  C  C506  1  0.182360  0.771440  0.572020  1.0  0.102
  C  C507  1  0.204820  0.743110  0.545430  1.0  -0.1346
  C  C508  1  0.186400  0.679420  0.549790  1.0  0.0327
  C  C509  1  0.145490  0.644040  0.580740  1.0  -0.1533
  C  C510  1  0.737550  0.929850  0.240400  1.0  0.0667
  C  C511  1  0.785630  0.940730  0.214080  1.0  -0.1131
  C  C512  1  0.824570  0.916170  0.221930  1.0  -0.0128
  C  C513  1  0.815430  0.880630  0.256080  1.0  -0.1448
  C  C514  1  0.767350  0.869650  0.282400  1.0  0.0766
  C  C515  1  0.145200  0.285500  0.061880  1.0  0.1043
  C  C516  1  0.123500  0.242800  0.096190  1.0  -0.0968
  C  C517  1  0.137500  0.191500  0.098580  1.0  -0.0314
  C  C518  1  0.173300  0.182900  0.066660  1.0  -0.1214
  C  C519  1  0.195000  0.225600  0.032360  1.0  0.1262
  C  C520  1  0.121600  0.150300  0.136700  1.0  0.0658
  C  C521  1  0.065300  0.096900  0.135200  1.0  0.0864
  C  C522  1  0.017700  0.078200  0.100100  1.0  -0.4222
  C  C523  1  0.880900  0.918500  0.189600  1.0  -0.0464
  C  C524  1  0.935200  0.980400  0.189800  1.0  0.0378
  C  C525  1  0.941200  0.036000  0.219200  1.0  -0.3946
  C  C526  1  0.446900  0.604900  0.727630  1.0  -0.1288
  C  C527  1  0.489300  0.606600  0.696090  1.0  0.1341
  C  C528  1  0.581100  0.655900  0.744640  1.0  0.1244
  C  C529  1  0.538800  0.654200  0.776180  1.0  -0.1263
  C  C530  1  0.471700  0.628700  0.767680  1.0  -0.0767
  C  C531  1  0.427300  0.626000  0.802040  1.0  -0.0337
  C  C532  1  0.399200  0.572700  0.826950  1.0  0.0483
  C  C533  1  0.351100  0.564100  0.853530  1.0  -0.053
  C  C534  1  0.331200  0.608700  0.855240  1.0  0.0407
  C  C535  1  0.359300  0.662000  0.830330  1.0  0.0062
  C  C536  1  0.407400  0.670600  0.803720  1.0  0.1004
  C  C537  1  0.420600  0.518700  0.820530  1.0  -0.4118
  C  C538  1  0.279100  0.601500  0.888930  1.0  -0.4142
  C  C539  1  0.434500  0.730100  0.776530  1.0  -0.4216
  C  C540  1  0.331900  0.706800  0.829830  1.0  -0.0783
  C  C541  1  0.289500  0.700900  0.797530  1.0  0.0109
  C  C542  1  0.263000  0.742400  0.796030  1.0  0.0126
  C  C543  1  0.278900  0.789900  0.826930  1.0  0.0306
  C  C544  1  0.321300  0.795900  0.859330  1.0  0.0125
  C  C545  1  0.347700  0.754300  0.860830  1.0  0.0366
  C  C546  1  0.260200  0.642900  0.767830  1.0  -0.4259
  C  C547  1  0.253100  0.838400  0.826030  1.0  -0.4002
  C  C548  1  0.394900  0.761800  0.892830  1.0  -0.4167
  C  C549  1  0.222040  0.735400  0.760390  1.0  0.0765
  C  C550  1  0.156970  0.715600  0.762920  1.0  -0.1479
  C  C551  1  0.125100  0.721300  0.729230  1.0  0.1369
  C  C552  1  0.223200  0.766400  0.690480  1.0  0.1257
  C  C553  1  0.255100  0.760800  0.724170  1.0  -0.2029
  C  C554  1  0.339580  0.846400  0.888000  1.0  0.1164
  C  C555  1  0.292910  0.840600  0.915280  1.0  -0.2468
  C  C556  1  0.309200  0.884000  0.947140  1.0  0.1176
  C  C557  1  0.418900  0.939000  0.924450  1.0  0.1118
  C  C558  1  0.402590  0.895600  0.892580  1.0  -0.1833
  C  C559  1  0.327630  0.450660  0.940650  1.0  0.1076
  C  C560  1  0.228560  0.410920  0.905350  1.0  0.107
  C  C561  1  0.256890  0.461710  0.878760  1.0  -0.1342
  C  C562  1  0.320580  0.506980  0.883120  1.0  0.0326
  C  C563  1  0.355960  0.501450  0.914070  1.0  -0.1525
  C  C564  1  0.070150  0.807700  0.573730  1.0  0.0674
  C  C565  1  0.059270  0.844900  0.547410  1.0  -0.1125
  C  C566  1  0.083830  0.908400  0.555260  1.0  -0.0116
  C  C567  1  0.119370  0.934800  0.589410  1.0  -0.1474
  C  C568  1  0.130350  0.897700  0.615730  1.0  0.0753
  C  C569  1  0.714500  0.859700  0.395210  1.0  0.1019
  C  C570  1  0.757200  0.880700  0.429520  1.0  -0.1019
  C  C571  1  0.808500  0.946000  0.431910  1.0  -0.0314
  C  C572  1  0.817100  0.990400  0.399990  1.0  -0.118
  C  C573  1  0.774400  0.969400  0.365690  1.0  0.1216
  C  C574  1  0.849700  0.971300  0.470030  1.0  0.0645
  C  C575  1  0.903100  0.968400  0.468530  1.0  0.0837
  C  C576  1  0.921800  0.939500  0.433430  1.0  -0.4226
  C  C577  1  0.081500  0.962400  0.522930  1.0  -0.045
  C  C578  1  0.019600  0.954800  0.523130  1.0  0.0374
  C  C579  1  0.964000  0.905200  0.552530  1.0  -0.3936
  C  C580  1  0.395100  0.842000  0.060970  1.0  -0.1281
  C  C581  1  0.393400  0.882700  0.029430  1.0  0.1346
  C  C582  1  0.344100  0.925200  0.077980  1.0  0.1275
  C  C583  1  0.345800  0.884600  0.109520  1.0  -0.1268
  C  C584  1  0.371300  0.843000  0.101020  1.0  -0.078
  C  C585  1  0.374000  0.801300  0.135380  1.0  -0.032
  C  C586  1  0.427300  0.826500  0.160290  1.0  0.0489
  C  C587  1  0.435900  0.787000  0.186870  1.0  -0.0528
  C  C588  1  0.391300  0.722500  0.188580  1.0  0.0429
  C  C589  1  0.338000  0.697300  0.163670  1.0  0.006
  C  C590  1  0.329400  0.736800  0.137060  1.0  0.1028
  C  C591  1  0.481300  0.901900  0.153870  1.0  -0.4149
  C  C592  1  0.398500  0.677600  0.222270  1.0  -0.4142
  C  C593  1  0.269900  0.704400  0.109870  1.0  -0.4245
  C  C594  1  0.293200  0.625100  0.163170  1.0  -0.0791
  C  C595  1  0.299100  0.588600  0.130870  1.0  0.008
  C  C596  1  0.257600  0.520600  0.129370  1.0  0.012
  C  C597  1  0.210100  0.489000  0.160270  1.0  0.0312
  C  C598  1  0.204100  0.525400  0.192670  1.0  0.011
  C  C599  1  0.245700  0.593400  0.194170  1.0  0.0353
  C  C600  1  0.357100  0.617300  0.101170  1.0  -0.4271
  C  C601  1  0.161600  0.414700  0.159370  1.0  -0.4024
  C  C602  1  0.238200  0.633100  0.226170  1.0  -0.4154
  C  C603  1  0.264600  0.486640  0.093730  1.0  0.0747
  C  C604  1  0.284400  0.441370  0.096260  1.0  -0.1429
  C  C605  1  0.278700  0.403800  0.062570  1.0  0.1397
  C  C606  1  0.233600  0.456800  0.023820  1.0  0.1256
  C  C607  1  0.239200  0.494300  0.057510  1.0  -0.2011
  C  C608  1  0.153600  0.493180  0.221340  1.0  0.1169
  C  C609  1  0.159400  0.452310  0.248620  1.0  -0.2446
  C  C610  1  0.116000  0.425200  0.280480  1.0  0.1187
  C  C611  1  0.061000  0.479900  0.257790  1.0  0.11
  C  C612  1  0.104400  0.506990  0.225920  1.0  -0.1811
  C  C613  1  0.549340  0.876970  0.273990  1.0  0.1061
  C  C614  1  0.589080  0.817640  0.238690  1.0  0.1051
  C  C615  1  0.538290  0.795180  0.212100  1.0  -0.1313
  C  C616  1  0.493020  0.813600  0.216460  1.0  0.0335
  C  C617  1  0.498550  0.854510  0.247410  1.0  -0.1566
  C  C618  1  0.192300  0.262450  0.907070  1.0  0.0685
  C  C619  1  0.155100  0.214370  0.880750  1.0  -0.1121
  C  C620  1  0.091600  0.175430  0.888600  1.0  -0.0102
  C  C621  1  0.065200  0.184570  0.922750  1.0  -0.1437
  C  C622  1  0.102300  0.232650  0.949070  1.0  0.0796
  C  C623  1  0.140300  0.854800  0.728550  1.0  0.1004
  C  C624  1  0.119300  0.876500  0.762860  1.0  -0.1021
  C  C625  1  0.054000  0.862500  0.765250  1.0  -0.0313
  C  C626  1  0.009600  0.826700  0.733330  1.0  -0.123
  C  C627  1  0.030600  0.805000  0.699030  1.0  0.1244
  C  C628  1  0.028700  0.878400  0.803370  1.0  0.0661
  C  C629  1  0.031600  0.934700  0.801870  1.0  0.0866
  C  C630  1  0.060500  0.982300  0.766770  1.0  -0.4212
  C  C631  1  0.037600  0.119100  0.856270  1.0  -0.0466
  C  C632  1  0.045200  0.064800  0.856470  1.0  0.037
  C  C633  1  0.094800  0.058800  0.885870  1.0  -0.3937
  C  C634  1  0.000000  0.833000  0.833330  1.0  -0.0683
  C  C635  1  0.000000  0.767300  0.833330  1.0  0.223
  C  C636  1  0.000000  0.130300  0.833330  1.0  0.3393
  C  C637  1  0.000000  0.192000  0.833330  1.0  0.1236
  C  C638  1  0.000000  0.011500  0.833330  1.0  0.0264
  C  C639  1  0.000000  0.951000  0.833330  1.0  -0.0235
  C  C640  1  0.833000  0.000000  0.500000  1.0  -0.0704
  C  C641  1  0.767300  0.000000  0.500000  1.0  0.2314
  C  C642  1  0.130300  0.000000  0.500000  1.0  0.335
  C  C643  1  0.192000  0.000000  0.500000  1.0  0.1316
  C  C644  1  0.011500  0.000000  0.500000  1.0  0.0267
  C  C645  1  0.951000  0.000000  0.500000  1.0  -0.0231
  C  C646  1  0.167000  0.167000  0.166670  1.0  -0.0675
  C  C647  1  0.232700  0.232700  0.166670  1.0  0.2225
  C  C648  1  0.869700  0.869700  0.166670  1.0  0.3385
  C  C649  1  0.808000  0.808000  0.166670  1.0  0.1197
  C  C650  1  0.988500  0.988500  0.166670  1.0  0.0265
  C  C651  1  0.049000  0.049000  0.166670  1.0  -0.0232
  N  N652  1  0.632100  0.556300  0.628740  1.0  -0.3658
  N  N653  1  0.746700  0.158200  0.640320  1.0  -0.3411
  N  N654  1  0.933100  0.372200  0.381600  1.0  -0.3175
  N  N655  1  0.405390  0.263930  0.397040  1.0  -0.3433
  N  N656  1  0.834100  0.105690  0.725440  1.0  -0.3079
  N  N657  1  0.904100  0.723100  0.970030  1.0  -0.3575
  N  N658  1  0.924200  0.367900  0.295410  1.0  -0.3652
  N  N659  1  0.411500  0.253300  0.306990  1.0  -0.3404
  N  N660  1  0.439100  0.066900  0.048270  1.0  -0.3213
  N  N661  1  0.858540  0.594610  0.063710  1.0  -0.3428
  N  N662  1  0.271590  0.165900  0.392110  1.0  -0.3069
  N  N663  1  0.819000  0.095900  0.636700  1.0  -0.3592
  N  N664  1  0.443700  0.075800  0.962070  1.0  -0.3656
  N  N665  1  0.841800  0.588500  0.973650  1.0  -0.3402
  N  N666  1  0.627800  0.560900  0.714930  1.0  -0.3203
  N  N667  1  0.736070  0.141460  0.730370  1.0  -0.344
  N  N668  1  0.894310  0.728410  0.058770  1.0  -0.308
  N  N669  1  0.276900  0.181000  0.303360  1.0  -0.3582
  N  N670  1  0.075800  0.443700  0.371260  1.0  -0.367
  N  N671  1  0.588500  0.841800  0.359680  1.0  -0.3424
  N  N672  1  0.560900  0.627800  0.618400  1.0  -0.3174
  N  N673  1  0.141460  0.736070  0.602960  1.0  -0.3418
  N  N674  1  0.728410  0.894310  0.274560  1.0  -0.3064
  N  N675  1  0.181000  0.276900  0.029970  1.0  -0.3574
  N  N676  1  0.556300  0.632100  0.704590  1.0  -0.3668
  N  N677  1  0.158200  0.746700  0.693010  1.0  -0.3406
  N  N678  1  0.372200  0.933100  0.951730  1.0  -0.3204
  N  N679  1  0.263930  0.405390  0.936290  1.0  -0.3416
  N  N680  1  0.105690  0.834100  0.607890  1.0  -0.3063
  N  N681  1  0.723100  0.904100  0.363300  1.0  -0.3602
  N  N682  1  0.367900  0.924200  0.037930  1.0  -0.3671
  N  N683  1  0.253300  0.411500  0.026350  1.0  -0.3417
  N  N684  1  0.066900  0.439100  0.285070  1.0  -0.3206
  N  N685  1  0.594610  0.858540  0.269630  1.0  -0.3432
  N  N686  1  0.165900  0.271590  0.941230  1.0  -0.3067
  N  N687  1  0.095900  0.819000  0.696640  1.0  -0.3588
  O  O688  1  0.693000  0.021000  0.680100  1.0  -0.3475
  O  O689  1  0.867800  0.212600  0.682100  1.0  -0.4058
  O  O690  1  0.328000  0.307000  0.346770  1.0  -0.3471
  O  O691  1  0.344800  0.132200  0.348770  1.0  -0.4065
  O  O692  1  0.979000  0.672000  0.013430  1.0  -0.3429
  O  O693  1  0.787400  0.655200  0.015430  1.0  -0.4039
  O  O694  1  0.672000  0.979000  0.319900  1.0  -0.3474
  O  O695  1  0.655200  0.787400  0.317900  1.0  -0.4067
  O  O696  1  0.021000  0.693000  0.653230  1.0  -0.3477
  O  O697  1  0.212600  0.867800  0.651230  1.0  -0.406
  O  O698  1  0.307000  0.328000  0.986570  1.0  -0.343
  O  O699  1  0.132200  0.344800  0.984570  1.0  -0.4038
  O  O700  1  0.691600  0.691600  0.666667  1.0  -0.33
  O  O701  1  0.000000  0.308400  0.333333  1.0  -0.3308
  O  O702  1  0.308400  0.000000  0.000000  1.0  -0.3276
