# generated using pymatgen
data_LaB3H80C88N5O8
_symmetry_space_group_name_H-M   'P 1'
_cell_length_a   15.81400000
_cell_length_b   21.95800000
_cell_length_c   48.42200000
_cell_angle_alpha   90.00000000
_cell_angle_beta   90.00000000
_cell_angle_gamma   90.00000000
_symmetry_Int_Tables_number   1
_chemical_formula_structural   LaB3H80C88N5O8
_chemical_formula_sum   'La8 B24 H640 C704 N40 O64'
_cell_volume   16814.23986466
_cell_formula_units_Z   8
loop_
 _symmetry_equiv_pos_site_id
 _symmetry_equiv_pos_as_xyz
  1  'x, y, z'
loop_
 _atom_site_type_symbol
 _atom_site_label
 _atom_site_symmetry_multiplicity
 _atom_site_fract_x
 _atom_site_fract_y
 _atom_site_fract_z
 _atom_site_occupancy
 _atom_site_charge
  La  La1  1  0.110640  0.750550  0.865810  1.0  2.1333
  La  La2  1  0.610640  0.749450  0.634190  1.0  2.134
  La  La3  1  0.389360  0.750550  0.134190  1.0  2.1349
  La  La4  1  0.889360  0.749450  0.365810  1.0  2.135
  La  La5  1  0.889360  0.249450  0.134190  1.0  2.1353
  La  La6  1  0.389360  0.250550  0.365810  1.0  2.1349
  La  La7  1  0.610640  0.249450  0.865810  1.0  2.1335
  La  La8  1  0.110640  0.250550  0.634190  1.0  2.1334
  B  B9  1  0.974100  0.824100  0.901400  1.0  0.4944
  B  B10  1  0.474100  0.675900  0.598600  1.0  0.4942
  B  B11  1  0.525900  0.824100  0.098600  1.0  0.494
  B  B12  1  0.025900  0.675900  0.401400  1.0  0.4944
  B  B13  1  0.025900  0.175900  0.098600  1.0  0.4941
  B  B14  1  0.525900  0.324100  0.401400  1.0  0.4942
  B  B15  1  0.474100  0.175900  0.901400  1.0  0.4946
  B  B16  1  0.974100  0.324100  0.598600  1.0  0.4941
  B  B17  1  0.537800  0.681400  0.943400  1.0  0.4726
  B  B18  1  0.893200  0.553600  0.738900  1.0  0.5689
  B  B19  1  0.037800  0.818600  0.556600  1.0  0.4722
  B  B20  1  0.393200  0.946400  0.761100  1.0  0.5689
  B  B21  1  0.962200  0.681400  0.056600  1.0  0.4725
  B  B22  1  0.606800  0.553600  0.261100  1.0  0.5687
  B  B23  1  0.462200  0.818600  0.443400  1.0  0.4722
  B  B24  1  0.106800  0.946400  0.238900  1.0  0.5689
  B  B25  1  0.462200  0.318600  0.056600  1.0  0.4721
  B  B26  1  0.106800  0.446400  0.261100  1.0  0.5688
  B  B27  1  0.962200  0.181400  0.443400  1.0  0.4726
  B  B28  1  0.606800  0.053600  0.238900  1.0  0.5689
  B  B29  1  0.037800  0.318600  0.943400  1.0  0.4722
  B  B30  1  0.393200  0.446400  0.738900  1.0  0.569
  B  B31  1  0.537800  0.181400  0.556600  1.0  0.4725
  B  B32  1  0.893200  0.053600  0.761100  1.0  0.5688
  H  H33  1  0.000800  0.743000  0.946000  1.0  0.0885
  H  H34  1  0.007000  0.684900  0.927300  1.0  0.085
  H  H35  1  0.924200  0.724200  0.927300  1.0  0.1001
  H  H36  1  0.970300  0.919500  0.870000  1.0  0.0935
  H  H37  1  0.047000  0.907600  0.850200  1.0  0.1014
  H  H38  1  0.063100  0.928600  0.880700  1.0  0.1071
  H  H39  1  0.247000  0.847200  0.868200  1.0  0.3282
  H  H40  1  0.275900  0.887500  0.826500  1.0  0.1004
  H  H41  1  0.204500  0.922400  0.842500  1.0  0.0933
  H  H42  1  0.180600  0.874600  0.819700  1.0  0.0921
  H  H43  1  0.308000  0.829800  0.930200  1.0  0.1186
  H  H44  1  0.320700  0.828800  0.977400  1.0  0.0831
  H  H45  1  0.171500  0.682600  0.980600  1.0  0.0917
  H  H46  1  0.161100  0.685300  0.933300  1.0  0.094
  H  H47  1  0.089500  0.535300  0.889000  1.0  0.1126
  H  H48  1  0.180700  0.455300  0.882900  1.0  0.0886
  H  H49  1  0.371600  0.572900  0.875600  1.0  0.094
  H  H50  1  0.277700  0.651500  0.882100  1.0  0.0972
  H  H51  1  0.512200  0.415900  0.837100  1.0  0.1165
  H  H52  1  0.428600  0.497900  0.848500  1.0  0.0931
  H  H53  1  0.283200  0.387400  0.893800  1.0  0.0886
  H  H54  1  0.367300  0.307000  0.880900  1.0  0.0882
  H  H55  1  0.992400  0.884400  0.804300  1.0  0.0837
  H  H56  1  0.888700  0.887400  0.771200  1.0  0.082
  H  H57  1  0.914400  0.708500  0.761100  1.0  0.0878
  H  H58  1  0.011400  0.707400  0.796300  1.0  0.1001
  H  H59  1  0.808800  0.734600  0.677300  1.0  0.09
  H  H60  1  0.892300  0.731200  0.716000  1.0  0.0915
  H  H61  1  0.761900  0.870900  0.747200  1.0  0.0814
  H  H62  1  0.684200  0.875100  0.707200  1.0  0.1206
  H  H63  1  0.821600  0.805300  0.928800  1.0  0.088
  H  H64  1  0.689200  0.780400  0.913300  1.0  0.0667
  H  H65  1  0.660000  0.774400  0.866500  1.0  0.1029
  H  H66  1  0.768800  0.793600  0.835300  1.0  0.0902
  H  H67  1  0.901000  0.818800  0.851000  1.0  0.0682
  H  H68  1  0.881000  0.916300  0.928800  1.0  0.0894
  H  H69  1  0.921800  0.993300  0.958300  1.0  0.0994
  H  H70  1  0.059900  0.996100  0.974700  1.0  0.0954
  H  H71  1  0.155700  0.922600  0.960300  1.0  0.1065
  H  H72  1  0.112900  0.846400  0.931000  1.0  0.0749
  H  H73  1  0.500800  0.757000  0.554000  1.0  0.0885
  H  H74  1  0.507000  0.815100  0.572700  1.0  0.0863
  H  H75  1  0.424200  0.775800  0.572700  1.0  0.1003
  H  H76  1  0.470300  0.580500  0.630000  1.0  0.093
  H  H77  1  0.547000  0.592400  0.649800  1.0  0.1035
  H  H78  1  0.563100  0.571400  0.619300  1.0  0.1063
  H  H79  1  0.747000  0.652800  0.631800  1.0  0.3289
  H  H80  1  0.775900  0.612500  0.673500  1.0  0.1019
  H  H81  1  0.704500  0.577600  0.657500  1.0  0.0927
  H  H82  1  0.680600  0.625400  0.680300  1.0  0.0913
  H  H83  1  0.808000  0.670200  0.569800  1.0  0.1193
  H  H84  1  0.820700  0.671200  0.522600  1.0  0.0833
  H  H85  1  0.671500  0.817400  0.519400  1.0  0.0919
  H  H86  1  0.661100  0.814700  0.566700  1.0  0.0952
  H  H87  1  0.589500  0.964700  0.611000  1.0  0.1134
  H  H88  1  0.680700  0.044700  0.617100  1.0  0.0883
  H  H89  1  0.871600  0.927100  0.624400  1.0  0.0937
  H  H90  1  0.777700  0.848500  0.617900  1.0  0.0972
  H  H91  1  0.012200  0.084100  0.662900  1.0  0.1162
  H  H92  1  0.928600  0.002100  0.651500  1.0  0.0924
  H  H93  1  0.783200  0.112600  0.606200  1.0  0.0888
  H  H94  1  0.867300  0.193000  0.619100  1.0  0.088
  H  H95  1  0.492400  0.615600  0.695700  1.0  0.0837
  H  H96  1  0.388700  0.612600  0.728800  1.0  0.0821
  H  H97  1  0.414400  0.791500  0.738900  1.0  0.0866
  H  H98  1  0.511400  0.792600  0.703700  1.0  0.1002
  H  H99  1  0.308800  0.765400  0.822700  1.0  0.0892
  H  H100  1  0.392300  0.768800  0.784000  1.0  0.0915
  H  H101  1  0.261900  0.629100  0.752800  1.0  0.0819
  H  H102  1  0.184200  0.624900  0.792800  1.0  0.1201
  H  H103  1  0.321600  0.694700  0.571200  1.0  0.0886
  H  H104  1  0.189200  0.719600  0.586700  1.0  0.0666
  H  H105  1  0.160000  0.725600  0.633500  1.0  0.1025
  H  H106  1  0.268800  0.706400  0.664700  1.0  0.0892
  H  H107  1  0.401000  0.681200  0.649000  1.0  0.0682
  H  H108  1  0.381000  0.583700  0.571200  1.0  0.09
  H  H109  1  0.421800  0.506700  0.541700  1.0  0.0995
  H  H110  1  0.559900  0.503900  0.525300  1.0  0.0953
  H  H111  1  0.655700  0.577400  0.539700  1.0  0.107
  H  H112  1  0.612900  0.653600  0.569000  1.0  0.0745
  H  H113  1  0.499200  0.743000  0.054000  1.0  0.0885
  H  H114  1  0.493000  0.684900  0.072700  1.0  0.0847
  H  H115  1  0.575800  0.724200  0.072700  1.0  0.1006
  H  H116  1  0.529700  0.919500  0.130000  1.0  0.0937
  H  H117  1  0.453000  0.907600  0.149800  1.0  0.1029
  H  H118  1  0.436900  0.928600  0.119300  1.0  0.1068
  H  H119  1  0.253000  0.847200  0.131800  1.0  0.3289
  H  H120  1  0.224100  0.887500  0.173500  1.0  0.1005
  H  H121  1  0.295500  0.922400  0.157500  1.0  0.0943
  H  H122  1  0.319400  0.874600  0.180300  1.0  0.0913
  H  H123  1  0.192000  0.829800  0.069800  1.0  0.1188
  H  H124  1  0.179300  0.828800  0.022600  1.0  0.0833
  H  H125  1  0.328500  0.682600  0.019400  1.0  0.0914
  H  H126  1  0.338900  0.685300  0.066700  1.0  0.0949
  H  H127  1  0.410500  0.535300  0.111000  1.0  0.1134
  H  H128  1  0.319300  0.455300  0.117100  1.0  0.0881
  H  H129  1  0.128400  0.572900  0.124400  1.0  0.0943
  H  H130  1  0.222300  0.651500  0.117900  1.0  0.0971
  H  H131  1  0.987800  0.415900  0.162900  1.0  0.1163
  H  H132  1  0.071400  0.497900  0.151500  1.0  0.0925
  H  H133  1  0.216800  0.387400  0.106200  1.0  0.0884
  H  H134  1  0.132700  0.307000  0.119100  1.0  0.0887
  H  H135  1  0.507600  0.884400  0.195700  1.0  0.0841
  H  H136  1  0.611300  0.887400  0.228800  1.0  0.0819
  H  H137  1  0.585600  0.708500  0.238900  1.0  0.0866
  H  H138  1  0.488600  0.707400  0.203700  1.0  0.1
  H  H139  1  0.691200  0.734600  0.322700  1.0  0.0899
  H  H140  1  0.607700  0.731200  0.284000  1.0  0.0921
  H  H141  1  0.738100  0.870900  0.252800  1.0  0.0813
  H  H142  1  0.815800  0.875100  0.292800  1.0  0.12
  H  H143  1  0.678400  0.805300  0.071200  1.0  0.0885
  H  H144  1  0.810800  0.780400  0.086700  1.0  0.0669
  H  H145  1  0.840000  0.774400  0.133500  1.0  0.1021
  H  H146  1  0.731200  0.793600  0.164700  1.0  0.089
  H  H147  1  0.599000  0.818800  0.149000  1.0  0.0676
  H  H148  1  0.619000  0.916300  0.071200  1.0  0.0889
  H  H149  1  0.578200  0.993300  0.041700  1.0  0.0996
  H  H150  1  0.440100  0.996100  0.025300  1.0  0.0956
  H  H151  1  0.344300  0.922600  0.039700  1.0  0.107
  H  H152  1  0.387100  0.846400  0.069000  1.0  0.0742
  H  H153  1  0.999200  0.757000  0.446000  1.0  0.0882
  H  H154  1  0.993000  0.815100  0.427300  1.0  0.0869
  H  H155  1  0.075800  0.775800  0.427300  1.0  0.1
  H  H156  1  0.029700  0.580500  0.370000  1.0  0.0938
  H  H157  1  0.953000  0.592400  0.350200  1.0  0.1017
  H  H158  1  0.936900  0.571400  0.380700  1.0  0.1081
  H  H159  1  0.753000  0.652800  0.368200  1.0  0.3286
  H  H160  1  0.724100  0.612500  0.326500  1.0  0.0992
  H  H161  1  0.795500  0.577600  0.342500  1.0  0.094
  H  H162  1  0.819400  0.625400  0.319700  1.0  0.091
  H  H163  1  0.692000  0.670200  0.430200  1.0  0.1191
  H  H164  1  0.679300  0.671200  0.477400  1.0  0.0832
  H  H165  1  0.828500  0.817400  0.480600  1.0  0.0918
  H  H166  1  0.838900  0.814700  0.433300  1.0  0.0951
  H  H167  1  0.910500  0.964700  0.389000  1.0  0.1131
  H  H168  1  0.819300  0.044700  0.382900  1.0  0.0887
  H  H169  1  0.628400  0.927100  0.375600  1.0  0.0945
  H  H170  1  0.722300  0.848500  0.382100  1.0  0.0968
  H  H171  1  0.487800  0.084100  0.337100  1.0  0.1166
  H  H172  1  0.571400  0.002100  0.348500  1.0  0.0929
  H  H173  1  0.716800  0.112600  0.393800  1.0  0.0887
  H  H174  1  0.632700  0.193000  0.380900  1.0  0.088
  H  H175  1  0.007600  0.615600  0.304300  1.0  0.0839
  H  H176  1  0.111300  0.612600  0.271200  1.0  0.0821
  H  H177  1  0.085600  0.791500  0.261100  1.0  0.0869
  H  H178  1  0.988600  0.792600  0.296300  1.0  0.1
  H  H179  1  0.191200  0.765400  0.177300  1.0  0.09
  H  H180  1  0.107700  0.768800  0.216000  1.0  0.0915
  H  H181  1  0.238100  0.629100  0.247200  1.0  0.0817
  H  H182  1  0.315800  0.624900  0.207200  1.0  0.1205
  H  H183  1  0.178400  0.694700  0.428800  1.0  0.0879
  H  H184  1  0.310800  0.719600  0.413300  1.0  0.0669
  H  H185  1  0.340000  0.725600  0.366500  1.0  0.1025
  H  H186  1  0.231200  0.706400  0.335300  1.0  0.0891
  H  H187  1  0.099000  0.681200  0.351000  1.0  0.0676
  H  H188  1  0.119000  0.583700  0.428800  1.0  0.0895
  H  H189  1  0.078200  0.506700  0.458300  1.0  0.0997
  H  H190  1  0.940100  0.503900  0.474700  1.0  0.0957
  H  H191  1  0.844300  0.577400  0.460300  1.0  0.1073
  H  H192  1  0.887100  0.653600  0.431000  1.0  0.0743
  H  H193  1  0.999200  0.257000  0.054000  1.0  0.0887
  H  H194  1  0.993000  0.315100  0.072700  1.0  0.0864
  H  H195  1  0.075800  0.275800  0.072700  1.0  0.1
  H  H196  1  0.029700  0.080500  0.130000  1.0  0.0934
  H  H197  1  0.953000  0.092400  0.149800  1.0  0.1028
  H  H198  1  0.936900  0.071400  0.119300  1.0  0.1066
  H  H199  1  0.753000  0.152800  0.131800  1.0  0.3297
  H  H200  1  0.724100  0.112500  0.173500  1.0  0.1
  H  H201  1  0.795500  0.077600  0.157500  1.0  0.0929
  H  H202  1  0.819400  0.125400  0.180300  1.0  0.0917
  H  H203  1  0.692000  0.170200  0.069800  1.0  0.1196
  H  H204  1  0.679300  0.171200  0.022600  1.0  0.0829
  H  H205  1  0.828500  0.317400  0.019400  1.0  0.0919
  H  H206  1  0.838900  0.314700  0.066700  1.0  0.0952
  H  H207  1  0.910500  0.464700  0.111000  1.0  0.1136
  H  H208  1  0.819300  0.544700  0.117100  1.0  0.0883
  H  H209  1  0.628400  0.427100  0.124400  1.0  0.0944
  H  H210  1  0.722300  0.348500  0.117900  1.0  0.0968
  H  H211  1  0.487800  0.584100  0.162900  1.0  0.1164
  H  H212  1  0.571400  0.502100  0.151500  1.0  0.0924
  H  H213  1  0.716800  0.612600  0.106200  1.0  0.0885
  H  H214  1  0.632700  0.693000  0.119100  1.0  0.0881
  H  H215  1  0.007600  0.115600  0.195700  1.0  0.0837
  H  H216  1  0.111300  0.112600  0.228800  1.0  0.0823
  H  H217  1  0.085600  0.291500  0.238900  1.0  0.0862
  H  H218  1  0.988600  0.292600  0.203700  1.0  0.1002
  H  H219  1  0.191200  0.265400  0.322700  1.0  0.0895
  H  H220  1  0.107700  0.268800  0.284000  1.0  0.0919
  H  H221  1  0.238100  0.129100  0.252800  1.0  0.0816
  H  H222  1  0.315800  0.124900  0.292800  1.0  0.1204
  H  H223  1  0.178400  0.194700  0.071200  1.0  0.0883
  H  H224  1  0.310800  0.219600  0.086700  1.0  0.0668
  H  H225  1  0.340000  0.225600  0.133500  1.0  0.1023
  H  H226  1  0.231200  0.206400  0.164700  1.0  0.089
  H  H227  1  0.099000  0.181200  0.149000  1.0  0.0677
  H  H228  1  0.119000  0.083700  0.071200  1.0  0.0891
  H  H229  1  0.078200  0.006700  0.041700  1.0  0.0998
  H  H230  1  0.940100  0.003900  0.025300  1.0  0.0952
  H  H231  1  0.844300  0.077400  0.039700  1.0  0.1075
  H  H232  1  0.887100  0.153600  0.069000  1.0  0.0743
  H  H233  1  0.499200  0.243000  0.446000  1.0  0.0885
  H  H234  1  0.493000  0.184900  0.427300  1.0  0.0851
  H  H235  1  0.575800  0.224200  0.427300  1.0  0.1
  H  H236  1  0.529700  0.419500  0.370000  1.0  0.0939
  H  H237  1  0.453000  0.407600  0.350200  1.0  0.1016
  H  H238  1  0.436900  0.428600  0.380700  1.0  0.107
  H  H239  1  0.253000  0.347200  0.368200  1.0  0.3284
  H  H240  1  0.224100  0.387500  0.326500  1.0  0.0995
  H  H241  1  0.295500  0.422400  0.342500  1.0  0.0935
  H  H242  1  0.319400  0.374600  0.319700  1.0  0.091
  H  H243  1  0.192000  0.329800  0.430200  1.0  0.1191
  H  H244  1  0.179300  0.328800  0.477400  1.0  0.0833
  H  H245  1  0.328500  0.182600  0.480600  1.0  0.0917
  H  H246  1  0.338900  0.185300  0.433300  1.0  0.0945
  H  H247  1  0.410500  0.035300  0.389000  1.0  0.1131
  H  H248  1  0.319300  0.955300  0.382900  1.0  0.0887
  H  H249  1  0.128400  0.072900  0.375600  1.0  0.0945
  H  H250  1  0.222300  0.151500  0.382100  1.0  0.0971
  H  H251  1  0.987800  0.915900  0.337100  1.0  0.1166
  H  H252  1  0.071400  0.997900  0.348500  1.0  0.0931
  H  H253  1  0.216800  0.887400  0.393800  1.0  0.0886
  H  H254  1  0.132700  0.807000  0.380900  1.0  0.0886
  H  H255  1  0.507600  0.384400  0.304300  1.0  0.0838
  H  H256  1  0.611300  0.387400  0.271200  1.0  0.0818
  H  H257  1  0.585600  0.208500  0.261100  1.0  0.0875
  H  H258  1  0.488600  0.207400  0.296300  1.0  0.1002
  H  H259  1  0.691200  0.234600  0.177300  1.0  0.0903
  H  H260  1  0.607700  0.231200  0.216000  1.0  0.0917
  H  H261  1  0.738100  0.370900  0.247200  1.0  0.0812
  H  H262  1  0.815800  0.375100  0.207200  1.0  0.1205
  H  H263  1  0.678400  0.305300  0.428800  1.0  0.088
  H  H264  1  0.810800  0.280400  0.413300  1.0  0.0667
  H  H265  1  0.840000  0.274400  0.366500  1.0  0.1025
  H  H266  1  0.731200  0.293600  0.335300  1.0  0.0893
  H  H267  1  0.599000  0.318800  0.351000  1.0  0.0678
  H  H268  1  0.619000  0.416300  0.428800  1.0  0.0893
  H  H269  1  0.578200  0.493300  0.458300  1.0  0.0997
  H  H270  1  0.440100  0.496100  0.474700  1.0  0.0956
  H  H271  1  0.344300  0.422600  0.460300  1.0  0.1068
  H  H272  1  0.387100  0.346400  0.431000  1.0  0.0742
  H  H273  1  0.500800  0.257000  0.946000  1.0  0.0883
  H  H274  1  0.507000  0.315100  0.927300  1.0  0.0867
  H  H275  1  0.424200  0.275800  0.927300  1.0  0.0996
  H  H276  1  0.470300  0.080500  0.870000  1.0  0.0933
  H  H277  1  0.547000  0.092400  0.850200  1.0  0.1018
  H  H278  1  0.563100  0.071400  0.880700  1.0  0.1076
  H  H279  1  0.747000  0.152800  0.868200  1.0  0.3282
  H  H280  1  0.775900  0.112500  0.826500  1.0  0.1009
  H  H281  1  0.704500  0.077600  0.842500  1.0  0.0937
  H  H282  1  0.680600  0.125400  0.819700  1.0  0.092
  H  H283  1  0.808000  0.170200  0.930200  1.0  0.1191
  H  H284  1  0.820700  0.171200  0.977400  1.0  0.0836
  H  H285  1  0.671500  0.317400  0.980600  1.0  0.0917
  H  H286  1  0.661100  0.314700  0.933300  1.0  0.0951
  H  H287  1  0.589500  0.464700  0.889000  1.0  0.1126
  H  H288  1  0.680700  0.544700  0.882900  1.0  0.0885
  H  H289  1  0.871600  0.427100  0.875600  1.0  0.0938
  H  H290  1  0.777700  0.348500  0.882100  1.0  0.0971
  H  H291  1  0.012200  0.584100  0.837100  1.0  0.1163
  H  H292  1  0.928600  0.502100  0.848500  1.0  0.0928
  H  H293  1  0.783200  0.612600  0.893800  1.0  0.0889
  H  H294  1  0.867300  0.693000  0.880900  1.0  0.0879
  H  H295  1  0.492400  0.115600  0.804300  1.0  0.0839
  H  H296  1  0.388700  0.112600  0.771200  1.0  0.0819
  H  H297  1  0.414400  0.291500  0.761100  1.0  0.0873
  H  H298  1  0.511400  0.292600  0.796300  1.0  0.0999
  H  H299  1  0.308800  0.265400  0.677300  1.0  0.0898
  H  H300  1  0.392300  0.268800  0.716000  1.0  0.0912
  H  H301  1  0.261900  0.129100  0.747200  1.0  0.0819
  H  H302  1  0.184200  0.124900  0.707200  1.0  0.1202
  H  H303  1  0.321600  0.194700  0.928800  1.0  0.0881
  H  H304  1  0.189200  0.219600  0.913300  1.0  0.0666
  H  H305  1  0.160000  0.225600  0.866500  1.0  0.1028
  H  H306  1  0.268800  0.206400  0.835300  1.0  0.0899
  H  H307  1  0.401000  0.181200  0.851000  1.0  0.0679
  H  H308  1  0.381000  0.083700  0.928800  1.0  0.0902
  H  H309  1  0.421800  0.006700  0.958300  1.0  0.0993
  H  H310  1  0.559900  0.003900  0.974700  1.0  0.0956
  H  H311  1  0.655700  0.077400  0.960300  1.0  0.1068
  H  H312  1  0.612900  0.153600  0.931000  1.0  0.0747
  H  H313  1  0.000800  0.243000  0.554000  1.0  0.0886
  H  H314  1  0.007000  0.184900  0.572700  1.0  0.0846
  H  H315  1  0.924200  0.224200  0.572700  1.0  0.0993
  H  H316  1  0.970300  0.419500  0.630000  1.0  0.0933
  H  H317  1  0.047000  0.407600  0.649800  1.0  0.1032
  H  H318  1  0.063100  0.428600  0.619300  1.0  0.1069
  H  H319  1  0.247000  0.347200  0.631800  1.0  0.3285
  H  H320  1  0.275900  0.387500  0.673500  1.0  0.1015
  H  H321  1  0.204500  0.422400  0.657500  1.0  0.0942
  H  H322  1  0.180600  0.374600  0.680300  1.0  0.0912
  H  H323  1  0.308000  0.329800  0.569800  1.0  0.1183
  H  H324  1  0.320700  0.328800  0.522600  1.0  0.083
  H  H325  1  0.171500  0.182600  0.519400  1.0  0.0915
  H  H326  1  0.161100  0.185300  0.566700  1.0  0.0943
  H  H327  1  0.089500  0.035300  0.611000  1.0  0.1131
  H  H328  1  0.180700  0.955300  0.617100  1.0  0.0882
  H  H329  1  0.371600  0.072900  0.624400  1.0  0.0938
  H  H330  1  0.277700  0.151500  0.617900  1.0  0.0973
  H  H331  1  0.512200  0.915900  0.662900  1.0  0.1161
  H  H332  1  0.428600  0.997900  0.651500  1.0  0.0926
  H  H333  1  0.283200  0.887400  0.606200  1.0  0.0886
  H  H334  1  0.367300  0.807000  0.619100  1.0  0.0884
  H  H335  1  0.992400  0.384400  0.695700  1.0  0.0839
  H  H336  1  0.888700  0.387400  0.728800  1.0  0.0821
  H  H337  1  0.914400  0.208500  0.738900  1.0  0.0871
  H  H338  1  0.011400  0.207400  0.703700  1.0  0.1001
  H  H339  1  0.808800  0.234600  0.822700  1.0  0.0898
  H  H340  1  0.892300  0.231200  0.784000  1.0  0.0919
  H  H341  1  0.761900  0.370900  0.752800  1.0  0.0818
  H  H342  1  0.684200  0.375100  0.792800  1.0  0.1201
  H  H343  1  0.821600  0.305300  0.571200  1.0  0.0885
  H  H344  1  0.689200  0.280400  0.586700  1.0  0.067
  H  H345  1  0.660000  0.274400  0.633500  1.0  0.1024
  H  H346  1  0.768800  0.293600  0.664700  1.0  0.0894
  H  H347  1  0.901000  0.318800  0.649000  1.0  0.068
  H  H348  1  0.881000  0.416300  0.571200  1.0  0.089
  H  H349  1  0.921800  0.493300  0.541700  1.0  0.0997
  H  H350  1  0.059900  0.496100  0.525300  1.0  0.0955
  H  H351  1  0.155700  0.422600  0.539700  1.0  0.1068
  H  H352  1  0.112900  0.346400  0.569000  1.0  0.0748
  H  H353  1  0.619700  0.571100  0.939500  1.0  0.0925
  H  H354  1  0.752400  0.536100  0.949500  1.0  0.0896
  H  H355  1  0.856300  0.602700  0.964800  1.0  0.1015
  H  H356  1  0.820800  0.704200  0.971600  1.0  0.0902
  H  H357  1  0.687000  0.738000  0.962100  1.0  0.0849
  H  H358  1  0.538200  0.800900  0.922200  1.0  0.0837
  H  H359  1  0.515800  0.895900  0.940700  1.0  0.0996
  H  H360  1  0.497600  0.907300  0.988000  1.0  0.0896
  H  H361  1  0.494000  0.821100  0.015500  1.0  0.0783
  H  H362  1  0.510300  0.726300  0.996400  1.0  0.0757
  H  H363  1  0.368900  0.643200  0.935600  1.0  0.0771
  H  H364  1  0.278700  0.581200  0.959600  1.0  0.0916
  H  H365  1  0.323800  0.533000  0.999700  1.0  0.1031
  H  H366  1  0.459900  0.551100  0.015400  1.0  0.0918
  H  H367  1  0.548900  0.613700  0.991200  1.0  0.0892
  H  H368  1  0.407700  0.727600  0.911500  1.0  0.0795
  H  H369  1  0.382400  0.735000  0.865300  1.0  0.0874
  H  H370  1  0.471300  0.686900  0.833700  1.0  0.0995
  H  H371  1  0.594800  0.642900  0.850200  1.0  0.0955
  H  H372  1  0.621400  0.638600  0.896600  1.0  0.0762
  H  H373  1  0.048800  0.498400  0.734400  1.0  0.0811
  H  H374  1  0.111100  0.416100  0.755700  1.0  0.0818
  H  H375  1  0.045400  0.369400  0.792900  1.0  0.0899
  H  H376  1  0.917300  0.407600  0.808800  1.0  0.0876
  H  H377  1  0.849400  0.482600  0.784100  1.0  0.0819
  H  H378  1  0.925700  0.493300  0.689100  1.0  0.0849
  H  H379  1  0.847600  0.434600  0.659400  1.0  0.0885
  H  H380  1  0.707500  0.411800  0.669400  1.0  0.1068
  H  H381  1  0.649100  0.450200  0.709700  1.0  0.0791
  H  H382  1  0.725600  0.512900  0.738000  1.0  0.0824
  H  H383  1  0.909200  0.598800  0.684300  1.0  0.0787
  H  H384  1  0.997100  0.667900  0.663700  1.0  0.1033
  H  H385  1  0.103000  0.714800  0.689100  1.0  0.1001
  H  H386  1  0.116900  0.691200  0.735500  1.0  0.084
  H  H387  1  0.031000  0.619500  0.755400  1.0  0.0808
  H  H388  1  0.762700  0.631100  0.726300  1.0  0.0781
  H  H389  1  0.680600  0.698300  0.750700  1.0  0.0916
  H  H390  1  0.699800  0.709700  0.797900  1.0  0.1055
  H  H391  1  0.801600  0.651500  0.819900  1.0  0.0803
  H  H392  1  0.884700  0.585900  0.795200  1.0  0.0771
  H  H393  1  0.119700  0.928900  0.560500  1.0  0.0936
  H  H394  1  0.252400  0.963900  0.550500  1.0  0.0895
  H  H395  1  0.356300  0.897300  0.535200  1.0  0.1014
  H  H396  1  0.320800  0.795800  0.528400  1.0  0.0897
  H  H397  1  0.187000  0.762000  0.537900  1.0  0.085
  H  H398  1  0.038200  0.699100  0.577800  1.0  0.0827
  H  H399  1  0.015800  0.604100  0.559300  1.0  0.0996
  H  H400  1  0.997600  0.592700  0.512000  1.0  0.0891
  H  H401  1  0.994000  0.678900  0.484500  1.0  0.0798
  H  H402  1  0.010300  0.773700  0.503600  1.0  0.0765
  H  H403  1  0.868900  0.856800  0.564400  1.0  0.0788
  H  H404  1  0.778700  0.918800  0.540400  1.0  0.0916
  H  H405  1  0.823800  0.967000  0.500300  1.0  0.1035
  H  H406  1  0.959900  0.948900  0.484600  1.0  0.0919
  H  H407  1  0.048900  0.886300  0.508800  1.0  0.089
  H  H408  1  0.907700  0.772400  0.588500  1.0  0.0785
  H  H409  1  0.882400  0.765000  0.634700  1.0  0.0868
  H  H410  1  0.971300  0.813100  0.666300  1.0  0.0987
  H  H411  1  0.094800  0.857100  0.649800  1.0  0.0952
  H  H412  1  0.121400  0.861400  0.603400  1.0  0.0769
  H  H413  1  0.548800  0.001600  0.765600  1.0  0.0811
  H  H414  1  0.611100  0.083900  0.744300  1.0  0.0815
  H  H415  1  0.545400  0.130600  0.707100  1.0  0.0904
  H  H416  1  0.417300  0.092400  0.691200  1.0  0.0878
  H  H417  1  0.349400  0.017400  0.715900  1.0  0.082
  H  H418  1  0.425700  0.006700  0.810900  1.0  0.0851
  H  H419  1  0.347600  0.065400  0.840600  1.0  0.0881
  H  H420  1  0.207500  0.088200  0.830600  1.0  0.107
  H  H421  1  0.149100  0.049800  0.790300  1.0  0.0792
  H  H422  1  0.225600  0.987100  0.762000  1.0  0.0838
  H  H423  1  0.409200  0.901200  0.815700  1.0  0.0784
  H  H424  1  0.497100  0.832100  0.836300  1.0  0.1031
  H  H425  1  0.603000  0.785200  0.810900  1.0  0.1005
  H  H426  1  0.616900  0.808800  0.764500  1.0  0.0837
  H  H427  1  0.531000  0.880500  0.744600  1.0  0.0815
  H  H428  1  0.262700  0.868900  0.773700  1.0  0.0769
  H  H429  1  0.180600  0.801700  0.749300  1.0  0.0919
  H  H430  1  0.199800  0.790300  0.702100  1.0  0.1054
  H  H431  1  0.301600  0.848500  0.680100  1.0  0.081
  H  H432  1  0.384700  0.914100  0.704800  1.0  0.0769
  H  H433  1  0.880300  0.571100  0.060500  1.0  0.093
  H  H434  1  0.747600  0.536100  0.050500  1.0  0.0897
  H  H435  1  0.643700  0.602700  0.035200  1.0  0.1025
  H  H436  1  0.679200  0.704200  0.028400  1.0  0.0901
  H  H437  1  0.813000  0.738000  0.037900  1.0  0.0853
  H  H438  1  0.961800  0.800900  0.077800  1.0  0.0829
  H  H439  1  0.984200  0.895900  0.059300  1.0  0.0996
  H  H440  1  0.002400  0.907300  0.012000  1.0  0.089
  H  H441  1  0.006000  0.821100  0.984500  1.0  0.08
  H  H442  1  0.989700  0.726300  0.003600  1.0  0.0763
  H  H443  1  0.131100  0.643200  0.064400  1.0  0.0786
  H  H444  1  0.221300  0.581200  0.040400  1.0  0.0919
  H  H445  1  0.176200  0.533000  0.000300  1.0  0.1029
  H  H446  1  0.040100  0.551100  0.984600  1.0  0.0924
  H  H447  1  0.951100  0.613700  0.008800  1.0  0.0886
  H  H448  1  0.092300  0.727600  0.088500  1.0  0.0797
  H  H449  1  0.117600  0.735000  0.134700  1.0  0.087
  H  H450  1  0.028700  0.686900  0.166300  1.0  0.0986
  H  H451  1  0.905200  0.642900  0.149800  1.0  0.0956
  H  H452  1  0.878600  0.638600  0.103400  1.0  0.0775
  H  H453  1  0.451200  0.498400  0.265600  1.0  0.0806
  H  H454  1  0.388900  0.416100  0.244300  1.0  0.0818
  H  H455  1  0.454600  0.369400  0.207100  1.0  0.0902
  H  H456  1  0.582700  0.407600  0.191200  1.0  0.088
  H  H457  1  0.650600  0.482600  0.215900  1.0  0.0819
  H  H458  1  0.574300  0.493300  0.310900  1.0  0.0851
  H  H459  1  0.652400  0.434600  0.340600  1.0  0.0872
  H  H460  1  0.792500  0.411800  0.330600  1.0  0.1077
  H  H461  1  0.850900  0.450200  0.290300  1.0  0.079
  H  H462  1  0.774400  0.512900  0.262000  1.0  0.0832
  H  H463  1  0.590800  0.598800  0.315700  1.0  0.0786
  H  H464  1  0.502900  0.667900  0.336300  1.0  0.1033
  H  H465  1  0.397000  0.714800  0.310900  1.0  0.1002
  H  H466  1  0.383100  0.691200  0.264500  1.0  0.0842
  H  H467  1  0.469000  0.619500  0.244600  1.0  0.0816
  H  H468  1  0.737300  0.631100  0.273700  1.0  0.0767
  H  H469  1  0.819400  0.698300  0.249300  1.0  0.0912
  H  H470  1  0.800200  0.709700  0.202100  1.0  0.1056
  H  H471  1  0.698400  0.651500  0.180100  1.0  0.0805
  H  H472  1  0.615300  0.585900  0.204800  1.0  0.0769
  H  H473  1  0.380300  0.928900  0.439500  1.0  0.0936
  H  H474  1  0.247600  0.963900  0.449500  1.0  0.0896
  H  H475  1  0.143700  0.897300  0.464800  1.0  0.1026
  H  H476  1  0.179200  0.795800  0.471600  1.0  0.0902
  H  H477  1  0.313000  0.762000  0.462100  1.0  0.0853
  H  H478  1  0.461800  0.699100  0.422200  1.0  0.0842
  H  H479  1  0.484200  0.604100  0.440700  1.0  0.0996
  H  H480  1  0.502400  0.592700  0.488000  1.0  0.089
  H  H481  1  0.506000  0.678900  0.515500  1.0  0.0786
  H  H482  1  0.489700  0.773700  0.496400  1.0  0.0767
  H  H483  1  0.631100  0.856800  0.435600  1.0  0.0779
  H  H484  1  0.721300  0.918800  0.459600  1.0  0.0918
  H  H485  1  0.676200  0.967000  0.499700  1.0  0.103
  H  H486  1  0.540100  0.948900  0.515400  1.0  0.0917
  H  H487  1  0.451100  0.886300  0.491200  1.0  0.0887
  H  H488  1  0.592300  0.772400  0.411500  1.0  0.0794
  H  H489  1  0.617600  0.765000  0.365300  1.0  0.0869
  H  H490  1  0.528700  0.813100  0.333700  1.0  0.0992
  H  H491  1  0.405200  0.857100  0.350200  1.0  0.0958
  H  H492  1  0.378600  0.861400  0.396600  1.0  0.077
  H  H493  1  0.951200  0.001600  0.234400  1.0  0.0813
  H  H494  1  0.888900  0.083900  0.255700  1.0  0.082
  H  H495  1  0.954600  0.130600  0.292900  1.0  0.0909
  H  H496  1  0.082700  0.092400  0.308800  1.0  0.0878
  H  H497  1  0.150600  0.017400  0.284100  1.0  0.0819
  H  H498  1  0.074300  0.006700  0.189100  1.0  0.085
  H  H499  1  0.152400  0.065400  0.159400  1.0  0.0881
  H  H500  1  0.292500  0.088200  0.169400  1.0  0.1069
  H  H501  1  0.350900  0.049800  0.209700  1.0  0.0789
  H  H502  1  0.274400  0.987100  0.238000  1.0  0.0824
  H  H503  1  0.090800  0.901200  0.184300  1.0  0.0785
  H  H504  1  0.002900  0.832100  0.163700  1.0  0.1032
  H  H505  1  0.897000  0.785200  0.189100  1.0  0.0999
  H  H506  1  0.883100  0.808800  0.235500  1.0  0.0843
  H  H507  1  0.969000  0.880500  0.255400  1.0  0.0801
  H  H508  1  0.237300  0.868900  0.226300  1.0  0.0769
  H  H509  1  0.319400  0.801700  0.250700  1.0  0.0911
  H  H510  1  0.300200  0.790300  0.297900  1.0  0.1058
  H  H511  1  0.198400  0.848500  0.319900  1.0  0.0803
  H  H512  1  0.115300  0.914100  0.295200  1.0  0.0772
  H  H513  1  0.380300  0.428900  0.060500  1.0  0.0936
  H  H514  1  0.247600  0.463900  0.050500  1.0  0.0899
  H  H515  1  0.143700  0.397300  0.035200  1.0  0.1026
  H  H516  1  0.179200  0.295800  0.028400  1.0  0.0897
  H  H517  1  0.313000  0.262000  0.037900  1.0  0.0853
  H  H518  1  0.461800  0.199100  0.077800  1.0  0.0826
  H  H519  1  0.484200  0.104100  0.059300  1.0  0.0999
  H  H520  1  0.502400  0.092700  0.012000  1.0  0.0885
  H  H521  1  0.506000  0.178900  0.984500  1.0  0.0799
  H  H522  1  0.489700  0.273700  0.003600  1.0  0.0769
  H  H523  1  0.631100  0.356800  0.064400  1.0  0.0789
  H  H524  1  0.721300  0.418800  0.040400  1.0  0.0916
  H  H525  1  0.676200  0.467000  0.000300  1.0  0.1033
  H  H526  1  0.540100  0.448900  0.984600  1.0  0.0921
  H  H527  1  0.451100  0.386300  0.008800  1.0  0.089
  H  H528  1  0.592300  0.272400  0.088500  1.0  0.079
  H  H529  1  0.617600  0.265000  0.134700  1.0  0.087
  H  H530  1  0.528700  0.313100  0.166300  1.0  0.0986
  H  H531  1  0.405200  0.357100  0.149800  1.0  0.0954
  H  H532  1  0.378600  0.361400  0.103400  1.0  0.0776
  H  H533  1  0.951200  0.501600  0.265600  1.0  0.081
  H  H534  1  0.888900  0.583900  0.244300  1.0  0.0818
  H  H535  1  0.954600  0.630600  0.207100  1.0  0.0914
  H  H536  1  0.082700  0.592400  0.191200  1.0  0.0879
  H  H537  1  0.150600  0.517400  0.215900  1.0  0.082
  H  H538  1  0.074300  0.506700  0.310900  1.0  0.0851
  H  H539  1  0.152400  0.565400  0.340600  1.0  0.0876
  H  H540  1  0.292500  0.588200  0.330600  1.0  0.1073
  H  H541  1  0.350900  0.549800  0.290300  1.0  0.0789
  H  H542  1  0.274400  0.487100  0.262000  1.0  0.0833
  H  H543  1  0.090800  0.401200  0.315700  1.0  0.0781
  H  H544  1  0.002900  0.332100  0.336300  1.0  0.1029
  H  H545  1  0.897000  0.285200  0.310900  1.0  0.1003
  H  H546  1  0.883100  0.308800  0.264500  1.0  0.0839
  H  H547  1  0.969000  0.380500  0.244600  1.0  0.0814
  H  H548  1  0.237300  0.368900  0.273700  1.0  0.0768
  H  H549  1  0.319400  0.301700  0.249300  1.0  0.0913
  H  H550  1  0.300200  0.290300  0.202100  1.0  0.1059
  H  H551  1  0.198400  0.348500  0.180100  1.0  0.0809
  H  H552  1  0.115300  0.414100  0.204800  1.0  0.0775
  H  H553  1  0.880300  0.071100  0.439500  1.0  0.0928
  H  H554  1  0.747600  0.036100  0.449500  1.0  0.0899
  H  H555  1  0.643700  0.102700  0.464800  1.0  0.1026
  H  H556  1  0.679200  0.204200  0.471600  1.0  0.0903
  H  H557  1  0.813000  0.238000  0.462100  1.0  0.0851
  H  H558  1  0.961800  0.300900  0.422200  1.0  0.0838
  H  H559  1  0.984200  0.395900  0.440700  1.0  0.0998
  H  H560  1  0.002400  0.407300  0.488000  1.0  0.0891
  H  H561  1  0.006000  0.321100  0.515500  1.0  0.0784
  H  H562  1  0.989700  0.226300  0.496400  1.0  0.076
  H  H563  1  0.131100  0.143200  0.435600  1.0  0.0773
  H  H564  1  0.221300  0.081200  0.459600  1.0  0.0917
  H  H565  1  0.176200  0.033000  0.499700  1.0  0.1033
  H  H566  1  0.040100  0.051100  0.515400  1.0  0.0919
  H  H567  1  0.951100  0.113700  0.491200  1.0  0.0887
  H  H568  1  0.092300  0.227600  0.411500  1.0  0.0797
  H  H569  1  0.117600  0.235000  0.365300  1.0  0.0871
  H  H570  1  0.028700  0.186900  0.333700  1.0  0.0991
  H  H571  1  0.905200  0.142900  0.350200  1.0  0.0957
  H  H572  1  0.878600  0.138600  0.396600  1.0  0.0766
  H  H573  1  0.451200  0.998400  0.234400  1.0  0.0814
  H  H574  1  0.388900  0.916100  0.255700  1.0  0.0819
  H  H575  1  0.454600  0.869400  0.292900  1.0  0.0906
  H  H576  1  0.582700  0.907600  0.308800  1.0  0.0877
  H  H577  1  0.650600  0.982600  0.284100  1.0  0.0817
  H  H578  1  0.574300  0.993300  0.189100  1.0  0.0852
  H  H579  1  0.652400  0.934600  0.159400  1.0  0.0883
  H  H580  1  0.792500  0.911800  0.169400  1.0  0.1072
  H  H581  1  0.850900  0.950200  0.209700  1.0  0.0789
  H  H582  1  0.774400  0.012900  0.238000  1.0  0.0822
  H  H583  1  0.590800  0.098800  0.184300  1.0  0.0784
  H  H584  1  0.502900  0.167900  0.163700  1.0  0.103
  H  H585  1  0.397000  0.214800  0.189100  1.0  0.1
  H  H586  1  0.383100  0.191200  0.235500  1.0  0.0842
  H  H587  1  0.469000  0.119500  0.255400  1.0  0.0802
  H  H588  1  0.737300  0.131100  0.226300  1.0  0.0767
  H  H589  1  0.819400  0.198300  0.250700  1.0  0.0911
  H  H590  1  0.800200  0.209700  0.297900  1.0  0.1054
  H  H591  1  0.698400  0.151500  0.319900  1.0  0.0805
  H  H592  1  0.615300  0.085900  0.295200  1.0  0.0769
  H  H593  1  0.119700  0.428900  0.939500  1.0  0.0936
  H  H594  1  0.252400  0.463900  0.949500  1.0  0.0898
  H  H595  1  0.356300  0.397300  0.964800  1.0  0.1016
  H  H596  1  0.320800  0.295800  0.971600  1.0  0.0903
  H  H597  1  0.187000  0.262000  0.962100  1.0  0.0849
  H  H598  1  0.038200  0.199100  0.922200  1.0  0.0842
  H  H599  1  0.015800  0.104100  0.940700  1.0  0.0993
  H  H600  1  0.997600  0.092700  0.988000  1.0  0.0893
  H  H601  1  0.994000  0.178900  0.015500  1.0  0.0785
  H  H602  1  0.010300  0.273700  0.996400  1.0  0.076
  H  H603  1  0.868900  0.356800  0.935600  1.0  0.0779
  H  H604  1  0.778700  0.418800  0.959600  1.0  0.0919
  H  H605  1  0.823800  0.467000  0.999700  1.0  0.103
  H  H606  1  0.959900  0.448900  0.015400  1.0  0.0916
  H  H607  1  0.048900  0.386300  0.991200  1.0  0.089
  H  H608  1  0.907700  0.272400  0.911500  1.0  0.079
  H  H609  1  0.882400  0.265000  0.865300  1.0  0.0868
  H  H610  1  0.971300  0.313100  0.833700  1.0  0.0997
  H  H611  1  0.094800  0.357100  0.850200  1.0  0.0955
  H  H612  1  0.121400  0.361400  0.896600  1.0  0.0764
  H  H613  1  0.548800  0.501600  0.734400  1.0  0.0814
  H  H614  1  0.611100  0.583900  0.755700  1.0  0.0817
  H  H615  1  0.545400  0.630600  0.792900  1.0  0.0906
  H  H616  1  0.417300  0.592400  0.808800  1.0  0.0876
  H  H617  1  0.349400  0.517400  0.784100  1.0  0.0822
  H  H618  1  0.425700  0.506700  0.689100  1.0  0.0847
  H  H619  1  0.347600  0.565400  0.659400  1.0  0.0887
  H  H620  1  0.207500  0.588200  0.669400  1.0  0.1066
  H  H621  1  0.149100  0.549800  0.709700  1.0  0.0792
  H  H622  1  0.225600  0.487100  0.738000  1.0  0.0828
  H  H623  1  0.409200  0.401200  0.684300  1.0  0.0791
  H  H624  1  0.497100  0.332100  0.663700  1.0  0.1035
  H  H625  1  0.603000  0.285200  0.689100  1.0  0.1003
  H  H626  1  0.616900  0.308800  0.735500  1.0  0.0842
  H  H627  1  0.531000  0.380500  0.755400  1.0  0.0808
  H  H628  1  0.262700  0.368900  0.726300  1.0  0.0782
  H  H629  1  0.180600  0.301700  0.750700  1.0  0.0917
  H  H630  1  0.199800  0.290300  0.797900  1.0  0.1055
  H  H631  1  0.301600  0.348500  0.819900  1.0  0.0802
  H  H632  1  0.384700  0.414100  0.795200  1.0  0.0771
  H  H633  1  0.619700  0.071100  0.560500  1.0  0.0926
  H  H634  1  0.752400  0.036100  0.550500  1.0  0.0898
  H  H635  1  0.856300  0.102700  0.535200  1.0  0.1013
  H  H636  1  0.820800  0.204200  0.528400  1.0  0.0897
  H  H637  1  0.687000  0.238000  0.537900  1.0  0.0851
  H  H638  1  0.538200  0.300900  0.577800  1.0  0.0829
  H  H639  1  0.515800  0.395900  0.559300  1.0  0.0993
  H  H640  1  0.497600  0.407300  0.512000  1.0  0.0894
  H  H641  1  0.494000  0.321100  0.484500  1.0  0.0799
  H  H642  1  0.510300  0.226300  0.503600  1.0  0.076
  H  H643  1  0.368900  0.143200  0.564400  1.0  0.0785
  H  H644  1  0.278700  0.081200  0.540400  1.0  0.0917
  H  H645  1  0.323800  0.033000  0.500300  1.0  0.1029
  H  H646  1  0.459900  0.051100  0.484600  1.0  0.0923
  H  H647  1  0.548900  0.113700  0.508800  1.0  0.0887
  H  H648  1  0.407700  0.227600  0.588500  1.0  0.0795
  H  H649  1  0.382400  0.235000  0.634700  1.0  0.0873
  H  H650  1  0.471300  0.186900  0.666300  1.0  0.0987
  H  H651  1  0.594800  0.142900  0.649800  1.0  0.0954
  H  H652  1  0.621400  0.138600  0.603400  1.0  0.077
  H  H653  1  0.048800  0.998400  0.765600  1.0  0.0811
  H  H654  1  0.111100  0.916100  0.744300  1.0  0.0816
  H  H655  1  0.045400  0.869400  0.707100  1.0  0.0903
  H  H656  1  0.917300  0.907600  0.691200  1.0  0.088
  H  H657  1  0.849400  0.982600  0.715900  1.0  0.0818
  H  H658  1  0.925700  0.993300  0.810900  1.0  0.0851
  H  H659  1  0.847600  0.934600  0.840600  1.0  0.0877
  H  H660  1  0.707500  0.911800  0.830600  1.0  0.1074
  H  H661  1  0.649100  0.950200  0.790300  1.0  0.0791
  H  H662  1  0.725600  0.012900  0.762000  1.0  0.0835
  H  H663  1  0.909200  0.098800  0.815700  1.0  0.0785
  H  H664  1  0.997100  0.167900  0.836300  1.0  0.1034
  H  H665  1  0.103000  0.214800  0.810900  1.0  0.1003
  H  H666  1  0.116900  0.191200  0.764500  1.0  0.0839
  H  H667  1  0.031000  0.119500  0.744600  1.0  0.0817
  H  H668  1  0.762700  0.131100  0.773700  1.0  0.077
  H  H669  1  0.680600  0.198300  0.749300  1.0  0.0917
  H  H670  1  0.699800  0.209700  0.702100  1.0  0.1055
  H  H671  1  0.801600  0.151500  0.680100  1.0  0.0807
  H  H672  1  0.884700  0.085900  0.704800  1.0  0.0767
  C  C673  1  0.984700  0.725500  0.928630  1.0  -0.0428
  C  C674  1  0.027300  0.904700  0.868900  1.0  -0.0392
  C  C675  1  0.220000  0.884300  0.834200  1.0  -0.0691
  C  C676  1  0.280400  0.800100  0.940530  1.0  -0.0465
  C  C677  1  0.287700  0.799400  0.968770  1.0  -0.1256
  C  C678  1  0.247100  0.756000  0.984740  1.0  0.0585
  C  C679  1  0.199500  0.712900  0.970720  1.0  -0.1172
  C  C680  1  0.193300  0.714500  0.942410  1.0  -0.0384
  C  C681  1  0.146600  0.542700  0.885930  1.0  -0.0596
  C  C682  1  0.201500  0.495000  0.882310  1.0  -0.1283
  C  C683  1  0.286900  0.504300  0.877800  1.0  0.0776
  C  C684  1  0.314500  0.564400  0.878050  1.0  -0.1423
  C  C685  1  0.258200  0.611500  0.881820  1.0  -0.0426
  C  C686  1  0.464800  0.410500  0.848200  1.0  -0.0517
  C  C687  1  0.414900  0.459400  0.855070  1.0  -0.141
  C  C688  1  0.344200  0.452100  0.871760  1.0  0.0645
  C  C689  1  0.328400  0.393800  0.881880  1.0  -0.157
  C  C690  1  0.379000  0.345900  0.874340  1.0  -0.0348
  C  C691  1  0.977100  0.848900  0.795100  1.0  -0.0472
  C  C692  1  0.916200  0.850900  0.774900  1.0  -0.1581
  C  C693  1  0.895300  0.799100  0.760060  1.0  0.0594
  C  C694  1  0.930700  0.745000  0.769260  1.0  -0.1832
  C  C695  1  0.989400  0.744300  0.790150  1.0  -0.0361
  C  C696  1  0.801200  0.763100  0.691310  1.0  -0.0204
  C  C697  1  0.850300  0.760700  0.714610  1.0  -0.1435
  C  C698  1  0.838200  0.801500  0.736080  1.0  0.0364
  C  C699  1  0.773500  0.843800  0.732970  1.0  -0.1443
  C  C700  1  0.726600  0.846100  0.709120  1.0  -0.055
  C  C701  1  0.878900  0.815200  0.891780  1.0  0.0477
  C  C702  1  0.812000  0.803100  0.909860  1.0  -0.1301
  C  C703  1  0.731800  0.788100  0.900500  1.0  -0.0863
  C  C704  1  0.713900  0.784400  0.872700  1.0  -0.1545
  C  C705  1  0.778800  0.796000  0.854160  1.0  -0.0856
  C  C706  1  0.858700  0.811000  0.863850  1.0  -0.1134
  C  C707  1  0.991100  0.870400  0.926700  1.0  -0.0082
  C  C708  1  0.936300  0.916800  0.935300  1.0  -0.1545
  C  C709  1  0.960500  0.963600  0.953000  1.0  -0.1267
  C  C710  1  0.042900  0.965500  0.962600  1.0  -0.1117
  C  C711  1  0.099900  0.921400  0.954200  1.0  -0.1194
  C  C712  1  0.073500  0.875400  0.936500  1.0  -0.1106
  C  C713  1  0.484700  0.774500  0.571370  1.0  -0.0414
  C  C714  1  0.527300  0.595300  0.631100  1.0  -0.0382
  C  C715  1  0.720000  0.615700  0.665800  1.0  -0.0692
  C  C716  1  0.780400  0.699900  0.559470  1.0  -0.0494
  C  C717  1  0.787700  0.700600  0.531230  1.0  -0.1265
  C  C718  1  0.747100  0.744000  0.515260  1.0  0.0586
  C  C719  1  0.699500  0.787100  0.529280  1.0  -0.1181
  C  C720  1  0.693300  0.785500  0.557590  1.0  -0.0389
  C  C721  1  0.646600  0.957300  0.614070  1.0  -0.0594
  C  C722  1  0.701500  0.005000  0.617690  1.0  -0.1292
  C  C723  1  0.786900  0.995700  0.622200  1.0  0.0776
  C  C724  1  0.814500  0.935600  0.621950  1.0  -0.1424
  C  C725  1  0.758200  0.888500  0.618180  1.0  -0.0424
  C  C726  1  0.964800  0.089500  0.651800  1.0  -0.0517
  C  C727  1  0.914900  0.040600  0.644930  1.0  -0.142
  C  C728  1  0.844200  0.047900  0.628240  1.0  0.064
  C  C729  1  0.828400  0.106200  0.618120  1.0  -0.1569
  C  C730  1  0.879000  0.154100  0.625660  1.0  -0.0332
  C  C731  1  0.477100  0.651100  0.704900  1.0  -0.0473
  C  C732  1  0.416200  0.649100  0.725100  1.0  -0.1578
  C  C733  1  0.395300  0.700900  0.739940  1.0  0.0592
  C  C734  1  0.430700  0.755000  0.730740  1.0  -0.1837
  C  C735  1  0.489400  0.755700  0.709850  1.0  -0.0358
  C  C736  1  0.301200  0.736900  0.808690  1.0  -0.0207
  C  C737  1  0.350300  0.739300  0.785390  1.0  -0.1434
  C  C738  1  0.338200  0.698500  0.763920  1.0  0.0374
  C  C739  1  0.273500  0.656200  0.767030  1.0  -0.1444
  C  C740  1  0.226600  0.653900  0.790880  1.0  -0.0544
  C  C741  1  0.378900  0.684800  0.608220  1.0  0.047
  C  C742  1  0.312000  0.696900  0.590140  1.0  -0.1315
  C  C743  1  0.231800  0.711900  0.599500  1.0  -0.0875
  C  C744  1  0.213900  0.715600  0.627300  1.0  -0.1535
  C  C745  1  0.278800  0.704000  0.645840  1.0  -0.0847
  C  C746  1  0.358700  0.689000  0.636150  1.0  -0.1149
  C  C747  1  0.491100  0.629600  0.573300  1.0  -0.0082
  C  C748  1  0.436300  0.583200  0.564700  1.0  -0.1548
  C  C749  1  0.460500  0.536400  0.547000  1.0  -0.1272
  C  C750  1  0.542900  0.534500  0.537400  1.0  -0.1157
  C  C751  1  0.599900  0.578600  0.545800  1.0  -0.12
  C  C752  1  0.573500  0.624600  0.563500  1.0  -0.1104
  C  C753  1  0.515300  0.725500  0.071370  1.0  -0.0428
  C  C754  1  0.472700  0.904700  0.131100  1.0  -0.0387
  C  C755  1  0.280000  0.884300  0.165800  1.0  -0.068
  C  C756  1  0.219600  0.800100  0.059470  1.0  -0.0476
  C  C757  1  0.212300  0.799400  0.031230  1.0  -0.1216
  C  C758  1  0.252900  0.756000  0.015260  1.0  0.0586
  C  C759  1  0.300500  0.712900  0.029280  1.0  -0.1199
  C  C760  1  0.306700  0.714500  0.057590  1.0  -0.0391
  C  C761  1  0.353400  0.542700  0.114070  1.0  -0.0584
  C  C762  1  0.298500  0.495000  0.117690  1.0  -0.13
  C  C763  1  0.213100  0.504300  0.122200  1.0  0.0782
  C  C764  1  0.185500  0.564400  0.121950  1.0  -0.142
  C  C765  1  0.241800  0.611500  0.118180  1.0  -0.041
  C  C766  1  0.035200  0.410500  0.151800  1.0  -0.0514
  C  C767  1  0.085100  0.459400  0.144930  1.0  -0.1405
  C  C768  1  0.155800  0.452100  0.128240  1.0  0.0641
  C  C769  1  0.171600  0.393800  0.118120  1.0  -0.1567
  C  C770  1  0.121000  0.345900  0.125660  1.0  -0.034
  C  C771  1  0.522900  0.848900  0.204900  1.0  -0.0477
  C  C772  1  0.583800  0.850900  0.225100  1.0  -0.1572
  C  C773  1  0.604700  0.799100  0.239940  1.0  0.0592
  C  C774  1  0.569300  0.745000  0.230740  1.0  -0.1831
  C  C775  1  0.510600  0.744300  0.209850  1.0  -0.0362
  C  C776  1  0.698800  0.763100  0.308690  1.0  -0.0222
  C  C777  1  0.649700  0.760700  0.285390  1.0  -0.1437
  C  C778  1  0.661800  0.801500  0.263920  1.0  0.0366
  C  C779  1  0.726500  0.843800  0.267030  1.0  -0.1437
  C  C780  1  0.773400  0.846100  0.290880  1.0  -0.0559
  C  C781  1  0.621100  0.815200  0.108220  1.0  0.0477
  C  C782  1  0.688000  0.803100  0.090140  1.0  -0.132
  C  C783  1  0.768200  0.788100  0.099500  1.0  -0.0869
  C  C784  1  0.786100  0.784400  0.127300  1.0  -0.1559
  C  C785  1  0.721200  0.796000  0.145840  1.0  -0.0859
  C  C786  1  0.641300  0.811000  0.136150  1.0  -0.1139
  C  C787  1  0.508900  0.870400  0.073300  1.0  -0.009
  C  C788  1  0.563700  0.916800  0.064700  1.0  -0.1553
  C  C789  1  0.539500  0.963600  0.047000  1.0  -0.1254
  C  C790  1  0.457100  0.965500  0.037400  1.0  -0.114
  C  C791  1  0.400100  0.921400  0.045800  1.0  -0.1166
  C  C792  1  0.426500  0.875400  0.063500  1.0  -0.1074
  C  C793  1  0.015300  0.774500  0.428630  1.0  -0.0412
  C  C794  1  0.972700  0.595300  0.368900  1.0  -0.0376
  C  C795  1  0.780000  0.615700  0.334200  1.0  -0.0703
  C  C796  1  0.719600  0.699900  0.440530  1.0  -0.0498
  C  C797  1  0.712300  0.700600  0.468770  1.0  -0.1224
  C  C798  1  0.752900  0.744000  0.484740  1.0  0.0588
  C  C799  1  0.800500  0.787100  0.470720  1.0  -0.1191
  C  C800  1  0.806700  0.785500  0.442410  1.0  -0.0389
  C  C801  1  0.853400  0.957300  0.385930  1.0  -0.0585
  C  C802  1  0.798500  0.005000  0.382310  1.0  -0.1296
  C  C803  1  0.713100  0.995700  0.377800  1.0  0.0784
  C  C804  1  0.685500  0.935600  0.378050  1.0  -0.1426
  C  C805  1  0.741800  0.888500  0.381820  1.0  -0.0418
  C  C806  1  0.535200  0.089500  0.348200  1.0  -0.0514
  C  C807  1  0.585100  0.040600  0.355070  1.0  -0.1412
  C  C808  1  0.655800  0.047900  0.371760  1.0  0.0636
  C  C809  1  0.671600  0.106200  0.381880  1.0  -0.1575
  C  C810  1  0.621000  0.154100  0.374340  1.0  -0.0326
  C  C811  1  0.022900  0.651100  0.295100  1.0  -0.0491
  C  C812  1  0.083800  0.649100  0.274900  1.0  -0.1579
  C  C813  1  0.104700  0.700900  0.260060  1.0  0.0593
  C  C814  1  0.069300  0.755000  0.269260  1.0  -0.1826
  C  C815  1  0.010600  0.755700  0.290150  1.0  -0.0353
  C  C816  1  0.198800  0.736900  0.191310  1.0  -0.0203
  C  C817  1  0.149700  0.739300  0.214610  1.0  -0.1438
  C  C818  1  0.161800  0.698500  0.236080  1.0  0.0365
  C  C819  1  0.226500  0.656200  0.232970  1.0  -0.144
  C  C820  1  0.273400  0.653900  0.209120  1.0  -0.0557
  C  C821  1  0.121100  0.684800  0.391780  1.0  0.0471
  C  C822  1  0.188000  0.696900  0.409860  1.0  -0.13
  C  C823  1  0.268200  0.711900  0.400500  1.0  -0.0867
  C  C824  1  0.286100  0.715600  0.372700  1.0  -0.1563
  C  C825  1  0.221200  0.704000  0.354160  1.0  -0.0867
  C  C826  1  0.141300  0.689000  0.363850  1.0  -0.1122
  C  C827  1  0.008900  0.629600  0.426700  1.0  -0.0079
  C  C828  1  0.063700  0.583200  0.435300  1.0  -0.1535
  C  C829  1  0.039500  0.536400  0.453000  1.0  -0.126
  C  C830  1  0.957100  0.534500  0.462600  1.0  -0.1156
  C  C831  1  0.900100  0.578600  0.454200  1.0  -0.1182
  C  C832  1  0.926500  0.624600  0.436500  1.0  -0.1077
  C  C833  1  0.015300  0.274500  0.071370  1.0  -0.0413
  C  C834  1  0.972700  0.095300  0.131100  1.0  -0.0381
  C  C835  1  0.780000  0.115700  0.165800  1.0  -0.0693
  C  C836  1  0.719600  0.199900  0.059470  1.0  -0.0493
  C  C837  1  0.712300  0.200600  0.031230  1.0  -0.1249
  C  C838  1  0.752900  0.244000  0.015260  1.0  0.0587
  C  C839  1  0.800500  0.287100  0.029280  1.0  -0.1193
  C  C840  1  0.806700  0.285500  0.057590  1.0  -0.0392
  C  C841  1  0.853400  0.457300  0.114070  1.0  -0.0586
  C  C842  1  0.798500  0.505000  0.117690  1.0  -0.1304
  C  C843  1  0.713100  0.495700  0.122200  1.0  0.0782
  C  C844  1  0.685500  0.435600  0.121950  1.0  -0.1423
  C  C845  1  0.741800  0.388500  0.118180  1.0  -0.0417
  C  C846  1  0.535200  0.589500  0.151800  1.0  -0.0513
  C  C847  1  0.585100  0.540600  0.144930  1.0  -0.1413
  C  C848  1  0.655800  0.547900  0.128240  1.0  0.0637
  C  C849  1  0.671600  0.606200  0.118120  1.0  -0.1574
  C  C850  1  0.621000  0.654100  0.125660  1.0  -0.0326
  C  C851  1  0.022900  0.151100  0.204900  1.0  -0.0486
  C  C852  1  0.083800  0.149100  0.225100  1.0  -0.1576
  C  C853  1  0.104700  0.200900  0.239940  1.0  0.0591
  C  C854  1  0.069300  0.255000  0.230740  1.0  -0.1834
  C  C855  1  0.010600  0.255700  0.209850  1.0  -0.0358
  C  C856  1  0.198800  0.236900  0.308690  1.0  -0.0212
  C  C857  1  0.149700  0.239300  0.285390  1.0  -0.1437
  C  C858  1  0.161800  0.198500  0.263920  1.0  0.0369
  C  C859  1  0.226500  0.156200  0.267030  1.0  -0.1436
  C  C860  1  0.273400  0.153900  0.290880  1.0  -0.0549
  C  C861  1  0.121100  0.184800  0.108220  1.0  0.047
  C  C862  1  0.188000  0.196900  0.090140  1.0  -0.1305
  C  C863  1  0.268200  0.211900  0.099500  1.0  -0.0876
  C  C864  1  0.286100  0.215600  0.127300  1.0  -0.1558
  C  C865  1  0.221200  0.204000  0.145840  1.0  -0.086
  C  C866  1  0.141300  0.189000  0.136150  1.0  -0.1134
  C  C867  1  0.008900  0.129600  0.073300  1.0  -0.0084
  C  C868  1  0.063700  0.083200  0.064700  1.0  -0.1537
  C  C869  1  0.039500  0.036400  0.047000  1.0  -0.126
  C  C870  1  0.957100  0.034500  0.037400  1.0  -0.1166
  C  C871  1  0.900100  0.078600  0.045800  1.0  -0.1176
  C  C872  1  0.926500  0.124600  0.063500  1.0  -0.108
  C  C873  1  0.515300  0.225500  0.428630  1.0  -0.0426
  C  C874  1  0.472700  0.404700  0.368900  1.0  -0.0384
  C  C875  1  0.280000  0.384300  0.334200  1.0  -0.0692
  C  C876  1  0.219600  0.300100  0.440530  1.0  -0.0471
  C  C877  1  0.212300  0.299400  0.468770  1.0  -0.125
  C  C878  1  0.252900  0.256000  0.484740  1.0  0.0586
  C  C879  1  0.300500  0.212900  0.470720  1.0  -0.1186
  C  C880  1  0.306700  0.214500  0.442410  1.0  -0.039
  C  C881  1  0.353400  0.042700  0.385930  1.0  -0.0582
  C  C882  1  0.298500  0.995000  0.382310  1.0  -0.1292
  C  C883  1  0.213100  0.004300  0.377800  1.0  0.0781
  C  C884  1  0.185500  0.064400  0.378050  1.0  -0.1424
  C  C885  1  0.241800  0.111500  0.381820  1.0  -0.0416
  C  C886  1  0.035200  0.910500  0.348200  1.0  -0.0512
  C  C887  1  0.085100  0.959400  0.355070  1.0  -0.1407
  C  C888  1  0.155800  0.952100  0.371760  1.0  0.0639
  C  C889  1  0.171600  0.893800  0.381880  1.0  -0.1569
  C  C890  1  0.121000  0.845900  0.374340  1.0  -0.0341
  C  C891  1  0.522900  0.348900  0.295100  1.0  -0.0482
  C  C892  1  0.583800  0.350900  0.274900  1.0  -0.1577
  C  C893  1  0.604700  0.299100  0.260060  1.0  0.0594
  C  C894  1  0.569300  0.245000  0.269260  1.0  -0.1826
  C  C895  1  0.510600  0.244300  0.290150  1.0  -0.0359
  C  C896  1  0.698800  0.263100  0.191310  1.0  -0.0208
  C  C897  1  0.649700  0.260700  0.214610  1.0  -0.1435
  C  C898  1  0.661800  0.301500  0.236080  1.0  0.0362
  C  C899  1  0.726500  0.343800  0.232970  1.0  -0.1443
  C  C900  1  0.773400  0.346100  0.209120  1.0  -0.0561
  C  C901  1  0.621100  0.315200  0.391780  1.0  0.0477
  C  C902  1  0.688000  0.303100  0.409860  1.0  -0.1302
  C  C903  1  0.768200  0.288100  0.400500  1.0  -0.0867
  C  C904  1  0.786100  0.284400  0.372700  1.0  -0.1566
  C  C905  1  0.721200  0.296000  0.354160  1.0  -0.0868
  C  C906  1  0.641300  0.311000  0.363850  1.0  -0.1123
  C  C907  1  0.508900  0.370400  0.426700  1.0  -0.0086
  C  C908  1  0.563700  0.416800  0.435300  1.0  -0.1553
  C  C909  1  0.539500  0.463600  0.453000  1.0  -0.1258
  C  C910  1  0.457100  0.465500  0.462600  1.0  -0.1128
  C  C911  1  0.400100  0.421400  0.454200  1.0  -0.1168
  C  C912  1  0.426500  0.375400  0.436500  1.0  -0.1075
  C  C913  1  0.484700  0.274500  0.928630  1.0  -0.0415
  C  C914  1  0.527300  0.095300  0.868900  1.0  -0.038
  C  C915  1  0.720000  0.115700  0.834200  1.0  -0.07
  C  C916  1  0.780400  0.199900  0.940530  1.0  -0.05
  C  C917  1  0.787700  0.200600  0.968770  1.0  -0.1241
  C  C918  1  0.747100  0.244000  0.984740  1.0  0.0587
  C  C919  1  0.699500  0.287100  0.970720  1.0  -0.1178
  C  C920  1  0.693300  0.285500  0.942410  1.0  -0.0386
  C  C921  1  0.646600  0.457300  0.885930  1.0  -0.0594
  C  C922  1  0.701500  0.505000  0.882310  1.0  -0.1285
  C  C923  1  0.786900  0.495700  0.877800  1.0  0.0778
  C  C924  1  0.814500  0.435600  0.878050  1.0  -0.1425
  C  C925  1  0.758200  0.388500  0.881820  1.0  -0.0429
  C  C926  1  0.964800  0.589500  0.848200  1.0  -0.0516
  C  C927  1  0.914900  0.540600  0.855070  1.0  -0.1419
  C  C928  1  0.844200  0.547900  0.871760  1.0  0.0639
  C  C929  1  0.828400  0.606200  0.881880  1.0  -0.1571
  C  C930  1  0.879000  0.654100  0.874340  1.0  -0.0332
  C  C931  1  0.477100  0.151100  0.795100  1.0  -0.0479
  C  C932  1  0.416200  0.149100  0.774900  1.0  -0.1581
  C  C933  1  0.395300  0.200900  0.760060  1.0  0.0594
  C  C934  1  0.430700  0.255000  0.769260  1.0  -0.1831
  C  C935  1  0.489400  0.255700  0.790150  1.0  -0.0358
  C  C936  1  0.301200  0.236900  0.691310  1.0  -0.0198
  C  C937  1  0.350300  0.239300  0.714610  1.0  -0.1436
  C  C938  1  0.338200  0.198500  0.736080  1.0  0.0368
  C  C939  1  0.273500  0.156200  0.732970  1.0  -0.1442
  C  C940  1  0.226600  0.153900  0.709120  1.0  -0.0549
  C  C941  1  0.378900  0.184800  0.891780  1.0  0.0471
  C  C942  1  0.312000  0.196900  0.909860  1.0  -0.1302
  C  C943  1  0.231800  0.211900  0.900500  1.0  -0.0862
  C  C944  1  0.213900  0.215600  0.872700  1.0  -0.1541
  C  C945  1  0.278800  0.204000  0.854160  1.0  -0.0856
  C  C946  1  0.358700  0.189000  0.863850  1.0  -0.1135
  C  C947  1  0.491100  0.129600  0.926700  1.0  -0.0078
  C  C948  1  0.436300  0.083200  0.935300  1.0  -0.154
  C  C949  1  0.460500  0.036400  0.953000  1.0  -0.1275
  C  C950  1  0.542900  0.034500  0.962600  1.0  -0.1151
  C  C951  1  0.599900  0.078600  0.954200  1.0  -0.1198
  C  C952  1  0.573500  0.124600  0.936500  1.0  -0.1102
  C  C953  1  0.984700  0.225500  0.571370  1.0  -0.0428
  C  C954  1  0.027300  0.404700  0.631100  1.0  -0.0391
  C  C955  1  0.220000  0.384300  0.665800  1.0  -0.068
  C  C956  1  0.280400  0.300100  0.559470  1.0  -0.0469
  C  C957  1  0.287700  0.299400  0.531230  1.0  -0.1221
  C  C958  1  0.247100  0.256000  0.515260  1.0  0.0586
  C  C959  1  0.199500  0.212900  0.529280  1.0  -0.1188
  C  C960  1  0.193300  0.214500  0.557590  1.0  -0.0384
  C  C961  1  0.146600  0.042700  0.614070  1.0  -0.0599
  C  C962  1  0.201500  0.995000  0.617690  1.0  -0.129
  C  C963  1  0.286900  0.004300  0.622200  1.0  0.0776
  C  C964  1  0.314500  0.064400  0.621950  1.0  -0.1421
  C  C965  1  0.258200  0.111500  0.618180  1.0  -0.0418
  C  C966  1  0.464800  0.910500  0.651800  1.0  -0.0521
  C  C967  1  0.414900  0.959400  0.644930  1.0  -0.1408
  C  C968  1  0.344200  0.952100  0.628240  1.0  0.0646
  C  C969  1  0.328400  0.893800  0.618120  1.0  -0.1567
  C  C970  1  0.379000  0.845900  0.625660  1.0  -0.0347
  C  C971  1  0.977100  0.348900  0.704900  1.0  -0.0467
  C  C972  1  0.916200  0.350900  0.725100  1.0  -0.1575
  C  C973  1  0.895300  0.299100  0.739940  1.0  0.0592
  C  C974  1  0.930700  0.245000  0.730740  1.0  -0.1834
  C  C975  1  0.989400  0.244300  0.709850  1.0  -0.0358
  C  C976  1  0.801200  0.263100  0.808690  1.0  -0.0218
  C  C977  1  0.850300  0.260700  0.785390  1.0  -0.1434
  C  C978  1  0.838200  0.301500  0.763920  1.0  0.037
  C  C979  1  0.773500  0.343800  0.767030  1.0  -0.1441
  C  C980  1  0.726600  0.346100  0.790880  1.0  -0.055
  C  C981  1  0.878900  0.315200  0.608220  1.0  0.0474
  C  C982  1  0.812000  0.303100  0.590140  1.0  -0.1327
  C  C983  1  0.731800  0.288100  0.599500  1.0  -0.0869
  C  C984  1  0.713900  0.284400  0.627300  1.0  -0.154
  C  C985  1  0.778800  0.296000  0.645840  1.0  -0.0845
  C  C986  1  0.858700  0.311000  0.636150  1.0  -0.1153
  C  C987  1  0.991100  0.370400  0.573300  1.0  -0.0083
  C  C988  1  0.936300  0.416800  0.564700  1.0  -0.1553
  C  C989  1  0.960500  0.463600  0.547000  1.0  -0.126
  C  C990  1  0.042900  0.465500  0.537400  1.0  -0.1127
  C  C991  1  0.099900  0.421400  0.545800  1.0  -0.1196
  C  C992  1  0.073500  0.375400  0.563500  1.0  -0.1104
  C  C993  1  0.634600  0.658900  0.950100  1.0  -0.0305
  C  C994  1  0.659400  0.598500  0.946300  1.0  -0.1191
  C  C995  1  0.740000  0.577200  0.952000  1.0  -0.1132
  C  C996  1  0.801700  0.616400  0.961300  1.0  -0.1174
  C  C997  1  0.780400  0.676800  0.965200  1.0  -0.1145
  C  C998  1  0.699100  0.697000  0.959500  1.0  -0.1274
  C  C999  1  0.523300  0.751000  0.956670  1.0  -0.0452
  C  C1000  1  0.527300  0.804200  0.941020  1.0  -0.1419
  C  C1001  1  0.515700  0.861900  0.952120  1.0  -0.1203
  C  C1002  1  0.504000  0.868800  0.980280  1.0  -0.1091
  C  C1003  1  0.502000  0.817400  0.996570  1.0  -0.1066
  C  C1004  1  0.511600  0.760200  0.984880  1.0  -0.1117
  C  C1005  1  0.471500  0.635300  0.959680  1.0  -0.0306
  C  C1006  1  0.388500  0.624400  0.951550  1.0  -0.1315
  C  C1007  1  0.333500  0.587100  0.966100  1.0  -0.1173
  C  C1008  1  0.359900  0.558600  0.990010  1.0  -0.1346
  C  C1009  1  0.441000  0.569300  0.999180  1.0  -0.0931
  C  C1010  1  0.494800  0.607000  0.984360  1.0  -0.1077
  C  C1011  1  0.519100  0.683400  0.910380  1.0  -0.0017
  C  C1012  1  0.446700  0.710800  0.899350  1.0  -0.1124
  C  C1013  1  0.430100  0.714200  0.871460  1.0  -0.143
  C  C1014  1  0.483700  0.687000  0.852520  1.0  -0.1275
  C  C1015  1  0.556200  0.660000  0.862490  1.0  -0.0973
  C  C1016  1  0.572400  0.658000  0.890600  1.0  -0.1309
  C  C1017  1  0.942600  0.502000  0.757200  1.0  0.006
  C  C1018  1  0.021000  0.479700  0.749100  1.0  -0.1356
  C  C1019  1  0.059200  0.430400  0.762000  1.0  -0.131
  C  C1020  1  0.020100  0.402400  0.784200  1.0  -0.0981
  C  C1021  1  0.942900  0.424300  0.793200  1.0  -0.1197
  C  C1022  1  0.903800  0.471200  0.778920  1.0  -0.122
  C  C1023  1  0.835400  0.512700  0.717010  1.0  -0.0565
  C  C1024  1  0.869100  0.486200  0.693200  1.0  -0.1095
  C  C1025  1  0.822600  0.449800  0.675400  1.0  -0.0909
  C  C1026  1  0.739300  0.436100  0.681200  1.0  -0.1326
  C  C1027  1  0.704700  0.459700  0.705090  1.0  -0.0963
  C  C1028  1  0.751400  0.497200  0.722230  1.0  -0.1488
  C  C1029  1  0.958900  0.599300  0.722440  1.0  -0.058
  C  C1030  1  0.951700  0.616600  0.694880  1.0  -0.1446
  C  C1031  1  0.004200  0.658600  0.682300  1.0  -0.0969
  C  C1032  1  0.067100  0.686600  0.697390  1.0  -0.088
  C  C1033  1  0.075700  0.672100  0.724920  1.0  -0.0982
  C  C1034  1  0.023100  0.629000  0.736880  1.0  -0.1203
  C  C1035  1  0.833300  0.598400  0.757630  1.0  -0.0365
  C  C1036  1  0.771100  0.634600  0.745260  1.0  -0.1131
  C  C1037  1  0.721500  0.675500  0.759850  1.0  -0.0997
  C  C1038  1  0.732700  0.682300  0.787930  1.0  -0.1211
  C  C1039  1  0.793600  0.647800  0.800920  1.0  -0.1052
  C  C1040  1  0.843000  0.607700  0.785960  1.0  -0.1384
  C  C1041  1  0.134600  0.841100  0.549900  1.0  -0.0306
  C  C1042  1  0.159400  0.901500  0.553700  1.0  -0.1216
  C  C1043  1  0.240000  0.922800  0.548000  1.0  -0.1107
  C  C1044  1  0.301700  0.883600  0.538700  1.0  -0.1176
  C  C1045  1  0.280400  0.823200  0.534800  1.0  -0.1151
  C  C1046  1  0.199100  0.803000  0.540500  1.0  -0.1253
  C  C1047  1  0.023300  0.749000  0.543330  1.0  -0.0442
  C  C1048  1  0.027300  0.695800  0.558980  1.0  -0.1411
  C  C1049  1  0.015700  0.638100  0.547880  1.0  -0.1208
  C  C1050  1  0.004000  0.631200  0.519720  1.0  -0.1069
  C  C1051  1  0.002000  0.682600  0.503430  1.0  -0.107
  C  C1052  1  0.011600  0.739800  0.515120  1.0  -0.1117
  C  C1053  1  0.971500  0.864700  0.540320  1.0  -0.0292
  C  C1054  1  0.888500  0.875600  0.548450  1.0  -0.1302
  C  C1055  1  0.833500  0.912900  0.533900  1.0  -0.1172
  C  C1056  1  0.859900  0.941400  0.509990  1.0  -0.1333
  C  C1057  1  0.941000  0.930700  0.500820  1.0  -0.0952
  C  C1058  1  0.994800  0.893000  0.515640  1.0  -0.1063
  C  C1059  1  0.019100  0.816600  0.589620  1.0  0.0002
  C  C1060  1  0.946700  0.789200  0.600650  1.0  -0.1119
  C  C1061  1  0.930100  0.785800  0.628540  1.0  -0.1425
  C  C1062  1  0.983700  0.813000  0.647480  1.0  -0.1284
  C  C1063  1  0.056200  0.840000  0.637510  1.0  -0.0955
  C  C1064  1  0.072400  0.842000  0.609400  1.0  -0.1294
  C  C1065  1  0.442600  0.998000  0.742800  1.0  0.0058
  C  C1066  1  0.521000  0.020300  0.750900  1.0  -0.1357
  C  C1067  1  0.559200  0.069600  0.738000  1.0  -0.1302
  C  C1068  1  0.520100  0.097600  0.715800  1.0  -0.0986
  C  C1069  1  0.442900  0.075700  0.706800  1.0  -0.1188
  C  C1070  1  0.403800  0.028800  0.721080  1.0  -0.1232
  C  C1071  1  0.335400  0.987300  0.782990  1.0  -0.0562
  C  C1072  1  0.369100  0.013800  0.806800  1.0  -0.1082
  C  C1073  1  0.322600  0.050200  0.824600  1.0  -0.0895
  C  C1074  1  0.239300  0.063900  0.818800  1.0  -0.1318
  C  C1075  1  0.204700  0.040300  0.794910  1.0  -0.0962
  C  C1076  1  0.251400  0.002800  0.777770  1.0  -0.1485
  C  C1077  1  0.458900  0.900700  0.777560  1.0  -0.0573
  C  C1078  1  0.451700  0.883400  0.805120  1.0  -0.143
  C  C1079  1  0.504200  0.841400  0.817700  1.0  -0.0988
  C  C1080  1  0.567100  0.813400  0.802610  1.0  -0.0884
  C  C1081  1  0.575700  0.827900  0.775080  1.0  -0.0974
  C  C1082  1  0.523100  0.871000  0.763120  1.0  -0.1201
  C  C1083  1  0.333333  0.901600  0.742370  1.0  -0.0363
  C  C1084  1  0.271100  0.865400  0.754740  1.0  -0.1129
  C  C1085  1  0.221500  0.824500  0.740150  1.0  -0.0997
  C  C1086  1  0.232700  0.817700  0.712070  1.0  -0.1214
  C  C1087  1  0.293600  0.852200  0.699080  1.0  -0.1046
  C  C1088  1  0.343000  0.892300  0.714040  1.0  -0.1379
  C  C1089  1  0.865400  0.658900  0.049900  1.0  -0.0292
  C  C1090  1  0.840600  0.598500  0.053700  1.0  -0.1202
  C  C1091  1  0.760000  0.577200  0.048000  1.0  -0.1131
  C  C1092  1  0.698300  0.616400  0.038700  1.0  -0.1162
  C  C1093  1  0.719600  0.676800  0.034800  1.0  -0.1157
  C  C1094  1  0.800900  0.697000  0.040500  1.0  -0.1261
  C  C1095  1  0.976700  0.751000  0.043330  1.0  -0.045
  C  C1096  1  0.972700  0.804200  0.058980  1.0  -0.1403
  C  C1097  1  0.984300  0.861900  0.047880  1.0  -0.1211
  C  C1098  1  0.996000  0.868800  0.019720  1.0  -0.109
  C  C1099  1  0.998000  0.817400  0.003430  1.0  -0.1068
  C  C1100  1  0.988400  0.760200  0.015120  1.0  -0.1118
  C  C1101  1  0.028500  0.635300  0.040320  1.0  -0.0308
  C  C1102  1  0.111500  0.624400  0.048450  1.0  -0.1305
  C  C1103  1  0.166500  0.587100  0.033900  1.0  -0.1176
  C  C1104  1  0.140100  0.558600  0.009990  1.0  -0.1349
  C  C1105  1  0.059000  0.569300  0.000820  1.0  -0.0952
  C  C1106  1  0.005200  0.607000  0.015640  1.0  -0.1074
  C  C1107  1  0.980900  0.683400  0.089620  1.0  0.0
  C  C1108  1  0.053300  0.710800  0.100650  1.0  -0.1119
  C  C1109  1  0.069900  0.714200  0.128540  1.0  -0.143
  C  C1110  1  0.016300  0.687000  0.147480  1.0  -0.1273
  C  C1111  1  0.943800  0.660000  0.137510  1.0  -0.0955
  C  C1112  1  0.927600  0.658000  0.109400  1.0  -0.1295
  C  C1113  1  0.557400  0.502000  0.242800  1.0  0.0067
  C  C1114  1  0.479000  0.479700  0.250900  1.0  -0.1362
  C  C1115  1  0.440800  0.430400  0.238000  1.0  -0.1305
  C  C1116  1  0.479900  0.402400  0.215800  1.0  -0.0982
  C  C1117  1  0.557100  0.424300  0.206800  1.0  -0.1182
  C  C1118  1  0.596200  0.471200  0.221080  1.0  -0.1245
  C  C1119  1  0.664600  0.512700  0.282990  1.0  -0.056
  C  C1120  1  0.630900  0.486200  0.306800  1.0  -0.1084
  C  C1121  1  0.677400  0.449800  0.324600  1.0  -0.0906
  C  C1122  1  0.760700  0.436100  0.318800  1.0  -0.1307
  C  C1123  1  0.795300  0.459700  0.294910  1.0  -0.0974
  C  C1124  1  0.748600  0.497200  0.277770  1.0  -0.1488
  C  C1125  1  0.541100  0.599300  0.277560  1.0  -0.0576
  C  C1126  1  0.548300  0.616600  0.305120  1.0  -0.1441
  C  C1127  1  0.495800  0.658600  0.317700  1.0  -0.0987
  C  C1128  1  0.432900  0.686600  0.302610  1.0  -0.087
  C  C1129  1  0.424300  0.672100  0.275080  1.0  -0.0976
  C  C1130  1  0.476900  0.629000  0.263120  1.0  -0.1194
  C  C1131  1  0.666667  0.598400  0.242370  1.0  -0.0386
  C  C1132  1  0.728900  0.634600  0.254740  1.0  -0.113
  C  C1133  1  0.778500  0.675500  0.240150  1.0  -0.099
  C  C1134  1  0.767300  0.682300  0.212070  1.0  -0.1208
  C  C1135  1  0.706400  0.647800  0.199080  1.0  -0.103
  C  C1136  1  0.657000  0.607700  0.214040  1.0  -0.1372
  C  C1137  1  0.365400  0.841100  0.450100  1.0  -0.0294
  C  C1138  1  0.340600  0.901500  0.446300  1.0  -0.1214
  C  C1139  1  0.260000  0.922800  0.452000  1.0  -0.1114
  C  C1140  1  0.198300  0.883600  0.461300  1.0  -0.1167
  C  C1141  1  0.219600  0.823200  0.465200  1.0  -0.1157
  C  C1142  1  0.300900  0.803000  0.459500  1.0  -0.1245
  C  C1143  1  0.476700  0.749000  0.456670  1.0  -0.0445
  C  C1144  1  0.472700  0.695800  0.441020  1.0  -0.1424
  C  C1145  1  0.484300  0.638100  0.452120  1.0  -0.1207
  C  C1146  1  0.496000  0.631200  0.480280  1.0  -0.108
  C  C1147  1  0.498000  0.682600  0.496570  1.0  -0.1072
  C  C1148  1  0.488400  0.739800  0.484880  1.0  -0.1116
  C  C1149  1  0.528500  0.864700  0.459680  1.0  -0.0302
  C  C1150  1  0.611500  0.875600  0.451550  1.0  -0.1304
  C  C1151  1  0.666500  0.912900  0.466100  1.0  -0.1169
  C  C1152  1  0.640100  0.941400  0.490010  1.0  -0.1332
  C  C1153  1  0.559000  0.930700  0.499180  1.0  -0.0952
  C  C1154  1  0.505200  0.893000  0.484360  1.0  -0.1069
  C  C1155  1  0.480900  0.816600  0.410380  1.0  -0.0015
  C  C1156  1  0.553300  0.789200  0.399350  1.0  -0.1122
  C  C1157  1  0.569900  0.785800  0.371460  1.0  -0.1426
  C  C1158  1  0.516300  0.813000  0.352520  1.0  -0.1272
  C  C1159  1  0.443800  0.840000  0.362490  1.0  -0.0958
  C  C1160  1  0.427600  0.842000  0.390600  1.0  -0.1308
  C  C1161  1  0.057400  0.998000  0.257200  1.0  0.0066
  C  C1162  1  0.979000  0.020300  0.249100  1.0  -0.1367
  C  C1163  1  0.940800  0.069600  0.262000  1.0  -0.1304
  C  C1164  1  0.979900  0.097600  0.284200  1.0  -0.0974
  C  C1165  1  0.057100  0.075700  0.293200  1.0  -0.1189
  C  C1166  1  0.096200  0.028800  0.278920  1.0  -0.1232
  C  C1167  1  0.164600  0.987300  0.217010  1.0  -0.0563
  C  C1168  1  0.130900  0.013800  0.193200  1.0  -0.109
  C  C1169  1  0.177400  0.050200  0.175400  1.0  -0.0907
  C  C1170  1  0.260700  0.063900  0.181200  1.0  -0.1321
  C  C1171  1  0.295300  0.040300  0.205090  1.0  -0.0972
  C  C1172  1  0.248600  0.002800  0.222230  1.0  -0.1494
  C  C1173  1  0.041100  0.900700  0.222440  1.0  -0.057
  C  C1174  1  0.048300  0.883400  0.194880  1.0  -0.1459
  C  C1175  1  0.995800  0.841400  0.182300  1.0  -0.0964
  C  C1176  1  0.932900  0.813400  0.197390  1.0  -0.0863
  C  C1177  1  0.924300  0.827900  0.224920  1.0  -0.0976
  C  C1178  1  0.976900  0.871000  0.236880  1.0  -0.1198
  C  C1179  1  0.166700  0.901600  0.257630  1.0  -0.0376
  C  C1180  1  0.228900  0.865400  0.245260  1.0  -0.1137
  C  C1181  1  0.278500  0.824500  0.259850  1.0  -0.0993
  C  C1182  1  0.267300  0.817700  0.287930  1.0  -0.1195
  C  C1183  1  0.206400  0.852200  0.300920  1.0  -0.1047
  C  C1184  1  0.157000  0.892300  0.285960  1.0  -0.1378
  C  C1185  1  0.365400  0.341100  0.049900  1.0  -0.0292
  C  C1186  1  0.340600  0.401500  0.053700  1.0  -0.1218
  C  C1187  1  0.260000  0.422800  0.048000  1.0  -0.1114
  C  C1188  1  0.198300  0.383600  0.038700  1.0  -0.1167
  C  C1189  1  0.219600  0.323200  0.034800  1.0  -0.1161
  C  C1190  1  0.300900  0.303000  0.040500  1.0  -0.1251
  C  C1191  1  0.476700  0.249000  0.043330  1.0  -0.0442
  C  C1192  1  0.472700  0.195800  0.058980  1.0  -0.1418
  C  C1193  1  0.484300  0.138100  0.047880  1.0  -0.1206
  C  C1194  1  0.496000  0.131200  0.019720  1.0  -0.1071
  C  C1195  1  0.498000  0.182600  0.003430  1.0  -0.1073
  C  C1196  1  0.488400  0.239800  0.015120  1.0  -0.1119
  C  C1197  1  0.528500  0.364700  0.040320  1.0  -0.0295
  C  C1198  1  0.611500  0.375600  0.048450  1.0  -0.13
  C  C1199  1  0.666500  0.412900  0.033900  1.0  -0.1172
  C  C1200  1  0.640100  0.441400  0.009990  1.0  -0.1332
  C  C1201  1  0.559000  0.430700  0.000820  1.0  -0.0959
  C  C1202  1  0.505200  0.393000  0.015640  1.0  -0.1065
  C  C1203  1  0.480900  0.316600  0.089620  1.0  1e-04
  C  C1204  1  0.553300  0.289200  0.100650  1.0  -0.112
  C  C1205  1  0.569900  0.285800  0.128540  1.0  -0.1426
  C  C1206  1  0.516300  0.313000  0.147480  1.0  -0.1275
  C  C1207  1  0.443800  0.340000  0.137510  1.0  -0.0951
  C  C1208  1  0.427600  0.342000  0.109400  1.0  -0.1293
  C  C1209  1  0.057400  0.498000  0.242800  1.0  0.0065
  C  C1210  1  0.979000  0.520300  0.250900  1.0  -0.1359
  C  C1211  1  0.940800  0.569600  0.238000  1.0  -0.1302
  C  C1212  1  0.979900  0.597600  0.215800  1.0  -0.098
  C  C1213  1  0.057100  0.575700  0.206800  1.0  -0.1183
  C  C1214  1  0.096200  0.528800  0.221080  1.0  -0.1247
  C  C1215  1  0.164600  0.487300  0.282990  1.0  -0.0559
  C  C1216  1  0.130900  0.513800  0.306800  1.0  -0.1082
  C  C1217  1  0.177400  0.550200  0.324600  1.0  -0.0898
  C  C1218  1  0.260700  0.563900  0.318800  1.0  -0.1309
  C  C1219  1  0.295300  0.540300  0.294910  1.0  -0.0972
  C  C1220  1  0.248600  0.502800  0.277770  1.0  -0.149
  C  C1221  1  0.041100  0.400700  0.277560  1.0  -0.0571
  C  C1222  1  0.048300  0.383400  0.305120  1.0  -0.1441
  C  C1223  1  0.995800  0.341400  0.317700  1.0  -0.0986
  C  C1224  1  0.932900  0.313400  0.302610  1.0  -0.0867
  C  C1225  1  0.924300  0.327900  0.275080  1.0  -0.0972
  C  C1226  1  0.976900  0.371000  0.263120  1.0  -0.1191
  C  C1227  1  0.166700  0.401600  0.242370  1.0  -0.0379
  C  C1228  1  0.228900  0.365400  0.254740  1.0  -0.1133
  C  C1229  1  0.278500  0.324500  0.240150  1.0  -0.0992
  C  C1230  1  0.267300  0.317700  0.212070  1.0  -0.1203
  C  C1231  1  0.206400  0.352200  0.199080  1.0  -0.1039
  C  C1232  1  0.157000  0.392300  0.214040  1.0  -0.1378
  C  C1233  1  0.865400  0.158900  0.450100  1.0  -0.0293
  C  C1234  1  0.840600  0.098500  0.446300  1.0  -0.1199
  C  C1235  1  0.760000  0.077200  0.452000  1.0  -0.1132
  C  C1236  1  0.698300  0.116400  0.461300  1.0  -0.1162
  C  C1237  1  0.719600  0.176800  0.465200  1.0  -0.1155
  C  C1238  1  0.800900  0.197000  0.459500  1.0  -0.1268
  C  C1239  1  0.976700  0.251000  0.456670  1.0  -0.0452
  C  C1240  1  0.972700  0.304200  0.441020  1.0  -0.1431
  C  C1241  1  0.984300  0.361900  0.452120  1.0  -0.1206
  C  C1242  1  0.996000  0.368800  0.480280  1.0  -0.1094
  C  C1243  1  0.998000  0.317400  0.496570  1.0  -0.1066
  C  C1244  1  0.988400  0.260200  0.484880  1.0  -0.1119
  C  C1245  1  0.028500  0.135300  0.459680  1.0  -0.0311
  C  C1246  1  0.111500  0.124400  0.451550  1.0  -0.1312
  C  C1247  1  0.166500  0.087100  0.466100  1.0  -0.1177
  C  C1248  1  0.140100  0.058600  0.490010  1.0  -0.1345
  C  C1249  1  0.059000  0.069300  0.499180  1.0  -0.0941
  C  C1250  1  0.005200  0.107000  0.484360  1.0  -0.1076
  C  C1251  1  0.980900  0.183400  0.410380  1.0  -0.002
  C  C1252  1  0.053300  0.210800  0.399350  1.0  -0.1124
  C  C1253  1  0.069900  0.214200  0.371460  1.0  -0.1429
  C  C1254  1  0.016300  0.187000  0.352520  1.0  -0.1268
  C  C1255  1  0.943800  0.160000  0.362490  1.0  -0.0971
  C  C1256  1  0.927600  0.158000  0.390600  1.0  -0.1308
  C  C1257  1  0.557400  0.002000  0.257200  1.0  0.0066
  C  C1258  1  0.479000  0.979700  0.249100  1.0  -0.1365
  C  C1259  1  0.440800  0.930400  0.262000  1.0  -0.1307
  C  C1260  1  0.479900  0.902400  0.284200  1.0  -0.098
  C  C1261  1  0.557100  0.924300  0.293200  1.0  -0.1189
  C  C1262  1  0.596200  0.971200  0.278920  1.0  -0.123
  C  C1263  1  0.664600  0.012700  0.217010  1.0  -0.0564
  C  C1264  1  0.630900  0.986200  0.193200  1.0  -0.1092
  C  C1265  1  0.677400  0.949800  0.175400  1.0  -0.0914
  C  C1266  1  0.760700  0.936100  0.181200  1.0  -0.1316
  C  C1267  1  0.795300  0.959700  0.205090  1.0  -0.0973
  C  C1268  1  0.748600  0.997200  0.222230  1.0  -0.1497
  C  C1269  1  0.541100  0.099300  0.222440  1.0  -0.0577
  C  C1270  1  0.548300  0.116600  0.194880  1.0  -0.1463
  C  C1271  1  0.495800  0.158600  0.182300  1.0  -0.0962
  C  C1272  1  0.432900  0.186600  0.197390  1.0  -0.0863
  C  C1273  1  0.424300  0.172100  0.224920  1.0  -0.098
  C  C1274  1  0.476900  0.129000  0.236880  1.0  -0.1202
  C  C1275  1  0.666667  0.098400  0.257630  1.0  -0.0384
  C  C1276  1  0.728900  0.134600  0.245260  1.0  -0.1136
  C  C1277  1  0.778500  0.175500  0.259850  1.0  -0.0991
  C  C1278  1  0.767300  0.182300  0.287930  1.0  -0.1196
  C  C1279  1  0.706400  0.147800  0.300920  1.0  -0.1045
  C  C1280  1  0.657000  0.107700  0.285960  1.0  -0.1374
  C  C1281  1  0.134600  0.341100  0.950100  1.0  -0.0308
  C  C1282  1  0.159400  0.401500  0.946300  1.0  -0.1214
  C  C1283  1  0.240000  0.422800  0.952000  1.0  -0.1108
  C  C1284  1  0.301700  0.383600  0.961300  1.0  -0.1178
  C  C1285  1  0.280400  0.323200  0.965200  1.0  -0.1147
  C  C1286  1  0.199100  0.303000  0.959500  1.0  -0.125
  C  C1287  1  0.023300  0.249000  0.956670  1.0  -0.0444
  C  C1288  1  0.027300  0.195800  0.941020  1.0  -0.1419
  C  C1289  1  0.015700  0.138100  0.952120  1.0  -0.1212
  C  C1290  1  0.004000  0.131200  0.980280  1.0  -0.1073
  C  C1291  1  0.002000  0.182600  0.996570  1.0  -0.1068
  C  C1292  1  0.011600  0.239800  0.984880  1.0  -0.1115
  C  C1293  1  0.971500  0.364700  0.959680  1.0  -0.0298
  C  C1294  1  0.888500  0.375600  0.951550  1.0  -0.1307
  C  C1295  1  0.833500  0.412900  0.966100  1.0  -0.1169
  C  C1296  1  0.859900  0.441400  0.990010  1.0  -0.1333
  C  C1297  1  0.941000  0.430700  0.999180  1.0  -0.094
  C  C1298  1  0.994800  0.393000  0.984360  1.0  -0.1068
  C  C1299  1  0.019100  0.316600  0.910380  1.0  -0.0014
  C  C1300  1  0.946700  0.289200  0.899350  1.0  -0.1121
  C  C1301  1  0.930100  0.285800  0.871460  1.0  -0.1426
  C  C1302  1  0.983700  0.313000  0.852520  1.0  -0.1279
  C  C1303  1  0.056200  0.340000  0.862490  1.0  -0.0962
  C  C1304  1  0.072400  0.342000  0.890600  1.0  -0.1311
  C  C1305  1  0.442600  0.498000  0.757200  1.0  0.006
  C  C1306  1  0.521000  0.520300  0.749100  1.0  -0.1356
  C  C1307  1  0.559200  0.569600  0.762000  1.0  -0.1304
  C  C1308  1  0.520100  0.597600  0.784200  1.0  -0.0977
  C  C1309  1  0.442900  0.575700  0.793200  1.0  -0.1196
  C  C1310  1  0.403800  0.528800  0.778920  1.0  -0.122
  C  C1311  1  0.335400  0.487300  0.717010  1.0  -0.0565
  C  C1312  1  0.369100  0.513800  0.693200  1.0  -0.1096
  C  C1313  1  0.322600  0.550200  0.675400  1.0  -0.0904
  C  C1314  1  0.239300  0.563900  0.681200  1.0  -0.1326
  C  C1315  1  0.204700  0.540300  0.705090  1.0  -0.0966
  C  C1316  1  0.251400  0.502800  0.722230  1.0  -0.1485
  C  C1317  1  0.458900  0.400700  0.722440  1.0  -0.0573
  C  C1318  1  0.451700  0.383400  0.694880  1.0  -0.1445
  C  C1319  1  0.504200  0.341400  0.682300  1.0  -0.0973
  C  C1320  1  0.567100  0.313400  0.697390  1.0  -0.088
  C  C1321  1  0.575700  0.327900  0.724920  1.0  -0.0977
  C  C1322  1  0.523100  0.371000  0.736880  1.0  -0.1209
  C  C1323  1  0.333333  0.401600  0.757630  1.0  -0.0365
  C  C1324  1  0.271100  0.365400  0.745260  1.0  -0.1123
  C  C1325  1  0.221500  0.324500  0.759850  1.0  -0.1
  C  C1326  1  0.232700  0.317700  0.787930  1.0  -0.1206
  C  C1327  1  0.293600  0.352200  0.800920  1.0  -0.1055
  C  C1328  1  0.343000  0.392300  0.785960  1.0  -0.1378
  C  C1329  1  0.634600  0.158900  0.549900  1.0  -0.0304
  C  C1330  1  0.659400  0.098500  0.553700  1.0  -0.1192
  C  C1331  1  0.740000  0.077200  0.548000  1.0  -0.113
  C  C1332  1  0.801700  0.116400  0.538700  1.0  -0.1172
  C  C1333  1  0.780400  0.176800  0.534800  1.0  -0.1149
  C  C1334  1  0.699100  0.197000  0.540500  1.0  -0.1266
  C  C1335  1  0.523300  0.251000  0.543330  1.0  -0.045
  C  C1336  1  0.527300  0.304200  0.558980  1.0  -0.139
  C  C1337  1  0.515700  0.361900  0.547880  1.0  -0.1206
  C  C1338  1  0.504000  0.368800  0.519720  1.0  -0.1091
  C  C1339  1  0.502000  0.317400  0.503430  1.0  -0.1065
  C  C1340  1  0.511600  0.260200  0.515120  1.0  -0.1115
  C  C1341  1  0.471500  0.135300  0.540320  1.0  -0.0303
  C  C1342  1  0.388500  0.124400  0.548450  1.0  -0.1308
  C  C1343  1  0.333500  0.087100  0.533900  1.0  -0.1172
  C  C1344  1  0.359900  0.058600  0.509990  1.0  -0.135
  C  C1345  1  0.441000  0.069300  0.500820  1.0  -0.0944
  C  C1346  1  0.494800  0.107000  0.515640  1.0  -0.1073
  C  C1347  1  0.519100  0.183400  0.589620  1.0  0.0002
  C  C1348  1  0.446700  0.210800  0.600650  1.0  -0.1118
  C  C1349  1  0.430100  0.214200  0.628540  1.0  -0.143
  C  C1350  1  0.483700  0.187000  0.647480  1.0  -0.1283
  C  C1351  1  0.556200  0.160000  0.637510  1.0  -0.0962
  C  C1352  1  0.572400  0.158000  0.609400  1.0  -0.1294
  C  C1353  1  0.942600  0.002000  0.742800  1.0  0.006
  C  C1354  1  0.021000  0.979700  0.750900  1.0  -0.136
  C  C1355  1  0.059200  0.930400  0.738000  1.0  -0.1308
  C  C1356  1  0.020100  0.902400  0.715800  1.0  -0.0983
  C  C1357  1  0.942900  0.924300  0.706800  1.0  -0.1187
  C  C1358  1  0.903800  0.971200  0.721080  1.0  -0.1232
  C  C1359  1  0.835400  0.012700  0.782990  1.0  -0.0562
  C  C1360  1  0.869100  0.986200  0.806800  1.0  -0.1082
  C  C1361  1  0.822600  0.949800  0.824600  1.0  -0.0901
  C  C1362  1  0.739300  0.936100  0.818800  1.0  -0.1318
  C  C1363  1  0.704700  0.959700  0.794910  1.0  -0.0962
  C  C1364  1  0.751400  0.997200  0.777770  1.0  -0.1482
  C  C1365  1  0.958900  0.099300  0.777560  1.0  -0.0577
  C  C1366  1  0.951700  0.116600  0.805120  1.0  -0.1431
  C  C1367  1  0.004200  0.158600  0.817700  1.0  -0.0989
  C  C1368  1  0.067100  0.186600  0.802610  1.0  -0.0885
  C  C1369  1  0.075700  0.172100  0.775080  1.0  -0.0978
  C  C1370  1  0.023100  0.129000  0.763120  1.0  -0.1192
  C  C1371  1  0.833300  0.098400  0.742370  1.0  -0.0366
  C  C1372  1  0.771100  0.134600  0.754740  1.0  -0.1135
  C  C1373  1  0.721500  0.175500  0.740150  1.0  -0.0993
  C  C1374  1  0.732700  0.182300  0.712070  1.0  -0.1218
  C  C1375  1  0.793600  0.147800  0.699080  1.0  -0.1037
  C  C1376  1  0.843000  0.107700  0.714040  1.0  -0.1384
  N  N1377  1  0.233300  0.757700  0.927900  1.0  0.2319
  N  N1378  1  0.175400  0.600200  0.885090  1.0  0.309
  N  N1379  1  0.014800  0.795700  0.801620  1.0  0.3251
  N  N1380  1  0.444600  0.354700  0.857620  1.0  0.3265
  N  N1381  1  0.742000  0.806500  0.688690  1.0  0.2994
  N  N1382  1  0.733300  0.742300  0.572100  1.0  0.2305
  N  N1383  1  0.675400  0.899800  0.614910  1.0  0.3087
  N  N1384  1  0.514800  0.704300  0.698380  1.0  0.3262
  N  N1385  1  0.944600  0.145300  0.642380  1.0  0.3259
  N  N1386  1  0.242000  0.693500  0.811310  1.0  0.2993
  N  N1387  1  0.266700  0.757700  0.072100  1.0  0.23
  N  N1388  1  0.324600  0.600200  0.114910  1.0  0.3059
  N  N1389  1  0.485200  0.795700  0.198380  1.0  0.3245
  N  N1390  1  0.055400  0.354700  0.142380  1.0  0.3279
  N  N1391  1  0.758000  0.806500  0.311310  1.0  0.2966
  N  N1392  1  0.766700  0.742300  0.427900  1.0  0.231
  N  N1393  1  0.824600  0.899800  0.385090  1.0  0.3059
  N  N1394  1  0.985200  0.704300  0.301620  1.0  0.3239
  N  N1395  1  0.555400  0.145300  0.357620  1.0  0.3272
  N  N1396  1  0.258000  0.693500  0.188690  1.0  0.297
  N  N1397  1  0.766700  0.242300  0.072100  1.0  0.2303
  N  N1398  1  0.824600  0.399800  0.114910  1.0  0.3057
  N  N1399  1  0.985200  0.204300  0.198380  1.0  0.3245
  N  N1400  1  0.555400  0.645300  0.142380  1.0  0.3271
  N  N1401  1  0.258000  0.193500  0.311310  1.0  0.2972
  N  N1402  1  0.266700  0.257700  0.427900  1.0  0.2315
  N  N1403  1  0.324600  0.100200  0.385090  1.0  0.3061
  N  N1404  1  0.485200  0.295700  0.301620  1.0  0.3238
  N  N1405  1  0.055400  0.854700  0.357620  1.0  0.3278
  N  N1406  1  0.758000  0.306500  0.188690  1.0  0.2972
  N  N1407  1  0.733300  0.242300  0.927900  1.0  0.2312
  N  N1408  1  0.675400  0.399800  0.885090  1.0  0.309
  N  N1409  1  0.514800  0.204300  0.801620  1.0  0.3251
  N  N1410  1  0.944600  0.645300  0.857620  1.0  0.326
  N  N1411  1  0.242000  0.193500  0.688690  1.0  0.2988
  N  N1412  1  0.233300  0.257700  0.572100  1.0  0.2302
  N  N1413  1  0.175400  0.100200  0.614910  1.0  0.3087
  N  N1414  1  0.014800  0.295700  0.698380  1.0  0.3262
  N  N1415  1  0.444600  0.854700  0.642380  1.0  0.3265
  N  N1416  1  0.742000  0.306500  0.811310  1.0  0.2991
  O  O1417  1  0.017400  0.761200  0.906940  1.0  -0.4528
  O  O1418  1  0.029800  0.842300  0.877630  1.0  -0.4337
  O  O1419  1  0.218500  0.836700  0.854890  1.0  -0.6527
  O  O1420  1  0.226300  0.759900  0.900400  1.0  -0.6527
  O  O1421  1  0.120400  0.645900  0.888040  1.0  -0.6469
  O  O1422  1  0.076600  0.795200  0.820490  1.0  -0.6526
  O  O1423  1  0.490400  0.307300  0.849000  1.0  -0.6692
  O  O1424  1  0.698500  0.811300  0.665230  1.0  -0.6837
  O  O1425  1  0.517400  0.738800  0.593060  1.0  -0.4524
  O  O1426  1  0.529800  0.657700  0.622370  1.0  -0.4314
  O  O1427  1  0.718500  0.663300  0.645110  1.0  -0.6533
  O  O1428  1  0.726300  0.740100  0.599600  1.0  -0.6526
  O  O1429  1  0.620400  0.854100  0.611960  1.0  -0.6493
  O  O1430  1  0.576600  0.704800  0.679510  1.0  -0.6516
  O  O1431  1  0.990400  0.192700  0.651000  1.0  -0.6679
  O  O1432  1  0.198500  0.688700  0.834770  1.0  -0.6841
  O  O1433  1  0.482600  0.761200  0.093060  1.0  -0.4529
  O  O1434  1  0.470200  0.842300  0.122370  1.0  -0.4353
  O  O1435  1  0.281500  0.836700  0.145110  1.0  -0.6518
  O  O1436  1  0.273700  0.759900  0.099600  1.0  -0.6533
  O  O1437  1  0.379600  0.645900  0.111960  1.0  -0.6483
  O  O1438  1  0.423400  0.795200  0.179510  1.0  -0.6515
  O  O1439  1  0.009600  0.307300  0.151000  1.0  -0.6678
  O  O1440  1  0.801500  0.811300  0.334770  1.0  -0.6856
  O  O1441  1  0.982600  0.738800  0.406940  1.0  -0.4532
  O  O1442  1  0.970200  0.657700  0.377630  1.0  -0.4327
  O  O1443  1  0.781500  0.663300  0.354890  1.0  -0.6521
  O  O1444  1  0.773700  0.740100  0.400400  1.0  -0.6538
  O  O1445  1  0.879600  0.854100  0.388040  1.0  -0.6502
  O  O1446  1  0.923400  0.704800  0.320490  1.0  -0.6525
  O  O1447  1  0.509600  0.192700  0.349000  1.0  -0.669
  O  O1448  1  0.301500  0.688700  0.165230  1.0  -0.6854
  O  O1449  1  0.982600  0.238800  0.093060  1.0  -0.453
  O  O1450  1  0.970200  0.157700  0.122370  1.0  -0.4327
  O  O1451  1  0.781500  0.163300  0.145110  1.0  -0.6526
  O  O1452  1  0.773700  0.240100  0.099600  1.0  -0.6529
  O  O1453  1  0.879600  0.354100  0.111960  1.0  -0.6502
  O  O1454  1  0.923400  0.204800  0.179510  1.0  -0.6516
  O  O1455  1  0.509600  0.692700  0.151000  1.0  -0.6677
  O  O1456  1  0.301500  0.188700  0.334770  1.0  -0.6861
  O  O1457  1  0.482600  0.261200  0.406940  1.0  -0.4534
  O  O1458  1  0.470200  0.342300  0.377630  1.0  -0.4353
  O  O1459  1  0.281500  0.336700  0.354890  1.0  -0.652
  O  O1460  1  0.273700  0.259900  0.400400  1.0  -0.6536
  O  O1461  1  0.379600  0.145900  0.388040  1.0  -0.6483
  O  O1462  1  0.423400  0.295200  0.320490  1.0  -0.6523
  O  O1463  1  0.009600  0.807300  0.349000  1.0  -0.6686
  O  O1464  1  0.801500  0.311300  0.165230  1.0  -0.6844
  O  O1465  1  0.517400  0.238800  0.906940  1.0  -0.4528
  O  O1466  1  0.529800  0.157700  0.877630  1.0  -0.4314
  O  O1467  1  0.718500  0.163300  0.854890  1.0  -0.6529
  O  O1468  1  0.726300  0.240100  0.900400  1.0  -0.6532
  O  O1469  1  0.620400  0.354100  0.888040  1.0  -0.6493
  O  O1470  1  0.576600  0.204800  0.820490  1.0  -0.6526
  O  O1471  1  0.990400  0.692700  0.849000  1.0  -0.6686
  O  O1472  1  0.198500  0.188700  0.665230  1.0  -0.6838
  O  O1473  1  0.017400  0.261200  0.593060  1.0  -0.4521
  O  O1474  1  0.029800  0.342300  0.622370  1.0  -0.4341
  O  O1475  1  0.218500  0.336700  0.645110  1.0  -0.6526
  O  O1476  1  0.226300  0.259900  0.599600  1.0  -0.6527
  O  O1477  1  0.120400  0.145900  0.611960  1.0  -0.6469
  O  O1478  1  0.076600  0.295200  0.679510  1.0  -0.6516
  O  O1479  1  0.490400  0.807300  0.651000  1.0  -0.6689
  O  O1480  1  0.698500  0.311300  0.834770  1.0  -0.6844
