# generated using pymatgen
data_La2B4H138C151N10Cl2O15
_symmetry_space_group_name_H-M   'P 1'
_cell_length_a   15.13400000
_cell_length_b   22.43100000
_cell_length_c   47.62100000
_cell_angle_alpha   90.00000000
_cell_angle_beta   90.00000000
_cell_angle_gamma   91.94700000
_symmetry_Int_Tables_number   1
_chemical_formula_structural   La2B4H138C151N10Cl2O15
_chemical_formula_sum   'La8 B16 H552 C604 N40 Cl8 O60'
_cell_volume   16156.60389527
_cell_formula_units_Z   4
loop_
 _symmetry_equiv_pos_site_id
 _symmetry_equiv_pos_as_xyz
  1  'x, y, z'
loop_
 _atom_site_type_symbol
 _atom_site_label
 _atom_site_symmetry_multiplicity
 _atom_site_fract_x
 _atom_site_fract_y
 _atom_site_fract_z
 _atom_site_occupancy
 _atom_site_charge
  La  La1  1  0.798040  0.580470  0.873630  1.0  2.1615
  La  La2  1  0.293410  0.078540  0.891530  1.0  2.1611
  La  La3  1  0.898470  0.102600  0.619350  1.0  2.1372
  La  La4  1  0.406400  0.095990  0.381020  1.0  2.1736
  La  La5  1  0.798040  0.080470  0.126370  1.0  2.1615
  La  La6  1  0.293410  0.578540  0.108470  1.0  2.1614
  La  La7  1  0.898470  0.602600  0.380650  1.0  2.1372
  La  La8  1  0.406400  0.595990  0.618980  1.0  2.1726
  B  B9  1  0.672600  0.924200  0.483800  1.0  0.5023
  B  B10  1  0.149800  0.307200  0.518900  1.0  0.5748
  B  B11  1  0.908200  0.222300  0.293800  1.0  0.5308
  B  B12  1  0.071600  0.371500  0.013300  1.0  0.5624
  B  B13  1  0.552700  0.756500  0.983500  1.0  0.5368
  B  B14  1  0.753700  0.169800  0.797000  1.0  0.5282
  B  B15  1  0.342300  0.922700  0.207800  1.0  0.5144
  B  B16  1  0.356700  0.975900  0.698400  1.0  0.5374
  B  B17  1  0.672600  0.424200  0.516200  1.0  0.5022
  B  B18  1  0.149800  0.807200  0.481100  1.0  0.5748
  B  B19  1  0.908200  0.722300  0.706200  1.0  0.5309
  B  B20  1  0.071600  0.871500  0.986700  1.0  0.5625
  B  B21  1  0.552700  0.256500  0.016500  1.0  0.5366
  B  B22  1  0.753700  0.669800  0.203000  1.0  0.5281
  B  B23  1  0.342300  0.422700  0.792200  1.0  0.5142
  B  B24  1  0.356700  0.475900  0.301600  1.0  0.5377
  H  H25  1  0.814500  0.702700  0.871800  1.0  0.3215
  H  H26  1  0.456900  0.036800  0.869600  1.0  0.2717
  H  H27  1  0.968200  0.221700  0.637100  1.0  0.3289
  H  H28  1  0.093700  0.140000  0.614500  1.0  0.247
  H  H29  1  0.729800  0.166200  0.624300  1.0  0.3295
  H  H30  1  0.231700  0.024500  0.383600  1.0  0.2532
  H  H31  1  0.463800  0.985200  0.363500  1.0  0.3431
  H  H32  1  0.686100  0.765500  0.869000  1.0  0.1401
  H  H33  1  0.653600  0.708200  0.851300  1.0  0.1266
  H  H34  1  0.739300  0.746500  0.841600  1.0  0.1168
  H  H35  1  0.993100  0.686700  0.829100  1.0  0.1475
  H  H36  1  0.971000  0.728200  0.855300  1.0  0.1251
  H  H37  1  0.893300  0.704600  0.835000  1.0  0.1183
  H  H38  1  0.451200  0.941600  0.850300  1.0  0.1082
  H  H39  1  0.444000  0.997300  0.829600  1.0  0.0915
  H  H40  1  0.356300  0.962000  0.839900  1.0  0.0923
  H  H41  1  0.225300  0.888000  0.882300  1.0  0.1306
  H  H42  1  0.215700  0.903100  0.915000  1.0  0.1258
  H  H43  1  0.307400  0.917200  0.899200  1.0  0.1146
  H  H44  1  0.035500  0.278800  0.602700  1.0  0.0869
  H  H45  1  0.932600  0.289800  0.607200  1.0  0.0904
  H  H46  1  0.963700  0.247300  0.582400  1.0  0.087
  H  H47  1  0.738500  0.001100  0.688700  1.0  0.1182
  H  H48  1  0.844300  0.002000  0.688900  1.0  0.1067
  H  H49  1  0.790800  0.966800  0.664700  1.0  0.114
  H  H50  1  0.193400  0.078200  0.610800  1.0  0.1003
  H  H51  1  0.120100  0.031200  0.599400  1.0  0.1007
  H  H52  1  0.135400  0.038800  0.632500  1.0  0.1124
  H  H53  1  0.730300  0.231000  0.660700  1.0  0.0968
  H  H54  1  0.770500  0.257500  0.632100  1.0  0.0931
  H  H55  1  0.835000  0.234700  0.656100  1.0  0.0952
  H  H56  1  0.174600  0.983800  0.349100  1.0  0.1103
  H  H57  1  0.274900  0.970500  0.341300  1.0  0.1023
  H  H58  1  0.230300  0.028900  0.329300  1.0  0.1061
  H  H59  1  0.516600  0.918400  0.391500  1.0  0.0918
  H  H60  1  0.472900  0.953800  0.416900  1.0  0.1036
  H  H61  1  0.553800  0.983700  0.399700  1.0  0.1114
  H  H62  1  0.615700  0.569300  0.919400  1.0  0.1114
  H  H63  1  0.526400  0.572000  0.958800  1.0  0.078
  H  H64  1  0.675000  0.448000  0.995900  1.0  0.1015
  H  H65  1  0.763900  0.447900  0.956300  1.0  0.1104
  H  H66  1  0.897600  0.535700  0.939700  1.0  0.1
  H  H67  1  0.009400  0.531700  0.972900  1.0  0.0955
  H  H68  1  0.030300  0.712000  0.971400  1.0  0.0959
  H  H69  1  0.920800  0.713300  0.937500  1.0  0.1109
  H  H70  1  0.786400  0.675700  0.784800  1.0  0.1017
  H  H71  1  0.685500  0.673400  0.748400  1.0  0.0929
  H  H72  1  0.590500  0.512900  0.775800  1.0  0.1082
  H  H73  1  0.686900  0.520000  0.813400  1.0  0.0916
  H  H74  1  0.616300  0.471000  0.870000  1.0  0.1093
  H  H75  1  0.537100  0.385300  0.883100  1.0  0.1048
  H  H76  1  0.748200  0.288400  0.862400  1.0  0.0917
  H  H77  1  0.823900  0.375300  0.849200  1.0  0.1131
  H  H78  1  0.903500  0.433000  0.909200  1.0  0.105
  H  H79  1  0.989500  0.348900  0.909300  1.0  0.0989
  H  H80  1  0.133600  0.420600  0.845600  1.0  0.0901
  H  H81  1  0.058000  0.508400  0.850300  1.0  0.1045
  H  H82  1  0.226100  0.228000  0.917300  1.0  0.0993
  H  H83  1  0.130900  0.307400  0.918600  1.0  0.0958
  H  H84  1  0.145400  0.319100  0.833900  1.0  0.0999
  H  H85  1  0.231300  0.234800  0.833600  1.0  0.0994
  H  H86  1  0.411200  0.222100  0.918800  1.0  0.0986
  H  H87  1  0.485300  0.310000  0.906000  1.0  0.102
  H  H88  1  0.666800  0.212900  0.865900  1.0  0.1034
  H  H89  1  0.585700  0.126700  0.877300  1.0  0.1097
  H  H90  1  0.269000  0.704500  0.022000  1.0  0.0967
  H  H91  1  0.172200  0.699500  0.984500  1.0  0.0883
  H  H92  1  0.165600  0.552300  0.052900  1.0  0.0876
  H  H93  1  0.414000  0.424600  0.049100  1.0  0.107
  H  H94  1  0.519000  0.421500  0.013900  1.0  0.0784
  H  H95  1  0.518100  0.601200  0.008300  1.0  0.0947
  H  H96  1  0.411900  0.601800  0.043100  1.0  0.0906
  H  H97  1  0.107800  0.106000  0.836400  1.0  0.1042
  H  H98  1  0.031700  0.126600  0.795500  1.0  0.0957
  H  H99  1  0.234100  0.062000  0.750800  1.0  0.0844
  H  H100  1  0.311200  0.048100  0.792200  1.0  0.1041
  H  H101  1  0.111400  0.139500  0.675700  1.0  0.0993
  H  H102  1  0.185900  0.130200  0.717900  1.0  0.0978
  H  H103  1  0.952500  0.089800  0.755800  1.0  0.0832
  H  H104  1  0.880700  0.104700  0.713400  1.0  0.1103
  H  H105  1  0.971100  0.948000  0.585700  1.0  0.0927
  H  H106  1  0.057600  0.865600  0.579000  1.0  0.0937
  H  H107  1  0.091200  0.854600  0.663100  1.0  0.0937
  H  H108  1  0.007000  0.938500  0.668500  1.0  0.097
  H  H109  1  0.932600  0.979200  0.530200  1.0  0.0955
  H  H110  1  0.023900  0.985700  0.491500  1.0  0.0901
  H  H111  1  0.143800  0.132200  0.524700  1.0  0.0911
  H  H112  1  0.052000  0.123900  0.563300  1.0  0.0911
  H  H113  1  0.630600  0.050700  0.631600  1.0  0.1099
  H  H114  1  0.545600  0.965200  0.642400  1.0  0.1041
  H  H115  1  0.706300  0.869500  0.593200  1.0  0.0958
  H  H116  1  0.786700  0.956400  0.582000  1.0  0.1059
  H  H117  1  0.800000  0.252900  0.555500  1.0  0.0998
  H  H118  1  0.702900  0.259300  0.518200  1.0  0.0917
  H  H119  1  0.702800  0.079500  0.511000  1.0  0.0837
  H  H120  1  0.800200  0.075900  0.548600  1.0  0.0907
  H  H121  1  0.601100  0.111500  0.423800  1.0  0.1085
  H  H122  1  0.692200  0.108600  0.462700  1.0  0.083
  H  H123  1  0.546500  0.233800  0.500100  1.0  0.0952
  H  H124  1  0.455600  0.233900  0.461000  1.0  0.1117
  H  H125  1  0.322000  0.142300  0.453800  1.0  0.1011
  H  H126  1  0.206800  0.145500  0.485500  1.0  0.0855
  H  H127  1  0.143900  0.973400  0.467600  1.0  0.0928
  H  H128  1  0.261900  0.972000  0.437000  1.0  0.1033
  H  H129  1  0.579400  0.707000  0.630600  1.0  0.1089
  H  H130  1  0.664000  0.791900  0.620100  1.0  0.1058
  H  H131  1  0.447100  0.890100  0.630800  1.0  0.0997
  H  H132  1  0.365200  0.803500  0.640400  1.0  0.1026
  H  H133  1  0.168100  0.663600  0.641400  1.0  0.1028
  H  H134  1  0.089100  0.749400  0.649900  1.0  0.0947
  H  H135  1  0.214300  0.829300  0.584000  1.0  0.0939
  H  H136  1  0.292900  0.742900  0.576900  1.0  0.1053
  H  H137  1  0.465100  0.671500  0.687800  1.0  0.0919
  H  H138  1  0.563000  0.678800  0.725000  1.0  0.105
  H  H139  1  0.541600  0.499800  0.734800  1.0  0.102
  H  H140  1  0.443500  0.495300  0.697700  1.0  0.1052
  H  H141  1  0.814500  0.202700  0.128200  1.0  0.3215
  H  H142  1  0.456900  0.536800  0.130400  1.0  0.2727
  H  H143  1  0.968200  0.721700  0.362900  1.0  0.3288
  H  H144  1  0.093700  0.640000  0.385500  1.0  0.2472
  H  H145  1  0.729800  0.666200  0.375700  1.0  0.3309
  H  H146  1  0.231700  0.524500  0.616400  1.0  0.2546
  H  H147  1  0.463800  0.485200  0.636500  1.0  0.3434
  H  H148  1  0.686100  0.265500  0.131000  1.0  0.1411
  H  H149  1  0.653600  0.208200  0.148700  1.0  0.1271
  H  H150  1  0.739300  0.246500  0.158400  1.0  0.1166
  H  H151  1  0.993100  0.186700  0.170900  1.0  0.1463
  H  H152  1  0.971000  0.228200  0.144700  1.0  0.1249
  H  H153  1  0.893300  0.204600  0.165000  1.0  0.1173
  H  H154  1  0.451200  0.441600  0.149700  1.0  0.1088
  H  H155  1  0.444000  0.497300  0.170400  1.0  0.091
  H  H156  1  0.356300  0.462000  0.160100  1.0  0.093
  H  H157  1  0.225300  0.388000  0.117700  1.0  0.1321
  H  H158  1  0.215700  0.403100  0.085000  1.0  0.1265
  H  H159  1  0.307400  0.417200  0.100800  1.0  0.1142
  H  H160  1  0.035500  0.778800  0.397300  1.0  0.0878
  H  H161  1  0.932600  0.789800  0.392800  1.0  0.0897
  H  H162  1  0.963700  0.747300  0.417600  1.0  0.0862
  H  H163  1  0.738500  0.501100  0.311300  1.0  0.1189
  H  H164  1  0.844300  0.502000  0.311100  1.0  0.1071
  H  H165  1  0.790800  0.466800  0.335300  1.0  0.1146
  H  H166  1  0.193400  0.578200  0.389200  1.0  0.1005
  H  H167  1  0.120100  0.531200  0.400600  1.0  0.1008
  H  H168  1  0.135400  0.538800  0.367500  1.0  0.1112
  H  H169  1  0.730300  0.731000  0.339300  1.0  0.0974
  H  H170  1  0.770500  0.757500  0.367900  1.0  0.0922
  H  H171  1  0.835000  0.734700  0.343900  1.0  0.0959
  H  H172  1  0.174600  0.483800  0.650900  1.0  0.1109
  H  H173  1  0.274900  0.470500  0.658700  1.0  0.1017
  H  H174  1  0.230300  0.528900  0.670700  1.0  0.1077
  H  H175  1  0.516600  0.418400  0.608500  1.0  0.093
  H  H176  1  0.472900  0.453800  0.583100  1.0  0.1054
  H  H177  1  0.553800  0.483700  0.600300  1.0  0.1119
  H  H178  1  0.615700  0.069300  0.080600  1.0  0.1122
  H  H179  1  0.526400  0.072000  0.041200  1.0  0.0782
  H  H180  1  0.675000  0.948000  0.004100  1.0  0.1007
  H  H181  1  0.763900  0.947900  0.043700  1.0  0.1107
  H  H182  1  0.897600  0.035700  0.060300  1.0  0.1004
  H  H183  1  0.009400  0.031700  0.027100  1.0  0.096
  H  H184  1  0.030300  0.212000  0.028600  1.0  0.0967
  H  H185  1  0.920800  0.213300  0.062500  1.0  0.1111
  H  H186  1  0.786400  0.175700  0.215200  1.0  0.1017
  H  H187  1  0.685500  0.173400  0.251600  1.0  0.0926
  H  H188  1  0.590500  0.012900  0.224200  1.0  0.108
  H  H189  1  0.686900  0.020000  0.186600  1.0  0.0914
  H  H190  1  0.616300  0.971000  0.130000  1.0  0.1095
  H  H191  1  0.537100  0.885300  0.116900  1.0  0.105
  H  H192  1  0.748200  0.788400  0.137600  1.0  0.0917
  H  H193  1  0.823900  0.875300  0.150800  1.0  0.1129
  H  H194  1  0.903500  0.933000  0.090800  1.0  0.105
  H  H195  1  0.989500  0.848900  0.090700  1.0  0.0984
  H  H196  1  0.133600  0.920600  0.154400  1.0  0.0902
  H  H197  1  0.058000  0.008400  0.149700  1.0  0.1047
  H  H198  1  0.226100  0.728000  0.082700  1.0  0.0988
  H  H199  1  0.130900  0.807400  0.081400  1.0  0.096
  H  H200  1  0.145400  0.819100  0.166100  1.0  0.1002
  H  H201  1  0.231300  0.734800  0.166400  1.0  0.0998
  H  H202  1  0.411200  0.722100  0.081200  1.0  0.0984
  H  H203  1  0.485300  0.810000  0.094000  1.0  0.1022
  H  H204  1  0.666800  0.712900  0.134100  1.0  0.103
  H  H205  1  0.585700  0.626700  0.122700  1.0  0.1099
  H  H206  1  0.269000  0.204500  0.978000  1.0  0.0967
  H  H207  1  0.172200  0.199500  0.015500  1.0  0.0882
  H  H208  1  0.165600  0.052300  0.947100  1.0  0.0864
  H  H209  1  0.414000  0.924600  0.950900  1.0  0.107
  H  H210  1  0.519000  0.921500  0.986100  1.0  0.0785
  H  H211  1  0.518100  0.101200  0.991700  1.0  0.0939
  H  H212  1  0.411900  0.101800  0.956900  1.0  0.0905
  H  H213  1  0.107800  0.606000  0.163600  1.0  0.1038
  H  H214  1  0.031700  0.626600  0.204500  1.0  0.0964
  H  H215  1  0.234100  0.562000  0.249200  1.0  0.084
  H  H216  1  0.311200  0.548100  0.207800  1.0  0.1037
  H  H217  1  0.111400  0.639500  0.324300  1.0  0.0995
  H  H218  1  0.185900  0.630200  0.282100  1.0  0.0978
  H  H219  1  0.952500  0.589800  0.244200  1.0  0.0828
  H  H220  1  0.880700  0.604700  0.286600  1.0  0.1104
  H  H221  1  0.971100  0.448000  0.414300  1.0  0.0925
  H  H222  1  0.057600  0.365600  0.421000  1.0  0.0937
  H  H223  1  0.091200  0.354600  0.336900  1.0  0.0938
  H  H224  1  0.007000  0.438500  0.331500  1.0  0.0974
  H  H225  1  0.932600  0.479200  0.469800  1.0  0.0951
  H  H226  1  0.023900  0.485700  0.508500  1.0  0.0904
  H  H227  1  0.143800  0.632200  0.475300  1.0  0.0911
  H  H228  1  0.052000  0.623900  0.436700  1.0  0.0918
  H  H229  1  0.630600  0.550700  0.368400  1.0  0.1104
  H  H230  1  0.545600  0.465200  0.357600  1.0  0.1044
  H  H231  1  0.706300  0.369500  0.406800  1.0  0.0964
  H  H232  1  0.786700  0.456400  0.418000  1.0  0.1061
  H  H233  1  0.800000  0.752900  0.444500  1.0  0.1001
  H  H234  1  0.702900  0.759300  0.481800  1.0  0.0915
  H  H235  1  0.702800  0.579500  0.489000  1.0  0.083
  H  H236  1  0.800200  0.575900  0.451400  1.0  0.0905
  H  H237  1  0.601100  0.611500  0.576200  1.0  0.1082
  H  H238  1  0.692200  0.608600  0.537300  1.0  0.0834
  H  H239  1  0.546500  0.733800  0.499900  1.0  0.0953
  H  H240  1  0.455600  0.733900  0.539000  1.0  0.1122
  H  H241  1  0.322000  0.642300  0.546200  1.0  0.1011
  H  H242  1  0.206800  0.645500  0.514500  1.0  0.0857
  H  H243  1  0.143900  0.473400  0.532400  1.0  0.0933
  H  H244  1  0.261900  0.472000  0.563000  1.0  0.1036
  H  H245  1  0.579400  0.207000  0.369400  1.0  0.1088
  H  H246  1  0.664000  0.291900  0.379900  1.0  0.1058
  H  H247  1  0.447100  0.390100  0.369200  1.0  0.0995
  H  H248  1  0.365200  0.303500  0.359600  1.0  0.103
  H  H249  1  0.168100  0.163600  0.358600  1.0  0.1026
  H  H250  1  0.089100  0.249400  0.350100  1.0  0.0942
  H  H251  1  0.214300  0.329300  0.416000  1.0  0.0936
  H  H252  1  0.292900  0.242900  0.423100  1.0  0.1058
  H  H253  1  0.465100  0.171500  0.312200  1.0  0.0919
  H  H254  1  0.563000  0.178800  0.275000  1.0  0.1052
  H  H255  1  0.541600  0.999800  0.265200  1.0  0.1024
  H  H256  1  0.443500  0.995300  0.302300  1.0  0.1056
  H  H257  1  0.854900  0.901700  0.495800  1.0  0.0835
  H  H258  1  0.923600  0.837000  0.526800  1.0  0.1028
  H  H259  1  0.837800  0.776700  0.556700  1.0  0.0965
  H  H260  1  0.684600  0.781600  0.556100  1.0  0.0972
  H  H261  1  0.616700  0.845900  0.524800  1.0  0.085
  H  H262  1  0.816000  0.001800  0.496800  1.0  0.0864
  H  H263  1  0.902400  0.070300  0.470600  1.0  0.1002
  H  H264  1  0.867200  0.087700  0.423700  1.0  0.1011
  H  H265  1  0.751700  0.033500  0.402400  1.0  0.1037
  H  H266  1  0.670200  0.962600  0.428300  1.0  0.0844
  H  H267  1  0.721100  0.857800  0.438000  1.0  0.0831
  H  H268  1  0.644800  0.795000  0.406700  1.0  0.0962
  H  H269  1  0.497000  0.768900  0.414700  1.0  0.1078
  H  H270  1  0.426700  0.804200  0.454800  1.0  0.0959
  H  H271  1  0.499800  0.874700  0.483300  1.0  0.0902
  H  H272  1  0.544800  0.000900  0.467000  1.0  0.0806
  H  H273  1  0.459800  0.072500  0.488900  1.0  0.0958
  H  H274  1  0.457400  0.077400  0.537700  1.0  0.095
  H  H275  1  0.547600  0.017400  0.564300  1.0  0.092
  H  H276  1  0.640100  0.950500  0.541900  1.0  0.0784
  H  H277  1  0.297100  0.249900  0.498900  1.0  0.0909
  H  H278  1  0.386400  0.175300  0.517100  1.0  0.102
  H  H279  1  0.359600  0.138200  0.561800  1.0  0.0936
  H  H280  1  0.243000  0.172000  0.588500  1.0  0.1001
  H  H281  1  0.155000  0.247200  0.570400  1.0  0.0787
  H  H282  1  0.317700  0.362100  0.522600  1.0  0.0817
  H  H283  1  0.386700  0.445400  0.501000  1.0  0.0923
  H  H284  1  0.314200  0.494500  0.465300  1.0  0.0839
  H  H285  1  0.175800  0.460300  0.450100  1.0  0.0958
  H  H286  1  0.103700  0.380900  0.473600  1.0  0.0783
  H  H287  1  0.151800  0.277900  0.461700  1.0  0.0816
  H  H288  1  0.063500  0.215300  0.433300  1.0  0.0941
  H  H289  1  0.938400  0.167500  0.452000  1.0  0.0945
  H  H290  1  0.906300  0.176800  0.499500  1.0  0.0865
  H  H291  1  0.997000  0.237200  0.528100  1.0  0.0758
  H  H292  1  0.976100  0.347100  0.524000  1.0  0.0772
  H  H293  1  0.907400  0.411100  0.555600  1.0  0.0992
  H  H294  1  0.986000  0.447500  0.594200  1.0  0.0982
  H  H295  1  0.129200  0.418400  0.602400  1.0  0.1027
  H  H296  1  0.200100  0.359000  0.569400  1.0  0.087
  H  H297  1  0.744700  0.267100  0.282800  1.0  0.0818
  H  H298  1  0.678600  0.310200  0.243900  1.0  0.1085
  H  H299  1  0.762300  0.328900  0.203600  1.0  0.1004
  H  H300  1  0.909300  0.302700  0.202000  1.0  0.0984
  H  H301  1  0.971800  0.253500  0.239900  1.0  0.0917
  H  H302  1  0.840100  0.331900  0.311100  1.0  0.0813
  H  H303  1  0.818600  0.374100  0.355000  1.0  0.0903
  H  H304  1  0.847800  0.320800  0.395700  1.0  0.0958
  H  H305  1  0.892600  0.222100  0.392000  1.0  0.1044
  H  H306  1  0.922200  0.183000  0.347900  1.0  0.0858
  H  H307  1  0.768300  0.156000  0.320400  1.0  0.0878
  H  H308  1  0.701400  0.061800  0.312800  1.0  0.1005
  H  H309  1  0.759500  0.998300  0.279500  1.0  0.0984
  H  H310  1  0.879600  0.029800  0.252100  1.0  0.105
  H  H311  1  0.943600  0.125000  0.259100  1.0  0.0875
  H  H312  1  0.038300  0.135300  0.303000  1.0  0.0906
  H  H313  1  0.191700  0.143000  0.306900  1.0  0.1067
  H  H314  1  0.265300  0.234400  0.299200  1.0  0.1018
  H  H315  1  0.184900  0.318100  0.288100  1.0  0.0948
  H  H316  1  0.031700  0.309900  0.284700  1.0  0.0859
  H  H317  1  0.897300  0.319900  0.015100  1.0  0.0809
  H  H318  1  0.829100  0.238800  0.992200  1.0  0.0895
  H  H319  1  0.905200  0.188700  0.957500  1.0  0.0919
  H  H320  1  0.050600  0.217000  0.946800  1.0  0.0989
  H  H321  1  0.118700  0.297700  0.970300  1.0  0.0825
  H  H322  1  0.925000  0.432700  0.994200  1.0  0.0842
  H  H323  1  0.838700  0.507200  0.012900  1.0  0.1049
  H  H324  1  0.875200  0.548200  0.056500  1.0  0.103
  H  H325  1  0.988000  0.508400  0.083200  1.0  0.1059
  H  H326  1  0.071000  0.432100  0.064700  1.0  0.0797
  H  H327  1  0.017200  0.317900  0.063300  1.0  0.0868
  H  H328  1  0.085600  0.257800  0.096100  1.0  0.0942
  H  H329  1  0.236000  0.241200  0.092700  1.0  0.1044
  H  H330  1  0.315500  0.277100  0.054000  1.0  0.1027
  H  H331  1  0.245700  0.334800  0.020500  1.0  0.0768
  H  H332  1  0.221600  0.445000  0.022900  1.0  0.0812
  H  H333  1  0.308600  0.506300  0.993500  1.0  0.0838
  H  H334  1  0.270800  0.517900  0.946800  1.0  0.0941
  H  H335  1  0.152100  0.462200  0.927700  1.0  0.1003
  H  H336  1  0.066800  0.400400  0.957200  1.0  0.0746
  H  H337  1  0.404600  0.683900  0.994600  1.0  0.0834
  H  H338  1  0.319100  0.616100  0.968000  1.0  0.1007
  H  H339  1  0.352000  0.603100  0.920700  1.0  0.0944
  H  H340  1  0.473100  0.653300  0.900700  1.0  0.1044
  H  H341  1  0.557900  0.721200  0.927500  1.0  0.0833
  H  H342  1  0.373100  0.783600  0.994800  1.0  0.0844
  H  H343  1  0.306900  0.845300  0.027700  1.0  0.1012
  H  H344  1  0.395100  0.901800  0.058500  1.0  0.0911
  H  H345  1  0.548300  0.896300  0.056700  1.0  0.0969
  H  H346  1  0.613000  0.831700  0.024800  1.0  0.0867
  H  H347  1  0.584900  0.723700  0.040700  1.0  0.0786
  H  H348  1  0.678900  0.655500  0.061500  1.0  0.1004
  H  H349  1  0.762700  0.594500  0.033200  1.0  0.0949
  H  H350  1  0.767700  0.609700  0.985000  1.0  0.0901
  H  H351  1  0.679100  0.681300  0.964300  1.0  0.0898
  H  H352  1  0.727900  0.805300  0.983700  1.0  0.08
  H  H353  1  0.800300  0.880000  0.957500  1.0  0.0987
  H  H354  1  0.726400  0.926100  0.920900  1.0  0.1052
  H  H355  1  0.581400  0.896400  0.910500  1.0  0.0973
  H  H356  1  0.506200  0.826500  0.938700  1.0  0.0836
  H  H357  1  0.767900  0.126000  0.850400  1.0  0.0867
  H  H358  1  0.853000  0.150600  0.889700  1.0  0.1024
  H  H359  1  0.955400  0.230400  0.887300  1.0  0.0987
  H  H360  1  0.957100  0.292800  0.848300  1.0  0.0964
  H  H361  1  0.875100  0.265800  0.808600  1.0  0.0866
  H  H362  1  0.876100  0.081600  0.813200  1.0  0.0858
  H  H363  1  0.909400  0.987900  0.795300  1.0  0.1035
  H  H364  1  0.821400  0.944700  0.760300  1.0  0.0948
  H  H365  1  0.696600  0.992500  0.744500  1.0  0.1017
  H  H366  1  0.670800  0.089800  0.759700  1.0  0.0789
  H  H367  1  0.611500  0.090900  0.814500  1.0  0.0856
  H  H368  1  0.467300  0.106400  0.829200  1.0  0.0947
  H  H369  1  0.410300  0.201800  0.826100  1.0  0.1022
  H  H370  1  0.504000  0.282100  0.814500  1.0  0.0868
  H  H371  1  0.649800  0.267200  0.801700  1.0  0.079
  H  H372  1  0.655900  0.225100  0.754300  1.0  0.0813
  H  H373  1  0.695400  0.275800  0.713200  1.0  0.1019
  H  H374  1  0.844200  0.294000  0.702600  1.0  0.1061
  H  H375  1  0.952700  0.255200  0.731400  1.0  0.1046
  H  H376  1  0.912200  0.202800  0.771900  1.0  0.085
  H  H377  1  0.288800  0.015000  0.172600  1.0  0.0799
  H  H378  1  0.276200  0.023700  0.124100  1.0  0.0995
  H  H379  1  0.313800  0.945200  0.095000  1.0  0.0978
  H  H380  1  0.357600  0.855800  0.114800  1.0  0.0991
  H  H381  1  0.372900  0.848400  0.163300  1.0  0.0783
  H  H382  1  0.415400  0.031800  0.203800  1.0  0.0888
  H  H383  1  0.398500  0.122800  0.226800  1.0  0.1018
  H  H384  1  0.301500  0.129300  0.264200  1.0  0.0952
  H  H385  1  0.211700  0.047200  0.276800  1.0  0.1097
  H  H386  1  0.234300  0.955400  0.255100  1.0  0.0787
  H  H387  1  0.157300  0.915700  0.212700  1.0  0.0864
  H  H388  1  0.051800  0.841100  0.223600  1.0  0.1033
  H  H389  1  0.096100  0.743700  0.231300  1.0  0.0952
  H  H390  1  0.245100  0.722900  0.229400  1.0  0.0877
  H  H391  1  0.351000  0.798100  0.220000  1.0  0.0848
  H  H392  1  0.413300  0.878700  0.256900  1.0  0.0913
  H  H393  1  0.554600  0.851800  0.270700  1.0  0.1044
  H  H394  1  0.673300  0.867900  0.240100  1.0  0.0956
  H  H395  1  0.648800  0.901200  0.194700  1.0  0.102
  H  H396  1  0.505500  0.921200  0.180100  1.0  0.0852
  H  H397  1  0.174600  0.994100  0.686900  1.0  0.0842
  H  H398  1  0.044800  0.975200  0.712300  1.0  0.1029
  H  H399  1  0.048700  0.922400  0.754000  1.0  0.1033
  H  H400  1  0.184300  0.897500  0.773400  1.0  0.1077
  H  H401  1  0.313200  0.914400  0.747300  1.0  0.0884
  H  H402  1  0.255200  0.919500  0.656000  1.0  0.0791
  H  H403  1  0.251200  0.927600  0.607300  1.0  0.0978
  H  H404  1  0.339700  0.000400  0.584900  1.0  0.1028
  H  H405  1  0.431900  0.063600  0.611400  1.0  0.1031
  H  H406  1  0.431800  0.057100  0.660300  1.0  0.0908
  H  H407  1  0.325900  0.096300  0.691300  1.0  0.0856
  H  H408  1  0.359900  0.181000  0.718400  1.0  0.0955
  H  H409  1  0.444200  0.173100  0.758800  1.0  0.0933
  H  H410  1  0.498200  0.081300  0.772100  1.0  0.1027
  H  H411  1  0.463200  0.996700  0.745100  1.0  0.0893
  H  H412  1  0.539400  0.972100  0.698600  1.0  0.0816
  H  H413  1  0.641500  0.896300  0.698600  1.0  0.0989
  H  H414  1  0.591800  0.797200  0.702300  1.0  0.0922
  H  H415  1  0.441600  0.773500  0.703800  1.0  0.0981
  H  H416  1  0.339600  0.849500  0.704900  1.0  0.0785
  H  H417  1  0.854900  0.401700  0.504200  1.0  0.0841
  H  H418  1  0.923600  0.337000  0.473200  1.0  0.1024
  H  H419  1  0.837800  0.276700  0.443300  1.0  0.0959
  H  H420  1  0.684600  0.281600  0.443900  1.0  0.0968
  H  H421  1  0.616700  0.345900  0.475200  1.0  0.0852
  H  H422  1  0.816000  0.501800  0.503200  1.0  0.0863
  H  H423  1  0.902400  0.570300  0.529400  1.0  0.1
  H  H424  1  0.867200  0.587700  0.576300  1.0  0.1011
  H  H425  1  0.751700  0.533500  0.597600  1.0  0.1025
  H  H426  1  0.670200  0.462600  0.571700  1.0  0.0853
  H  H427  1  0.721100  0.357800  0.562000  1.0  0.0824
  H  H428  1  0.644800  0.295000  0.593300  1.0  0.0963
  H  H429  1  0.497000  0.268900  0.585300  1.0  0.1088
  H  H430  1  0.426700  0.304200  0.545200  1.0  0.0964
  H  H431  1  0.499800  0.374700  0.516700  1.0  0.0898
  H  H432  1  0.544800  0.500900  0.533000  1.0  0.0798
  H  H433  1  0.459800  0.572500  0.511100  1.0  0.0958
  H  H434  1  0.457400  0.577400  0.462300  1.0  0.0961
  H  H435  1  0.547600  0.517400  0.435700  1.0  0.0928
  H  H436  1  0.640100  0.450500  0.458100  1.0  0.078
  H  H437  1  0.297100  0.749900  0.501100  1.0  0.0899
  H  H438  1  0.386400  0.675300  0.482900  1.0  0.1021
  H  H439  1  0.359600  0.638200  0.438200  1.0  0.0941
  H  H440  1  0.243000  0.672000  0.411500  1.0  0.1006
  H  H441  1  0.155000  0.747200  0.429600  1.0  0.0793
  H  H442  1  0.317700  0.862100  0.477400  1.0  0.0813
  H  H443  1  0.386700  0.945400  0.499000  1.0  0.0932
  H  H444  1  0.314200  0.994500  0.534700  1.0  0.0857
  H  H445  1  0.175800  0.960300  0.549900  1.0  0.0959
  H  H446  1  0.103700  0.880900  0.526400  1.0  0.0782
  H  H447  1  0.151800  0.777900  0.538300  1.0  0.0813
  H  H448  1  0.063500  0.715300  0.566700  1.0  0.0938
  H  H449  1  0.938400  0.667500  0.548000  1.0  0.096
  H  H450  1  0.906300  0.676800  0.500500  1.0  0.0866
  H  H451  1  0.997000  0.737200  0.471900  1.0  0.0754
  H  H452  1  0.976100  0.847100  0.476000  1.0  0.0775
  H  H453  1  0.907400  0.911100  0.444400  1.0  0.0994
  H  H454  1  0.986000  0.947500  0.405800  1.0  0.0985
  H  H455  1  0.129200  0.918400  0.397600  1.0  0.1029
  H  H456  1  0.200100  0.859000  0.430600  1.0  0.0872
  H  H457  1  0.744700  0.767100  0.717200  1.0  0.0817
  H  H458  1  0.678600  0.810200  0.756100  1.0  0.1092
  H  H459  1  0.762300  0.828900  0.796400  1.0  0.101
  H  H460  1  0.909300  0.802700  0.798000  1.0  0.0983
  H  H461  1  0.971800  0.753500  0.760100  1.0  0.0913
  H  H462  1  0.840100  0.831900  0.688900  1.0  0.081
  H  H463  1  0.818600  0.874100  0.645000  1.0  0.0904
  H  H464  1  0.847800  0.820800  0.604300  1.0  0.0955
  H  H465  1  0.892600  0.722100  0.608000  1.0  0.1034
  H  H466  1  0.922200  0.683000  0.652100  1.0  0.0856
  H  H467  1  0.768300  0.656000  0.679600  1.0  0.0883
  H  H468  1  0.701400  0.561800  0.687200  1.0  0.1001
  H  H469  1  0.759500  0.498300  0.720500  1.0  0.099
  H  H470  1  0.879600  0.529800  0.747900  1.0  0.1052
  H  H471  1  0.943600  0.625000  0.740900  1.0  0.087
  H  H472  1  0.038300  0.635300  0.697000  1.0  0.0903
  H  H473  1  0.191700  0.643000  0.693100  1.0  0.1067
  H  H474  1  0.265300  0.734400  0.700800  1.0  0.1025
  H  H475  1  0.184900  0.818100  0.711900  1.0  0.0946
  H  H476  1  0.031700  0.809900  0.715300  1.0  0.0865
  H  H477  1  0.897300  0.819900  0.984900  1.0  0.0807
  H  H478  1  0.829100  0.738800  0.007800  1.0  0.0902
  H  H479  1  0.905200  0.688700  0.042500  1.0  0.0924
  H  H480  1  0.050600  0.717000  0.053200  1.0  0.0987
  H  H481  1  0.118700  0.797700  0.029700  1.0  0.0825
  H  H482  1  0.925000  0.932700  0.005800  1.0  0.0833
  H  H483  1  0.838700  0.007200  0.987100  1.0  0.1047
  H  H484  1  0.875200  0.048200  0.943500  1.0  0.1045
  H  H485  1  0.988000  0.008400  0.916800  1.0  0.107
  H  H486  1  0.071000  0.932100  0.935300  1.0  0.08
  H  H487  1  0.017200  0.817900  0.936700  1.0  0.0864
  H  H488  1  0.085600  0.757800  0.903900  1.0  0.0939
  H  H489  1  0.236000  0.741200  0.907300  1.0  0.1044
  H  H490  1  0.315500  0.777100  0.946000  1.0  0.1025
  H  H491  1  0.245700  0.834800  0.979500  1.0  0.0773
  H  H492  1  0.221600  0.945000  0.977100  1.0  0.0818
  H  H493  1  0.308600  0.006300  0.006500  1.0  0.0838
  H  H494  1  0.270800  0.017900  0.053200  1.0  0.093
  H  H495  1  0.152100  0.962200  0.072300  1.0  0.1003
  H  H496  1  0.066800  0.900400  0.042800  1.0  0.0746
  H  H497  1  0.404600  0.183900  0.005400  1.0  0.0835
  H  H498  1  0.319100  0.116100  0.032000  1.0  0.1007
  H  H499  1  0.352000  0.103100  0.079300  1.0  0.0946
  H  H500  1  0.473100  0.153300  0.099300  1.0  0.1053
  H  H501  1  0.557900  0.221200  0.072500  1.0  0.0827
  H  H502  1  0.373100  0.283600  0.005200  1.0  0.085
  H  H503  1  0.306900  0.345300  0.972300  1.0  0.1012
  H  H504  1  0.395100  0.401800  0.941500  1.0  0.0913
  H  H505  1  0.548300  0.396300  0.943300  1.0  0.0966
  H  H506  1  0.613000  0.331700  0.975200  1.0  0.0872
  H  H507  1  0.584900  0.223700  0.959300  1.0  0.0783
  H  H508  1  0.678900  0.155500  0.938500  1.0  0.1005
  H  H509  1  0.762700  0.094500  0.966800  1.0  0.0947
  H  H510  1  0.767700  0.109700  0.015000  1.0  0.0904
  H  H511  1  0.679100  0.181300  0.035700  1.0  0.0896
  H  H512  1  0.727900  0.305300  0.016300  1.0  0.0799
  H  H513  1  0.800300  0.380000  0.042500  1.0  0.0989
  H  H514  1  0.726400  0.426100  0.079100  1.0  0.104
  H  H515  1  0.581400  0.396400  0.089500  1.0  0.0968
  H  H516  1  0.506200  0.326500  0.061300  1.0  0.084
  H  H517  1  0.767900  0.626000  0.149600  1.0  0.0864
  H  H518  1  0.853000  0.650600  0.110300  1.0  0.1027
  H  H519  1  0.955400  0.730400  0.112700  1.0  0.0973
  H  H520  1  0.957100  0.792800  0.151700  1.0  0.096
  H  H521  1  0.875100  0.765800  0.191400  1.0  0.0863
  H  H522  1  0.876100  0.581600  0.186800  1.0  0.0857
  H  H523  1  0.909400  0.487900  0.204700  1.0  0.1032
  H  H524  1  0.821400  0.444700  0.239700  1.0  0.0951
  H  H525  1  0.696600  0.492500  0.255500  1.0  0.1024
  H  H526  1  0.670800  0.589800  0.240300  1.0  0.0788
  H  H527  1  0.611500  0.590900  0.185500  1.0  0.0859
  H  H528  1  0.467300  0.606400  0.170800  1.0  0.0948
  H  H529  1  0.410300  0.701800  0.173900  1.0  0.1026
  H  H530  1  0.504000  0.782100  0.185500  1.0  0.0871
  H  H531  1  0.649800  0.767200  0.198300  1.0  0.0779
  H  H532  1  0.655900  0.725100  0.245700  1.0  0.0811
  H  H533  1  0.695400  0.775800  0.286800  1.0  0.1017
  H  H534  1  0.844200  0.794000  0.297400  1.0  0.1063
  H  H535  1  0.952700  0.755200  0.268600  1.0  0.1045
  H  H536  1  0.912200  0.702800  0.228100  1.0  0.0848
  H  H537  1  0.288800  0.515000  0.827400  1.0  0.08
  H  H538  1  0.276200  0.523700  0.875900  1.0  0.0993
  H  H539  1  0.313800  0.445200  0.905000  1.0  0.098
  H  H540  1  0.357600  0.355800  0.885200  1.0  0.0995
  H  H541  1  0.372900  0.348400  0.836700  1.0  0.0773
  H  H542  1  0.415400  0.531800  0.796200  1.0  0.0894
  H  H543  1  0.398500  0.622800  0.773200  1.0  0.101
  H  H544  1  0.301500  0.629300  0.735800  1.0  0.0964
  H  H545  1  0.211700  0.547200  0.723200  1.0  0.1098
  H  H546  1  0.234300  0.455400  0.744900  1.0  0.0783
  H  H547  1  0.157300  0.415700  0.787300  1.0  0.0859
  H  H548  1  0.051800  0.341100  0.776400  1.0  0.1015
  H  H549  1  0.096100  0.243700  0.768700  1.0  0.0956
  H  H550  1  0.245100  0.222900  0.770600  1.0  0.0878
  H  H551  1  0.351000  0.298100  0.780000  1.0  0.0849
  H  H552  1  0.413300  0.378700  0.743100  1.0  0.0911
  H  H553  1  0.554600  0.351800  0.729300  1.0  0.1038
  H  H554  1  0.673300  0.367900  0.759900  1.0  0.0979
  H  H555  1  0.648800  0.401200  0.805300  1.0  0.1021
  H  H556  1  0.505500  0.421200  0.819900  1.0  0.0845
  H  H557  1  0.174600  0.494100  0.313100  1.0  0.084
  H  H558  1  0.044800  0.475200  0.287700  1.0  0.1029
  H  H559  1  0.048700  0.422400  0.246000  1.0  0.1029
  H  H560  1  0.184300  0.397500  0.226600  1.0  0.1074
  H  H561  1  0.313200  0.414400  0.252700  1.0  0.0881
  H  H562  1  0.255200  0.419500  0.344000  1.0  0.079
  H  H563  1  0.251200  0.427600  0.392700  1.0  0.098
  H  H564  1  0.339700  0.500400  0.415100  1.0  0.1031
  H  H565  1  0.431900  0.563600  0.388600  1.0  0.103
  H  H566  1  0.431800  0.557100  0.339700  1.0  0.0913
  H  H567  1  0.325900  0.596300  0.308700  1.0  0.0848
  H  H568  1  0.359900  0.681000  0.281600  1.0  0.0955
  H  H569  1  0.444200  0.673100  0.241200  1.0  0.0927
  H  H570  1  0.498200  0.581300  0.227900  1.0  0.102
  H  H571  1  0.463200  0.496700  0.254900  1.0  0.0896
  H  H572  1  0.539400  0.472100  0.301400  1.0  0.0812
  H  H573  1  0.641500  0.396300  0.301400  1.0  0.0983
  H  H574  1  0.591800  0.297200  0.297700  1.0  0.0921
  H  H575  1  0.441600  0.273500  0.296200  1.0  0.0982
  H  H576  1  0.339600  0.349500  0.295100  1.0  0.0781
  C  C577  1  0.705400  0.731700  0.857800  1.0  -0.0553
  C  C578  1  0.949500  0.694700  0.843700  1.0  -0.0545
  C  C579  1  0.416000  0.975900  0.845300  1.0  -0.0801
  C  C580  1  0.242900  0.916000  0.897200  1.0  -0.1534
  C  C581  1  0.975800  0.260500  0.601600  1.0  -0.0123
  C  C582  1  0.791700  0.002000  0.676900  1.0  -0.0875
  C  C583  1  0.134900  0.059700  0.614400  1.0  -0.0393
  C  C584  1  0.777800  0.227700  0.646900  1.0  -0.0144
  C  C585  1  0.233400  0.001900  0.345400  1.0  -0.0413
  C  C586  1  0.500500  0.957800  0.398300  1.0  -0.0207
  C  C587  1  0.627600  0.544700  0.935070  1.0  -0.007
  C  C588  1  0.574800  0.546100  0.958470  1.0  -0.1559
  C  C589  1  0.590400  0.510600  0.981850  1.0  0.0514
  C  C590  1  0.662300  0.473300  0.980480  1.0  -0.1768
  C  C591  1  0.714600  0.473000  0.956910  1.0  0.0061
  C  C592  1  0.924900  0.571600  0.946500  1.0  0.0309
  C  C593  1  0.992000  0.569200  0.965900  1.0  -0.0848
  C  C594  1  0.034500  0.621800  0.975210  1.0  0.027
  C  C595  1  0.004400  0.675400  0.964800  1.0  -0.1542
  C  C596  1  0.938100  0.676400  0.945200  1.0  -0.0235
  C  C597  1  0.745900  0.642700  0.782900  1.0  -0.0182
  C  C598  1  0.685900  0.641200  0.761300  1.0  -0.1299
  C  C599  1  0.625300  0.593200  0.758010  1.0  0.0434
  C  C600  1  0.629000  0.547000  0.777650  1.0  -0.1568
  C  C601  1  0.687900  0.550500  0.799560  1.0  0.0519
  C  C602  1  0.643100  0.433400  0.868900  1.0  -0.0087
  C  C603  1  0.596300  0.382600  0.876700  1.0  -0.1411
  C  C604  1  0.635000  0.326800  0.875300  1.0  0.0516
  C  C605  1  0.720600  0.325600  0.864500  1.0  -0.1461
  C  C606  1  0.765800  0.377000  0.856600  1.0  -0.035
  C  C607  1  0.953600  0.431100  0.897200  1.0  -0.0187
  C  C608  1  0.002900  0.380600  0.896660  1.0  -0.1445
  C  C609  1  0.072100  0.375700  0.877620  1.0  0.0628
  C  C610  1  0.089400  0.423600  0.859600  1.0  -0.1559
  C  C611  1  0.043200  0.475000  0.861900  1.0  0.0412
  C  C612  1  0.209200  0.246900  0.900400  1.0  -0.0044
  C  C613  1  0.152900  0.294000  0.901140  1.0  -0.1465
  C  C614  1  0.128200  0.322000  0.876380  1.0  0.0474
  C  C615  1  0.160200  0.300300  0.851120  1.0  -0.1551
  C  C616  1  0.213500  0.251600  0.850950  1.0  0.0335
  C  C617  1  0.462100  0.220700  0.907200  1.0  -0.0231
  C  C618  1  0.507100  0.272900  0.900100  1.0  -0.1606
  C  C619  1  0.584400  0.271700  0.884180  1.0  0.0381
  C  C620  1  0.613300  0.215600  0.876200  1.0  -0.1704
  C  C621  1  0.565300  0.164300  0.883000  1.0  -0.0052
  C  C622  1  0.226400  0.672500  0.020820  1.0  -0.0327
  C  C623  1  0.168700  0.669600  0.998660  1.0  -0.1672
  C  C624  1  0.104600  0.623500  0.996610  1.0  0.0233
  C  C625  1  0.105200  0.579900  0.017510  1.0  0.0216
  C  C626  1  0.165000  0.583100  0.039200  1.0  0.1477
  C  C627  1  0.435400  0.460600  0.040600  1.0  -0.0118
  C  C628  1  0.496900  0.458900  0.019400  1.0  -0.1683
  C  C629  1  0.527600  0.510500  0.005760  1.0  0.0899
  C  C630  1  0.496300  0.564600  0.016020  1.0  -0.2082
  C  C631  1  0.434500  0.564900  0.037060  1.0  0.0025
  C  C632  1  0.134800  0.099400  0.818690  1.0  0.0422
  C  C633  1  0.088800  0.110300  0.794420  1.0  -0.154
  C  C634  1  0.125000  0.097800  0.768230  1.0  0.0577
  C  C635  1  0.208400  0.073100  0.768160  1.0  -0.1591
  C  C636  1  0.254200  0.064500  0.792740  1.0  0.0008
  C  C637  1  0.079000  0.131000  0.692360  1.0  -0.0018
  C  C638  1  0.123500  0.124200  0.717310  1.0  -0.1726
  C  C639  1  0.077600  0.108700  0.741710  1.0  0.0452
  C  C640  1  0.985900  0.101100  0.739640  1.0  -0.1494
  C  C641  1  0.943100  0.109800  0.714450  1.0  0.0131
  C  C642  1  0.997000  0.929100  0.601360  1.0  -0.0011
  C  C643  1  0.048000  0.880200  0.597450  1.0  -0.1474
  C  C644  1  0.085900  0.851700  0.620370  1.0  0.0549
  C  C645  1  0.068300  0.873800  0.647050  1.0  -0.1629
  C  C646  1  0.017900  0.923400  0.650240  1.0  0.0041
  C  C647  1  0.976700  0.010300  0.529190  1.0  -0.0088
  C  C648  1  0.031500  0.014100  0.506240  1.0  -0.2019
  C  C649  1  0.097500  0.058200  0.503930  1.0  0.0628
  C  C650  1  0.101800  0.099800  0.525720  1.0  -0.1805
  C  C651  1  0.046800  0.095400  0.548660  1.0  -0.0056
  C  C652  1  0.644800  0.013500  0.623530  1.0  -0.0079
  C  C653  1  0.594800  0.962800  0.630200  1.0  -0.1768
  C  C654  1  0.616800  0.907800  0.618780  1.0  0.0301
  C  C655  1  0.689400  0.906400  0.600960  1.0  -0.1182
  C  C656  1  0.737400  0.957800  0.594370  1.0  -0.0109
  C  C657  1  0.779500  0.217500  0.546300  1.0  -0.0059
  C  C658  1  0.722200  0.221500  0.524060  1.0  -0.1822
  C  C659  1  0.692400  0.170100  0.510050  1.0  0.0601
  C  C660  1  0.722400  0.115500  0.519910  1.0  -0.1778
  C  C661  1  0.779900  0.113200  0.542340  1.0  0.0198
  C  C662  1  0.589800  0.136100  0.439550  1.0  0.034
  C  C663  1  0.644300  0.134900  0.462580  1.0  -0.151
  C  C664  1  0.630800  0.171400  0.485720  1.0  0.0649
  C  C665  1  0.558500  0.208400  0.484660  1.0  -0.159
  C  C666  1  0.504400  0.208300  0.461470  1.0  -0.0158
  C  C667  1  0.286800  0.107300  0.457420  1.0  -0.0135
  C  C668  1  0.217800  0.109200  0.476040  1.0  -0.1665
  C  C669  1  0.163300  0.059000  0.481300  1.0  0.065
  C  C670  1  0.181100  0.008000  0.465620  1.0  -0.1726
  C  C671  1  0.251200  0.007100  0.447420  1.0  -0.0214
  C  C672  1  0.552500  0.744700  0.630300  1.0  0.0441
  C  C673  1  0.603100  0.795100  0.624400  1.0  -0.1632
  C  C674  1  0.565300  0.851200  0.624800  1.0  0.0522
  C  C675  1  0.475200  0.852800  0.630700  1.0  -0.1554
  C  C676  1  0.426400  0.801400  0.636200  1.0  -0.0131
  C  C677  1  0.175900  0.697500  0.629570  1.0  0.0214
  C  C678  1  0.129000  0.748200  0.634560  1.0  -0.1533
  C  C679  1  0.140500  0.797700  0.616900  1.0  0.0314
  C  C680  1  0.203300  0.795500  0.595600  1.0  -0.0863
  C  C681  1  0.249600  0.744300  0.591310  1.0  -0.0143
  C  C682  1  0.480100  0.636500  0.697800  1.0  0.0272
  C  C683  1  0.538500  0.640800  0.719800  1.0  -0.1498
  C  C684  1  0.562600  0.590000  0.734710  1.0  0.0475
  C  C685  1  0.526000  0.535500  0.725660  1.0  -0.1755
  C  C686  1  0.467500  0.532900  0.703610  1.0  -0.011
  C  C687  1  0.705400  0.231700  0.142200  1.0  -0.0553
  C  C688  1  0.949500  0.194700  0.156300  1.0  -0.0536
  C  C689  1  0.416000  0.475900  0.154700  1.0  -0.079
  C  C690  1  0.242900  0.416000  0.102800  1.0  -0.1544
  C  C691  1  0.975800  0.760500  0.398400  1.0  -0.0099
  C  C692  1  0.791700  0.502000  0.323100  1.0  -0.0882
  C  C693  1  0.134900  0.559700  0.385600  1.0  -0.0396
  C  C694  1  0.777800  0.727700  0.353100  1.0  -0.0142
  C  C695  1  0.233400  0.501900  0.654600  1.0  -0.0394
  C  C696  1  0.500500  0.457800  0.601700  1.0  -0.0221
  C  C697  1  0.627600  0.044700  0.064930  1.0  -0.0059
  C  C698  1  0.574800  0.046100  0.041530  1.0  -0.1555
  C  C699  1  0.590400  0.010600  0.018150  1.0  0.0501
  C  C700  1  0.662300  0.973300  0.019520  1.0  -0.177
  C  C701  1  0.714600  0.973000  0.043090  1.0  0.0061
  C  C702  1  0.924900  0.071600  0.053500  1.0  0.03
  C  C703  1  0.992000  0.069200  0.034100  1.0  -0.0858
  C  C704  1  0.034500  0.121800  0.024790  1.0  0.0261
  C  C705  1  0.004400  0.175400  0.035200  1.0  -0.1542
  C  C706  1  0.938100  0.176400  0.054800  1.0  -0.0232
  C  C707  1  0.745900  0.142700  0.217100  1.0  -0.0181
  C  C708  1  0.685900  0.141200  0.238700  1.0  -0.1305
  C  C709  1  0.625300  0.093200  0.241990  1.0  0.0442
  C  C710  1  0.629000  0.047000  0.222350  1.0  -0.1567
  C  C711  1  0.687900  0.050500  0.200440  1.0  0.0507
  C  C712  1  0.643100  0.933400  0.131100  1.0  -0.0088
  C  C713  1  0.596300  0.882600  0.123300  1.0  -0.1409
  C  C714  1  0.635000  0.826800  0.124700  1.0  0.0508
  C  C715  1  0.720600  0.825600  0.135500  1.0  -0.1452
  C  C716  1  0.765800  0.877000  0.143400  1.0  -0.0352
  C  C717  1  0.953600  0.931100  0.102800  1.0  -0.0189
  C  C718  1  0.002900  0.880600  0.103340  1.0  -0.1446
  C  C719  1  0.072100  0.875700  0.122380  1.0  0.0626
  C  C720  1  0.089400  0.923600  0.140400  1.0  -0.1556
  C  C721  1  0.043200  0.975000  0.138100  1.0  0.0396
  C  C722  1  0.209200  0.746900  0.099600  1.0  -0.0048
  C  C723  1  0.152900  0.794000  0.098860  1.0  -0.1455
  C  C724  1  0.128200  0.822000  0.123620  1.0  0.0476
  C  C725  1  0.160200  0.800300  0.148880  1.0  -0.1556
  C  C726  1  0.213500  0.751600  0.149050  1.0  0.0342
  C  C727  1  0.462100  0.720700  0.092800  1.0  -0.0237
  C  C728  1  0.507100  0.772900  0.099900  1.0  -0.1609
  C  C729  1  0.584400  0.771700  0.115820  1.0  0.0378
  C  C730  1  0.613300  0.715600  0.123800  1.0  -0.1706
  C  C731  1  0.565300  0.664300  0.117000  1.0  -0.0055
  C  C732  1  0.226400  0.172500  0.979180  1.0  -0.0315
  C  C733  1  0.168700  0.169600  0.001340  1.0  -0.1668
  C  C734  1  0.104600  0.123500  0.003390  1.0  0.0235
  C  C735  1  0.105200  0.079900  0.982490  1.0  0.0206
  C  C736  1  0.165000  0.083100  0.960800  1.0  0.1479
  C  C737  1  0.435400  0.960600  0.959400  1.0  -0.0121
  C  C738  1  0.496900  0.958900  0.980600  1.0  -0.1687
  C  C739  1  0.527600  0.010500  0.994240  1.0  0.0895
  C  C740  1  0.496300  0.064600  0.983980  1.0  -0.2089
  C  C741  1  0.434500  0.064900  0.962940  1.0  0.002
  C  C742  1  0.134800  0.599400  0.181310  1.0  0.043
  C  C743  1  0.088800  0.610300  0.205580  1.0  -0.1534
  C  C744  1  0.125000  0.597800  0.231770  1.0  0.0567
  C  C745  1  0.208400  0.573100  0.231840  1.0  -0.16
  C  C746  1  0.254200  0.564500  0.207260  1.0  -0.0007
  C  C747  1  0.079000  0.631000  0.307640  1.0  -0.0011
  C  C748  1  0.123500  0.624200  0.282690  1.0  -0.1727
  C  C749  1  0.077600  0.608700  0.258290  1.0  0.0456
  C  C750  1  0.985900  0.601100  0.260360  1.0  -0.15
  C  C751  1  0.943100  0.609800  0.285550  1.0  0.0139
  C  C752  1  0.997000  0.429100  0.398640  1.0  -0.0018
  C  C753  1  0.048000  0.380200  0.402550  1.0  -0.1477
  C  C754  1  0.085900  0.351700  0.379630  1.0  0.0547
  C  C755  1  0.068300  0.373800  0.352950  1.0  -0.1607
  C  C756  1  0.017900  0.423400  0.349760  1.0  0.004
  C  C757  1  0.976700  0.510300  0.470810  1.0  -0.0088
  C  C758  1  0.031500  0.514100  0.493760  1.0  -0.2016
  C  C759  1  0.097500  0.558200  0.496070  1.0  0.0627
  C  C760  1  0.101800  0.599800  0.474280  1.0  -0.1807
  C  C761  1  0.046800  0.595400  0.451340  1.0  -0.0061
  C  C762  1  0.644800  0.513500  0.376470  1.0  -0.008
  C  C763  1  0.594800  0.462800  0.369800  1.0  -0.177
  C  C764  1  0.616800  0.407800  0.381220  1.0  0.0306
  C  C765  1  0.689400  0.406400  0.399040  1.0  -0.1188
  C  C766  1  0.737400  0.457800  0.405630  1.0  -0.0115
  C  C767  1  0.779500  0.717500  0.453700  1.0  -0.0069
  C  C768  1  0.722200  0.721500  0.475940  1.0  -0.1826
  C  C769  1  0.692400  0.670100  0.489950  1.0  0.0597
  C  C770  1  0.722400  0.615500  0.480090  1.0  -0.18
  C  C771  1  0.779900  0.613200  0.457660  1.0  0.0213
  C  C772  1  0.589800  0.636100  0.560450  1.0  0.0326
  C  C773  1  0.644300  0.634900  0.537420  1.0  -0.152
  C  C774  1  0.630800  0.671400  0.514280  1.0  0.0652
  C  C775  1  0.558500  0.708400  0.515340  1.0  -0.1585
  C  C776  1  0.504400  0.708300  0.538530  1.0  -0.0154
  C  C777  1  0.286800  0.607300  0.542580  1.0  -0.0127
  C  C778  1  0.217800  0.609200  0.523960  1.0  -0.1655
  C  C779  1  0.163300  0.559000  0.518700  1.0  0.065
  C  C780  1  0.181100  0.508000  0.534380  1.0  -0.1734
  C  C781  1  0.251200  0.507100  0.552580  1.0  -0.0218
  C  C782  1  0.552500  0.244700  0.369700  1.0  0.0442
  C  C783  1  0.603100  0.295100  0.375600  1.0  -0.1628
  C  C784  1  0.565300  0.351200  0.375200  1.0  0.0526
  C  C785  1  0.475200  0.352800  0.369300  1.0  -0.154
  C  C786  1  0.426400  0.301400  0.363800  1.0  -0.0121
  C  C787  1  0.175900  0.197500  0.370430  1.0  0.0209
  C  C788  1  0.129000  0.248200  0.365440  1.0  -0.1537
  C  C789  1  0.140500  0.297700  0.383100  1.0  0.0315
  C  C790  1  0.203300  0.295500  0.404400  1.0  -0.0858
  C  C791  1  0.249600  0.244300  0.408690  1.0  -0.0132
  C  C792  1  0.480100  0.136500  0.302200  1.0  0.0283
  C  C793  1  0.538500  0.140800  0.280200  1.0  -0.1495
  C  C794  1  0.562600  0.090000  0.265290  1.0  0.0477
  C  C795  1  0.526000  0.035500  0.274340  1.0  -0.175
  C  C796  1  0.467500  0.032900  0.296390  1.0  -0.0098
  C  C797  1  0.727600  0.882000  0.506510  1.0  -0.0696
  C  C798  1  0.819100  0.877400  0.507970  1.0  -0.1189
  C  C799  1  0.861000  0.838700  0.526490  1.0  -0.1192
  C  C800  1  0.810100  0.803200  0.544170  1.0  -0.0996
  C  C801  1  0.719600  0.805900  0.543770  1.0  -0.1038
  C  C802  1  0.679400  0.844800  0.524980  1.0  -0.1138
  C  C803  1  0.735100  0.972200  0.465470  1.0  -0.0436
  C  C804  1  0.803400  0.006800  0.477370  1.0  -0.1026
  C  C805  1  0.854400  0.048900  0.461950  1.0  -0.1086
  C  C806  1  0.834000  0.058700  0.434160  1.0  -0.0999
  C  C807  1  0.765800  0.026800  0.421510  1.0  -0.1011
  C  C808  1  0.717400  0.984300  0.437260  1.0  -0.171
  C  C809  1  0.618200  0.877700  0.463300  1.0  0.0052
  C  C810  1  0.659700  0.849800  0.440850  1.0  -0.131
  C  C811  1  0.615000  0.810600  0.422460  1.0  -0.0825
  C  C812  1  0.528000  0.794900  0.427340  1.0  -0.1191
  C  C813  1  0.485700  0.817000  0.450530  1.0  -0.1294
  C  C814  1  0.530500  0.858700  0.467820  1.0  -0.1429
  C  C815  1  0.604200  0.968000  0.501650  1.0  -0.0899
  C  C816  1  0.547600  0.004700  0.486820  1.0  -0.1266
  C  C817  1  0.494800  0.046800  0.499820  1.0  -0.1133
  C  C818  1  0.494600  0.050200  0.528600  1.0  -0.0963
  C  C819  1  0.547800  0.014700  0.544350  1.0  -0.0931
  C  C820  1  0.602800  0.974300  0.530800  1.0  -0.1028
  C  C821  1  0.217300  0.258100  0.532980  1.0  -0.0391
  C  C822  1  0.286000  0.235000  0.517300  1.0  -0.1117
  C  C823  1  0.339400  0.190100  0.528070  1.0  -0.1179
  C  C824  1  0.323000  0.168000  0.554410  1.0  -0.1022
  C  C825  1  0.254700  0.188200  0.570390  1.0  -0.1243
  C  C826  1  0.202400  0.233200  0.559390  1.0  -0.1316
  C  C827  1  0.203000  0.361200  0.500410  1.0  -0.0502
  C  C828  1  0.287400  0.382200  0.508090  1.0  -0.1367
  C  C829  1  0.329400  0.431900  0.495200  1.0  -0.1031
  C  C830  1  0.286500  0.460700  0.474000  1.0  -0.1033
  C  C831  1  0.204100  0.441200  0.465300  1.0  -0.1003
  C  C832  1  0.162100  0.392700  0.479040  1.0  -0.1154
  C  C833  1  0.084000  0.266300  0.498180  1.0  -0.0314
  C  C834  1  0.101800  0.257700  0.469730  1.0  -0.1459
  C  C835  1  0.048900  0.220500  0.452570  1.0  -0.085
  C  C836  1  0.975800  0.191700  0.463720  1.0  -0.0966
  C  C837  1  0.956400  0.197500  0.491690  1.0  -0.0857
  C  C838  1  0.010600  0.234100  0.508700  1.0  -0.1233
  C  C839  1  0.096500  0.346300  0.542550  1.0  -0.0475
  C  C840  1  0.009000  0.362400  0.539600  1.0  -0.157
  C  C841  1  0.966800  0.400300  0.558560  1.0  -0.1019
  C  C842  1  0.013300  0.421300  0.581380  1.0  -0.0916
  C  C843  1  0.098600  0.405200  0.586070  1.0  -0.1171
  C  C844  1  0.140200  0.368800  0.566420  1.0  -0.1314
  C  C845  1  0.867400  0.256800  0.266640  1.0  -0.0122
  C  C846  1  0.779200  0.273700  0.266400  1.0  -0.1049
  C  C847  1  0.739000  0.299900  0.243200  1.0  -0.1249
  C  C848  1  0.788200  0.310500  0.219400  1.0  -0.1205
  C  C849  1  0.875000  0.294600  0.218400  1.0  -0.1084
  C  C850  1  0.912800  0.266500  0.241460  1.0  -0.1345
  C  C851  1  0.883400  0.251400  0.323840  1.0  -0.0164
  C  C852  1  0.852500  0.309100  0.327390  1.0  -0.1588
  C  C853  1  0.839200  0.334600  0.353740  1.0  -0.1056
  C  C854  1  0.855700  0.303100  0.377780  1.0  -0.1257
  C  C855  1  0.883900  0.245400  0.375610  1.0  -0.1003
  C  C856  1  0.899300  0.221900  0.348970  1.0  -0.1379
  C  C857  1  0.864000  0.151900  0.290600  1.0  -0.0691
  C  C858  1  0.791500  0.131000  0.306300  1.0  -0.0845
  C  C859  1  0.751500  0.074300  0.302000  1.0  -0.1001
  C  C860  1  0.785500  0.037100  0.282100  1.0  -0.103
  C  C861  1  0.856600  0.055400  0.266000  1.0  -0.1228
  C  C862  1  0.894700  0.112500  0.270400  1.0  -0.0956
  C  C863  1  0.015600  0.221600  0.293400  1.0  -0.0282
  C  C864  1  0.067200  0.173000  0.299900  1.0  -0.1155
  C  C865  1  0.159400  0.177200  0.302300  1.0  -0.1152
  C  C866  1  0.202700  0.231200  0.297800  1.0  -0.1168
  C  C867  1  0.155300  0.280700  0.291200  1.0  -0.0874
  C  C868  1  0.063400  0.275300  0.289200  1.0  -0.1401
  C  C869  1  0.016000  0.319500  0.995380  1.0  -0.0479
  C  C870  1  0.929500  0.299500  0.001200  1.0  -0.1152
  C  C871  1  0.887900  0.251000  0.987500  1.0  -0.0847
  C  C872  1  0.933300  0.221100  0.967100  1.0  -0.0689
  C  C873  1  0.019000  0.238000  0.960700  1.0  -0.0981
  C  C874  1  0.059300  0.286600  0.974800  1.0  -0.1129
  C  C875  1  0.005300  0.420900  0.027750  1.0  -0.0345
  C  C876  1  0.937400  0.446800  0.012670  1.0  -0.1371
  C  C877  1  0.886700  0.492500  0.023410  1.0  -0.0947
  C  C878  1  0.907500  0.516000  0.049360  1.0  -0.1334
  C  C879  1  0.974800  0.493000  0.065010  1.0  -0.1136
  C  C880  1  0.023500  0.446700  0.053920  1.0  -0.1428
  C  C881  1  0.123700  0.335300  0.038010  1.0  -0.0219
  C  C882  1  0.078200  0.310300  0.061090  1.0  -0.1391
  C  C883  1  0.119100  0.274600  0.081000  1.0  -0.0929
  C  C884  1  0.207600  0.263700  0.078700  1.0  -0.1313
  C  C885  1  0.254800  0.285600  0.056100  1.0  -0.0952
  C  C886  1  0.212300  0.320500  0.036150  1.0  -0.1667
  C  C887  1  0.136000  0.412500  0.993140  1.0  -0.0109
  C  C888  1  0.207400  0.447100  0.003470  1.0  -0.1433
  C  C889  1  0.258700  0.485000  0.986040  1.0  -0.1047
  C  C890  1  0.237000  0.491200  0.958300  1.0  -0.0952
  C  C891  1  0.166500  0.459000  0.947020  1.0  -0.1056
  C  C892  1  0.116800  0.421300  0.964850  1.0  -0.1541
  C  C893  1  0.489900  0.712200  0.964180  1.0  -0.0247
  C  C894  1  0.418800  0.678700  0.975350  1.0  -0.1203
  C  C895  1  0.367200  0.637800  0.959580  1.0  -0.1272
  C  C896  1  0.387400  0.629800  0.931780  1.0  -0.1052
  C  C897  1  0.458400  0.659900  0.919790  1.0  -0.124
  C  C898  1  0.508900  0.700600  0.936000  1.0  -0.1566
  C  C899  1  0.501000  0.798200  0.006500  1.0  -0.0464
  C  C900  1  0.409700  0.805300  0.007700  1.0  -0.1295
  C  C901  1  0.369400  0.842900  0.027100  1.0  -0.1053
  C  C902  1  0.421700  0.876300  0.045300  1.0  -0.0878
  C  C903  1  0.512100  0.872700  0.044400  1.0  -0.09
  C  C904  1  0.550400  0.833900  0.025200  1.0  -0.1052
  C  C905  1  0.622000  0.711000  0.000210  1.0  -0.0919
  C  C906  1  0.622700  0.701300  0.029100  1.0  -0.0855
  C  C907  1  0.677300  0.659500  0.041640  1.0  -0.1108
  C  C908  1  0.728500  0.624600  0.024960  1.0  -0.1176
  C  C909  1  0.730500  0.633000  0.996420  1.0  -0.0905
  C  C910  1  0.677400  0.675900  0.984110  1.0  -0.1268
  C  C911  1  0.608600  0.806400  0.964420  1.0  -0.0243
  C  C912  1  0.696500  0.824200  0.969100  1.0  -0.1089
  C  C913  1  0.740700  0.868700  0.953400  1.0  -0.1139
  C  C914  1  0.697100  0.895800  0.931700  1.0  -0.0985
  C  C915  1  0.611000  0.878900  0.925800  1.0  -0.1029
  C  C916  1  0.566800  0.836000  0.942500  1.0  -0.1206
  C  C917  1  0.814200  0.190400  0.824020  1.0  -0.0376
  C  C918  1  0.808500  0.159200  0.849200  1.0  -0.1002
  C  C919  1  0.859000  0.173700  0.873000  1.0  -0.1203
  C  C920  1  0.917400  0.221800  0.871900  1.0  -0.1092
  C  C921  1  0.920900  0.257400  0.848500  1.0  -0.1208
  C  C922  1  0.870700  0.241200  0.824800  1.0  -0.1141
  C  C923  1  0.771700  0.097900  0.787800  1.0  -0.0739
  C  C924  1  0.841000  0.065000  0.798500  1.0  -0.0872
  C  C925  1  0.860300  0.008400  0.788200  1.0  -0.1146
  C  C926  1  0.807600  0.982700  0.767700  1.0  -0.119
  C  C927  1  0.735200  0.011400  0.757700  1.0  -0.1268
  C  C928  1  0.719100  0.069300  0.767400  1.0  -0.0853
  C  C929  1  0.649500  0.176900  0.806300  1.0  -0.0541
  C  C930  1  0.590900  0.130500  0.814600  1.0  -0.1103
  C  C931  1  0.503500  0.139200  0.822900  1.0  -0.1151
  C  C932  1  0.470600  0.195600  0.821800  1.0  -0.1324
  C  C933  1  0.525600  0.242800  0.814400  1.0  -0.0804
  C  C934  1  0.613200  0.233600  0.806800  1.0  -0.1295
  C  C935  1  0.779000  0.208300  0.768460  1.0  -0.0123
  C  C936  1  0.716900  0.231000  0.749900  1.0  -0.0994
  C  C937  1  0.740000  0.261800  0.725300  1.0  -0.0967
  C  C938  1  0.827800  0.271700  0.718900  1.0  -0.1251
  C  C939  1  0.892000  0.249400  0.736000  1.0  -0.1062
  C  C940  1  0.867000  0.218100  0.760300  1.0  -0.113
  C  C941  1  0.332200  0.930300  0.174270  1.0  0.0104
  C  C942  1  0.303700  0.982100  0.161100  1.0  -0.1687
  C  C943  1  0.296100  0.987700  0.132000  1.0  -0.0836
  C  C944  1  0.317600  0.941100  0.114800  1.0  -0.1039
  C  C945  1  0.344500  0.888700  0.126420  1.0  -0.1084
  C  C946  1  0.352500  0.884600  0.155630  1.0  -0.1164
  C  C947  1  0.321600  0.983000  0.225300  1.0  -0.016
  C  C948  1  0.373000  0.034100  0.218500  1.0  -0.118
  C  C949  1  0.364200  0.088700  0.232500  1.0  -0.0954
  C  C950  1  0.306000  0.092600  0.254400  1.0  -0.1139
  C  C951  1  0.254400  0.044100  0.262300  1.0  -0.1196
  C  C952  1  0.266200  0.989700  0.248400  1.0  -0.0696
  C  C953  1  0.267100  0.867000  0.215900  1.0  -0.0931
  C  C954  1  0.176600  0.876700  0.216600  1.0  -0.0849
  C  C955  1  0.112500  0.832000  0.222700  1.0  -0.1173
  C  C956  1  0.138800  0.774600  0.227400  1.0  -0.1339
  C  C957  1  0.226900  0.762400  0.226300  1.0  -0.1058
  C  C958  1  0.290400  0.807800  0.220600  1.0  -0.0996
  C  C959  1  0.442000  0.903400  0.216890  1.0  -0.012
  C  C960  1  0.460500  0.882700  0.243780  1.0  -0.1234
  C  C961  1  0.545400  0.867600  0.252480  1.0  -0.1184
  C  C962  1  0.615000  0.876000  0.234170  1.0  -0.1187
  C  C963  1  0.600700  0.896000  0.207400  1.0  -0.0953
  C  C964  1  0.514700  0.908600  0.198840  1.0  -0.1298
  C  C965  1  0.260400  0.956700  0.714030  1.0  -0.0736
  C  C966  1  0.177800  0.973800  0.704300  1.0  -0.1245
  C  C967  1  0.099500  0.962200  0.719400  1.0  -0.083
  C  C968  1  0.102100  0.932200  0.744400  1.0  -0.116
  C  C969  1  0.181700  0.916000  0.755500  1.0  -0.141
  C  C970  1  0.258800  0.927400  0.739800  1.0  -0.1229
  C  C971  1  0.346700  0.985500  0.664200  1.0  -0.0232
  C  C972  1  0.292100  0.949100  0.647150  1.0  -0.1288
  C  C973  1  0.288900  0.953700  0.617970  1.0  -0.1147
  C  C974  1  0.341100  0.996800  0.604800  1.0  -0.1146
  C  C975  1  0.395100  0.034300  0.620430  1.0  -0.0926
  C  C976  1  0.396100  0.029500  0.649770  1.0  -0.1349
  C  C977  1  0.390600  0.036100  0.715100  1.0  0.0
  C  C978  1  0.360800  0.092400  0.707700  1.0  -0.1327
  C  C979  1  0.381000  0.143300  0.723900  1.0  -0.1158
  C  C980  1  0.431200  0.138600  0.747800  1.0  -0.0879
  C  C981  1  0.462700  0.084600  0.755700  1.0  -0.1241
  C  C982  1  0.441600  0.034000  0.739300  1.0  -0.1536
  C  C983  1  0.427200  0.920200  0.701500  1.0  -0.0725
  C  C984  1  0.518400  0.931800  0.699800  1.0  -0.1267
  C  C985  1  0.580100  0.886700  0.699900  1.0  -0.0923
  C  C986  1  0.550500  0.828100  0.701900  1.0  -0.0945
  C  C987  1  0.461800  0.814100  0.703100  1.0  -0.0932
  C  C988  1  0.400800  0.859800  0.703400  1.0  -0.1026
  C  C989  1  0.727600  0.382000  0.493490  1.0  -0.0704
  C  C990  1  0.819100  0.377400  0.492030  1.0  -0.119
  C  C991  1  0.861000  0.338700  0.473510  1.0  -0.119
  C  C992  1  0.810100  0.303200  0.455830  1.0  -0.0998
  C  C993  1  0.719600  0.305900  0.456230  1.0  -0.1026
  C  C994  1  0.679400  0.344800  0.475020  1.0  -0.1145
  C  C995  1  0.735100  0.472200  0.534530  1.0  -0.0423
  C  C996  1  0.803400  0.506800  0.522630  1.0  -0.101
  C  C997  1  0.854400  0.548900  0.538050  1.0  -0.1091
  C  C998  1  0.834000  0.558700  0.565840  1.0  -0.0947
  C  C999  1  0.765800  0.526800  0.578490  1.0  -0.0963
  C  C1000  1  0.717400  0.484300  0.562740  1.0  -0.1728
  C  C1001  1  0.618200  0.377700  0.536700  1.0  0.0065
  C  C1002  1  0.659700  0.349800  0.559150  1.0  -0.1306
  C  C1003  1  0.615000  0.310600  0.577540  1.0  -0.0823
  C  C1004  1  0.528000  0.294900  0.572660  1.0  -0.1192
  C  C1005  1  0.485700  0.317000  0.549470  1.0  -0.1286
  C  C1006  1  0.530500  0.358700  0.532180  1.0  -0.1426
  C  C1007  1  0.604200  0.468000  0.498350  1.0  -0.0897
  C  C1008  1  0.547600  0.504700  0.513180  1.0  -0.1301
  C  C1009  1  0.494800  0.546800  0.500180  1.0  -0.114
  C  C1010  1  0.494600  0.550200  0.471400  1.0  -0.0962
  C  C1011  1  0.547800  0.514700  0.455650  1.0  -0.0924
  C  C1012  1  0.602800  0.474300  0.469200  1.0  -0.1036
  C  C1013  1  0.217300  0.758100  0.467020  1.0  -0.0392
  C  C1014  1  0.286000  0.735000  0.482700  1.0  -0.1136
  C  C1015  1  0.339400  0.690100  0.471930  1.0  -0.1193
  C  C1016  1  0.323000  0.668000  0.445590  1.0  -0.1027
  C  C1017  1  0.254700  0.688200  0.429610  1.0  -0.126
  C  C1018  1  0.202400  0.733200  0.440610  1.0  -0.1328
  C  C1019  1  0.203000  0.861200  0.499590  1.0  -0.0502
  C  C1020  1  0.287400  0.882200  0.491910  1.0  -0.1363
  C  C1021  1  0.329400  0.931900  0.504800  1.0  -0.1031
  C  C1022  1  0.286500  0.960700  0.526000  1.0  -0.1037
  C  C1023  1  0.204100  0.941200  0.534700  1.0  -0.0996
  C  C1024  1  0.162100  0.892700  0.520960  1.0  -0.1154
  C  C1025  1  0.084000  0.766300  0.501820  1.0  -0.0315
  C  C1026  1  0.101800  0.757700  0.530270  1.0  -0.1458
  C  C1027  1  0.048900  0.720500  0.547430  1.0  -0.0844
  C  C1028  1  0.975800  0.691700  0.536280  1.0  -0.0968
  C  C1029  1  0.956400  0.697500  0.508310  1.0  -0.0847
  C  C1030  1  0.010600  0.734100  0.491300  1.0  -0.1229
  C  C1031  1  0.096500  0.846300  0.457450  1.0  -0.0481
  C  C1032  1  0.009000  0.862400  0.460400  1.0  -0.1573
  C  C1033  1  0.966800  0.900300  0.441440  1.0  -0.104
  C  C1034  1  0.013300  0.921300  0.418620  1.0  -0.0942
  C  C1035  1  0.098600  0.905200  0.413930  1.0  -0.1198
  C  C1036  1  0.140200  0.868800  0.433580  1.0  -0.1317
  C  C1037  1  0.867400  0.756800  0.733360  1.0  -0.0121
  C  C1038  1  0.779200  0.773700  0.733600  1.0  -0.1035
  C  C1039  1  0.739000  0.799900  0.756800  1.0  -0.1253
  C  C1040  1  0.788200  0.810500  0.780600  1.0  -0.1226
  C  C1041  1  0.875000  0.794600  0.781600  1.0  -0.1086
  C  C1042  1  0.912800  0.766500  0.758540  1.0  -0.136
  C  C1043  1  0.883400  0.751400  0.676160  1.0  -0.0162
  C  C1044  1  0.852500  0.809100  0.672610  1.0  -0.1595
  C  C1045  1  0.839200  0.834600  0.646260  1.0  -0.1057
  C  C1046  1  0.855700  0.803100  0.622220  1.0  -0.1254
  C  C1047  1  0.883900  0.745400  0.624390  1.0  -0.0999
  C  C1048  1  0.899300  0.721900  0.651030  1.0  -0.1388
  C  C1049  1  0.864000  0.651900  0.709400  1.0  -0.0697
  C  C1050  1  0.791500  0.631000  0.693700  1.0  -0.0836
  C  C1051  1  0.751500  0.574300  0.698000  1.0  -0.0982
  C  C1052  1  0.785500  0.537100  0.717900  1.0  -0.1026
  C  C1053  1  0.856600  0.555400  0.734000  1.0  -0.1221
  C  C1054  1  0.894700  0.612500  0.729600  1.0  -0.0952
  C  C1055  1  0.015600  0.721600  0.706600  1.0  -0.0278
  C  C1056  1  0.067200  0.673000  0.700100  1.0  -0.1154
  C  C1057  1  0.159400  0.677200  0.697700  1.0  -0.1145
  C  C1058  1  0.202700  0.731200  0.702200  1.0  -0.1175
  C  C1059  1  0.155300  0.780700  0.708800  1.0  -0.0853
  C  C1060  1  0.063400  0.775300  0.710800  1.0  -0.1411
  C  C1061  1  0.016000  0.819500  0.004620  1.0  -0.048
  C  C1062  1  0.929500  0.799500  0.998800  1.0  -0.1147
  C  C1063  1  0.887900  0.751000  0.012500  1.0  -0.0845
  C  C1064  1  0.933300  0.721100  0.032900  1.0  -0.0692
  C  C1065  1  0.019000  0.738000  0.039300  1.0  -0.0979
  C  C1066  1  0.059300  0.786600  0.025200  1.0  -0.1131
  C  C1067  1  0.005300  0.920900  0.972250  1.0  -0.0348
  C  C1068  1  0.937400  0.946800  0.987330  1.0  -0.1399
  C  C1069  1  0.886700  0.992500  0.976590  1.0  -0.0958
  C  C1070  1  0.907500  0.016000  0.950640  1.0  -0.1323
  C  C1071  1  0.974800  0.993000  0.934990  1.0  -0.1173
  C  C1072  1  0.023500  0.946700  0.946080  1.0  -0.1402
  C  C1073  1  0.123700  0.835300  0.961990  1.0  -0.0219
  C  C1074  1  0.078200  0.810300  0.938910  1.0  -0.1361
  C  C1075  1  0.119100  0.774600  0.919000  1.0  -0.094
  C  C1076  1  0.207600  0.763700  0.921300  1.0  -0.1373
  C  C1077  1  0.254800  0.785600  0.943900  1.0  -0.0985
  C  C1078  1  0.212300  0.820500  0.963850  1.0  -0.1668
  C  C1079  1  0.136000  0.912500  0.006860  1.0  -0.0115
  C  C1080  1  0.207400  0.947100  0.996530  1.0  -0.1429
  C  C1081  1  0.258700  0.985000  0.013960  1.0  -0.1037
  C  C1082  1  0.237000  0.991200  0.041700  1.0  -0.0955
  C  C1083  1  0.166500  0.959000  0.052980  1.0  -0.1051
  C  C1084  1  0.116800  0.921300  0.035150  1.0  -0.1554
  C  C1085  1  0.489900  0.212200  0.035820  1.0  -0.0249
  C  C1086  1  0.418800  0.178700  0.024650  1.0  -0.1188
  C  C1087  1  0.367200  0.137800  0.040420  1.0  -0.1263
  C  C1088  1  0.387400  0.129800  0.068220  1.0  -0.1042
  C  C1089  1  0.458400  0.159900  0.080210  1.0  -0.1166
  C  C1090  1  0.508900  0.200600  0.064000  1.0  -0.1579
  C  C1091  1  0.501000  0.298200  0.993500  1.0  -0.0464
  C  C1092  1  0.409700  0.305300  0.992300  1.0  -0.1296
  C  C1093  1  0.369400  0.342900  0.972900  1.0  -0.1048
  C  C1094  1  0.421700  0.376300  0.954700  1.0  -0.0868
  C  C1095  1  0.512100  0.372700  0.955600  1.0  -0.0897
  C  C1096  1  0.550400  0.333900  0.974800  1.0  -0.1048
  C  C1097  1  0.622000  0.211000  0.999790  1.0  -0.0912
  C  C1098  1  0.622700  0.201300  0.970900  1.0  -0.0856
  C  C1099  1  0.677300  0.159500  0.958360  1.0  -0.1103
  C  C1100  1  0.728500  0.124600  0.975040  1.0  -0.1187
  C  C1101  1  0.730500  0.133000  0.003580  1.0  -0.0906
  C  C1102  1  0.677400  0.175900  0.015890  1.0  -0.1275
  C  C1103  1  0.608600  0.306400  0.035580  1.0  -0.0236
  C  C1104  1  0.696500  0.324200  0.030900  1.0  -0.1083
  C  C1105  1  0.740700  0.368700  0.046600  1.0  -0.1131
  C  C1106  1  0.697100  0.395800  0.068300  1.0  -0.0956
  C  C1107  1  0.611000  0.378900  0.074200  1.0  -0.1001
  C  C1108  1  0.566800  0.336000  0.057500  1.0  -0.1222
  C  C1109  1  0.814200  0.690400  0.175980  1.0  -0.0379
  C  C1110  1  0.808500  0.659200  0.150800  1.0  -0.1017
  C  C1111  1  0.859000  0.673700  0.127000  1.0  -0.121
  C  C1112  1  0.917400  0.721800  0.128100  1.0  -0.1089
  C  C1113  1  0.920900  0.757400  0.151500  1.0  -0.1207
  C  C1114  1  0.870700  0.741200  0.175200  1.0  -0.114
  C  C1115  1  0.771700  0.597900  0.212200  1.0  -0.0738
  C  C1116  1  0.841000  0.565000  0.201500  1.0  -0.0868
  C  C1117  1  0.860300  0.508400  0.211800  1.0  -0.1154
  C  C1118  1  0.807600  0.482700  0.232300  1.0  -0.1195
  C  C1119  1  0.735200  0.511400  0.242300  1.0  -0.1257
  C  C1120  1  0.719100  0.569300  0.232600  1.0  -0.0856
  C  C1121  1  0.649500  0.676900  0.193700  1.0  -0.0541
  C  C1122  1  0.590900  0.630500  0.185400  1.0  -0.1101
  C  C1123  1  0.503500  0.639200  0.177100  1.0  -0.115
  C  C1124  1  0.470600  0.695600  0.178200  1.0  -0.1317
  C  C1125  1  0.525600  0.742800  0.185600  1.0  -0.0805
  C  C1126  1  0.613200  0.733600  0.193200  1.0  -0.1284
  C  C1127  1  0.779000  0.708300  0.231540  1.0  -0.0117
  C  C1128  1  0.716900  0.731000  0.250100  1.0  -0.0985
  C  C1129  1  0.740000  0.761800  0.274700  1.0  -0.0975
  C  C1130  1  0.827800  0.771700  0.281100  1.0  -0.1266
  C  C1131  1  0.892000  0.749400  0.264000  1.0  -0.1073
  C  C1132  1  0.867000  0.718100  0.239700  1.0  -0.1132
  C  C1133  1  0.332200  0.430300  0.825730  1.0  0.0117
  C  C1134  1  0.303700  0.482100  0.838900  1.0  -0.1678
  C  C1135  1  0.296100  0.487700  0.868000  1.0  -0.0838
  C  C1136  1  0.317600  0.441100  0.885200  1.0  -0.1032
  C  C1137  1  0.344500  0.388700  0.873580  1.0  -0.1085
  C  C1138  1  0.352500  0.384600  0.844370  1.0  -0.1163
  C  C1139  1  0.321600  0.483000  0.774700  1.0  -0.0158
  C  C1140  1  0.373000  0.534100  0.781500  1.0  -0.1172
  C  C1141  1  0.364200  0.588700  0.767500  1.0  -0.0964
  C  C1142  1  0.306000  0.592600  0.745600  1.0  -0.1151
  C  C1143  1  0.254400  0.544100  0.737700  1.0  -0.1199
  C  C1144  1  0.266200  0.489700  0.751600  1.0  -0.0703
  C  C1145  1  0.267100  0.367000  0.784100  1.0  -0.0914
  C  C1146  1  0.176600  0.376700  0.783400  1.0  -0.0845
  C  C1147  1  0.112500  0.332000  0.777300  1.0  -0.1167
  C  C1148  1  0.138800  0.274600  0.772600  1.0  -0.1328
  C  C1149  1  0.226900  0.262400  0.773700  1.0  -0.1074
  C  C1150  1  0.290400  0.307800  0.779400  1.0  -0.0999
  C  C1151  1  0.442000  0.403400  0.783110  1.0  -0.0122
  C  C1152  1  0.460500  0.382700  0.756220  1.0  -0.1202
  C  C1153  1  0.545400  0.367600  0.747520  1.0  -0.1246
  C  C1154  1  0.615000  0.376000  0.765830  1.0  -0.116
  C  C1155  1  0.600700  0.396000  0.792600  1.0  -0.0956
  C  C1156  1  0.514700  0.408600  0.801160  1.0  -0.1321
  C  C1157  1  0.260400  0.456700  0.285970  1.0  -0.0742
  C  C1158  1  0.177800  0.473800  0.295700  1.0  -0.1259
  C  C1159  1  0.099500  0.462200  0.280600  1.0  -0.0838
  C  C1160  1  0.102100  0.432200  0.255600  1.0  -0.1165
  C  C1161  1  0.181700  0.416000  0.244500  1.0  -0.1461
  C  C1162  1  0.258800  0.427400  0.260200  1.0  -0.1258
  C  C1163  1  0.346700  0.485500  0.335800  1.0  -0.023
  C  C1164  1  0.292100  0.449100  0.352850  1.0  -0.1284
  C  C1165  1  0.288900  0.453700  0.382030  1.0  -0.1155
  C  C1166  1  0.341100  0.496800  0.395200  1.0  -0.1148
  C  C1167  1  0.395100  0.534300  0.379570  1.0  -0.092
  C  C1168  1  0.396100  0.529500  0.350230  1.0  -0.135
  C  C1169  1  0.390600  0.536100  0.284900  1.0  1e-04
  C  C1170  1  0.360800  0.592400  0.292300  1.0  -0.1316
  C  C1171  1  0.381000  0.643300  0.276100  1.0  -0.1169
  C  C1172  1  0.431200  0.638600  0.252200  1.0  -0.088
  C  C1173  1  0.462700  0.584600  0.244300  1.0  -0.1247
  C  C1174  1  0.441600  0.534000  0.260700  1.0  -0.1523
  C  C1175  1  0.427200  0.420200  0.298500  1.0  -0.0724
  C  C1176  1  0.518400  0.431800  0.300200  1.0  -0.1275
  C  C1177  1  0.580100  0.386700  0.300100  1.0  -0.0909
  C  C1178  1  0.550500  0.328100  0.298100  1.0  -0.0956
  C  C1179  1  0.461800  0.314100  0.296900  1.0  -0.0947
  C  C1180  1  0.400800  0.359800  0.296600  1.0  -0.1045
  N  N1181  1  0.697000  0.507800  0.934620  1.0  0.298
  N  N1182  1  0.897200  0.624700  0.936840  1.0  0.3323
  N  N1183  1  0.747400  0.597000  0.801630  1.0  0.2294
  N  N1184  1  0.727000  0.430200  0.859620  1.0  0.3252
  N  N1185  1  0.976900  0.478000  0.880650  1.0  0.3019
  N  N1186  1  0.240200  0.227900  0.875480  1.0  0.3106
  N  N1187  1  0.489500  0.167100  0.897860  1.0  0.2712
  N  N1188  1  0.223200  0.630100  0.041030  1.0  0.2678
  N  N1189  1  0.405200  0.513800  0.049380  1.0  0.2738
  N  N1190  1  0.217800  0.079500  0.817620  1.0  0.308
  N  N1191  1  0.989800  0.125700  0.691230  1.0  0.2832
  N  N1192  1  0.983900  0.950500  0.627550  1.0  0.2698
  N  N1193  1  0.984900  0.050200  0.550390  1.0  0.1901
  N  N1194  1  0.713600  0.010500  0.605670  1.0  0.2811
  N  N1195  1  0.807300  0.163800  0.555330  1.0  0.3091
  N  N1196  1  0.519700  0.172300  0.439290  1.0  0.3025
  N  N1197  1  0.305200  0.055800  0.444180  1.0  0.291
  N  N1198  1  0.464900  0.747700  0.635690  1.0  0.3049
  N  N1199  1  0.232400  0.696300  0.607890  1.0  0.2991
  N  N1200  1  0.443500  0.583000  0.690140  1.0  0.2979
  N  N1201  1  0.697000  0.007800  0.065380  1.0  0.2953
  N  N1202  1  0.897200  0.124700  0.063160  1.0  0.3333
  N  N1203  1  0.747400  0.097000  0.198370  1.0  0.2283
  N  N1204  1  0.727000  0.930200  0.140380  1.0  0.3253
  N  N1205  1  0.976900  0.978000  0.119350  1.0  0.3013
  N  N1206  1  0.240200  0.727900  0.124520  1.0  0.3107
  N  N1207  1  0.489500  0.667100  0.102140  1.0  0.2705
  N  N1208  1  0.223200  0.130100  0.958970  1.0  0.2683
  N  N1209  1  0.405200  0.013800  0.950620  1.0  0.2747
  N  N1210  1  0.217800  0.579500  0.182380  1.0  0.3092
  N  N1211  1  0.989800  0.625700  0.308770  1.0  0.2828
  N  N1212  1  0.983900  0.450500  0.372450  1.0  0.2696
  N  N1213  1  0.984900  0.550200  0.449610  1.0  0.1916
  N  N1214  1  0.713600  0.510500  0.394330  1.0  0.2805
  N  N1215  1  0.807300  0.663800  0.444670  1.0  0.3109
  N  N1216  1  0.519700  0.672300  0.560710  1.0  0.302
  N  N1217  1  0.305200  0.555800  0.555820  1.0  0.2908
  N  N1218  1  0.464900  0.247700  0.364310  1.0  0.3053
  N  N1219  1  0.232400  0.196300  0.392110  1.0  0.2991
  N  N1220  1  0.443500  0.083000  0.309860  1.0  0.2978
  Cl  Cl1221  1  0.613500  0.587450  0.862930  1.0  -0.5562
  Cl  Cl1222  1  0.110300  0.107650  0.893060  1.0  -0.5286
  Cl  Cl1223  1  0.586900  0.091020  0.366770  1.0  -0.5934
  Cl  Cl1224  1  0.613500  0.087450  0.137070  1.0  -0.5559
  Cl  Cl1225  1  0.110300  0.607650  0.106940  1.0  -0.529
  Cl  Cl1226  1  0.586900  0.591020  0.633230  1.0  -0.5936
  Cl  Cl1227  1  0.056820  0.279250  0.671740  1.0  -0.5083
  Cl  Cl1228  1  0.056820  0.779250  0.328260  1.0  -0.5087
  O  O1229  1  0.761000  0.694100  0.875050  1.0  -0.6189
  O  O1230  1  0.936200  0.641600  0.861390  1.0  -0.6556
  O  O1231  1  0.410800  0.014900  0.868810  1.0  -0.6517
  O  O1232  1  0.212900  0.976300  0.890030  1.0  -0.7097
  O  O1233  1  0.969500  0.209700  0.620450  1.0  -0.6063
  O  O1234  1  0.793700  0.056300  0.659520  1.0  -0.6666
  O  O1235  1  0.068300  0.106200  0.615180  1.0  -0.629
  O  O1236  1  0.774100  0.169700  0.634820  1.0  -0.6318
  O  O1237  1  0.262800  0.034700  0.369660  1.0  -0.6685
  O  O1238  1  0.440800  0.982900  0.379520  1.0  -0.6094
  O  O1239  1  0.747300  0.504900  0.911410  1.0  -0.6733
  O  O1240  1  0.828000  0.627500  0.919040  1.0  -0.6751
  O  O1241  1  0.809300  0.599700  0.822480  1.0  -0.6692
  O  O1242  1  0.774800  0.479400  0.852160  1.0  -0.6619
  O  O1243  1  0.932800  0.529400  0.883960  1.0  -0.6601
  O  O1244  1  0.297000  0.184900  0.875030  1.0  -0.661
  O  O1245  1  0.442000  0.117600  0.903960  1.0  -0.6446
  O  O1246  1  0.277800  0.638500  0.062990  1.0  -0.6452
  O  O1247  1  0.343000  0.513300  0.069370  1.0  -0.6394
  O  O1248  1  0.264300  0.069000  0.841150  1.0  -0.6721
  O  O1249  1  0.950000  0.133800  0.666170  1.0  -0.6383
  O  O1250  1  0.933700  0.998800  0.631260  1.0  -0.6829
  O  O1251  1  0.936200  0.042800  0.573510  1.0  -0.6452
  O  O1252  1  0.759600  0.060600  0.599360  1.0  -0.6435
  O  O1253  1  0.863900  0.162700  0.576450  1.0  -0.6301
  O  O1254  1  0.467200  0.173700  0.417300  1.0  -0.681
  O  O1255  1  0.376000  0.053700  0.427630  1.0  -0.6511
  O  O1256  1  0.414300  0.698600  0.641260  1.0  -0.6355
  O  O1257  1  0.274400  0.645800  0.602240  1.0  -0.6523
  O  O1258  1  0.387200  0.578600  0.668910  1.0  -0.6532
  O  O1259  1  0.761000  0.194100  0.124950  1.0  -0.6171
  O  O1260  1  0.936200  0.141600  0.138610  1.0  -0.6558
  O  O1261  1  0.410800  0.514900  0.131190  1.0  -0.6516
  O  O1262  1  0.212900  0.476300  0.109970  1.0  -0.7121
  O  O1263  1  0.969500  0.709700  0.379550  1.0  -0.6061
  O  O1264  1  0.793700  0.556300  0.340480  1.0  -0.6665
  O  O1265  1  0.068300  0.606200  0.384820  1.0  -0.6287
  O  O1266  1  0.774100  0.669700  0.365180  1.0  -0.6321
  O  O1267  1  0.262800  0.534700  0.630340  1.0  -0.6685
  O  O1268  1  0.440800  0.482900  0.620480  1.0  -0.6109
  O  O1269  1  0.747300  0.004900  0.088590  1.0  -0.6732
  O  O1270  1  0.828000  0.127500  0.080960  1.0  -0.6744
  O  O1271  1  0.809300  0.099700  0.177520  1.0  -0.6691
  O  O1272  1  0.774800  0.979400  0.147840  1.0  -0.663
  O  O1273  1  0.932800  0.029400  0.116040  1.0  -0.6601
  O  O1274  1  0.297000  0.684900  0.124970  1.0  -0.661
  O  O1275  1  0.442000  0.617600  0.096040  1.0  -0.6445
  O  O1276  1  0.277800  0.138500  0.937010  1.0  -0.6444
  O  O1277  1  0.343000  0.013300  0.930630  1.0  -0.6388
  O  O1278  1  0.264300  0.569000  0.158850  1.0  -0.6722
  O  O1279  1  0.950000  0.633800  0.333830  1.0  -0.6397
  O  O1280  1  0.933700  0.498800  0.368740  1.0  -0.6834
  O  O1281  1  0.936200  0.542800  0.426490  1.0  -0.6431
  O  O1282  1  0.759600  0.560600  0.400640  1.0  -0.6439
  O  O1283  1  0.863900  0.662700  0.423550  1.0  -0.6289
  O  O1284  1  0.467200  0.673700  0.582700  1.0  -0.6828
  O  O1285  1  0.376000  0.553700  0.572370  1.0  -0.6517
  O  O1286  1  0.414300  0.198600  0.358740  1.0  -0.6353
  O  O1287  1  0.274400  0.145800  0.397760  1.0  -0.6521
  O  O1288  1  0.387200  0.078600  0.331090  1.0  -0.6543
