# generated using pymatgen
data_LaH9(C3O)6
_symmetry_space_group_name_H-M   'P 1'
_cell_length_a   30.76000000
_cell_length_b   30.76000000
_cell_length_c   16.10300000
_cell_angle_alpha   90.00000000
_cell_angle_beta   90.00000000
_cell_angle_gamma   90.00000000
_symmetry_Int_Tables_number   1
_chemical_formula_structural   LaH9(C3O)6
_chemical_formula_sum   'La32 H288 C576 O192'
_cell_volume   15236.29789280
_cell_formula_units_Z   32
loop_
 _symmetry_equiv_pos_site_id
 _symmetry_equiv_pos_as_xyz
  1  'x, y, z'
loop_
 _atom_site_type_symbol
 _atom_site_label
 _atom_site_symmetry_multiplicity
 _atom_site_fract_x
 _atom_site_fract_y
 _atom_site_fract_z
 _atom_site_occupancy
 _atom_site_charge
  La  La1  1  0.027170  0.730130  0.879400  1.0  2.1248
  La  La2  1  0.975720  0.735900  0.629230  1.0  2.1343
  La  La3  1  0.527170  0.230130  0.379400  1.0  2.1248
  La  La4  1  0.475720  0.235900  0.129230  1.0  2.1343
  La  La5  1  0.472830  0.769870  0.379400  1.0  2.1233
  La  La6  1  0.524280  0.764100  0.129230  1.0  2.1346
  La  La7  1  0.972830  0.269870  0.879400  1.0  2.1233
  La  La8  1  0.024280  0.264100  0.629230  1.0  2.1346
  La  La9  1  0.269870  0.527170  0.129400  1.0  2.1249
  La  La10  1  0.264100  0.475720  0.879230  1.0  2.1365
  La  La11  1  0.769870  0.027170  0.629400  1.0  2.1249
  La  La12  1  0.764100  0.975720  0.379230  1.0  2.1365
  La  La13  1  0.230130  0.972830  0.629400  1.0  2.1242
  La  La14  1  0.235900  0.024280  0.379230  1.0  2.1365
  La  La15  1  0.730130  0.472830  0.129400  1.0  2.1242
  La  La16  1  0.735900  0.524280  0.879230  1.0  2.1365
  La  La17  1  0.027170  0.269870  0.379400  1.0  2.1248
  La  La18  1  0.975720  0.264100  0.129230  1.0  2.1343
  La  La19  1  0.527170  0.769870  0.879400  1.0  2.1248
  La  La20  1  0.475720  0.764100  0.629230  1.0  2.1343
  La  La21  1  0.472830  0.230130  0.879400  1.0  2.1233
  La  La22  1  0.524280  0.235900  0.629230  1.0  2.1346
  La  La23  1  0.972830  0.730130  0.379400  1.0  2.1233
  La  La24  1  0.024280  0.735900  0.129230  1.0  2.1346
  La  La25  1  0.269870  0.472830  0.629400  1.0  2.1244
  La  La26  1  0.264100  0.524280  0.379230  1.0  2.1361
  La  La27  1  0.769870  0.972830  0.129400  1.0  2.1244
  La  La28  1  0.764100  0.024280  0.879230  1.0  2.1361
  La  La29  1  0.230130  0.027170  0.129400  1.0  2.1247
  La  La30  1  0.235900  0.975720  0.879230  1.0  2.1369
  La  La31  1  0.730130  0.527170  0.629400  1.0  2.1247
  La  La32  1  0.735900  0.475720  0.379230  1.0  2.1369
  H  H33  1  0.097300  0.612700  0.735500  1.0  0.1082
  H  H34  1  0.145700  0.560200  0.692200  1.0  0.1278
  H  H35  1  0.277800  0.603600  0.794300  1.0  0.1316
  H  H36  1  0.301200  0.661600  0.872600  1.0  0.0957
  H  H37  1  0.253200  0.713000  0.924800  1.0  0.1304
  H  H38  1  0.180800  0.711000  0.882200  1.0  0.1127
  H  H39  1  0.839400  0.658100  0.564700  1.0  0.1136
  H  H40  1  0.792600  0.603600  0.522800  1.0  0.1043
  H  H41  1  0.880700  0.508300  0.369800  1.0  0.1105
  H  H42  1  0.952200  0.504800  0.337700  1.0  0.1072
  H  H43  1  0.000300  0.559300  0.382100  1.0  0.1155
  H  H44  1  0.975000  0.615700  0.462900  1.0  0.111
  H  H45  1  0.874200  0.671100  0.861200  1.0  0.1262
  H  H46  1  0.816600  0.625100  0.825400  1.0  0.1093
  H  H47  1  0.879400  0.522100  0.647000  1.0  0.1225
  H  H48  1  0.947900  0.509700  0.604500  1.0  0.1057
  H  H49  1  0.005500  0.555200  0.637900  1.0  0.1416
  H  H50  1  0.992300  0.613100  0.724100  1.0  0.1082
  H  H51  1  0.597300  0.112700  0.235500  1.0  0.1082
  H  H52  1  0.645700  0.060200  0.192200  1.0  0.1278
  H  H53  1  0.777800  0.103600  0.294300  1.0  0.1316
  H  H54  1  0.801200  0.161600  0.372600  1.0  0.0957
  H  H55  1  0.753200  0.213000  0.424800  1.0  0.1304
  H  H56  1  0.680800  0.211000  0.382200  1.0  0.1127
  H  H57  1  0.339400  0.158100  0.064700  1.0  0.1136
  H  H58  1  0.292600  0.103600  0.022800  1.0  0.1043
  H  H59  1  0.380700  0.008300  0.869800  1.0  0.1105
  H  H60  1  0.452200  0.004800  0.837700  1.0  0.1072
  H  H61  1  0.500300  0.059300  0.882100  1.0  0.1155
  H  H62  1  0.475000  0.115700  0.962900  1.0  0.111
  H  H63  1  0.374200  0.171100  0.361200  1.0  0.1262
  H  H64  1  0.316600  0.125100  0.325400  1.0  0.1093
  H  H65  1  0.379400  0.022100  0.147000  1.0  0.1225
  H  H66  1  0.447900  0.009700  0.104500  1.0  0.1057
  H  H67  1  0.505500  0.055200  0.137900  1.0  0.1416
  H  H68  1  0.492300  0.113100  0.224100  1.0  0.1082
  H  H69  1  0.402700  0.887300  0.235500  1.0  0.1077
  H  H70  1  0.354300  0.939800  0.192200  1.0  0.1276
  H  H71  1  0.222200  0.896400  0.294300  1.0  0.1313
  H  H72  1  0.198800  0.838400  0.372600  1.0  0.0948
  H  H73  1  0.246800  0.787000  0.424800  1.0  0.1318
  H  H74  1  0.319200  0.789000  0.382200  1.0  0.1138
  H  H75  1  0.660600  0.841900  0.064700  1.0  0.1145
  H  H76  1  0.707400  0.896400  0.022800  1.0  0.1042
  H  H77  1  0.619300  0.991700  0.869800  1.0  0.1096
  H  H78  1  0.547800  0.995200  0.837700  1.0  0.1078
  H  H79  1  0.499700  0.940700  0.882100  1.0  0.1166
  H  H80  1  0.525000  0.884300  0.962900  1.0  0.1105
  H  H81  1  0.625800  0.828900  0.361200  1.0  0.1257
  H  H82  1  0.683400  0.874900  0.325400  1.0  0.1085
  H  H83  1  0.620600  0.977900  0.147000  1.0  0.1229
  H  H84  1  0.552100  0.990300  0.104500  1.0  0.1059
  H  H85  1  0.494500  0.944800  0.137900  1.0  0.1408
  H  H86  1  0.507700  0.886900  0.224100  1.0  0.1078
  H  H87  1  0.902700  0.387300  0.735500  1.0  0.1077
  H  H88  1  0.854300  0.439800  0.692200  1.0  0.1276
  H  H89  1  0.722200  0.396400  0.794300  1.0  0.1313
  H  H90  1  0.698800  0.338400  0.872600  1.0  0.0948
  H  H91  1  0.746800  0.287000  0.924800  1.0  0.1318
  H  H92  1  0.819200  0.289000  0.882200  1.0  0.1138
  H  H93  1  0.160600  0.341900  0.564700  1.0  0.1145
  H  H94  1  0.207400  0.396400  0.522800  1.0  0.1042
  H  H95  1  0.119300  0.491700  0.369800  1.0  0.1096
  H  H96  1  0.047800  0.495200  0.337700  1.0  0.1078
  H  H97  1  0.999700  0.440700  0.382100  1.0  0.1166
  H  H98  1  0.025000  0.384300  0.462900  1.0  0.1105
  H  H99  1  0.125800  0.328900  0.861200  1.0  0.1257
  H  H100  1  0.183400  0.374900  0.825400  1.0  0.1085
  H  H101  1  0.120600  0.477900  0.647000  1.0  0.1229
  H  H102  1  0.052100  0.490300  0.604500  1.0  0.1059
  H  H103  1  0.994500  0.444800  0.637900  1.0  0.1408
  H  H104  1  0.007700  0.386900  0.724100  1.0  0.1078
  H  H105  1  0.387300  0.597300  0.985500  1.0  0.1074
  H  H106  1  0.439800  0.645700  0.942200  1.0  0.1274
  H  H107  1  0.396400  0.777800  0.044300  1.0  0.131
  H  H108  1  0.338400  0.801200  0.122600  1.0  0.096
  H  H109  1  0.287000  0.753200  0.174800  1.0  0.1278
  H  H110  1  0.289000  0.680800  0.132200  1.0  0.112
  H  H111  1  0.341900  0.339400  0.814700  1.0  0.1144
  H  H112  1  0.396400  0.292600  0.772800  1.0  0.103
  H  H113  1  0.491700  0.380700  0.619800  1.0  0.1109
  H  H114  1  0.495200  0.452200  0.587700  1.0  0.107
  H  H115  1  0.440700  0.500300  0.632100  1.0  0.1135
  H  H116  1  0.384300  0.475000  0.712900  1.0  0.1115
  H  H117  1  0.328900  0.374200  0.111200  1.0  0.1262
  H  H118  1  0.374900  0.316600  0.075400  1.0  0.11
  H  H119  1  0.477900  0.379400  0.897000  1.0  0.1223
  H  H120  1  0.490300  0.447900  0.854500  1.0  0.1067
  H  H121  1  0.444800  0.505500  0.887900  1.0  0.1388
  H  H122  1  0.386900  0.492300  0.974100  1.0  0.1076
  H  H123  1  0.887300  0.097300  0.485500  1.0  0.1074
  H  H124  1  0.939800  0.145700  0.442200  1.0  0.1274
  H  H125  1  0.896400  0.277800  0.544300  1.0  0.131
  H  H126  1  0.838400  0.301200  0.622600  1.0  0.096
  H  H127  1  0.787000  0.253200  0.674800  1.0  0.1278
  H  H128  1  0.789000  0.180800  0.632200  1.0  0.112
  H  H129  1  0.841900  0.839400  0.314700  1.0  0.1144
  H  H130  1  0.896400  0.792600  0.272800  1.0  0.103
  H  H131  1  0.991700  0.880700  0.119800  1.0  0.1109
  H  H132  1  0.995200  0.952200  0.087700  1.0  0.107
  H  H133  1  0.940700  0.000300  0.132100  1.0  0.1135
  H  H134  1  0.884300  0.975000  0.212900  1.0  0.1115
  H  H135  1  0.828900  0.874200  0.611200  1.0  0.1262
  H  H136  1  0.874900  0.816600  0.575400  1.0  0.11
  H  H137  1  0.977900  0.879400  0.397000  1.0  0.1223
  H  H138  1  0.990300  0.947900  0.354500  1.0  0.1067
  H  H139  1  0.944800  0.005500  0.387900  1.0  0.1388
  H  H140  1  0.886900  0.992300  0.474100  1.0  0.1076
  H  H141  1  0.112700  0.902700  0.485500  1.0  0.1068
  H  H142  1  0.060200  0.854300  0.442200  1.0  0.1278
  H  H143  1  0.103600  0.722200  0.544300  1.0  0.1315
  H  H144  1  0.161600  0.698800  0.622600  1.0  0.0963
  H  H145  1  0.213000  0.746800  0.674800  1.0  0.1285
  H  H146  1  0.211000  0.819200  0.632200  1.0  0.1132
  H  H147  1  0.158100  0.160600  0.314700  1.0  0.1145
  H  H148  1  0.103600  0.207400  0.272800  1.0  0.1031
  H  H149  1  0.008300  0.119300  0.119800  1.0  0.1106
  H  H150  1  0.004800  0.047800  0.087700  1.0  0.1074
  H  H151  1  0.059300  0.999700  0.132100  1.0  0.1141
  H  H152  1  0.115700  0.025000  0.212900  1.0  0.1115
  H  H153  1  0.171100  0.125800  0.611200  1.0  0.1256
  H  H154  1  0.125100  0.183400  0.575400  1.0  0.1099
  H  H155  1  0.022100  0.120600  0.397000  1.0  0.1228
  H  H156  1  0.009700  0.052100  0.354500  1.0  0.1066
  H  H157  1  0.055200  0.994500  0.387900  1.0  0.1401
  H  H158  1  0.113100  0.007700  0.474100  1.0  0.1074
  H  H159  1  0.612700  0.402700  0.985500  1.0  0.1068
  H  H160  1  0.560200  0.354300  0.942200  1.0  0.1278
  H  H161  1  0.603600  0.222200  0.044300  1.0  0.1315
  H  H162  1  0.661600  0.198800  0.122600  1.0  0.0963
  H  H163  1  0.713000  0.246800  0.174800  1.0  0.1285
  H  H164  1  0.711000  0.319200  0.132200  1.0  0.1132
  H  H165  1  0.658100  0.660600  0.814700  1.0  0.1145
  H  H166  1  0.603600  0.707400  0.772800  1.0  0.1031
  H  H167  1  0.508300  0.619300  0.619800  1.0  0.1106
  H  H168  1  0.504800  0.547800  0.587700  1.0  0.1074
  H  H169  1  0.559300  0.499700  0.632100  1.0  0.1141
  H  H170  1  0.615700  0.525000  0.712900  1.0  0.1115
  H  H171  1  0.671100  0.625800  0.111200  1.0  0.1256
  H  H172  1  0.625100  0.683400  0.075400  1.0  0.1099
  H  H173  1  0.522100  0.620600  0.897000  1.0  0.1228
  H  H174  1  0.509700  0.552100  0.854500  1.0  0.1066
  H  H175  1  0.555200  0.494500  0.887900  1.0  0.1401
  H  H176  1  0.613100  0.507700  0.974100  1.0  0.1074
  H  H177  1  0.097300  0.387300  0.235500  1.0  0.1082
  H  H178  1  0.145700  0.439800  0.192200  1.0  0.1278
  H  H179  1  0.277800  0.396400  0.294300  1.0  0.1312
  H  H180  1  0.301200  0.338400  0.372600  1.0  0.0961
  H  H181  1  0.253200  0.287000  0.424800  1.0  0.1315
  H  H182  1  0.180800  0.289000  0.382200  1.0  0.1135
  H  H183  1  0.839400  0.341900  0.064700  1.0  0.1144
  H  H184  1  0.792600  0.396400  0.022800  1.0  0.1044
  H  H185  1  0.880700  0.491700  0.869800  1.0  0.11
  H  H186  1  0.952200  0.495200  0.837700  1.0  0.1075
  H  H187  1  0.000300  0.440700  0.882100  1.0  0.1155
  H  H188  1  0.975000  0.384300  0.962900  1.0  0.1114
  H  H189  1  0.874200  0.328900  0.361200  1.0  0.1261
  H  H190  1  0.816600  0.374900  0.325400  1.0  0.109
  H  H191  1  0.879400  0.477900  0.147000  1.0  0.1231
  H  H192  1  0.947900  0.490300  0.104500  1.0  0.1057
  H  H193  1  0.005500  0.444800  0.137900  1.0  0.1413
  H  H194  1  0.992300  0.386900  0.224100  1.0  0.1082
  H  H195  1  0.597300  0.887300  0.735500  1.0  0.1082
  H  H196  1  0.645700  0.939800  0.692200  1.0  0.1278
  H  H197  1  0.777800  0.896400  0.794300  1.0  0.1312
  H  H198  1  0.801200  0.838400  0.872600  1.0  0.0961
  H  H199  1  0.753200  0.787000  0.924800  1.0  0.1315
  H  H200  1  0.680800  0.789000  0.882200  1.0  0.1135
  H  H201  1  0.339400  0.841900  0.564700  1.0  0.1144
  H  H202  1  0.292600  0.896400  0.522800  1.0  0.1044
  H  H203  1  0.380700  0.991700  0.369800  1.0  0.11
  H  H204  1  0.452200  0.995200  0.337700  1.0  0.1075
  H  H205  1  0.500300  0.940700  0.382100  1.0  0.1155
  H  H206  1  0.475000  0.884300  0.462900  1.0  0.1114
  H  H207  1  0.374200  0.828900  0.861200  1.0  0.1261
  H  H208  1  0.316600  0.874900  0.825400  1.0  0.109
  H  H209  1  0.379400  0.977900  0.647000  1.0  0.1231
  H  H210  1  0.447900  0.990300  0.604500  1.0  0.1057
  H  H211  1  0.505500  0.944800  0.637900  1.0  0.1413
  H  H212  1  0.492300  0.886900  0.724100  1.0  0.1082
  H  H213  1  0.402700  0.112700  0.735500  1.0  0.1078
  H  H214  1  0.354300  0.060200  0.692200  1.0  0.1278
  H  H215  1  0.222200  0.103600  0.794300  1.0  0.1312
  H  H216  1  0.198800  0.161600  0.872600  1.0  0.0946
  H  H217  1  0.246800  0.213000  0.924800  1.0  0.1306
  H  H218  1  0.319200  0.211000  0.882200  1.0  0.1133
  H  H219  1  0.660600  0.158100  0.564700  1.0  0.1136
  H  H220  1  0.707400  0.103600  0.522800  1.0  0.104
  H  H221  1  0.619300  0.008300  0.369800  1.0  0.1102
  H  H222  1  0.547800  0.004800  0.337700  1.0  0.1074
  H  H223  1  0.499700  0.059300  0.382100  1.0  0.1168
  H  H224  1  0.525000  0.115700  0.462900  1.0  0.1103
  H  H225  1  0.625800  0.171100  0.861200  1.0  0.1258
  H  H226  1  0.683400  0.125100  0.825400  1.0  0.1089
  H  H227  1  0.620600  0.022100  0.647000  1.0  0.1224
  H  H228  1  0.552100  0.009700  0.604500  1.0  0.1058
  H  H229  1  0.494500  0.055200  0.637900  1.0  0.1412
  H  H230  1  0.507700  0.113100  0.724100  1.0  0.1083
  H  H231  1  0.902700  0.612700  0.235500  1.0  0.1078
  H  H232  1  0.854300  0.560200  0.192200  1.0  0.1278
  H  H233  1  0.722200  0.603600  0.294300  1.0  0.1312
  H  H234  1  0.698800  0.661600  0.372600  1.0  0.0946
  H  H235  1  0.746800  0.713000  0.424800  1.0  0.1306
  H  H236  1  0.819200  0.711000  0.382200  1.0  0.1133
  H  H237  1  0.160600  0.658100  0.064700  1.0  0.1136
  H  H238  1  0.207400  0.603600  0.022800  1.0  0.104
  H  H239  1  0.119300  0.508300  0.869800  1.0  0.1102
  H  H240  1  0.047800  0.504800  0.837700  1.0  0.1074
  H  H241  1  0.999700  0.559300  0.882100  1.0  0.1168
  H  H242  1  0.025000  0.615700  0.962900  1.0  0.1103
  H  H243  1  0.125800  0.671100  0.361200  1.0  0.1258
  H  H244  1  0.183400  0.625100  0.325400  1.0  0.1089
  H  H245  1  0.120600  0.522100  0.147000  1.0  0.1224
  H  H246  1  0.052100  0.509700  0.104500  1.0  0.1058
  H  H247  1  0.994500  0.555200  0.137900  1.0  0.1412
  H  H248  1  0.007700  0.613100  0.224100  1.0  0.1083
  H  H249  1  0.387300  0.402700  0.485500  1.0  0.1067
  H  H250  1  0.439800  0.354300  0.442200  1.0  0.1276
  H  H251  1  0.396400  0.222200  0.544300  1.0  0.1315
  H  H252  1  0.338400  0.198800  0.622600  1.0  0.0962
  H  H253  1  0.287000  0.246800  0.674800  1.0  0.128
  H  H254  1  0.289000  0.319200  0.632200  1.0  0.1126
  H  H255  1  0.341900  0.660600  0.314700  1.0  0.1142
  H  H256  1  0.396400  0.707400  0.272800  1.0  0.1028
  H  H257  1  0.491700  0.619300  0.119800  1.0  0.1112
  H  H258  1  0.495200  0.547800  0.087700  1.0  0.1069
  H  H259  1  0.440700  0.499700  0.132100  1.0  0.1138
  H  H260  1  0.384300  0.525000  0.212900  1.0  0.1112
  H  H261  1  0.328900  0.625800  0.611200  1.0  0.1262
  H  H262  1  0.374900  0.683400  0.575400  1.0  0.1103
  H  H263  1  0.477900  0.620600  0.397000  1.0  0.1223
  H  H264  1  0.490300  0.552100  0.354500  1.0  0.1067
  H  H265  1  0.444800  0.494500  0.387900  1.0  0.1398
  H  H266  1  0.386900  0.507700  0.474100  1.0  0.1072
  H  H267  1  0.887300  0.902700  0.985500  1.0  0.1067
  H  H268  1  0.939800  0.854300  0.942200  1.0  0.1276
  H  H269  1  0.896400  0.722200  0.044300  1.0  0.1315
  H  H270  1  0.838400  0.698800  0.122600  1.0  0.0962
  H  H271  1  0.787000  0.746800  0.174800  1.0  0.128
  H  H272  1  0.789000  0.819200  0.132200  1.0  0.1126
  H  H273  1  0.841900  0.160600  0.814700  1.0  0.1142
  H  H274  1  0.896400  0.207400  0.772800  1.0  0.1028
  H  H275  1  0.991700  0.119300  0.619800  1.0  0.1112
  H  H276  1  0.995200  0.047800  0.587700  1.0  0.1069
  H  H277  1  0.940700  0.999700  0.632100  1.0  0.1138
  H  H278  1  0.884300  0.025000  0.712900  1.0  0.1112
  H  H279  1  0.828900  0.125800  0.111200  1.0  0.1262
  H  H280  1  0.874900  0.183400  0.075400  1.0  0.1103
  H  H281  1  0.977900  0.120600  0.897000  1.0  0.1223
  H  H282  1  0.990300  0.052100  0.854500  1.0  0.1067
  H  H283  1  0.944800  0.994500  0.887900  1.0  0.1398
  H  H284  1  0.886900  0.007700  0.974100  1.0  0.1072
  H  H285  1  0.112700  0.097300  0.985500  1.0  0.1074
  H  H286  1  0.060200  0.145700  0.942200  1.0  0.1274
  H  H287  1  0.103600  0.277800  0.044300  1.0  0.1315
  H  H288  1  0.161600  0.301200  0.122600  1.0  0.096
  H  H289  1  0.213000  0.253200  0.174800  1.0  0.1283
  H  H290  1  0.211000  0.180800  0.132200  1.0  0.1133
  H  H291  1  0.158100  0.839400  0.814700  1.0  0.1146
  H  H292  1  0.103600  0.792600  0.772800  1.0  0.103
  H  H293  1  0.008300  0.880700  0.619800  1.0  0.1101
  H  H294  1  0.004800  0.952200  0.587700  1.0  0.1076
  H  H295  1  0.059300  0.000300  0.632100  1.0  0.1136
  H  H296  1  0.115700  0.975000  0.712900  1.0  0.1116
  H  H297  1  0.171100  0.874200  0.111200  1.0  0.1257
  H  H298  1  0.125100  0.816600  0.075400  1.0  0.1095
  H  H299  1  0.022100  0.879400  0.897000  1.0  0.1223
  H  H300  1  0.009700  0.947900  0.854500  1.0  0.1066
  H  H301  1  0.055200  0.005500  0.887900  1.0  0.1392
  H  H302  1  0.113100  0.992300  0.974100  1.0  0.1075
  H  H303  1  0.612700  0.597300  0.485500  1.0  0.1074
  H  H304  1  0.560200  0.645700  0.442200  1.0  0.1274
  H  H305  1  0.603600  0.777800  0.544300  1.0  0.1315
  H  H306  1  0.661600  0.801200  0.622600  1.0  0.096
  H  H307  1  0.713000  0.753200  0.674800  1.0  0.1283
  H  H308  1  0.711000  0.680800  0.632200  1.0  0.1133
  H  H309  1  0.658100  0.339400  0.314700  1.0  0.1146
  H  H310  1  0.603600  0.292600  0.272800  1.0  0.103
  H  H311  1  0.508300  0.380700  0.119800  1.0  0.1101
  H  H312  1  0.504800  0.452200  0.087700  1.0  0.1076
  H  H313  1  0.559300  0.500300  0.132100  1.0  0.1136
  H  H314  1  0.615700  0.475000  0.212900  1.0  0.1116
  H  H315  1  0.671100  0.374200  0.611200  1.0  0.1257
  H  H316  1  0.625100  0.316600  0.575400  1.0  0.1095
  H  H317  1  0.522100  0.379400  0.397000  1.0  0.1223
  H  H318  1  0.509700  0.447900  0.354500  1.0  0.1066
  H  H319  1  0.555200  0.505500  0.387900  1.0  0.1392
  H  H320  1  0.613100  0.492300  0.474100  1.0  0.1075
  C  C321  1  0.103700  0.682100  0.818500  1.0  0.6675
  C  C322  1  0.139500  0.651400  0.793500  1.0  -0.1851
  C  C323  1  0.126600  0.615700  0.748900  1.0  -0.094
  C  C324  1  0.155700  0.583700  0.723000  1.0  -0.1077
  C  C325  1  0.199100  0.586800  0.742700  1.0  -0.0953
  C  C326  1  0.228400  0.552100  0.709100  1.0  0.7045
  C  C327  1  0.214000  0.621500  0.792600  1.0  -0.0005
  C  C328  1  0.258200  0.624500  0.812500  1.0  -0.1622
  C  C329  1  0.271800  0.659200  0.859900  1.0  -0.0944
  C  C330  1  0.243400  0.691100  0.889600  1.0  -0.119
  C  C331  1  0.199800  0.689200  0.865000  1.0  -0.1506
  C  C332  1  0.184000  0.655200  0.815100  1.0  0.0498
  C  C333  1  0.920200  0.670400  0.544700  1.0  0.7105
  C  C334  1  0.894000  0.633600  0.513500  1.0  -0.101
  C  C335  1  0.850200  0.634800  0.534200  1.0  -0.1067
  C  C336  1  0.822000  0.601500  0.509900  1.0  -0.0846
  C  C337  1  0.836900  0.565700  0.467400  1.0  -0.0914
  C  C338  1  0.804800  0.530100  0.450200  1.0  0.7097
  C  C339  1  0.881500  0.563700  0.440800  1.0  0.042
  C  C340  1  0.899200  0.529800  0.389700  1.0  -0.1022
  C  C341  1  0.941900  0.527900  0.369500  1.0  -0.0984
  C  C342  1  0.971100  0.560600  0.396500  1.0  -0.1031
  C  C343  1  0.955700  0.594600  0.444300  1.0  -0.101
  C  C344  1  0.910800  0.597800  0.466000  1.0  0.0413
  C  C345  1  0.956000  0.670100  0.817900  1.0  0.7057
  C  C346  1  0.919900  0.639600  0.794800  1.0  -0.0983
  C  C347  1  0.878900  0.647700  0.825900  1.0  -0.0711
  C  C348  1  0.844100  0.619900  0.803500  1.0  -0.0379
  C  C349  1  0.849600  0.585500  0.750600  1.0  -0.1233
  C  C350  1  0.808900  0.562000  0.724100  1.0  0.6954
  C  C351  1  0.892300  0.575300  0.717100  1.0  -0.0089
  C  C352  1  0.901600  0.540600  0.664200  1.0  -0.1405
  C  C353  1  0.942600  0.533800  0.638100  1.0  -0.08
  C  C354  1  0.977800  0.560600  0.658300  1.0  -0.1758
  C  C355  1  0.969500  0.594900  0.709100  1.0  -0.0355
  C  C356  1  0.927200  0.603800  0.740000  1.0  0.0219
  C  C357  1  0.603700  0.182100  0.318500  1.0  0.6675
  C  C358  1  0.639500  0.151400  0.293500  1.0  -0.1851
  C  C359  1  0.626600  0.115700  0.248900  1.0  -0.094
  C  C360  1  0.655700  0.083700  0.223000  1.0  -0.1077
  C  C361  1  0.699100  0.086800  0.242700  1.0  -0.0953
  C  C362  1  0.728400  0.052100  0.209100  1.0  0.7045
  C  C363  1  0.714000  0.121500  0.292600  1.0  -0.0005
  C  C364  1  0.758200  0.124500  0.312500  1.0  -0.1622
  C  C365  1  0.771800  0.159200  0.359900  1.0  -0.0944
  C  C366  1  0.743400  0.191100  0.389600  1.0  -0.119
  C  C367  1  0.699800  0.189200  0.365000  1.0  -0.1506
  C  C368  1  0.684000  0.155200  0.315100  1.0  0.0498
  C  C369  1  0.420200  0.170400  0.044700  1.0  0.7105
  C  C370  1  0.394000  0.133600  0.013500  1.0  -0.101
  C  C371  1  0.350200  0.134800  0.034200  1.0  -0.1067
  C  C372  1  0.322000  0.101500  0.009900  1.0  -0.0846
  C  C373  1  0.336900  0.065700  0.967400  1.0  -0.0914
  C  C374  1  0.304800  0.030100  0.950200  1.0  0.7097
  C  C375  1  0.381500  0.063700  0.940800  1.0  0.042
  C  C376  1  0.399200  0.029800  0.889700  1.0  -0.1022
  C  C377  1  0.441900  0.027900  0.869500  1.0  -0.0984
  C  C378  1  0.471100  0.060600  0.896500  1.0  -0.1031
  C  C379  1  0.455700  0.094600  0.944300  1.0  -0.101
  C  C380  1  0.410800  0.097800  0.966000  1.0  0.0413
  C  C381  1  0.456000  0.170100  0.317900  1.0  0.7057
  C  C382  1  0.419900  0.139600  0.294800  1.0  -0.0983
  C  C383  1  0.378900  0.147700  0.325900  1.0  -0.0711
  C  C384  1  0.344100  0.119900  0.303500  1.0  -0.0379
  C  C385  1  0.349600  0.085500  0.250600  1.0  -0.1233
  C  C386  1  0.308900  0.062000  0.224100  1.0  0.6954
  C  C387  1  0.392300  0.075300  0.217100  1.0  -0.0089
  C  C388  1  0.401600  0.040600  0.164200  1.0  -0.1405
  C  C389  1  0.442600  0.033800  0.138100  1.0  -0.08
  C  C390  1  0.477800  0.060600  0.158300  1.0  -0.1758
  C  C391  1  0.469500  0.094900  0.209100  1.0  -0.0355
  C  C392  1  0.427200  0.103800  0.240000  1.0  0.0219
  C  C393  1  0.396300  0.817900  0.318500  1.0  0.67
  C  C394  1  0.360500  0.848600  0.293500  1.0  -0.1873
  C  C395  1  0.373400  0.884300  0.248900  1.0  -0.0959
  C  C396  1  0.344300  0.916300  0.223000  1.0  -0.1078
  C  C397  1  0.300900  0.913200  0.242700  1.0  -0.0955
  C  C398  1  0.271600  0.947900  0.209100  1.0  0.7044
  C  C399  1  0.286000  0.878500  0.292600  1.0  -1e-04
  C  C400  1  0.241800  0.875500  0.312500  1.0  -0.1618
  C  C401  1  0.228200  0.840800  0.359900  1.0  -0.0975
  C  C402  1  0.256600  0.808900  0.389600  1.0  -0.1208
  C  C403  1  0.300200  0.810800  0.365000  1.0  -0.1526
  C  C404  1  0.316000  0.844800  0.315100  1.0  0.05
  C  C405  1  0.579800  0.829600  0.044700  1.0  0.711
  C  C406  1  0.606000  0.866400  0.013500  1.0  -0.1012
  C  C407  1  0.649800  0.865200  0.034200  1.0  -0.1071
  C  C408  1  0.678000  0.898500  0.009900  1.0  -0.0851
  C  C409  1  0.663100  0.934300  0.967400  1.0  -0.0928
  C  C410  1  0.695200  0.969900  0.950200  1.0  0.7102
  C  C411  1  0.618500  0.936300  0.940800  1.0  0.042
  C  C412  1  0.600800  0.970200  0.889700  1.0  -0.1006
  C  C413  1  0.558100  0.972100  0.869500  1.0  -0.0973
  C  C414  1  0.528900  0.939400  0.896500  1.0  -0.1045
  C  C415  1  0.544300  0.905400  0.944300  1.0  -0.0996
  C  C416  1  0.589200  0.902200  0.966000  1.0  0.0418
  C  C417  1  0.544000  0.829900  0.317900  1.0  0.7049
  C  C418  1  0.580100  0.860400  0.294800  1.0  -0.098
  C  C419  1  0.621100  0.852300  0.325900  1.0  -0.0701
  C  C420  1  0.655900  0.880100  0.303500  1.0  -0.0377
  C  C421  1  0.650400  0.914500  0.250600  1.0  -0.1239
  C  C422  1  0.691100  0.938000  0.224100  1.0  0.6981
  C  C423  1  0.607700  0.924700  0.217100  1.0  -0.0091
  C  C424  1  0.598400  0.959400  0.164200  1.0  -0.1419
  C  C425  1  0.557400  0.966200  0.138100  1.0  -0.0781
  C  C426  1  0.522200  0.939400  0.158300  1.0  -0.1756
  C  C427  1  0.530500  0.905100  0.209100  1.0  -0.0353
  C  C428  1  0.572800  0.896200  0.240000  1.0  0.0218
  C  C429  1  0.896300  0.317900  0.818500  1.0  0.67
  C  C430  1  0.860500  0.348600  0.793500  1.0  -0.1873
  C  C431  1  0.873400  0.384300  0.748900  1.0  -0.0959
  C  C432  1  0.844300  0.416300  0.723000  1.0  -0.1078
  C  C433  1  0.800900  0.413200  0.742700  1.0  -0.0955
  C  C434  1  0.771600  0.447900  0.709100  1.0  0.7044
  C  C435  1  0.786000  0.378500  0.792600  1.0  -1e-04
  C  C436  1  0.741800  0.375500  0.812500  1.0  -0.1618
  C  C437  1  0.728200  0.340800  0.859900  1.0  -0.0975
  C  C438  1  0.756600  0.308900  0.889600  1.0  -0.1208
  C  C439  1  0.800200  0.310800  0.865000  1.0  -0.1526
  C  C440  1  0.816000  0.344800  0.815100  1.0  0.05
  C  C441  1  0.079800  0.329600  0.544700  1.0  0.711
  C  C442  1  0.106000  0.366400  0.513500  1.0  -0.1012
  C  C443  1  0.149800  0.365200  0.534200  1.0  -0.1071
  C  C444  1  0.178000  0.398500  0.509900  1.0  -0.0851
  C  C445  1  0.163100  0.434300  0.467400  1.0  -0.0928
  C  C446  1  0.195200  0.469900  0.450200  1.0  0.7102
  C  C447  1  0.118500  0.436300  0.440800  1.0  0.042
  C  C448  1  0.100800  0.470200  0.389700  1.0  -0.1006
  C  C449  1  0.058100  0.472100  0.369500  1.0  -0.0973
  C  C450  1  0.028900  0.439400  0.396500  1.0  -0.1045
  C  C451  1  0.044300  0.405400  0.444300  1.0  -0.0996
  C  C452  1  0.089200  0.402200  0.466000  1.0  0.0418
  C  C453  1  0.044000  0.329900  0.817900  1.0  0.7049
  C  C454  1  0.080100  0.360400  0.794800  1.0  -0.098
  C  C455  1  0.121100  0.352300  0.825900  1.0  -0.0701
  C  C456  1  0.155900  0.380100  0.803500  1.0  -0.0377
  C  C457  1  0.150400  0.414500  0.750600  1.0  -0.1239
  C  C458  1  0.191100  0.438000  0.724100  1.0  0.6981
  C  C459  1  0.107700  0.424700  0.717100  1.0  -0.0091
  C  C460  1  0.098400  0.459400  0.664200  1.0  -0.1419
  C  C461  1  0.057400  0.466200  0.638100  1.0  -0.0781
  C  C462  1  0.022200  0.439400  0.658300  1.0  -0.1756
  C  C463  1  0.030500  0.405100  0.709100  1.0  -0.0353
  C  C464  1  0.072800  0.396200  0.740000  1.0  0.0218
  C  C465  1  0.317900  0.603700  0.068500  1.0  0.6715
  C  C466  1  0.348600  0.639500  0.043500  1.0  -0.1878
  C  C467  1  0.384300  0.626600  0.998900  1.0  -0.0943
  C  C468  1  0.416300  0.655700  0.973000  1.0  -0.111
  C  C469  1  0.413200  0.699100  0.992700  1.0  -0.0946
  C  C470  1  0.447900  0.728400  0.959100  1.0  0.7034
  C  C471  1  0.378500  0.714000  0.042600  1.0  -0.0004
  C  C472  1  0.375500  0.758200  0.062500  1.0  -0.1635
  C  C473  1  0.340800  0.771800  0.109900  1.0  -0.0945
  C  C474  1  0.308900  0.743400  0.139600  1.0  -0.1216
  C  C475  1  0.310800  0.699800  0.115000  1.0  -0.1472
  C  C476  1  0.344800  0.684000  0.065100  1.0  0.0492
  C  C477  1  0.329600  0.420200  0.794700  1.0  0.7077
  C  C478  1  0.366400  0.394000  0.763500  1.0  -0.0978
  C  C479  1  0.365200  0.350200  0.784200  1.0  -0.1059
  C  C480  1  0.398500  0.322000  0.759900  1.0  -0.0834
  C  C481  1  0.434300  0.336900  0.717400  1.0  -0.0958
  C  C482  1  0.469900  0.304800  0.700200  1.0  0.7108
  C  C483  1  0.436300  0.381500  0.690800  1.0  0.042
  C  C484  1  0.470200  0.399200  0.639700  1.0  -0.0966
  C  C485  1  0.472100  0.441900  0.619500  1.0  -0.1005
  C  C486  1  0.439400  0.471100  0.646500  1.0  -0.0978
  C  C487  1  0.405400  0.455700  0.694300  1.0  -0.104
  C  C488  1  0.402200  0.410800  0.716000  1.0  0.0419
  C  C489  1  0.329900  0.456000  0.067900  1.0  0.7054
  C  C490  1  0.360400  0.419900  0.044800  1.0  -0.0963
  C  C491  1  0.352300  0.378900  0.075900  1.0  -0.0695
  C  C492  1  0.380100  0.344100  0.053500  1.0  -0.0405
  C  C493  1  0.414500  0.349600  0.000600  1.0  -0.1231
  C  C494  1  0.438000  0.308900  0.974100  1.0  0.6979
  C  C495  1  0.424700  0.392300  0.967100  1.0  -0.008
  C  C496  1  0.459400  0.401600  0.914200  1.0  -0.1404
  C  C497  1  0.466200  0.442600  0.888100  1.0  -0.0816
  C  C498  1  0.439400  0.477800  0.908300  1.0  -0.1699
  C  C499  1  0.405100  0.469500  0.959100  1.0  -0.0374
  C  C500  1  0.396200  0.427200  0.990000  1.0  0.022
  C  C501  1  0.817900  0.103700  0.568500  1.0  0.6715
  C  C502  1  0.848600  0.139500  0.543500  1.0  -0.1878
  C  C503  1  0.884300  0.126600  0.498900  1.0  -0.0943
  C  C504  1  0.916300  0.155700  0.473000  1.0  -0.111
  C  C505  1  0.913200  0.199100  0.492700  1.0  -0.0946
  C  C506  1  0.947900  0.228400  0.459100  1.0  0.7034
  C  C507  1  0.878500  0.214000  0.542600  1.0  -0.0004
  C  C508  1  0.875500  0.258200  0.562500  1.0  -0.1635
  C  C509  1  0.840800  0.271800  0.609900  1.0  -0.0945
  C  C510  1  0.808900  0.243400  0.639600  1.0  -0.1216
  C  C511  1  0.810800  0.199800  0.615000  1.0  -0.1472
  C  C512  1  0.844800  0.184000  0.565100  1.0  0.0492
  C  C513  1  0.829600  0.920200  0.294700  1.0  0.7077
  C  C514  1  0.866400  0.894000  0.263500  1.0  -0.0978
  C  C515  1  0.865200  0.850200  0.284200  1.0  -0.1059
  C  C516  1  0.898500  0.822000  0.259900  1.0  -0.0834
  C  C517  1  0.934300  0.836900  0.217400  1.0  -0.0958
  C  C518  1  0.969900  0.804800  0.200200  1.0  0.7108
  C  C519  1  0.936300  0.881500  0.190800  1.0  0.042
  C  C520  1  0.970200  0.899200  0.139700  1.0  -0.0966
  C  C521  1  0.972100  0.941900  0.119500  1.0  -0.1005
  C  C522  1  0.939400  0.971100  0.146500  1.0  -0.0978
  C  C523  1  0.905400  0.955700  0.194300  1.0  -0.104
  C  C524  1  0.902200  0.910800  0.216000  1.0  0.0419
  C  C525  1  0.829900  0.956000  0.567900  1.0  0.7054
  C  C526  1  0.860400  0.919900  0.544800  1.0  -0.0963
  C  C527  1  0.852300  0.878900  0.575900  1.0  -0.0695
  C  C528  1  0.880100  0.844100  0.553500  1.0  -0.0405
  C  C529  1  0.914500  0.849600  0.500600  1.0  -0.1231
  C  C530  1  0.938000  0.808900  0.474100  1.0  0.6979
  C  C531  1  0.924700  0.892300  0.467100  1.0  -0.008
  C  C532  1  0.959400  0.901600  0.414200  1.0  -0.1404
  C  C533  1  0.966200  0.942600  0.388100  1.0  -0.0816
  C  C534  1  0.939400  0.977800  0.408300  1.0  -0.1699
  C  C535  1  0.905100  0.969500  0.459100  1.0  -0.0374
  C  C536  1  0.896200  0.927200  0.490000  1.0  0.022
  C  C537  1  0.182100  0.896300  0.568500  1.0  0.6705
  C  C538  1  0.151400  0.860500  0.543500  1.0  -0.1872
  C  C539  1  0.115700  0.873400  0.498900  1.0  -0.0941
  C  C540  1  0.083700  0.844300  0.473000  1.0  -0.1089
  C  C541  1  0.086800  0.800900  0.492700  1.0  -0.096
  C  C542  1  0.052100  0.771600  0.459100  1.0  0.7021
  C  C543  1  0.121500  0.786000  0.542600  1.0  -0.002
  C  C544  1  0.124500  0.741800  0.562500  1.0  -0.1649
  C  C545  1  0.159200  0.728200  0.609900  1.0  -0.0951
  C  C546  1  0.191100  0.756600  0.639600  1.0  -0.1194
  C  C547  1  0.189200  0.800200  0.615000  1.0  -0.1461
  C  C548  1  0.155200  0.816000  0.565100  1.0  0.0493
  C  C549  1  0.170400  0.079800  0.294700  1.0  0.7099
  C  C550  1  0.133600  0.106000  0.263500  1.0  -0.0985
  C  C551  1  0.134800  0.149800  0.284200  1.0  -0.1055
  C  C552  1  0.101500  0.178000  0.259900  1.0  -0.0844
  C  C553  1  0.065700  0.163100  0.217400  1.0  -0.0946
  C  C554  1  0.030100  0.195200  0.200200  1.0  0.7106
  C  C555  1  0.063700  0.118500  0.190800  1.0  0.0414
  C  C556  1  0.029800  0.100800  0.139700  1.0  -0.0958
  C  C557  1  0.027900  0.058100  0.119500  1.0  -0.0999
  C  C558  1  0.060600  0.028900  0.146500  1.0  -0.099
  C  C559  1  0.094600  0.044300  0.194300  1.0  -0.1007
  C  C560  1  0.097800  0.089200  0.216000  1.0  0.0413
  C  C561  1  0.170100  0.044000  0.567900  1.0  0.7057
  C  C562  1  0.139600  0.080100  0.544800  1.0  -0.0963
  C  C563  1  0.147700  0.121100  0.575900  1.0  -0.0708
  C  C564  1  0.119900  0.155900  0.553500  1.0  -0.0409
  C  C565  1  0.085500  0.150400  0.500600  1.0  -0.1241
  C  C566  1  0.062000  0.191100  0.474100  1.0  0.6975
  C  C567  1  0.075300  0.107700  0.467100  1.0  -0.0072
  C  C568  1  0.040600  0.098400  0.414200  1.0  -0.1388
  C  C569  1  0.033800  0.057400  0.388100  1.0  -0.0804
  C  C570  1  0.060600  0.022200  0.408300  1.0  -0.1721
  C  C571  1  0.094900  0.030500  0.459100  1.0  -0.0364
  C  C572  1  0.103800  0.072800  0.490000  1.0  0.0218
  C  C573  1  0.682100  0.396300  0.068500  1.0  0.6705
  C  C574  1  0.651400  0.360500  0.043500  1.0  -0.1872
  C  C575  1  0.615700  0.373400  0.998900  1.0  -0.0941
  C  C576  1  0.583700  0.344300  0.973000  1.0  -0.1089
  C  C577  1  0.586800  0.300900  0.992700  1.0  -0.096
  C  C578  1  0.552100  0.271600  0.959100  1.0  0.7021
  C  C579  1  0.621500  0.286000  0.042600  1.0  -0.002
  C  C580  1  0.624500  0.241800  0.062500  1.0  -0.1649
  C  C581  1  0.659200  0.228200  0.109900  1.0  -0.0951
  C  C582  1  0.691100  0.256600  0.139600  1.0  -0.1194
  C  C583  1  0.689200  0.300200  0.115000  1.0  -0.1461
  C  C584  1  0.655200  0.316000  0.065100  1.0  0.0493
  C  C585  1  0.670400  0.579800  0.794700  1.0  0.7099
  C  C586  1  0.633600  0.606000  0.763500  1.0  -0.0985
  C  C587  1  0.634800  0.649800  0.784200  1.0  -0.1055
  C  C588  1  0.601500  0.678000  0.759900  1.0  -0.0844
  C  C589  1  0.565700  0.663100  0.717400  1.0  -0.0946
  C  C590  1  0.530100  0.695200  0.700200  1.0  0.7106
  C  C591  1  0.563700  0.618500  0.690800  1.0  0.0414
  C  C592  1  0.529800  0.600800  0.639700  1.0  -0.0958
  C  C593  1  0.527900  0.558100  0.619500  1.0  -0.0999
  C  C594  1  0.560600  0.528900  0.646500  1.0  -0.099
  C  C595  1  0.594600  0.544300  0.694300  1.0  -0.1007
  C  C596  1  0.597800  0.589200  0.716000  1.0  0.0413
  C  C597  1  0.670100  0.544000  0.067900  1.0  0.7057
  C  C598  1  0.639600  0.580100  0.044800  1.0  -0.0963
  C  C599  1  0.647700  0.621100  0.075900  1.0  -0.0708
  C  C600  1  0.619900  0.655900  0.053500  1.0  -0.0409
  C  C601  1  0.585500  0.650400  0.000600  1.0  -0.1241
  C  C602  1  0.562000  0.691100  0.974100  1.0  0.6975
  C  C603  1  0.575300  0.607700  0.967100  1.0  -0.0072
  C  C604  1  0.540600  0.598400  0.914200  1.0  -0.1388
  C  C605  1  0.533800  0.557400  0.888100  1.0  -0.0804
  C  C606  1  0.560600  0.522200  0.908300  1.0  -0.1721
  C  C607  1  0.594900  0.530500  0.959100  1.0  -0.0364
  C  C608  1  0.603800  0.572800  0.990000  1.0  0.0218
  C  C609  1  0.103700  0.317900  0.318500  1.0  0.669
  C  C610  1  0.139500  0.348600  0.293500  1.0  -0.1869
  C  C611  1  0.126600  0.384300  0.248900  1.0  -0.0939
  C  C612  1  0.155700  0.416300  0.223000  1.0  -0.1077
  C  C613  1  0.199100  0.413200  0.242700  1.0  -0.0951
  C  C614  1  0.228400  0.447900  0.209100  1.0  0.7049
  C  C615  1  0.214000  0.378500  0.292600  1.0  -0.0002
  C  C616  1  0.258200  0.375500  0.312500  1.0  -0.1616
  C  C617  1  0.271800  0.340800  0.359900  1.0  -0.0943
  C  C618  1  0.243400  0.308900  0.389600  1.0  -0.121
  C  C619  1  0.199800  0.310800  0.365000  1.0  -0.1515
  C  C620  1  0.184000  0.344800  0.315100  1.0  0.0499
  C  C621  1  0.920200  0.329600  0.044700  1.0  0.7094
  C  C622  1  0.894000  0.366400  0.013500  1.0  -0.1017
  C  C623  1  0.850200  0.365200  0.034200  1.0  -0.1069
  C  C624  1  0.822000  0.398500  0.009900  1.0  -0.0845
  C  C625  1  0.836900  0.434300  0.967400  1.0  -0.0914
  C  C626  1  0.804800  0.469900  0.950200  1.0  0.7114
  C  C627  1  0.881500  0.436300  0.940800  1.0  0.0418
  C  C628  1  0.899200  0.470200  0.889700  1.0  -0.1007
  C  C629  1  0.941900  0.472100  0.869500  1.0  -0.0977
  C  C630  1  0.971100  0.439400  0.896500  1.0  -0.1031
  C  C631  1  0.955700  0.405400  0.944300  1.0  -0.1013
  C  C632  1  0.910800  0.402200  0.966000  1.0  0.0411
  C  C633  1  0.956000  0.329900  0.317900  1.0  0.7065
  C  C634  1  0.919900  0.360400  0.294800  1.0  -0.0981
  C  C635  1  0.878900  0.352300  0.325900  1.0  -0.0693
  C  C636  1  0.844100  0.380100  0.303500  1.0  -0.0378
  C  C637  1  0.849600  0.414500  0.250600  1.0  -0.123
  C  C638  1  0.808900  0.438000  0.224100  1.0  0.6949
  C  C639  1  0.892300  0.424700  0.217100  1.0  -0.0084
  C  C640  1  0.901600  0.459400  0.164200  1.0  -0.142
  C  C641  1  0.942600  0.466200  0.138100  1.0  -0.0781
  C  C642  1  0.977800  0.439400  0.158300  1.0  -0.1758
  C  C643  1  0.969500  0.405100  0.209100  1.0  -0.0357
  C  C644  1  0.927200  0.396200  0.240000  1.0  0.0214
  C  C645  1  0.603700  0.817900  0.818500  1.0  0.669
  C  C646  1  0.639500  0.848600  0.793500  1.0  -0.1869
  C  C647  1  0.626600  0.884300  0.748900  1.0  -0.0939
  C  C648  1  0.655700  0.916300  0.723000  1.0  -0.1077
  C  C649  1  0.699100  0.913200  0.742700  1.0  -0.0951
  C  C650  1  0.728400  0.947900  0.709100  1.0  0.7049
  C  C651  1  0.714000  0.878500  0.792600  1.0  -0.0002
  C  C652  1  0.758200  0.875500  0.812500  1.0  -0.1616
  C  C653  1  0.771800  0.840800  0.859900  1.0  -0.0943
  C  C654  1  0.743400  0.808900  0.889600  1.0  -0.121
  C  C655  1  0.699800  0.810800  0.865000  1.0  -0.1515
  C  C656  1  0.684000  0.844800  0.815100  1.0  0.0499
  C  C657  1  0.420200  0.829600  0.544700  1.0  0.7094
  C  C658  1  0.394000  0.866400  0.513500  1.0  -0.1017
  C  C659  1  0.350200  0.865200  0.534200  1.0  -0.1069
  C  C660  1  0.322000  0.898500  0.509900  1.0  -0.0845
  C  C661  1  0.336900  0.934300  0.467400  1.0  -0.0914
  C  C662  1  0.304800  0.969900  0.450200  1.0  0.7114
  C  C663  1  0.381500  0.936300  0.440800  1.0  0.0418
  C  C664  1  0.399200  0.970200  0.389700  1.0  -0.1007
  C  C665  1  0.441900  0.972100  0.369500  1.0  -0.0977
  C  C666  1  0.471100  0.939400  0.396500  1.0  -0.1031
  C  C667  1  0.455700  0.905400  0.444300  1.0  -0.1013
  C  C668  1  0.410800  0.902200  0.466000  1.0  0.0411
  C  C669  1  0.456000  0.829900  0.817900  1.0  0.7065
  C  C670  1  0.419900  0.860400  0.794800  1.0  -0.0981
  C  C671  1  0.378900  0.852300  0.825900  1.0  -0.0693
  C  C672  1  0.344100  0.880100  0.803500  1.0  -0.0378
  C  C673  1  0.349600  0.914500  0.750600  1.0  -0.123
  C  C674  1  0.308900  0.938000  0.724100  1.0  0.6949
  C  C675  1  0.392300  0.924700  0.717100  1.0  -0.0084
  C  C676  1  0.401600  0.959400  0.664200  1.0  -0.142
  C  C677  1  0.442600  0.966200  0.638100  1.0  -0.0781
  C  C678  1  0.477800  0.939400  0.658300  1.0  -0.1758
  C  C679  1  0.469500  0.905100  0.709100  1.0  -0.0357
  C  C680  1  0.427200  0.896200  0.740000  1.0  0.0214
  C  C681  1  0.396300  0.182100  0.818500  1.0  0.6687
  C  C682  1  0.360500  0.151400  0.793500  1.0  -0.1858
  C  C683  1  0.373400  0.115700  0.748900  1.0  -0.0963
  C  C684  1  0.344300  0.083700  0.723000  1.0  -0.1078
  C  C685  1  0.300900  0.086800  0.742700  1.0  -0.0958
  C  C686  1  0.271600  0.052100  0.709100  1.0  0.7039
  C  C687  1  0.286000  0.121500  0.792600  1.0  -0.0004
  C  C688  1  0.241800  0.124500  0.812500  1.0  -0.1613
  C  C689  1  0.228200  0.159200  0.859900  1.0  -0.097
  C  C690  1  0.256600  0.191100  0.889600  1.0  -0.1194
  C  C691  1  0.300200  0.189200  0.865000  1.0  -0.1508
  C  C692  1  0.316000  0.155200  0.815100  1.0  0.0498
  C  C693  1  0.579800  0.170400  0.544700  1.0  0.7112
  C  C694  1  0.606000  0.133600  0.513500  1.0  -0.0998
  C  C695  1  0.649800  0.134800  0.534200  1.0  -0.1066
  C  C696  1  0.678000  0.101500  0.509900  1.0  -0.0853
  C  C697  1  0.663100  0.065700  0.467400  1.0  -0.0927
  C  C698  1  0.695200  0.030100  0.450200  1.0  0.7084
  C  C699  1  0.618500  0.063700  0.440800  1.0  0.0421
  C  C700  1  0.600800  0.029800  0.389700  1.0  -0.1021
  C  C701  1  0.558100  0.027900  0.369500  1.0  -0.0982
  C  C702  1  0.528900  0.060600  0.396500  1.0  -0.1049
  C  C703  1  0.544300  0.094600  0.444300  1.0  -0.099
  C  C704  1  0.589200  0.097800  0.466000  1.0  0.042
  C  C705  1  0.544000  0.170100  0.817900  1.0  0.7031
  C  C706  1  0.580100  0.139600  0.794800  1.0  -0.0979
  C  C707  1  0.621100  0.147700  0.825900  1.0  -0.0708
  C  C708  1  0.655900  0.119900  0.803500  1.0  -0.0374
  C  C709  1  0.650400  0.085500  0.750600  1.0  -0.1238
  C  C710  1  0.691100  0.062000  0.724100  1.0  0.6982
  C  C711  1  0.607700  0.075300  0.717100  1.0  -0.0095
  C  C712  1  0.598400  0.040600  0.664200  1.0  -0.141
  C  C713  1  0.557400  0.033800  0.638100  1.0  -0.0802
  C  C714  1  0.522200  0.060600  0.658300  1.0  -0.1754
  C  C715  1  0.530500  0.094900  0.709100  1.0  -0.0349
  C  C716  1  0.572800  0.103800  0.740000  1.0  0.0221
  C  C717  1  0.896300  0.682100  0.318500  1.0  0.6687
  C  C718  1  0.860500  0.651400  0.293500  1.0  -0.1858
  C  C719  1  0.873400  0.615700  0.248900  1.0  -0.0963
  C  C720  1  0.844300  0.583700  0.223000  1.0  -0.1078
  C  C721  1  0.800900  0.586800  0.242700  1.0  -0.0958
  C  C722  1  0.771600  0.552100  0.209100  1.0  0.7039
  C  C723  1  0.786000  0.621500  0.292600  1.0  -0.0004
  C  C724  1  0.741800  0.624500  0.312500  1.0  -0.1613
  C  C725  1  0.728200  0.659200  0.359900  1.0  -0.097
  C  C726  1  0.756600  0.691100  0.389600  1.0  -0.1194
  C  C727  1  0.800200  0.689200  0.365000  1.0  -0.1508
  C  C728  1  0.816000  0.655200  0.315100  1.0  0.0498
  C  C729  1  0.079800  0.670400  0.044700  1.0  0.7112
  C  C730  1  0.106000  0.633600  0.013500  1.0  -0.0998
  C  C731  1  0.149800  0.634800  0.034200  1.0  -0.1066
  C  C732  1  0.178000  0.601500  0.009900  1.0  -0.0853
  C  C733  1  0.163100  0.565700  0.967400  1.0  -0.0927
  C  C734  1  0.195200  0.530100  0.950200  1.0  0.7084
  C  C735  1  0.118500  0.563700  0.940800  1.0  0.0421
  C  C736  1  0.100800  0.529800  0.889700  1.0  -0.1021
  C  C737  1  0.058100  0.527900  0.869500  1.0  -0.0982
  C  C738  1  0.028900  0.560600  0.896500  1.0  -0.1049
  C  C739  1  0.044300  0.594600  0.944300  1.0  -0.099
  C  C740  1  0.089200  0.597800  0.966000  1.0  0.042
  C  C741  1  0.044000  0.670100  0.317900  1.0  0.7031
  C  C742  1  0.080100  0.639600  0.294800  1.0  -0.0979
  C  C743  1  0.121100  0.647700  0.325900  1.0  -0.0708
  C  C744  1  0.155900  0.619900  0.303500  1.0  -0.0374
  C  C745  1  0.150400  0.585500  0.250600  1.0  -0.1238
  C  C746  1  0.191100  0.562000  0.224100  1.0  0.6982
  C  C747  1  0.107700  0.575300  0.217100  1.0  -0.0095
  C  C748  1  0.098400  0.540600  0.164200  1.0  -0.141
  C  C749  1  0.057400  0.533800  0.138100  1.0  -0.0802
  C  C750  1  0.022200  0.560600  0.158300  1.0  -0.1754
  C  C751  1  0.030500  0.594900  0.209100  1.0  -0.0349
  C  C752  1  0.072800  0.603800  0.240000  1.0  0.0221
  C  C753  1  0.317900  0.396300  0.568500  1.0  0.6709
  C  C754  1  0.348600  0.360500  0.543500  1.0  -0.1867
  C  C755  1  0.384300  0.373400  0.498900  1.0  -0.0935
  C  C756  1  0.416300  0.344300  0.473000  1.0  -0.1108
  C  C757  1  0.413200  0.300900  0.492700  1.0  -0.0956
  C  C758  1  0.447900  0.271600  0.459100  1.0  0.7031
  C  C759  1  0.378500  0.286000  0.542600  1.0  -0.001
  C  C760  1  0.375500  0.241800  0.562500  1.0  -0.164
  C  C761  1  0.340800  0.228200  0.609900  1.0  -0.0954
  C  C762  1  0.308900  0.256600  0.639600  1.0  -0.1214
  C  C763  1  0.310800  0.300200  0.615000  1.0  -0.1468
  C  C764  1  0.344800  0.316000  0.565100  1.0  0.0496
  C  C765  1  0.329600  0.579800  0.294700  1.0  0.7081
  C  C766  1  0.366400  0.606000  0.263500  1.0  -0.0979
  C  C767  1  0.365200  0.649800  0.284200  1.0  -0.1055
  C  C768  1  0.398500  0.678000  0.259900  1.0  -0.0841
  C  C769  1  0.434300  0.663100  0.217400  1.0  -0.0959
  C  C770  1  0.469900  0.695200  0.200200  1.0  0.7099
  C  C771  1  0.436300  0.618500  0.190800  1.0  0.0416
  C  C772  1  0.470200  0.600800  0.139700  1.0  -0.0963
  C  C773  1  0.472100  0.558100  0.119500  1.0  -0.1004
  C  C774  1  0.439400  0.528900  0.146500  1.0  -0.0984
  C  C775  1  0.405400  0.544300  0.194300  1.0  -0.0999
  C  C776  1  0.402200  0.589200  0.216000  1.0  0.0419
  C  C777  1  0.329900  0.544000  0.567900  1.0  0.7055
  C  C778  1  0.360400  0.580100  0.544800  1.0  -0.0967
  C  C779  1  0.352300  0.621100  0.575900  1.0  -0.0703
  C  C780  1  0.380100  0.655900  0.553500  1.0  -0.0411
  C  C781  1  0.414500  0.650400  0.500600  1.0  -0.1236
  C  C782  1  0.438000  0.691100  0.474100  1.0  0.6973
  C  C783  1  0.424700  0.607700  0.467100  1.0  -0.0072
  C  C784  1  0.459400  0.598400  0.414200  1.0  -0.14
  C  C785  1  0.466200  0.557400  0.388100  1.0  -0.0817
  C  C786  1  0.439400  0.522200  0.408300  1.0  -0.1722
  C  C787  1  0.405100  0.530500  0.459100  1.0  -0.0361
  C  C788  1  0.396200  0.572800  0.490000  1.0  0.022
  C  C789  1  0.817900  0.896300  0.068500  1.0  0.6709
  C  C790  1  0.848600  0.860500  0.043500  1.0  -0.1867
  C  C791  1  0.884300  0.873400  0.998900  1.0  -0.0935
  C  C792  1  0.916300  0.844300  0.973000  1.0  -0.1108
  C  C793  1  0.913200  0.800900  0.992700  1.0  -0.0956
  C  C794  1  0.947900  0.771600  0.959100  1.0  0.7031
  C  C795  1  0.878500  0.786000  0.042600  1.0  -0.001
  C  C796  1  0.875500  0.741800  0.062500  1.0  -0.164
  C  C797  1  0.840800  0.728200  0.109900  1.0  -0.0954
  C  C798  1  0.808900  0.756600  0.139600  1.0  -0.1214
  C  C799  1  0.810800  0.800200  0.115000  1.0  -0.1468
  C  C800  1  0.844800  0.816000  0.065100  1.0  0.0496
  C  C801  1  0.829600  0.079800  0.794700  1.0  0.7081
  C  C802  1  0.866400  0.106000  0.763500  1.0  -0.0979
  C  C803  1  0.865200  0.149800  0.784200  1.0  -0.1055
  C  C804  1  0.898500  0.178000  0.759900  1.0  -0.0841
  C  C805  1  0.934300  0.163100  0.717400  1.0  -0.0959
  C  C806  1  0.969900  0.195200  0.700200  1.0  0.7099
  C  C807  1  0.936300  0.118500  0.690800  1.0  0.0416
  C  C808  1  0.970200  0.100800  0.639700  1.0  -0.0963
  C  C809  1  0.972100  0.058100  0.619500  1.0  -0.1004
  C  C810  1  0.939400  0.028900  0.646500  1.0  -0.0984
  C  C811  1  0.905400  0.044300  0.694300  1.0  -0.0999
  C  C812  1  0.902200  0.089200  0.716000  1.0  0.0419
  C  C813  1  0.829900  0.044000  0.067900  1.0  0.7055
  C  C814  1  0.860400  0.080100  0.044800  1.0  -0.0967
  C  C815  1  0.852300  0.121100  0.075900  1.0  -0.0703
  C  C816  1  0.880100  0.155900  0.053500  1.0  -0.0411
  C  C817  1  0.914500  0.150400  0.000600  1.0  -0.1236
  C  C818  1  0.938000  0.191100  0.974100  1.0  0.6973
  C  C819  1  0.924700  0.107700  0.967100  1.0  -0.0072
  C  C820  1  0.959400  0.098400  0.914200  1.0  -0.14
  C  C821  1  0.966200  0.057400  0.888100  1.0  -0.0817
  C  C822  1  0.939400  0.022200  0.908300  1.0  -0.1722
  C  C823  1  0.905100  0.030500  0.959100  1.0  -0.0361
  C  C824  1  0.896200  0.072800  0.990000  1.0  0.022
  C  C825  1  0.182100  0.103700  0.068500  1.0  0.6707
  C  C826  1  0.151400  0.139500  0.043500  1.0  -0.1876
  C  C827  1  0.115700  0.126600  0.998900  1.0  -0.0948
  C  C828  1  0.083700  0.155700  0.973000  1.0  -0.109
  C  C829  1  0.086800  0.199100  0.992700  1.0  -0.0948
  C  C830  1  0.052100  0.228400  0.959100  1.0  0.7018
  C  C831  1  0.121500  0.214000  0.042600  1.0  -0.0009
  C  C832  1  0.124500  0.258200  0.062500  1.0  -0.1644
  C  C833  1  0.159200  0.271800  0.109900  1.0  -0.0951
  C  C834  1  0.191100  0.243400  0.139600  1.0  -0.1197
  C  C835  1  0.189200  0.199800  0.115000  1.0  -0.1462
  C  C836  1  0.155200  0.184000  0.065100  1.0  0.0491
  C  C837  1  0.170400  0.920200  0.794700  1.0  0.71
  C  C838  1  0.133600  0.894000  0.763500  1.0  -0.0986
  C  C839  1  0.134800  0.850200  0.784200  1.0  -0.106
  C  C840  1  0.101500  0.822000  0.759900  1.0  -0.0838
  C  C841  1  0.065700  0.836900  0.717400  1.0  -0.095
  C  C842  1  0.030100  0.804800  0.700200  1.0  0.711
  C  C843  1  0.063700  0.881500  0.690800  1.0  0.0419
  C  C844  1  0.029800  0.899200  0.639700  1.0  -0.0964
  C  C845  1  0.027900  0.941900  0.619500  1.0  -0.1
  C  C846  1  0.060600  0.971100  0.646500  1.0  -0.0983
  C  C847  1  0.094600  0.955700  0.694300  1.0  -0.1041
  C  C848  1  0.097800  0.910800  0.716000  1.0  0.0413
  C  C849  1  0.170100  0.956000  0.067900  1.0  0.7062
  C  C850  1  0.139600  0.919900  0.044800  1.0  -0.0963
  C  C851  1  0.147700  0.878900  0.075900  1.0  -0.0704
  C  C852  1  0.119900  0.844100  0.053500  1.0  -0.0405
  C  C853  1  0.085500  0.849600  0.000600  1.0  -0.125
  C  C854  1  0.062000  0.808900  0.974100  1.0  0.6984
  C  C855  1  0.075300  0.892300  0.967100  1.0  -0.0078
  C  C856  1  0.040600  0.901600  0.914200  1.0  -0.139
  C  C857  1  0.033800  0.942600  0.888100  1.0  -0.0802
  C  C858  1  0.060600  0.977800  0.908300  1.0  -0.1695
  C  C859  1  0.094900  0.969500  0.959100  1.0  -0.0382
  C  C860  1  0.103800  0.927200  0.990000  1.0  0.0218
  C  C861  1  0.682100  0.603700  0.568500  1.0  0.6707
  C  C862  1  0.651400  0.639500  0.543500  1.0  -0.1876
  C  C863  1  0.615700  0.626600  0.498900  1.0  -0.0948
  C  C864  1  0.583700  0.655700  0.473000  1.0  -0.109
  C  C865  1  0.586800  0.699100  0.492700  1.0  -0.0948
  C  C866  1  0.552100  0.728400  0.459100  1.0  0.7018
  C  C867  1  0.621500  0.714000  0.542600  1.0  -0.0009
  C  C868  1  0.624500  0.758200  0.562500  1.0  -0.1644
  C  C869  1  0.659200  0.771800  0.609900  1.0  -0.0951
  C  C870  1  0.691100  0.743400  0.639600  1.0  -0.1197
  C  C871  1  0.689200  0.699800  0.615000  1.0  -0.1462
  C  C872  1  0.655200  0.684000  0.565100  1.0  0.0491
  C  C873  1  0.670400  0.420200  0.294700  1.0  0.71
  C  C874  1  0.633600  0.394000  0.263500  1.0  -0.0986
  C  C875  1  0.634800  0.350200  0.284200  1.0  -0.106
  C  C876  1  0.601500  0.322000  0.259900  1.0  -0.0838
  C  C877  1  0.565700  0.336900  0.217400  1.0  -0.095
  C  C878  1  0.530100  0.304800  0.200200  1.0  0.711
  C  C879  1  0.563700  0.381500  0.190800  1.0  0.0419
  C  C880  1  0.529800  0.399200  0.139700  1.0  -0.0964
  C  C881  1  0.527900  0.441900  0.119500  1.0  -0.1
  C  C882  1  0.560600  0.471100  0.146500  1.0  -0.0983
  C  C883  1  0.594600  0.455700  0.194300  1.0  -0.1041
  C  C884  1  0.597800  0.410800  0.216000  1.0  0.0413
  C  C885  1  0.670100  0.456000  0.567900  1.0  0.7062
  C  C886  1  0.639600  0.419900  0.544800  1.0  -0.0963
  C  C887  1  0.647700  0.378900  0.575900  1.0  -0.0704
  C  C888  1  0.619900  0.344100  0.553500  1.0  -0.0405
  C  C889  1  0.585500  0.349600  0.500600  1.0  -0.125
  C  C890  1  0.562000  0.308900  0.474100  1.0  0.6984
  C  C891  1  0.575300  0.392300  0.467100  1.0  -0.0078
  C  C892  1  0.540600  0.401600  0.414200  1.0  -0.139
  C  C893  1  0.533800  0.442600  0.388100  1.0  -0.0802
  C  C894  1  0.560600  0.477800  0.408300  1.0  -0.1695
  C  C895  1  0.594900  0.469500  0.459100  1.0  -0.0382
  C  C896  1  0.603800  0.427200  0.490000  1.0  0.0218
  O  O897  1  0.065450  0.674250  0.792400  1.0  -0.6092
  O  O898  1  0.110280  0.715010  0.864200  1.0  -0.6072
  O  O899  1  0.249590  0.527340  0.757200  1.0  -0.804
  O  O900  1  0.230970  0.547300  0.630400  1.0  -0.6686
  O  O901  1  0.954010  0.683800  0.504300  1.0  -0.7187
  O  O902  1  0.909260  0.689080  0.609500  1.0  -0.6057
  O  O903  1  0.768660  0.530220  0.488500  1.0  -0.7356
  O  O904  1  0.812050  0.502170  0.395400  1.0  -0.6036
  O  O905  1  0.972530  0.695110  0.766000  1.0  -0.7966
  O  O906  1  0.968120  0.670080  0.892600  1.0  -0.6621
  O  O907  1  0.809390  0.540500  0.658000  1.0  -0.5938
  O  O908  1  0.775330  0.564700  0.766900  1.0  -0.7187
  O  O909  1  0.565450  0.174250  0.292400  1.0  -0.6092
  O  O910  1  0.610280  0.215010  0.364200  1.0  -0.6072
  O  O911  1  0.749590  0.027340  0.257200  1.0  -0.804
  O  O912  1  0.730970  0.047300  0.130400  1.0  -0.6686
  O  O913  1  0.454010  0.183800  0.004300  1.0  -0.7187
  O  O914  1  0.409260  0.189080  0.109500  1.0  -0.6057
  O  O915  1  0.268660  0.030220  0.988500  1.0  -0.7356
  O  O916  1  0.312050  0.002170  0.895400  1.0  -0.6036
  O  O917  1  0.472530  0.195110  0.266000  1.0  -0.7966
  O  O918  1  0.468120  0.170080  0.392600  1.0  -0.6621
  O  O919  1  0.309390  0.040500  0.158000  1.0  -0.5938
  O  O920  1  0.275330  0.064700  0.266900  1.0  -0.7187
  O  O921  1  0.434550  0.825750  0.292400  1.0  -0.6094
  O  O922  1  0.389720  0.784990  0.364200  1.0  -0.605
  O  O923  1  0.250410  0.972660  0.257200  1.0  -0.8051
  O  O924  1  0.269030  0.952700  0.130400  1.0  -0.6684
  O  O925  1  0.545990  0.816200  0.004300  1.0  -0.7196
  O  O926  1  0.590740  0.810920  0.109500  1.0  -0.6043
  O  O927  1  0.731340  0.969780  0.988500  1.0  -0.7343
  O  O928  1  0.687950  0.997830  0.895400  1.0  -0.6024
  O  O929  1  0.527470  0.804890  0.266000  1.0  -0.7978
  O  O930  1  0.531880  0.829920  0.392600  1.0  -0.6621
  O  O931  1  0.690610  0.959500  0.158000  1.0  -0.5934
  O  O932  1  0.724670  0.935300  0.266900  1.0  -0.7175
  O  O933  1  0.934550  0.325750  0.792400  1.0  -0.6094
  O  O934  1  0.889720  0.284990  0.864200  1.0  -0.605
  O  O935  1  0.750410  0.472660  0.757200  1.0  -0.8051
  O  O936  1  0.769030  0.452700  0.630400  1.0  -0.6684
  O  O937  1  0.045990  0.316200  0.504300  1.0  -0.7196
  O  O938  1  0.090740  0.310920  0.609500  1.0  -0.6043
  O  O939  1  0.231340  0.469780  0.488500  1.0  -0.7343
  O  O940  1  0.187950  0.497830  0.395400  1.0  -0.6024
  O  O941  1  0.027470  0.304890  0.766000  1.0  -0.7978
  O  O942  1  0.031880  0.329920  0.892600  1.0  -0.6621
  O  O943  1  0.190610  0.459500  0.658000  1.0  -0.5934
  O  O944  1  0.224670  0.435300  0.766900  1.0  -0.7175
  O  O945  1  0.325750  0.565450  0.042400  1.0  -0.61
  O  O946  1  0.284990  0.610280  0.114200  1.0  -0.6085
  O  O947  1  0.472660  0.749590  0.007200  1.0  -0.8058
  O  O948  1  0.452700  0.730970  0.880400  1.0  -0.6708
  O  O949  1  0.316200  0.454010  0.754300  1.0  -0.7203
  O  O950  1  0.310920  0.409260  0.859500  1.0  -0.6035
  O  O951  1  0.469780  0.268660  0.738500  1.0  -0.7344
  O  O952  1  0.497830  0.312050  0.645400  1.0  -0.6026
  O  O953  1  0.304890  0.472530  0.016000  1.0  -0.7931
  O  O954  1  0.329920  0.468120  0.142600  1.0  -0.6607
  O  O955  1  0.459500  0.309390  0.908000  1.0  -0.5929
  O  O956  1  0.435300  0.275330  0.016900  1.0  -0.7192
  O  O957  1  0.825750  0.065450  0.542400  1.0  -0.61
  O  O958  1  0.784990  0.110280  0.614200  1.0  -0.6085
  O  O959  1  0.972660  0.249590  0.507200  1.0  -0.8058
  O  O960  1  0.952700  0.230970  0.380400  1.0  -0.6708
  O  O961  1  0.816200  0.954010  0.254300  1.0  -0.7203
  O  O962  1  0.810920  0.909260  0.359500  1.0  -0.6035
  O  O963  1  0.969780  0.768660  0.238500  1.0  -0.7344
  O  O964  1  0.997830  0.812050  0.145400  1.0  -0.6026
  O  O965  1  0.804890  0.972530  0.516000  1.0  -0.7931
  O  O966  1  0.829920  0.968120  0.642600  1.0  -0.6607
  O  O967  1  0.959500  0.809390  0.408000  1.0  -0.5929
  O  O968  1  0.935300  0.775330  0.516900  1.0  -0.7192
  O  O969  1  0.174250  0.934550  0.542400  1.0  -0.6094
  O  O970  1  0.215010  0.889720  0.614200  1.0  -0.6095
  O  O971  1  0.027340  0.750410  0.507200  1.0  -0.805
  O  O972  1  0.047300  0.769030  0.380400  1.0  -0.6706
  O  O973  1  0.183800  0.045990  0.254300  1.0  -0.7191
  O  O974  1  0.189080  0.090740  0.359500  1.0  -0.6062
  O  O975  1  0.030220  0.231340  0.238500  1.0  -0.736
  O  O976  1  0.002170  0.187950  0.145400  1.0  -0.6023
  O  O977  1  0.195110  0.027470  0.516000  1.0  -0.7935
  O  O978  1  0.170080  0.031880  0.642600  1.0  -0.6601
  O  O979  1  0.040500  0.190610  0.408000  1.0  -0.5926
  O  O980  1  0.064700  0.224670  0.516900  1.0  -0.7198
  O  O981  1  0.674250  0.434550  0.042400  1.0  -0.6094
  O  O982  1  0.715010  0.389720  0.114200  1.0  -0.6095
  O  O983  1  0.527340  0.250410  0.007200  1.0  -0.805
  O  O984  1  0.547300  0.269030  0.880400  1.0  -0.6706
  O  O985  1  0.683800  0.545990  0.754300  1.0  -0.7191
  O  O986  1  0.689080  0.590740  0.859500  1.0  -0.6062
  O  O987  1  0.530220  0.731340  0.738500  1.0  -0.736
  O  O988  1  0.502170  0.687950  0.645400  1.0  -0.6023
  O  O989  1  0.695110  0.527470  0.016000  1.0  -0.7935
  O  O990  1  0.670080  0.531880  0.142600  1.0  -0.6601
  O  O991  1  0.540500  0.690610  0.908000  1.0  -0.5926
  O  O992  1  0.564700  0.724670  0.016900  1.0  -0.7198
  O  O993  1  0.065450  0.325750  0.292400  1.0  -0.6091
  O  O994  1  0.110280  0.284990  0.364200  1.0  -0.6048
  O  O995  1  0.249590  0.472660  0.257200  1.0  -0.8047
  O  O996  1  0.230970  0.452700  0.130400  1.0  -0.6686
  O  O997  1  0.954010  0.316200  0.004300  1.0  -0.7191
  O  O998  1  0.909260  0.310920  0.109500  1.0  -0.6048
  O  O999  1  0.768660  0.469780  0.988500  1.0  -0.736
  O  O1000  1  0.812050  0.497830  0.895400  1.0  -0.6033
  O  O1001  1  0.972530  0.304890  0.266000  1.0  -0.7972
  O  O1002  1  0.968120  0.329920  0.392600  1.0  -0.6629
  O  O1003  1  0.809390  0.459500  0.158000  1.0  -0.5934
  O  O1004  1  0.775330  0.435300  0.266900  1.0  -0.7178
  O  O1005  1  0.565450  0.825750  0.792400  1.0  -0.6091
  O  O1006  1  0.610280  0.784990  0.864200  1.0  -0.6048
  O  O1007  1  0.749590  0.972660  0.757200  1.0  -0.8047
  O  O1008  1  0.730970  0.952700  0.630400  1.0  -0.6686
  O  O1009  1  0.454010  0.816200  0.504300  1.0  -0.7191
  O  O1010  1  0.409260  0.810920  0.609500  1.0  -0.6048
  O  O1011  1  0.268660  0.969780  0.488500  1.0  -0.736
  O  O1012  1  0.312050  0.997830  0.395400  1.0  -0.6033
  O  O1013  1  0.472530  0.804890  0.766000  1.0  -0.7972
  O  O1014  1  0.468120  0.829920  0.892600  1.0  -0.6629
  O  O1015  1  0.309390  0.959500  0.658000  1.0  -0.5934
  O  O1016  1  0.275330  0.935300  0.766900  1.0  -0.7178
  O  O1017  1  0.434550  0.174250  0.792400  1.0  -0.6094
  O  O1018  1  0.389720  0.215010  0.864200  1.0  -0.6071
  O  O1019  1  0.250410  0.027340  0.757200  1.0  -0.8044
  O  O1020  1  0.269030  0.047300  0.630400  1.0  -0.6691
  O  O1021  1  0.545990  0.183800  0.504300  1.0  -0.7193
  O  O1022  1  0.590740  0.189080  0.609500  1.0  -0.6046
  O  O1023  1  0.731340  0.030220  0.488500  1.0  -0.7347
  O  O1024  1  0.687950  0.002170  0.395400  1.0  -0.603
  O  O1025  1  0.527470  0.195110  0.766000  1.0  -0.7962
  O  O1026  1  0.531880  0.170080  0.892600  1.0  -0.6615
  O  O1027  1  0.690610  0.040500  0.658000  1.0  -0.594
  O  O1028  1  0.724670  0.064700  0.766900  1.0  -0.7189
  O  O1029  1  0.934550  0.674250  0.292400  1.0  -0.6094
  O  O1030  1  0.889720  0.715010  0.364200  1.0  -0.6071
  O  O1031  1  0.750410  0.527340  0.257200  1.0  -0.8044
  O  O1032  1  0.769030  0.547300  0.130400  1.0  -0.6691
  O  O1033  1  0.045990  0.683800  0.004300  1.0  -0.7193
  O  O1034  1  0.090740  0.689080  0.109500  1.0  -0.6046
  O  O1035  1  0.231340  0.530220  0.988500  1.0  -0.7347
  O  O1036  1  0.187950  0.502170  0.895400  1.0  -0.603
  O  O1037  1  0.027470  0.695110  0.266000  1.0  -0.7962
  O  O1038  1  0.031880  0.670080  0.392600  1.0  -0.6615
  O  O1039  1  0.190610  0.540500  0.158000  1.0  -0.594
  O  O1040  1  0.224670  0.564700  0.266900  1.0  -0.7189
  O  O1041  1  0.325750  0.434550  0.542400  1.0  -0.6095
  O  O1042  1  0.284990  0.389720  0.614200  1.0  -0.608
  O  O1043  1  0.472660  0.250410  0.507200  1.0  -0.8044
  O  O1044  1  0.452700  0.269030  0.380400  1.0  -0.6714
  O  O1045  1  0.316200  0.545990  0.254300  1.0  -0.7193
  O  O1046  1  0.310920  0.590740  0.359500  1.0  -0.6043
  O  O1047  1  0.469780  0.731340  0.238500  1.0  -0.7351
  O  O1048  1  0.497830  0.687950  0.145400  1.0  -0.603
  O  O1049  1  0.304890  0.527470  0.516000  1.0  -0.7927
  O  O1050  1  0.329920  0.531880  0.642600  1.0  -0.6606
  O  O1051  1  0.459500  0.690610  0.408000  1.0  -0.5927
  O  O1052  1  0.435300  0.724670  0.516900  1.0  -0.7206
  O  O1053  1  0.825750  0.934550  0.042400  1.0  -0.6095
  O  O1054  1  0.784990  0.889720  0.114200  1.0  -0.608
  O  O1055  1  0.972660  0.750410  0.007200  1.0  -0.8044
  O  O1056  1  0.952700  0.769030  0.880400  1.0  -0.6714
  O  O1057  1  0.816200  0.045990  0.754300  1.0  -0.7193
  O  O1058  1  0.810920  0.090740  0.859500  1.0  -0.6043
  O  O1059  1  0.969780  0.231340  0.738500  1.0  -0.7351
  O  O1060  1  0.997830  0.187950  0.645400  1.0  -0.603
  O  O1061  1  0.804890  0.027470  0.016000  1.0  -0.7927
  O  O1062  1  0.829920  0.031880  0.142600  1.0  -0.6606
  O  O1063  1  0.959500  0.190610  0.908000  1.0  -0.5927
  O  O1064  1  0.935300  0.224670  0.016900  1.0  -0.7206
  O  O1065  1  0.174250  0.065450  0.042400  1.0  -0.6108
  O  O1066  1  0.215010  0.110280  0.114200  1.0  -0.6099
  O  O1067  1  0.027340  0.249590  0.007200  1.0  -0.8062
  O  O1068  1  0.047300  0.230970  0.880400  1.0  -0.6707
  O  O1069  1  0.183800  0.954010  0.754300  1.0  -0.7198
  O  O1070  1  0.189080  0.909260  0.859500  1.0  -0.6055
  O  O1071  1  0.030220  0.768660  0.738500  1.0  -0.7341
  O  O1072  1  0.002170  0.812050  0.645400  1.0  -0.602
  O  O1073  1  0.195110  0.972530  0.016000  1.0  -0.7939
  O  O1074  1  0.170080  0.968120  0.142600  1.0  -0.6602
  O  O1075  1  0.040500  0.809390  0.908000  1.0  -0.593
  O  O1076  1  0.064700  0.775330  0.016900  1.0  -0.7192
  O  O1077  1  0.674250  0.565450  0.542400  1.0  -0.6108
  O  O1078  1  0.715010  0.610280  0.614200  1.0  -0.6099
  O  O1079  1  0.527340  0.749590  0.507200  1.0  -0.8062
  O  O1080  1  0.547300  0.730970  0.380400  1.0  -0.6707
  O  O1081  1  0.683800  0.454010  0.254300  1.0  -0.7198
  O  O1082  1  0.689080  0.409260  0.359500  1.0  -0.6055
  O  O1083  1  0.530220  0.268660  0.238500  1.0  -0.7341
  O  O1084  1  0.502170  0.312050  0.145400  1.0  -0.602
  O  O1085  1  0.695110  0.472530  0.516000  1.0  -0.7939
  O  O1086  1  0.670080  0.468120  0.642600  1.0  -0.6602
  O  O1087  1  0.540500  0.309390  0.408000  1.0  -0.593
  O  O1088  1  0.564700  0.275330  0.516900  1.0  -0.7192
