# generated using pymatgen
data_K3Co2H78C72(SO3)6
_symmetry_space_group_name_H-M   'P 1'
_cell_length_a   27.26580000
_cell_length_b   27.26580000
_cell_length_c   27.26580000
_cell_angle_alpha   90.00000000
_cell_angle_beta   90.00000000
_cell_angle_gamma   90.00000000
_symmetry_Int_Tables_number   1
_chemical_formula_structural   K3Co2H78C72(SO3)6
_chemical_formula_sum   'K24 Co16 H624 C576 S48 O144'
_cell_volume   20270.04599951
_cell_formula_units_Z   8
loop_
 _symmetry_equiv_pos_site_id
 _symmetry_equiv_pos_as_xyz
  1  'x, y, z'
loop_
 _atom_site_type_symbol
 _atom_site_label
 _atom_site_symmetry_multiplicity
 _atom_site_fract_x
 _atom_site_fract_y
 _atom_site_fract_z
 _atom_site_occupancy
 _atom_site_charge
  K  K1  1  0.250000  0.030070  0.500000  1.0  0.9154
  K  K2  1  0.250000  0.969930  0.000000  1.0  0.9157
  K  K3  1  0.750000  0.530070  0.000000  1.0  0.9154
  K  K4  1  0.750000  0.469930  0.500000  1.0  0.9157
  K  K5  1  0.500000  0.250000  0.030070  1.0  0.9167
  K  K6  1  0.000000  0.250000  0.969930  1.0  0.9158
  K  K7  1  0.000000  0.750000  0.530070  1.0  0.9167
  K  K8  1  0.500000  0.750000  0.469930  1.0  0.9158
  K  K9  1  0.030070  0.500000  0.250000  1.0  0.9148
  K  K10  1  0.969930  0.000000  0.250000  1.0  0.914
  K  K11  1  0.530070  0.000000  0.750000  1.0  0.9148
  K  K12  1  0.469930  0.500000  0.750000  1.0  0.914
  K  K13  1  0.280070  0.500000  0.750000  1.0  0.9148
  K  K14  1  0.219930  0.500000  0.250000  1.0  0.914
  K  K15  1  0.780070  0.000000  0.250000  1.0  0.9148
  K  K16  1  0.719930  0.000000  0.750000  1.0  0.914
  K  K17  1  0.500000  0.750000  0.280070  1.0  0.9167
  K  K18  1  0.500000  0.250000  0.219930  1.0  0.9158
  K  K19  1  0.000000  0.250000  0.780070  1.0  0.9167
  K  K20  1  0.000000  0.750000  0.719930  1.0  0.9158
  K  K21  1  0.750000  0.280070  0.500000  1.0  0.9154
  K  K22  1  0.250000  0.219930  0.500000  1.0  0.9157
  K  K23  1  0.250000  0.780070  0.000000  1.0  0.9154
  K  K24  1  0.750000  0.719930  0.000000  1.0  0.9157
  Co  Co25  1  0.097420  0.902580  0.402580  1.0  0.8482
  Co  Co26  1  0.597420  0.402580  0.902580  1.0  0.8482
  Co  Co27  1  0.402580  0.097420  0.902580  1.0  0.8475
  Co  Co28  1  0.902580  0.597420  0.402580  1.0  0.8475
  Co  Co29  1  0.902580  0.402580  0.097420  1.0  0.8462
  Co  Co30  1  0.402580  0.902580  0.597420  1.0  0.8462
  Co  Co31  1  0.597420  0.597420  0.597420  1.0  0.8478
  Co  Co32  1  0.097420  0.097420  0.097420  1.0  0.8478
  Co  Co33  1  0.152580  0.347420  0.652580  1.0  0.8475
  Co  Co34  1  0.652580  0.847420  0.152580  1.0  0.8475
  Co  Co35  1  0.347420  0.652580  0.152580  1.0  0.8482
  Co  Co36  1  0.847420  0.152580  0.652580  1.0  0.8482
  Co  Co37  1  0.652580  0.152580  0.347420  1.0  0.8462
  Co  Co38  1  0.152580  0.652580  0.847420  1.0  0.8462
  Co  Co39  1  0.847420  0.847420  0.847420  1.0  0.8478
  Co  Co40  1  0.347420  0.347420  0.347420  1.0  0.8478
  H  H41  1  0.133600  0.061800  0.397400  1.0  0.1171
  H  H42  1  0.105600  0.058500  0.448700  1.0  0.1275
  H  H43  1  0.182000  0.222900  0.377300  1.0  0.1163
  H  H44  1  0.107500  0.219300  0.504900  1.0  0.1361
  H  H45  1  0.100600  0.291300  0.500500  1.0  0.104
  H  H46  1  0.057700  0.282200  0.461500  1.0  0.1223
  H  H47  1  0.084000  0.334600  0.464400  1.0  0.1235
  H  H48  1  0.185900  0.311700  0.470600  1.0  0.1282
  H  H49  1  0.165900  0.349300  0.430100  1.0  0.1152
  H  H50  1  0.198400  0.303100  0.413900  1.0  0.1133
  H  H51  1  0.133000  0.280500  0.355600  1.0  0.112
  H  H52  1  0.099700  0.325400  0.373500  1.0  0.1068
  H  H53  1  0.077800  0.271000  0.373000  1.0  0.1245
  H  H54  1  0.633600  0.561800  0.897400  1.0  0.1171
  H  H55  1  0.605600  0.558500  0.948700  1.0  0.1275
  H  H56  1  0.682000  0.722900  0.877300  1.0  0.1163
  H  H57  1  0.607500  0.719300  0.004900  1.0  0.1361
  H  H58  1  0.600600  0.791300  0.000500  1.0  0.104
  H  H59  1  0.557700  0.782200  0.961500  1.0  0.1223
  H  H60  1  0.584000  0.834600  0.964400  1.0  0.1235
  H  H61  1  0.685900  0.811700  0.970600  1.0  0.1282
  H  H62  1  0.665900  0.849300  0.930100  1.0  0.1152
  H  H63  1  0.698400  0.803100  0.913900  1.0  0.1133
  H  H64  1  0.633000  0.780500  0.855600  1.0  0.112
  H  H65  1  0.599700  0.825400  0.873500  1.0  0.1068
  H  H66  1  0.577800  0.771000  0.873000  1.0  0.1245
  H  H67  1  0.366400  0.938200  0.897400  1.0  0.1174
  H  H68  1  0.394400  0.941500  0.948700  1.0  0.1274
  H  H69  1  0.318000  0.777100  0.877300  1.0  0.116
  H  H70  1  0.392500  0.780700  0.004900  1.0  0.1359
  H  H71  1  0.399400  0.708700  0.000500  1.0  0.1038
  H  H72  1  0.442300  0.717800  0.961500  1.0  0.1215
  H  H73  1  0.416000  0.665400  0.964400  1.0  0.1229
  H  H74  1  0.314100  0.688300  0.970600  1.0  0.1281
  H  H75  1  0.334100  0.650700  0.930100  1.0  0.1135
  H  H76  1  0.301600  0.696900  0.913900  1.0  0.1134
  H  H77  1  0.367000  0.719500  0.855600  1.0  0.1122
  H  H78  1  0.400300  0.674600  0.873500  1.0  0.1047
  H  H79  1  0.422200  0.729000  0.873000  1.0  0.1261
  H  H80  1  0.866400  0.438200  0.397400  1.0  0.1174
  H  H81  1  0.894400  0.441500  0.448700  1.0  0.1274
  H  H82  1  0.818000  0.277100  0.377300  1.0  0.116
  H  H83  1  0.892500  0.280700  0.504900  1.0  0.1359
  H  H84  1  0.899400  0.208700  0.500500  1.0  0.1038
  H  H85  1  0.942300  0.217800  0.461500  1.0  0.1215
  H  H86  1  0.916000  0.165400  0.464400  1.0  0.1229
  H  H87  1  0.814100  0.188300  0.470600  1.0  0.1281
  H  H88  1  0.834100  0.150700  0.430100  1.0  0.1135
  H  H89  1  0.801600  0.196900  0.413900  1.0  0.1134
  H  H90  1  0.867000  0.219500  0.355600  1.0  0.1122
  H  H91  1  0.900300  0.174600  0.373500  1.0  0.1047
  H  H92  1  0.922200  0.229000  0.373000  1.0  0.1261
  H  H93  1  0.866400  0.561800  0.102600  1.0  0.1148
  H  H94  1  0.894400  0.558500  0.051300  1.0  0.1276
  H  H95  1  0.818000  0.722900  0.122700  1.0  0.1148
  H  H96  1  0.892500  0.719300  0.995100  1.0  0.1364
  H  H97  1  0.899400  0.791300  0.999500  1.0  0.1045
  H  H98  1  0.942300  0.782200  0.038500  1.0  0.1236
  H  H99  1  0.916000  0.834600  0.035600  1.0  0.1249
  H  H100  1  0.814100  0.811700  0.029400  1.0  0.1267
  H  H101  1  0.834100  0.849300  0.069900  1.0  0.1156
  H  H102  1  0.801600  0.803100  0.086100  1.0  0.1136
  H  H103  1  0.867000  0.780500  0.144400  1.0  0.1136
  H  H104  1  0.900300  0.825400  0.126500  1.0  0.1062
  H  H105  1  0.922200  0.771000  0.127000  1.0  0.1263
  H  H106  1  0.366400  0.061800  0.602600  1.0  0.1148
  H  H107  1  0.394400  0.058500  0.551300  1.0  0.1276
  H  H108  1  0.318000  0.222900  0.622700  1.0  0.1148
  H  H109  1  0.392500  0.219300  0.495100  1.0  0.1364
  H  H110  1  0.399400  0.291300  0.499500  1.0  0.1045
  H  H111  1  0.442300  0.282200  0.538500  1.0  0.1236
  H  H112  1  0.416000  0.334600  0.535600  1.0  0.1249
  H  H113  1  0.314100  0.311700  0.529400  1.0  0.1267
  H  H114  1  0.334100  0.349300  0.569900  1.0  0.1156
  H  H115  1  0.301600  0.303100  0.586100  1.0  0.1136
  H  H116  1  0.367000  0.280500  0.644400  1.0  0.1136
  H  H117  1  0.400300  0.325400  0.626500  1.0  0.1062
  H  H118  1  0.422200  0.271000  0.627000  1.0  0.1263
  H  H119  1  0.633600  0.438200  0.602600  1.0  0.1141
  H  H120  1  0.605600  0.441500  0.551300  1.0  0.128
  H  H121  1  0.682000  0.277100  0.622700  1.0  0.1146
  H  H122  1  0.607500  0.280700  0.495100  1.0  0.1357
  H  H123  1  0.600600  0.208700  0.499500  1.0  0.1044
  H  H124  1  0.557700  0.217800  0.538500  1.0  0.1196
  H  H125  1  0.584000  0.165400  0.535600  1.0  0.1217
  H  H126  1  0.685900  0.188300  0.529400  1.0  0.1279
  H  H127  1  0.665900  0.150700  0.569900  1.0  0.1137
  H  H128  1  0.698400  0.196900  0.586100  1.0  0.1138
  H  H129  1  0.633000  0.219500  0.644400  1.0  0.1132
  H  H130  1  0.599700  0.174600  0.626500  1.0  0.1057
  H  H131  1  0.577800  0.229000  0.627000  1.0  0.1245
  H  H132  1  0.133600  0.938200  0.102600  1.0  0.1141
  H  H133  1  0.105600  0.941500  0.051300  1.0  0.128
  H  H134  1  0.182000  0.777100  0.122700  1.0  0.1146
  H  H135  1  0.107500  0.780700  0.995100  1.0  0.1357
  H  H136  1  0.100600  0.708700  0.999500  1.0  0.1044
  H  H137  1  0.057700  0.717800  0.038500  1.0  0.1196
  H  H138  1  0.084000  0.665400  0.035600  1.0  0.1217
  H  H139  1  0.185900  0.688300  0.029400  1.0  0.1279
  H  H140  1  0.165900  0.650700  0.069900  1.0  0.1137
  H  H141  1  0.198400  0.696900  0.086100  1.0  0.1138
  H  H142  1  0.133000  0.719500  0.144400  1.0  0.1132
  H  H143  1  0.099700  0.674600  0.126500  1.0  0.1057
  H  H144  1  0.077800  0.729000  0.127000  1.0  0.1245
  H  H145  1  0.397400  0.133600  0.061800  1.0  0.116
  H  H146  1  0.448700  0.105600  0.058500  1.0  0.1296
  H  H147  1  0.377300  0.182000  0.222900  1.0  0.1148
  H  H148  1  0.504900  0.107500  0.219300  1.0  0.1369
  H  H149  1  0.500500  0.100600  0.291300  1.0  0.0995
  H  H150  1  0.461500  0.057700  0.282200  1.0  0.1181
  H  H151  1  0.464400  0.084000  0.334600  1.0  0.1227
  H  H152  1  0.470600  0.185900  0.311700  1.0  0.1258
  H  H153  1  0.430100  0.165900  0.349300  1.0  0.1154
  H  H154  1  0.413900  0.198400  0.303100  1.0  0.1126
  H  H155  1  0.355600  0.133000  0.280500  1.0  0.1142
  H  H156  1  0.373500  0.099700  0.325400  1.0  0.1042
  H  H157  1  0.373000  0.077800  0.271000  1.0  0.1281
  H  H158  1  0.897400  0.633600  0.561800  1.0  0.116
  H  H159  1  0.948700  0.605600  0.558500  1.0  0.1296
  H  H160  1  0.877300  0.682000  0.722900  1.0  0.1148
  H  H161  1  0.004900  0.607500  0.719300  1.0  0.1369
  H  H162  1  0.000500  0.600600  0.791300  1.0  0.0995
  H  H163  1  0.961500  0.557700  0.782200  1.0  0.1181
  H  H164  1  0.964400  0.584000  0.834600  1.0  0.1227
  H  H165  1  0.970600  0.685900  0.811700  1.0  0.1258
  H  H166  1  0.930100  0.665900  0.849300  1.0  0.1154
  H  H167  1  0.913900  0.698400  0.803100  1.0  0.1126
  H  H168  1  0.855600  0.633000  0.780500  1.0  0.1142
  H  H169  1  0.873500  0.599700  0.825400  1.0  0.1042
  H  H170  1  0.873000  0.577800  0.771000  1.0  0.1281
  H  H171  1  0.897400  0.366400  0.938200  1.0  0.1174
  H  H172  1  0.948700  0.394400  0.941500  1.0  0.1275
  H  H173  1  0.877300  0.318000  0.777100  1.0  0.1156
  H  H174  1  0.004900  0.392500  0.780700  1.0  0.1368
  H  H175  1  0.000500  0.399400  0.708700  1.0  0.1001
  H  H176  1  0.961500  0.442300  0.717800  1.0  0.1198
  H  H177  1  0.964400  0.416000  0.665400  1.0  0.1247
  H  H178  1  0.970600  0.314100  0.688300  1.0  0.1272
  H  H179  1  0.930100  0.334100  0.650700  1.0  0.1161
  H  H180  1  0.913900  0.301600  0.696900  1.0  0.1129
  H  H181  1  0.855600  0.367000  0.719500  1.0  0.1153
  H  H182  1  0.873500  0.400300  0.674600  1.0  0.1044
  H  H183  1  0.873000  0.422200  0.729000  1.0  0.1286
  H  H184  1  0.397400  0.866400  0.438200  1.0  0.1174
  H  H185  1  0.448700  0.894400  0.441500  1.0  0.1275
  H  H186  1  0.377300  0.818000  0.277100  1.0  0.1156
  H  H187  1  0.504900  0.892500  0.280700  1.0  0.1368
  H  H188  1  0.500500  0.899400  0.208700  1.0  0.1001
  H  H189  1  0.461500  0.942300  0.217800  1.0  0.1198
  H  H190  1  0.464400  0.916000  0.165400  1.0  0.1247
  H  H191  1  0.470600  0.814100  0.188300  1.0  0.1272
  H  H192  1  0.430100  0.834100  0.150700  1.0  0.1161
  H  H193  1  0.413900  0.801600  0.196900  1.0  0.1129
  H  H194  1  0.355600  0.867000  0.219500  1.0  0.1153
  H  H195  1  0.373500  0.900300  0.174600  1.0  0.1044
  H  H196  1  0.373000  0.922200  0.229000  1.0  0.1286
  H  H197  1  0.102600  0.866400  0.561800  1.0  0.1172
  H  H198  1  0.051300  0.894400  0.558500  1.0  0.1293
  H  H199  1  0.122700  0.818000  0.722900  1.0  0.1148
  H  H200  1  0.995100  0.892500  0.719300  1.0  0.1357
  H  H201  1  0.999500  0.899400  0.791300  1.0  0.0997
  H  H202  1  0.038500  0.942300  0.782200  1.0  0.1202
  H  H203  1  0.035600  0.916000  0.834600  1.0  0.1236
  H  H204  1  0.029400  0.814100  0.811700  1.0  0.1285
  H  H205  1  0.069900  0.834100  0.849300  1.0  0.1163
  H  H206  1  0.086100  0.801600  0.803100  1.0  0.1125
  H  H207  1  0.144400  0.867000  0.780500  1.0  0.1137
  H  H208  1  0.126500  0.900300  0.825400  1.0  0.105
  H  H209  1  0.127000  0.922200  0.771000  1.0  0.1299
  H  H210  1  0.602600  0.366400  0.061800  1.0  0.1172
  H  H211  1  0.551300  0.394400  0.058500  1.0  0.1293
  H  H212  1  0.622700  0.318000  0.222900  1.0  0.1148
  H  H213  1  0.495100  0.392500  0.219300  1.0  0.1357
  H  H214  1  0.499500  0.399400  0.291300  1.0  0.0997
  H  H215  1  0.538500  0.442300  0.282200  1.0  0.1202
  H  H216  1  0.535600  0.416000  0.334600  1.0  0.1236
  H  H217  1  0.529400  0.314100  0.311700  1.0  0.1285
  H  H218  1  0.569900  0.334100  0.349300  1.0  0.1163
  H  H219  1  0.586100  0.301600  0.303100  1.0  0.1125
  H  H220  1  0.644400  0.367000  0.280500  1.0  0.1137
  H  H221  1  0.626500  0.400300  0.325400  1.0  0.105
  H  H222  1  0.627000  0.422200  0.271000  1.0  0.1299
  H  H223  1  0.602600  0.633600  0.438200  1.0  0.1181
  H  H224  1  0.551300  0.605600  0.441500  1.0  0.1292
  H  H225  1  0.622700  0.682000  0.277100  1.0  0.1155
  H  H226  1  0.495100  0.607500  0.280700  1.0  0.1361
  H  H227  1  0.499500  0.600600  0.208700  1.0  0.0994
  H  H228  1  0.538500  0.557700  0.217800  1.0  0.1185
  H  H229  1  0.535600  0.584000  0.165400  1.0  0.1232
  H  H230  1  0.529400  0.685900  0.188300  1.0  0.1266
  H  H231  1  0.569900  0.665900  0.150700  1.0  0.1157
  H  H232  1  0.586100  0.698400  0.196900  1.0  0.1111
  H  H233  1  0.644400  0.633000  0.219500  1.0  0.1142
  H  H234  1  0.626500  0.599700  0.174600  1.0  0.1055
  H  H235  1  0.627000  0.577800  0.229000  1.0  0.1289
  H  H236  1  0.102600  0.133600  0.938200  1.0  0.1181
  H  H237  1  0.051300  0.105600  0.941500  1.0  0.1292
  H  H238  1  0.122700  0.182000  0.777100  1.0  0.1155
  H  H239  1  0.995100  0.107500  0.780700  1.0  0.1361
  H  H240  1  0.999500  0.100600  0.708700  1.0  0.0994
  H  H241  1  0.038500  0.057700  0.717800  1.0  0.1185
  H  H242  1  0.035600  0.084000  0.665400  1.0  0.1232
  H  H243  1  0.029400  0.185900  0.688300  1.0  0.1266
  H  H244  1  0.069900  0.165900  0.650700  1.0  0.1157
  H  H245  1  0.086100  0.198400  0.696900  1.0  0.1111
  H  H246  1  0.144400  0.133000  0.719500  1.0  0.1142
  H  H247  1  0.126500  0.099700  0.674600  1.0  0.1055
  H  H248  1  0.127000  0.077800  0.729000  1.0  0.1289
  H  H249  1  0.061800  0.397400  0.133600  1.0  0.1177
  H  H250  1  0.058500  0.448700  0.105600  1.0  0.1275
  H  H251  1  0.222900  0.377300  0.182000  1.0  0.1145
  H  H252  1  0.219300  0.504900  0.107500  1.0  0.1345
  H  H253  1  0.291300  0.500500  0.100600  1.0  0.1003
  H  H254  1  0.282200  0.461500  0.057700  1.0  0.1206
  H  H255  1  0.334600  0.464400  0.084000  1.0  0.1229
  H  H256  1  0.311700  0.470600  0.185900  1.0  0.1303
  H  H257  1  0.349300  0.430100  0.165900  1.0  0.1152
  H  H258  1  0.303100  0.413900  0.198400  1.0  0.1145
  H  H259  1  0.280500  0.355600  0.133000  1.0  0.1137
  H  H260  1  0.325400  0.373500  0.099700  1.0  0.1053
  H  H261  1  0.271000  0.373000  0.077800  1.0  0.1277
  H  H262  1  0.561800  0.897400  0.633600  1.0  0.1177
  H  H263  1  0.558500  0.948700  0.605600  1.0  0.1275
  H  H264  1  0.722900  0.877300  0.682000  1.0  0.1145
  H  H265  1  0.719300  0.004900  0.607500  1.0  0.1345
  H  H266  1  0.791300  0.000500  0.600600  1.0  0.1003
  H  H267  1  0.782200  0.961500  0.557700  1.0  0.1206
  H  H268  1  0.834600  0.964400  0.584000  1.0  0.1229
  H  H269  1  0.811700  0.970600  0.685900  1.0  0.1303
  H  H270  1  0.849300  0.930100  0.665900  1.0  0.1152
  H  H271  1  0.803100  0.913900  0.698400  1.0  0.1145
  H  H272  1  0.780500  0.855600  0.633000  1.0  0.1137
  H  H273  1  0.825400  0.873500  0.599700  1.0  0.1053
  H  H274  1  0.771000  0.873000  0.577800  1.0  0.1277
  H  H275  1  0.938200  0.897400  0.366400  1.0  0.1174
  H  H276  1  0.941500  0.948700  0.394400  1.0  0.1269
  H  H277  1  0.777100  0.877300  0.318000  1.0  0.1146
  H  H278  1  0.780700  0.004900  0.392500  1.0  0.1357
  H  H279  1  0.708700  0.000500  0.399400  1.0  0.1014
  H  H280  1  0.717800  0.961500  0.442300  1.0  0.1199
  H  H281  1  0.665400  0.964400  0.416000  1.0  0.1209
  H  H282  1  0.688300  0.970600  0.314100  1.0  0.1309
  H  H283  1  0.650700  0.930100  0.334100  1.0  0.1161
  H  H284  1  0.696900  0.913900  0.301600  1.0  0.1128
  H  H285  1  0.719500  0.855600  0.367000  1.0  0.1123
  H  H286  1  0.674600  0.873500  0.400300  1.0  0.1042
  H  H287  1  0.729000  0.873000  0.422200  1.0  0.1284
  H  H288  1  0.438200  0.397400  0.866400  1.0  0.1174
  H  H289  1  0.441500  0.448700  0.894400  1.0  0.1269
  H  H290  1  0.277100  0.377300  0.818000  1.0  0.1146
  H  H291  1  0.280700  0.504900  0.892500  1.0  0.1357
  H  H292  1  0.208700  0.500500  0.899400  1.0  0.1014
  H  H293  1  0.217800  0.461500  0.942300  1.0  0.1199
  H  H294  1  0.165400  0.464400  0.916000  1.0  0.1209
  H  H295  1  0.188300  0.470600  0.814100  1.0  0.1309
  H  H296  1  0.150700  0.430100  0.834100  1.0  0.1161
  H  H297  1  0.196900  0.413900  0.801600  1.0  0.1128
  H  H298  1  0.219500  0.355600  0.867000  1.0  0.1123
  H  H299  1  0.174600  0.373500  0.900300  1.0  0.1042
  H  H300  1  0.229000  0.373000  0.922200  1.0  0.1284
  H  H301  1  0.561800  0.102600  0.866400  1.0  0.1169
  H  H302  1  0.558500  0.051300  0.894400  1.0  0.1283
  H  H303  1  0.722900  0.122700  0.818000  1.0  0.1145
  H  H304  1  0.719300  0.995100  0.892500  1.0  0.1358
  H  H305  1  0.791300  0.999500  0.899400  1.0  0.1004
  H  H306  1  0.782200  0.038500  0.942300  1.0  0.1196
  H  H307  1  0.834600  0.035600  0.916000  1.0  0.1217
  H  H308  1  0.811700  0.029400  0.814100  1.0  0.1298
  H  H309  1  0.849300  0.069900  0.834100  1.0  0.1148
  H  H310  1  0.803100  0.086100  0.801600  1.0  0.1128
  H  H311  1  0.780500  0.144400  0.867000  1.0  0.1124
  H  H312  1  0.825400  0.126500  0.900300  1.0  0.1052
  H  H313  1  0.771000  0.127000  0.922200  1.0  0.1279
  H  H314  1  0.061800  0.602600  0.366400  1.0  0.1169
  H  H315  1  0.058500  0.551300  0.394400  1.0  0.1283
  H  H316  1  0.222900  0.622700  0.318000  1.0  0.1145
  H  H317  1  0.219300  0.495100  0.392500  1.0  0.1358
  H  H318  1  0.291300  0.499500  0.399400  1.0  0.1004
  H  H319  1  0.282200  0.538500  0.442300  1.0  0.1196
  H  H320  1  0.334600  0.535600  0.416000  1.0  0.1217
  H  H321  1  0.311700  0.529400  0.314100  1.0  0.1298
  H  H322  1  0.349300  0.569900  0.334100  1.0  0.1148
  H  H323  1  0.303100  0.586100  0.301600  1.0  0.1128
  H  H324  1  0.280500  0.644400  0.367000  1.0  0.1124
  H  H325  1  0.325400  0.626500  0.400300  1.0  0.1052
  H  H326  1  0.271000  0.627000  0.422200  1.0  0.1279
  H  H327  1  0.438200  0.602600  0.633600  1.0  0.1164
  H  H328  1  0.441500  0.551300  0.605600  1.0  0.1274
  H  H329  1  0.277100  0.622700  0.682000  1.0  0.1145
  H  H330  1  0.280700  0.495100  0.607500  1.0  0.1354
  H  H331  1  0.208700  0.499500  0.600600  1.0  0.0998
  H  H332  1  0.217800  0.538500  0.557700  1.0  0.1196
  H  H333  1  0.165400  0.535600  0.584000  1.0  0.1232
  H  H334  1  0.188300  0.529400  0.685900  1.0  0.1287
  H  H335  1  0.150700  0.569900  0.665900  1.0  0.1157
  H  H336  1  0.196900  0.586100  0.698400  1.0  0.1125
  H  H337  1  0.219500  0.644400  0.633000  1.0  0.1126
  H  H338  1  0.174600  0.626500  0.599700  1.0  0.1037
  H  H339  1  0.229000  0.627000  0.577800  1.0  0.1282
  H  H340  1  0.938200  0.102600  0.133600  1.0  0.1164
  H  H341  1  0.941500  0.051300  0.105600  1.0  0.1274
  H  H342  1  0.777100  0.122700  0.182000  1.0  0.1145
  H  H343  1  0.780700  0.995100  0.107500  1.0  0.1354
  H  H344  1  0.708700  0.999500  0.100600  1.0  0.0998
  H  H345  1  0.717800  0.038500  0.057700  1.0  0.1196
  H  H346  1  0.665400  0.035600  0.084000  1.0  0.1232
  H  H347  1  0.688300  0.029400  0.185900  1.0  0.1287
  H  H348  1  0.650700  0.069900  0.165900  1.0  0.1157
  H  H349  1  0.696900  0.086100  0.198400  1.0  0.1125
  H  H350  1  0.719500  0.144400  0.133000  1.0  0.1126
  H  H351  1  0.674600  0.126500  0.099700  1.0  0.1037
  H  H352  1  0.729000  0.127000  0.077800  1.0  0.1282
  H  H353  1  0.311800  0.383600  0.647400  1.0  0.1187
  H  H354  1  0.308500  0.355600  0.698700  1.0  0.1289
  H  H355  1  0.472900  0.432000  0.627300  1.0  0.1162
  H  H356  1  0.469300  0.357500  0.754900  1.0  0.1367
  H  H357  1  0.541300  0.350600  0.750500  1.0  0.1041
  H  H358  1  0.532200  0.307700  0.711500  1.0  0.1189
  H  H359  1  0.584600  0.334000  0.714400  1.0  0.1216
  H  H360  1  0.561700  0.435900  0.720600  1.0  0.13
  H  H361  1  0.599300  0.415900  0.680100  1.0  0.1143
  H  H362  1  0.553100  0.448400  0.663900  1.0  0.1121
  H  H363  1  0.530500  0.383000  0.605600  1.0  0.113
  H  H364  1  0.575400  0.349700  0.623500  1.0  0.1054
  H  H365  1  0.521000  0.327800  0.623000  1.0  0.1283
  H  H366  1  0.811800  0.883600  0.147400  1.0  0.1187
  H  H367  1  0.808500  0.855600  0.198700  1.0  0.1289
  H  H368  1  0.972900  0.932000  0.127300  1.0  0.1162
  H  H369  1  0.969300  0.857500  0.254900  1.0  0.1367
  H  H370  1  0.041300  0.850600  0.250500  1.0  0.1041
  H  H371  1  0.032200  0.807700  0.211500  1.0  0.1189
  H  H372  1  0.084600  0.834000  0.214400  1.0  0.1216
  H  H373  1  0.061700  0.935900  0.220600  1.0  0.13
  H  H374  1  0.099300  0.915900  0.180100  1.0  0.1143
  H  H375  1  0.053100  0.948400  0.163900  1.0  0.1121
  H  H376  1  0.030500  0.883000  0.105600  1.0  0.113
  H  H377  1  0.075400  0.849700  0.123500  1.0  0.1054
  H  H378  1  0.021000  0.827800  0.123000  1.0  0.1283
  H  H379  1  0.188200  0.616400  0.147400  1.0  0.1189
  H  H380  1  0.191500  0.644400  0.198700  1.0  0.1272
  H  H381  1  0.027100  0.568000  0.127300  1.0  0.1167
  H  H382  1  0.030700  0.642500  0.254900  1.0  0.1368
  H  H383  1  0.958700  0.649400  0.250500  1.0  0.1039
  H  H384  1  0.967800  0.692300  0.211500  1.0  0.1211
  H  H385  1  0.915400  0.666000  0.214400  1.0  0.1231
  H  H386  1  0.938300  0.564100  0.220600  1.0  0.1304
  H  H387  1  0.900700  0.584100  0.180100  1.0  0.1158
  H  H388  1  0.946900  0.551600  0.163900  1.0  0.112
  H  H389  1  0.969500  0.617000  0.105600  1.0  0.1132
  H  H390  1  0.924600  0.650300  0.123500  1.0  0.1039
  H  H391  1  0.979000  0.672200  0.123000  1.0  0.129
  H  H392  1  0.688200  0.116400  0.647400  1.0  0.1189
  H  H393  1  0.691500  0.144400  0.698700  1.0  0.1272
  H  H394  1  0.527100  0.068000  0.627300  1.0  0.1167
  H  H395  1  0.530700  0.142500  0.754900  1.0  0.1368
  H  H396  1  0.458700  0.149400  0.750500  1.0  0.1039
  H  H397  1  0.467800  0.192300  0.711500  1.0  0.1211
  H  H398  1  0.415400  0.166000  0.714400  1.0  0.1231
  H  H399  1  0.438300  0.064100  0.720600  1.0  0.1304
  H  H400  1  0.400700  0.084100  0.680100  1.0  0.1158
  H  H401  1  0.446900  0.051600  0.663900  1.0  0.112
  H  H402  1  0.469500  0.117000  0.605600  1.0  0.1132
  H  H403  1  0.424600  0.150300  0.623500  1.0  0.1039
  H  H404  1  0.479000  0.172200  0.623000  1.0  0.129
  H  H405  1  0.811800  0.116400  0.352600  1.0  0.1161
  H  H406  1  0.808500  0.144400  0.301300  1.0  0.1281
  H  H407  1  0.972900  0.068000  0.372700  1.0  0.1151
  H  H408  1  0.969300  0.142500  0.245100  1.0  0.1356
  H  H409  1  0.041300  0.149400  0.249500  1.0  0.1045
  H  H410  1  0.032200  0.192300  0.288500  1.0  0.1212
  H  H411  1  0.084600  0.166000  0.285600  1.0  0.1247
  H  H412  1  0.061700  0.064100  0.279400  1.0  0.1296
  H  H413  1  0.099300  0.084100  0.319900  1.0  0.1152
  H  H414  1  0.053100  0.051600  0.336100  1.0  0.1132
  H  H415  1  0.030500  0.117000  0.394400  1.0  0.1152
  H  H416  1  0.075400  0.150300  0.376500  1.0  0.1054
  H  H417  1  0.021000  0.172200  0.377000  1.0  0.129
  H  H418  1  0.311800  0.616400  0.852600  1.0  0.1161
  H  H419  1  0.308500  0.644400  0.801300  1.0  0.1281
  H  H420  1  0.472900  0.568000  0.872700  1.0  0.1151
  H  H421  1  0.469300  0.642500  0.745100  1.0  0.1356
  H  H422  1  0.541300  0.649400  0.749500  1.0  0.1045
  H  H423  1  0.532200  0.692300  0.788500  1.0  0.1212
  H  H424  1  0.584600  0.666000  0.785600  1.0  0.1247
  H  H425  1  0.561700  0.564100  0.779400  1.0  0.1296
  H  H426  1  0.599300  0.584100  0.819900  1.0  0.1152
  H  H427  1  0.553100  0.551600  0.836100  1.0  0.1132
  H  H428  1  0.530500  0.617000  0.894400  1.0  0.1152
  H  H429  1  0.575400  0.650300  0.876500  1.0  0.1054
  H  H430  1  0.521000  0.672200  0.877000  1.0  0.129
  H  H431  1  0.688200  0.883600  0.852600  1.0  0.1156
  H  H432  1  0.691500  0.855600  0.801300  1.0  0.128
  H  H433  1  0.527100  0.932000  0.872700  1.0  0.1153
  H  H434  1  0.530700  0.857500  0.745100  1.0  0.1363
  H  H435  1  0.458700  0.850600  0.749500  1.0  0.1041
  H  H436  1  0.467800  0.807700  0.788500  1.0  0.1181
  H  H437  1  0.415400  0.834000  0.785600  1.0  0.1215
  H  H438  1  0.438300  0.935900  0.779400  1.0  0.1294
  H  H439  1  0.400700  0.915900  0.819900  1.0  0.1133
  H  H440  1  0.446900  0.948400  0.836100  1.0  0.1112
  H  H441  1  0.469500  0.883000  0.894400  1.0  0.114
  H  H442  1  0.424600  0.849700  0.876500  1.0  0.1042
  H  H443  1  0.479000  0.827800  0.877000  1.0  0.1291
  H  H444  1  0.188200  0.383600  0.352600  1.0  0.1156
  H  H445  1  0.191500  0.355600  0.301300  1.0  0.128
  H  H446  1  0.027100  0.432000  0.372700  1.0  0.1153
  H  H447  1  0.030700  0.357500  0.245100  1.0  0.1363
  H  H448  1  0.958700  0.350600  0.249500  1.0  0.1041
  H  H449  1  0.967800  0.307700  0.288500  1.0  0.1181
  H  H450  1  0.915400  0.334000  0.285600  1.0  0.1215
  H  H451  1  0.938300  0.435900  0.279400  1.0  0.1294
  H  H452  1  0.900700  0.415900  0.319900  1.0  0.1133
  H  H453  1  0.946900  0.448400  0.336100  1.0  0.1112
  H  H454  1  0.969500  0.383000  0.394400  1.0  0.114
  H  H455  1  0.924600  0.349700  0.376500  1.0  0.1042
  H  H456  1  0.979000  0.327800  0.377000  1.0  0.1291
  H  H457  1  0.383600  0.647400  0.311800  1.0  0.1173
  H  H458  1  0.355600  0.698700  0.308500  1.0  0.1283
  H  H459  1  0.432000  0.627300  0.472900  1.0  0.1134
  H  H460  1  0.357500  0.754900  0.469300  1.0  0.1348
  H  H461  1  0.350600  0.750500  0.541300  1.0  0.1006
  H  H462  1  0.307700  0.711500  0.532200  1.0  0.1208
  H  H463  1  0.334000  0.714400  0.584600  1.0  0.1234
  H  H464  1  0.435900  0.720600  0.561700  1.0  0.1296
  H  H465  1  0.415900  0.680100  0.599300  1.0  0.1145
  H  H466  1  0.448400  0.663900  0.553100  1.0  0.1145
  H  H467  1  0.383000  0.605600  0.530500  1.0  0.1118
  H  H468  1  0.349700  0.623500  0.575400  1.0  0.1039
  H  H469  1  0.327800  0.623000  0.521000  1.0  0.1248
  H  H470  1  0.883600  0.147400  0.811800  1.0  0.1173
  H  H471  1  0.855600  0.198700  0.808500  1.0  0.1283
  H  H472  1  0.932000  0.127300  0.972900  1.0  0.1134
  H  H473  1  0.857500  0.254900  0.969300  1.0  0.1348
  H  H474  1  0.850600  0.250500  0.041300  1.0  0.1006
  H  H475  1  0.807700  0.211500  0.032200  1.0  0.1208
  H  H476  1  0.834000  0.214400  0.084600  1.0  0.1234
  H  H477  1  0.935900  0.220600  0.061700  1.0  0.1296
  H  H478  1  0.915900  0.180100  0.099300  1.0  0.1145
  H  H479  1  0.948400  0.163900  0.053100  1.0  0.1145
  H  H480  1  0.883000  0.105600  0.030500  1.0  0.1118
  H  H481  1  0.849700  0.123500  0.075400  1.0  0.1039
  H  H482  1  0.827800  0.123000  0.021000  1.0  0.1248
  H  H483  1  0.616400  0.147400  0.188200  1.0  0.1182
  H  H484  1  0.644400  0.198700  0.191500  1.0  0.1279
  H  H485  1  0.568000  0.127300  0.027100  1.0  0.114
  H  H486  1  0.642500  0.254900  0.030700  1.0  0.1353
  H  H487  1  0.649400  0.250500  0.958700  1.0  0.0998
  H  H488  1  0.692300  0.211500  0.967800  1.0  0.122
  H  H489  1  0.666000  0.214400  0.915400  1.0  0.1244
  H  H490  1  0.564100  0.220600  0.938300  1.0  0.13
  H  H491  1  0.584100  0.180100  0.900700  1.0  0.114
  H  H492  1  0.551600  0.163900  0.946900  1.0  0.1148
  H  H493  1  0.617000  0.105600  0.969500  1.0  0.1133
  H  H494  1  0.650300  0.123500  0.924600  1.0  0.1039
  H  H495  1  0.672200  0.123000  0.979000  1.0  0.1261
  H  H496  1  0.116400  0.647400  0.688200  1.0  0.1182
  H  H497  1  0.144400  0.698700  0.691500  1.0  0.1279
  H  H498  1  0.068000  0.627300  0.527100  1.0  0.114
  H  H499  1  0.142500  0.754900  0.530700  1.0  0.1353
  H  H500  1  0.149400  0.750500  0.458700  1.0  0.0998
  H  H501  1  0.192300  0.711500  0.467800  1.0  0.122
  H  H502  1  0.166000  0.714400  0.415400  1.0  0.1244
  H  H503  1  0.064100  0.720600  0.438300  1.0  0.13
  H  H504  1  0.084100  0.680100  0.400700  1.0  0.114
  H  H505  1  0.051600  0.663900  0.446900  1.0  0.1148
  H  H506  1  0.117000  0.605600  0.469500  1.0  0.1133
  H  H507  1  0.150300  0.623500  0.424600  1.0  0.1039
  H  H508  1  0.172200  0.623000  0.479000  1.0  0.1261
  H  H509  1  0.116400  0.352600  0.811800  1.0  0.1161
  H  H510  1  0.144400  0.301300  0.808500  1.0  0.1288
  H  H511  1  0.068000  0.372700  0.972900  1.0  0.1139
  H  H512  1  0.142500  0.245100  0.969300  1.0  0.1353
  H  H513  1  0.149400  0.249500  0.041300  1.0  0.0997
  H  H514  1  0.192300  0.288500  0.032200  1.0  0.1214
  H  H515  1  0.166000  0.285600  0.084600  1.0  0.1224
  H  H516  1  0.064100  0.279400  0.061700  1.0  0.1272
  H  H517  1  0.084100  0.319900  0.099300  1.0  0.1145
  H  H518  1  0.051600  0.336100  0.053100  1.0  0.1148
  H  H519  1  0.117000  0.394400  0.030500  1.0  0.1119
  H  H520  1  0.150300  0.376500  0.075400  1.0  0.1037
  H  H521  1  0.172200  0.377000  0.021000  1.0  0.1265
  H  H522  1  0.616400  0.852600  0.311800  1.0  0.1161
  H  H523  1  0.644400  0.801300  0.308500  1.0  0.1288
  H  H524  1  0.568000  0.872700  0.472900  1.0  0.1139
  H  H525  1  0.642500  0.745100  0.469300  1.0  0.1353
  H  H526  1  0.649400  0.749500  0.541300  1.0  0.0997
  H  H527  1  0.692300  0.788500  0.532200  1.0  0.1214
  H  H528  1  0.666000  0.785600  0.584600  1.0  0.1224
  H  H529  1  0.564100  0.779400  0.561700  1.0  0.1272
  H  H530  1  0.584100  0.819900  0.599300  1.0  0.1145
  H  H531  1  0.551600  0.836100  0.553100  1.0  0.1148
  H  H532  1  0.617000  0.894400  0.530500  1.0  0.1119
  H  H533  1  0.650300  0.876500  0.575400  1.0  0.1037
  H  H534  1  0.672200  0.877000  0.521000  1.0  0.1265
  H  H535  1  0.883600  0.852600  0.688200  1.0  0.1174
  H  H536  1  0.855600  0.801300  0.691500  1.0  0.1285
  H  H537  1  0.932000  0.872700  0.527100  1.0  0.1141
  H  H538  1  0.857500  0.745100  0.530700  1.0  0.135
  H  H539  1  0.850600  0.749500  0.458700  1.0  0.0992
  H  H540  1  0.807700  0.788500  0.467800  1.0  0.1213
  H  H541  1  0.834000  0.785600  0.415400  1.0  0.1238
  H  H542  1  0.935900  0.779400  0.438300  1.0  0.1288
  H  H543  1  0.915900  0.819900  0.400700  1.0  0.1145
  H  H544  1  0.948400  0.836100  0.446900  1.0  0.1147
  H  H545  1  0.883000  0.894400  0.469500  1.0  0.1121
  H  H546  1  0.849700  0.876500  0.424600  1.0  0.1044
  H  H547  1  0.827800  0.877000  0.479000  1.0  0.1244
  H  H548  1  0.383600  0.352600  0.188200  1.0  0.1174
  H  H549  1  0.355600  0.301300  0.191500  1.0  0.1285
  H  H550  1  0.432000  0.372700  0.027100  1.0  0.1141
  H  H551  1  0.357500  0.245100  0.030700  1.0  0.135
  H  H552  1  0.350600  0.249500  0.958700  1.0  0.0992
  H  H553  1  0.307700  0.288500  0.967800  1.0  0.1213
  H  H554  1  0.334000  0.285600  0.915400  1.0  0.1238
  H  H555  1  0.435900  0.279400  0.938300  1.0  0.1288
  H  H556  1  0.415900  0.319900  0.900700  1.0  0.1145
  H  H557  1  0.448400  0.336100  0.946900  1.0  0.1147
  H  H558  1  0.383000  0.394400  0.969500  1.0  0.1121
  H  H559  1  0.349700  0.376500  0.924600  1.0  0.1044
  H  H560  1  0.327800  0.377000  0.979000  1.0  0.1244
  H  H561  1  0.647400  0.311800  0.383600  1.0  0.1158
  H  H562  1  0.698700  0.308500  0.355600  1.0  0.1272
  H  H563  1  0.627300  0.472900  0.432000  1.0  0.1148
  H  H564  1  0.754900  0.469300  0.357500  1.0  0.1368
  H  H565  1  0.750500  0.541300  0.350600  1.0  0.1011
  H  H566  1  0.711500  0.532200  0.307700  1.0  0.1226
  H  H567  1  0.714400  0.584600  0.334000  1.0  0.1227
  H  H568  1  0.720600  0.561700  0.435900  1.0  0.1259
  H  H569  1  0.680100  0.599300  0.415900  1.0  0.1161
  H  H570  1  0.663900  0.553100  0.448400  1.0  0.112
  H  H571  1  0.605600  0.530500  0.383000  1.0  0.1139
  H  H572  1  0.623500  0.575400  0.349700  1.0  0.1067
  H  H573  1  0.623000  0.521000  0.327800  1.0  0.1282
  H  H574  1  0.147400  0.811800  0.883600  1.0  0.1158
  H  H575  1  0.198700  0.808500  0.855600  1.0  0.1272
  H  H576  1  0.127300  0.972900  0.932000  1.0  0.1148
  H  H577  1  0.254900  0.969300  0.857500  1.0  0.1368
  H  H578  1  0.250500  0.041300  0.850600  1.0  0.1011
  H  H579  1  0.211500  0.032200  0.807700  1.0  0.1226
  H  H580  1  0.214400  0.084600  0.834000  1.0  0.1227
  H  H581  1  0.220600  0.061700  0.935900  1.0  0.1259
  H  H582  1  0.180100  0.099300  0.915900  1.0  0.1161
  H  H583  1  0.163900  0.053100  0.948400  1.0  0.112
  H  H584  1  0.105600  0.030500  0.883000  1.0  0.1139
  H  H585  1  0.123500  0.075400  0.849700  1.0  0.1067
  H  H586  1  0.123000  0.021000  0.827800  1.0  0.1282
  H  H587  1  0.147400  0.188200  0.616400  1.0  0.116
  H  H588  1  0.198700  0.191500  0.644400  1.0  0.1271
  H  H589  1  0.127300  0.027100  0.568000  1.0  0.115
  H  H590  1  0.254900  0.030700  0.642500  1.0  0.1365
  H  H591  1  0.250500  0.958700  0.649400  1.0  0.1006
  H  H592  1  0.211500  0.967800  0.692300  1.0  0.1206
  H  H593  1  0.214400  0.915400  0.666000  1.0  0.1214
  H  H594  1  0.220600  0.938300  0.564100  1.0  0.1272
  H  H595  1  0.180100  0.900700  0.584100  1.0  0.1151
  H  H596  1  0.163900  0.946900  0.551600  1.0  0.1113
  H  H597  1  0.105600  0.969500  0.617000  1.0  0.1133
  H  H598  1  0.123500  0.924600  0.650300  1.0  0.1062
  H  H599  1  0.123000  0.979000  0.672200  1.0  0.1282
  H  H600  1  0.647400  0.688200  0.116400  1.0  0.116
  H  H601  1  0.698700  0.691500  0.144400  1.0  0.1271
  H  H602  1  0.627300  0.527100  0.068000  1.0  0.115
  H  H603  1  0.754900  0.530700  0.142500  1.0  0.1365
  H  H604  1  0.750500  0.458700  0.149400  1.0  0.1006
  H  H605  1  0.711500  0.467800  0.192300  1.0  0.1206
  H  H606  1  0.714400  0.415400  0.166000  1.0  0.1214
  H  H607  1  0.720600  0.438300  0.064100  1.0  0.1272
  H  H608  1  0.680100  0.400700  0.084100  1.0  0.1151
  H  H609  1  0.663900  0.446900  0.051600  1.0  0.1113
  H  H610  1  0.605600  0.469500  0.117000  1.0  0.1133
  H  H611  1  0.623500  0.424600  0.150300  1.0  0.1062
  H  H612  1  0.623000  0.479000  0.172200  1.0  0.1282
  H  H613  1  0.352600  0.811800  0.116400  1.0  0.1166
  H  H614  1  0.301300  0.808500  0.144400  1.0  0.1277
  H  H615  1  0.372700  0.972900  0.068000  1.0  0.115
  H  H616  1  0.245100  0.969300  0.142500  1.0  0.1364
  H  H617  1  0.249500  0.041300  0.149400  1.0  0.1001
  H  H618  1  0.288500  0.032200  0.192300  1.0  0.1215
  H  H619  1  0.285600  0.084600  0.166000  1.0  0.1216
  H  H620  1  0.279400  0.061700  0.064100  1.0  0.1274
  H  H621  1  0.319900  0.099300  0.084100  1.0  0.1167
  H  H622  1  0.336100  0.053100  0.051600  1.0  0.1107
  H  H623  1  0.394400  0.030500  0.117000  1.0  0.1131
  H  H624  1  0.376500  0.075400  0.150300  1.0  0.1071
  H  H625  1  0.377000  0.021000  0.172200  1.0  0.129
  H  H626  1  0.852600  0.311800  0.616400  1.0  0.1166
  H  H627  1  0.801300  0.308500  0.644400  1.0  0.1277
  H  H628  1  0.872700  0.472900  0.568000  1.0  0.115
  H  H629  1  0.745100  0.469300  0.642500  1.0  0.1364
  H  H630  1  0.749500  0.541300  0.649400  1.0  0.1001
  H  H631  1  0.788500  0.532200  0.692300  1.0  0.1215
  H  H632  1  0.785600  0.584600  0.666000  1.0  0.1216
  H  H633  1  0.779400  0.561700  0.564100  1.0  0.1274
  H  H634  1  0.819900  0.599300  0.584100  1.0  0.1167
  H  H635  1  0.836100  0.553100  0.551600  1.0  0.1107
  H  H636  1  0.894400  0.530500  0.617000  1.0  0.1131
  H  H637  1  0.876500  0.575400  0.650300  1.0  0.1071
  H  H638  1  0.877000  0.521000  0.672200  1.0  0.129
  H  H639  1  0.852600  0.688200  0.883600  1.0  0.1166
  H  H640  1  0.801300  0.691500  0.855600  1.0  0.1272
  H  H641  1  0.872700  0.527100  0.932000  1.0  0.1149
  H  H642  1  0.745100  0.530700  0.857500  1.0  0.1356
  H  H643  1  0.749500  0.458700  0.850600  1.0  0.1007
  H  H644  1  0.788500  0.467800  0.807700  1.0  0.1213
  H  H645  1  0.785600  0.415400  0.834000  1.0  0.1201
  H  H646  1  0.779400  0.438300  0.935900  1.0  0.1282
  H  H647  1  0.819900  0.400700  0.915900  1.0  0.1146
  H  H648  1  0.836100  0.446900  0.948400  1.0  0.1116
  H  H649  1  0.894400  0.469500  0.883000  1.0  0.1135
  H  H650  1  0.876500  0.424600  0.849700  1.0  0.1058
  H  H651  1  0.877000  0.479000  0.827800  1.0  0.1289
  H  H652  1  0.352600  0.188200  0.383600  1.0  0.1166
  H  H653  1  0.301300  0.191500  0.355600  1.0  0.1272
  H  H654  1  0.372700  0.027100  0.432000  1.0  0.1149
  H  H655  1  0.245100  0.030700  0.357500  1.0  0.1356
  H  H656  1  0.249500  0.958700  0.350600  1.0  0.1007
  H  H657  1  0.288500  0.967800  0.307700  1.0  0.1213
  H  H658  1  0.285600  0.915400  0.334000  1.0  0.1201
  H  H659  1  0.279400  0.938300  0.435900  1.0  0.1282
  H  H660  1  0.319900  0.900700  0.415900  1.0  0.1146
  H  H661  1  0.336100  0.946900  0.448400  1.0  0.1116
  H  H662  1  0.394400  0.969500  0.383000  1.0  0.1135
  H  H663  1  0.376500  0.924600  0.349700  1.0  0.1058
  H  H664  1  0.377000  0.979000  0.327800  1.0  0.1289
  C  C665  1  0.145300  0.997600  0.432900  1.0  0.707
  C  C666  1  0.137000  0.051300  0.431900  1.0  -0.1228
  C  C667  1  0.165250  0.129650  0.450800  1.0  0.1792
  C  C668  1  0.137730  0.153160  0.486400  1.0  -0.0504
  C  C669  1  0.183200  0.156200  0.410300  1.0  -0.0922
  C  C670  1  0.170100  0.205300  0.404900  1.0  -0.1484
  C  C671  1  0.140200  0.229400  0.438800  1.0  -0.0308
  C  C672  1  0.125900  0.203100  0.480100  1.0  -0.1235
  C  C673  1  0.125200  0.282900  0.431100  1.0  0.2259
  C  C674  1  0.088900  0.299100  0.467400  1.0  -0.387
  C  C675  1  0.173500  0.314800  0.437000  1.0  -0.3675
  C  C676  1  0.107300  0.290600  0.378600  1.0  -0.3694
  C  C677  1  0.645300  0.497600  0.932900  1.0  0.707
  C  C678  1  0.637000  0.551300  0.931900  1.0  -0.1228
  C  C679  1  0.665250  0.629650  0.950800  1.0  0.1792
  C  C680  1  0.637730  0.653160  0.986400  1.0  -0.0504
  C  C681  1  0.683200  0.656200  0.910300  1.0  -0.0922
  C  C682  1  0.670100  0.705300  0.904900  1.0  -0.1484
  C  C683  1  0.640200  0.729400  0.938800  1.0  -0.0308
  C  C684  1  0.625900  0.703100  0.980100  1.0  -0.1235
  C  C685  1  0.625200  0.782900  0.931100  1.0  0.2259
  C  C686  1  0.588900  0.799100  0.967400  1.0  -0.387
  C  C687  1  0.673500  0.814800  0.937000  1.0  -0.3675
  C  C688  1  0.607300  0.790600  0.878600  1.0  -0.3694
  C  C689  1  0.354700  0.002400  0.932900  1.0  0.7063
  C  C690  1  0.363000  0.948700  0.931900  1.0  -0.1205
  C  C691  1  0.334750  0.870350  0.950800  1.0  0.1793
  C  C692  1  0.362270  0.846840  0.986400  1.0  -0.0514
  C  C693  1  0.316800  0.843800  0.910300  1.0  -0.0931
  C  C694  1  0.329900  0.794700  0.904900  1.0  -0.1498
  C  C695  1  0.359800  0.770600  0.938800  1.0  -0.0303
  C  C696  1  0.374100  0.796900  0.980100  1.0  -0.123
  C  C697  1  0.374800  0.717100  0.931100  1.0  0.2252
  C  C698  1  0.411100  0.700900  0.967400  1.0  -0.3863
  C  C699  1  0.326500  0.685200  0.937000  1.0  -0.3677
  C  C700  1  0.392700  0.709400  0.878600  1.0  -0.3695
  C  C701  1  0.854700  0.502400  0.432900  1.0  0.7063
  C  C702  1  0.863000  0.448700  0.431900  1.0  -0.1205
  C  C703  1  0.834750  0.370350  0.450800  1.0  0.1793
  C  C704  1  0.862270  0.346840  0.486400  1.0  -0.0514
  C  C705  1  0.816800  0.343800  0.410300  1.0  -0.0931
  C  C706  1  0.829900  0.294700  0.404900  1.0  -0.1498
  C  C707  1  0.859800  0.270600  0.438800  1.0  -0.0303
  C  C708  1  0.874100  0.296900  0.480100  1.0  -0.123
  C  C709  1  0.874800  0.217100  0.431100  1.0  0.2252
  C  C710  1  0.911100  0.200900  0.467400  1.0  -0.3863
  C  C711  1  0.826500  0.185200  0.437000  1.0  -0.3677
  C  C712  1  0.892700  0.209400  0.378600  1.0  -0.3695
  C  C713  1  0.854700  0.497600  0.067100  1.0  0.7069
  C  C714  1  0.863000  0.551300  0.068100  1.0  -0.1209
  C  C715  1  0.834750  0.629650  0.049200  1.0  0.1785
  C  C716  1  0.862270  0.653160  0.013600  1.0  -0.0523
  C  C717  1  0.816800  0.656200  0.089700  1.0  -0.092
  C  C718  1  0.829900  0.705300  0.095100  1.0  -0.1464
  C  C719  1  0.859800  0.729400  0.061200  1.0  -0.0308
  C  C720  1  0.874100  0.703100  0.019900  1.0  -0.1243
  C  C721  1  0.874800  0.782900  0.068900  1.0  0.2244
  C  C722  1  0.911100  0.799100  0.032600  1.0  -0.3854
  C  C723  1  0.826500  0.814800  0.063000  1.0  -0.367
  C  C724  1  0.892700  0.790600  0.121400  1.0  -0.3697
  C  C725  1  0.354700  0.997600  0.567100  1.0  0.7069
  C  C726  1  0.363000  0.051300  0.568100  1.0  -0.1209
  C  C727  1  0.334750  0.129650  0.549200  1.0  0.1785
  C  C728  1  0.362270  0.153160  0.513600  1.0  -0.0523
  C  C729  1  0.316800  0.156200  0.589700  1.0  -0.092
  C  C730  1  0.329900  0.205300  0.595100  1.0  -0.1464
  C  C731  1  0.359800  0.229400  0.561200  1.0  -0.0308
  C  C732  1  0.374100  0.203100  0.519900  1.0  -0.1243
  C  C733  1  0.374800  0.282900  0.568900  1.0  0.2244
  C  C734  1  0.411100  0.299100  0.532600  1.0  -0.3854
  C  C735  1  0.326500  0.314800  0.563000  1.0  -0.367
  C  C736  1  0.392700  0.290600  0.621400  1.0  -0.3697
  C  C737  1  0.645300  0.502400  0.567100  1.0  0.7075
  C  C738  1  0.637000  0.448700  0.568100  1.0  -0.1216
  C  C739  1  0.665250  0.370350  0.549200  1.0  0.1792
  C  C740  1  0.637730  0.346840  0.513600  1.0  -0.0527
  C  C741  1  0.683200  0.343800  0.589700  1.0  -0.0912
  C  C742  1  0.670100  0.294700  0.595100  1.0  -0.1468
  C  C743  1  0.640200  0.270600  0.561200  1.0  -0.0305
  C  C744  1  0.625900  0.296900  0.519900  1.0  -0.1245
  C  C745  1  0.625200  0.217100  0.568900  1.0  0.2253
  C  C746  1  0.588900  0.200900  0.532600  1.0  -0.387
  C  C747  1  0.673500  0.185200  0.563000  1.0  -0.3684
  C  C748  1  0.607300  0.209400  0.621400  1.0  -0.3698
  C  C749  1  0.145300  0.002400  0.067100  1.0  0.7075
  C  C750  1  0.137000  0.948700  0.068100  1.0  -0.1216
  C  C751  1  0.165250  0.870350  0.049200  1.0  0.1792
  C  C752  1  0.137730  0.846840  0.013600  1.0  -0.0527
  C  C753  1  0.183200  0.843800  0.089700  1.0  -0.0912
  C  C754  1  0.170100  0.794700  0.095100  1.0  -0.1468
  C  C755  1  0.140200  0.770600  0.061200  1.0  -0.0305
  C  C756  1  0.125900  0.796900  0.019900  1.0  -0.1245
  C  C757  1  0.125200  0.717100  0.068900  1.0  0.2253
  C  C758  1  0.088900  0.700900  0.032600  1.0  -0.387
  C  C759  1  0.173500  0.685200  0.063000  1.0  -0.3684
  C  C760  1  0.107300  0.709400  0.121400  1.0  -0.3698
  C  C761  1  0.432900  0.145300  0.997600  1.0  0.7125
  C  C762  1  0.431900  0.137000  0.051300  1.0  -0.1222
  C  C763  1  0.450800  0.165250  0.129650  1.0  0.1771
  C  C764  1  0.486400  0.137730  0.153160  1.0  -0.0503
  C  C765  1  0.410300  0.183200  0.156200  1.0  -0.0937
  C  C766  1  0.404900  0.170100  0.205300  1.0  -0.1475
  C  C767  1  0.438800  0.140200  0.229400  1.0  -0.0323
  C  C768  1  0.480100  0.125900  0.203100  1.0  -0.1234
  C  C769  1  0.431100  0.125200  0.282900  1.0  0.2247
  C  C770  1  0.467400  0.088900  0.299100  1.0  -0.3878
  C  C771  1  0.437000  0.173500  0.314800  1.0  -0.3667
  C  C772  1  0.378600  0.107300  0.290600  1.0  -0.3706
  C  C773  1  0.932900  0.645300  0.497600  1.0  0.7125
  C  C774  1  0.931900  0.637000  0.551300  1.0  -0.1222
  C  C775  1  0.950800  0.665250  0.629650  1.0  0.1771
  C  C776  1  0.986400  0.637730  0.653160  1.0  -0.0503
  C  C777  1  0.910300  0.683200  0.656200  1.0  -0.0937
  C  C778  1  0.904900  0.670100  0.705300  1.0  -0.1475
  C  C779  1  0.938800  0.640200  0.729400  1.0  -0.0323
  C  C780  1  0.980100  0.625900  0.703100  1.0  -0.1234
  C  C781  1  0.931100  0.625200  0.782900  1.0  0.2247
  C  C782  1  0.967400  0.588900  0.799100  1.0  -0.3878
  C  C783  1  0.937000  0.673500  0.814800  1.0  -0.3667
  C  C784  1  0.878600  0.607300  0.790600  1.0  -0.3706
  C  C785  1  0.932900  0.354700  0.002400  1.0  0.7094
  C  C786  1  0.931900  0.363000  0.948700  1.0  -0.1244
  C  C787  1  0.950800  0.334750  0.870350  1.0  0.1764
  C  C788  1  0.986400  0.362270  0.846840  1.0  -0.0501
  C  C789  1  0.910300  0.316800  0.843800  1.0  -0.0933
  C  C790  1  0.904900  0.329900  0.794700  1.0  -0.1466
  C  C791  1  0.938800  0.359800  0.770600  1.0  -0.0322
  C  C792  1  0.980100  0.374100  0.796900  1.0  -0.124
  C  C793  1  0.931100  0.374800  0.717100  1.0  0.2243
  C  C794  1  0.967400  0.411100  0.700900  1.0  -0.3889
  C  C795  1  0.937000  0.326500  0.685200  1.0  -0.3656
  C  C796  1  0.878600  0.392700  0.709400  1.0  -0.3701
  C  C797  1  0.432900  0.854700  0.502400  1.0  0.7094
  C  C798  1  0.431900  0.863000  0.448700  1.0  -0.1244
  C  C799  1  0.450800  0.834750  0.370350  1.0  0.1764
  C  C800  1  0.486400  0.862270  0.346840  1.0  -0.0501
  C  C801  1  0.410300  0.816800  0.343800  1.0  -0.0933
  C  C802  1  0.404900  0.829900  0.294700  1.0  -0.1466
  C  C803  1  0.438800  0.859800  0.270600  1.0  -0.0322
  C  C804  1  0.480100  0.874100  0.296900  1.0  -0.124
  C  C805  1  0.431100  0.874800  0.217100  1.0  0.2243
  C  C806  1  0.467400  0.911100  0.200900  1.0  -0.3889
  C  C807  1  0.437000  0.826500  0.185200  1.0  -0.3656
  C  C808  1  0.378600  0.892700  0.209400  1.0  -0.3701
  C  C809  1  0.067100  0.854700  0.497600  1.0  0.7101
  C  C810  1  0.068100  0.863000  0.551300  1.0  -0.1212
  C  C811  1  0.049200  0.834750  0.629650  1.0  0.1773
  C  C812  1  0.013600  0.862270  0.653160  1.0  -0.052
  C  C813  1  0.089700  0.816800  0.656200  1.0  -0.0922
  C  C814  1  0.095100  0.829900  0.705300  1.0  -0.1469
  C  C815  1  0.061200  0.859800  0.729400  1.0  -0.0326
  C  C816  1  0.019900  0.874100  0.703100  1.0  -0.1224
  C  C817  1  0.068900  0.874800  0.782900  1.0  0.2248
  C  C818  1  0.032600  0.911100  0.799100  1.0  -0.3896
  C  C819  1  0.063000  0.826500  0.814800  1.0  -0.3663
  C  C820  1  0.121400  0.892700  0.790600  1.0  -0.37
  C  C821  1  0.567100  0.354700  0.997600  1.0  0.7101
  C  C822  1  0.568100  0.363000  0.051300  1.0  -0.1212
  C  C823  1  0.549200  0.334750  0.129650  1.0  0.1773
  C  C824  1  0.513600  0.362270  0.153160  1.0  -0.052
  C  C825  1  0.589700  0.316800  0.156200  1.0  -0.0922
  C  C826  1  0.595100  0.329900  0.205300  1.0  -0.1469
  C  C827  1  0.561200  0.359800  0.229400  1.0  -0.0326
  C  C828  1  0.519900  0.374100  0.203100  1.0  -0.1224
  C  C829  1  0.568900  0.374800  0.282900  1.0  0.2248
  C  C830  1  0.532600  0.411100  0.299100  1.0  -0.3896
  C  C831  1  0.563000  0.326500  0.314800  1.0  -0.3663
  C  C832  1  0.621400  0.392700  0.290600  1.0  -0.37
  C  C833  1  0.567100  0.645300  0.502400  1.0  0.7094
  C  C834  1  0.568100  0.637000  0.448700  1.0  -0.1242
  C  C835  1  0.549200  0.665250  0.370350  1.0  0.178
  C  C836  1  0.513600  0.637730  0.346840  1.0  -0.0506
  C  C837  1  0.589700  0.683200  0.343800  1.0  -0.0916
  C  C838  1  0.595100  0.670100  0.294700  1.0  -0.1469
  C  C839  1  0.561200  0.640200  0.270600  1.0  -0.0326
  C  C840  1  0.519900  0.625900  0.296900  1.0  -0.1246
  C  C841  1  0.568900  0.625200  0.217100  1.0  0.2249
  C  C842  1  0.532600  0.588900  0.200900  1.0  -0.388
  C  C843  1  0.563000  0.673500  0.185200  1.0  -0.3646
  C  C844  1  0.621400  0.607300  0.209400  1.0  -0.3706
  C  C845  1  0.067100  0.145300  0.002400  1.0  0.7094
  C  C846  1  0.068100  0.137000  0.948700  1.0  -0.1242
  C  C847  1  0.049200  0.165250  0.870350  1.0  0.178
  C  C848  1  0.013600  0.137730  0.846840  1.0  -0.0506
  C  C849  1  0.089700  0.183200  0.843800  1.0  -0.0916
  C  C850  1  0.095100  0.170100  0.794700  1.0  -0.1469
  C  C851  1  0.061200  0.140200  0.770600  1.0  -0.0326
  C  C852  1  0.019900  0.125900  0.796900  1.0  -0.1246
  C  C853  1  0.068900  0.125200  0.717100  1.0  0.2249
  C  C854  1  0.032600  0.088900  0.700900  1.0  -0.388
  C  C855  1  0.063000  0.173500  0.685200  1.0  -0.3646
  C  C856  1  0.121400  0.107300  0.709400  1.0  -0.3706
  C  C857  1  0.997600  0.432900  0.145300  1.0  0.7058
  C  C858  1  0.051300  0.431900  0.137000  1.0  -0.1241
  C  C859  1  0.129650  0.450800  0.165250  1.0  0.1804
  C  C860  1  0.153160  0.486400  0.137730  1.0  -0.0506
  C  C861  1  0.156200  0.410300  0.183200  1.0  -0.0933
  C  C862  1  0.205300  0.404900  0.170100  1.0  -0.1463
  C  C863  1  0.229400  0.438800  0.140200  1.0  -0.0328
  C  C864  1  0.203100  0.480100  0.125900  1.0  -0.1265
  C  C865  1  0.282900  0.431100  0.125200  1.0  0.2232
  C  C866  1  0.299100  0.467400  0.088900  1.0  -0.3892
  C  C867  1  0.314800  0.437000  0.173500  1.0  -0.366
  C  C868  1  0.290600  0.378600  0.107300  1.0  -0.3714
  C  C869  1  0.497600  0.932900  0.645300  1.0  0.7058
  C  C870  1  0.551300  0.931900  0.637000  1.0  -0.1241
  C  C871  1  0.629650  0.950800  0.665250  1.0  0.1804
  C  C872  1  0.653160  0.986400  0.637730  1.0  -0.0506
  C  C873  1  0.656200  0.910300  0.683200  1.0  -0.0933
  C  C874  1  0.705300  0.904900  0.670100  1.0  -0.1463
  C  C875  1  0.729400  0.938800  0.640200  1.0  -0.0328
  C  C876  1  0.703100  0.980100  0.625900  1.0  -0.1265
  C  C877  1  0.782900  0.931100  0.625200  1.0  0.2232
  C  C878  1  0.799100  0.967400  0.588900  1.0  -0.3892
  C  C879  1  0.814800  0.937000  0.673500  1.0  -0.366
  C  C880  1  0.790600  0.878600  0.607300  1.0  -0.3714
  C  C881  1  0.002400  0.932900  0.354700  1.0  0.7051
  C  C882  1  0.948700  0.931900  0.363000  1.0  -0.1257
  C  C883  1  0.870350  0.950800  0.334750  1.0  0.1798
  C  C884  1  0.846840  0.986400  0.362270  1.0  -0.0501
  C  C885  1  0.843800  0.910300  0.316800  1.0  -0.0939
  C  C886  1  0.794700  0.904900  0.329900  1.0  -0.1488
  C  C887  1  0.770600  0.938800  0.359800  1.0  -0.0317
  C  C888  1  0.796900  0.980100  0.374100  1.0  -0.1265
  C  C889  1  0.717100  0.931100  0.374800  1.0  0.2238
  C  C890  1  0.700900  0.967400  0.411100  1.0  -0.3888
  C  C891  1  0.685200  0.937000  0.326500  1.0  -0.3657
  C  C892  1  0.709400  0.878600  0.392700  1.0  -0.3717
  C  C893  1  0.502400  0.432900  0.854700  1.0  0.7051
  C  C894  1  0.448700  0.431900  0.863000  1.0  -0.1257
  C  C895  1  0.370350  0.450800  0.834750  1.0  0.1798
  C  C896  1  0.346840  0.486400  0.862270  1.0  -0.0501
  C  C897  1  0.343800  0.410300  0.816800  1.0  -0.0939
  C  C898  1  0.294700  0.404900  0.829900  1.0  -0.1488
  C  C899  1  0.270600  0.438800  0.859800  1.0  -0.0317
  C  C900  1  0.296900  0.480100  0.874100  1.0  -0.1265
  C  C901  1  0.217100  0.431100  0.874800  1.0  0.2238
  C  C902  1  0.200900  0.467400  0.911100  1.0  -0.3888
  C  C903  1  0.185200  0.437000  0.826500  1.0  -0.3657
  C  C904  1  0.209400  0.378600  0.892700  1.0  -0.3717
  C  C905  1  0.497600  0.067100  0.854700  1.0  0.7044
  C  C906  1  0.551300  0.068100  0.863000  1.0  -0.1262
  C  C907  1  0.629650  0.049200  0.834750  1.0  0.1796
  C  C908  1  0.653160  0.013600  0.862270  1.0  -0.05
  C  C909  1  0.656200  0.089700  0.816800  1.0  -0.0941
  C  C910  1  0.705300  0.095100  0.829900  1.0  -0.1481
  C  C911  1  0.729400  0.061200  0.859800  1.0  -0.0331
  C  C912  1  0.703100  0.019900  0.874100  1.0  -0.1246
  C  C913  1  0.782900  0.068900  0.874800  1.0  0.2229
  C  C914  1  0.799100  0.032600  0.911100  1.0  -0.3876
  C  C915  1  0.814800  0.063000  0.826500  1.0  -0.3671
  C  C916  1  0.790600  0.121400  0.892700  1.0  -0.3711
  C  C917  1  0.997600  0.567100  0.354700  1.0  0.7044
  C  C918  1  0.051300  0.568100  0.363000  1.0  -0.1262
  C  C919  1  0.129650  0.549200  0.334750  1.0  0.1796
  C  C920  1  0.153160  0.513600  0.362270  1.0  -0.05
  C  C921  1  0.156200  0.589700  0.316800  1.0  -0.0941
  C  C922  1  0.205300  0.595100  0.329900  1.0  -0.1481
  C  C923  1  0.229400  0.561200  0.359800  1.0  -0.0331
  C  C924  1  0.203100  0.519900  0.374100  1.0  -0.1246
  C  C925  1  0.282900  0.568900  0.374800  1.0  0.2229
  C  C926  1  0.299100  0.532600  0.411100  1.0  -0.3876
  C  C927  1  0.314800  0.563000  0.326500  1.0  -0.3671
  C  C928  1  0.290600  0.621400  0.392700  1.0  -0.3711
  C  C929  1  0.502400  0.567100  0.645300  1.0  0.7041
  C  C930  1  0.448700  0.568100  0.637000  1.0  -0.1245
  C  C931  1  0.370350  0.549200  0.665250  1.0  0.18
  C  C932  1  0.346840  0.513600  0.637730  1.0  -0.0521
  C  C933  1  0.343800  0.589700  0.683200  1.0  -0.0922
  C  C934  1  0.294700  0.595100  0.670100  1.0  -0.1487
  C  C935  1  0.270600  0.561200  0.640200  1.0  -0.0309
  C  C936  1  0.296900  0.519900  0.625900  1.0  -0.1259
  C  C937  1  0.217100  0.568900  0.625200  1.0  0.2249
  C  C938  1  0.200900  0.532600  0.588900  1.0  -0.3872
  C  C939  1  0.185200  0.563000  0.673500  1.0  -0.3676
  C  C940  1  0.209400  0.621400  0.607300  1.0  -0.3722
  C  C941  1  0.002400  0.067100  0.145300  1.0  0.7041
  C  C942  1  0.948700  0.068100  0.137000  1.0  -0.1245
  C  C943  1  0.870350  0.049200  0.165250  1.0  0.18
  C  C944  1  0.846840  0.013600  0.137730  1.0  -0.0521
  C  C945  1  0.843800  0.089700  0.183200  1.0  -0.0922
  C  C946  1  0.794700  0.095100  0.170100  1.0  -0.1487
  C  C947  1  0.770600  0.061200  0.140200  1.0  -0.0309
  C  C948  1  0.796900  0.019900  0.125900  1.0  -0.1259
  C  C949  1  0.717100  0.068900  0.125200  1.0  0.2249
  C  C950  1  0.700900  0.032600  0.088900  1.0  -0.3872
  C  C951  1  0.685200  0.063000  0.173500  1.0  -0.3676
  C  C952  1  0.709400  0.121400  0.107300  1.0  -0.3722
  C  C953  1  0.247600  0.395300  0.682900  1.0  0.7049
  C  C954  1  0.301300  0.387000  0.681900  1.0  -0.1221
  C  C955  1  0.379650  0.415250  0.700800  1.0  0.18
  C  C956  1  0.403160  0.387730  0.736400  1.0  -0.0504
  C  C957  1  0.406200  0.433200  0.660300  1.0  -0.0935
  C  C958  1  0.455300  0.420100  0.654900  1.0  -0.1473
  C  C959  1  0.479400  0.390200  0.688800  1.0  -0.0331
  C  C960  1  0.453100  0.375900  0.730100  1.0  -0.1226
  C  C961  1  0.532900  0.375200  0.681100  1.0  0.2249
  C  C962  1  0.549100  0.338900  0.717400  1.0  -0.3869
  C  C963  1  0.564800  0.423500  0.687000  1.0  -0.3677
  C  C964  1  0.540600  0.357300  0.628600  1.0  -0.3711
  C  C965  1  0.747600  0.895300  0.182900  1.0  0.7049
  C  C966  1  0.801300  0.887000  0.181900  1.0  -0.1221
  C  C967  1  0.879650  0.915250  0.200800  1.0  0.18
  C  C968  1  0.903160  0.887730  0.236400  1.0  -0.0504
  C  C969  1  0.906200  0.933200  0.160300  1.0  -0.0935
  C  C970  1  0.955300  0.920100  0.154900  1.0  -0.1473
  C  C971  1  0.979400  0.890200  0.188800  1.0  -0.0331
  C  C972  1  0.953100  0.875900  0.230100  1.0  -0.1226
  C  C973  1  0.032900  0.875200  0.181100  1.0  0.2249
  C  C974  1  0.049100  0.838900  0.217400  1.0  -0.3869
  C  C975  1  0.064800  0.923500  0.187000  1.0  -0.3677
  C  C976  1  0.040600  0.857300  0.128600  1.0  -0.3711
  C  C977  1  0.252400  0.604700  0.182900  1.0  0.7038
  C  C978  1  0.198700  0.613000  0.181900  1.0  -0.1224
  C  C979  1  0.120350  0.584750  0.200800  1.0  0.1791
  C  C980  1  0.096840  0.612270  0.236400  1.0  -0.0514
  C  C981  1  0.093800  0.566800  0.160300  1.0  -0.0932
  C  C982  1  0.044700  0.579900  0.154900  1.0  -0.1489
  C  C983  1  0.020600  0.609800  0.188800  1.0  -0.0318
  C  C984  1  0.046900  0.624100  0.230100  1.0  -0.1218
  C  C985  1  0.967100  0.624800  0.181100  1.0  0.2261
  C  C986  1  0.950900  0.661100  0.217400  1.0  -0.3876
  C  C987  1  0.935200  0.576500  0.187000  1.0  -0.3686
  C  C988  1  0.959400  0.642700  0.128600  1.0  -0.3713
  C  C989  1  0.752400  0.104700  0.682900  1.0  0.7038
  C  C990  1  0.698700  0.113000  0.681900  1.0  -0.1224
  C  C991  1  0.620350  0.084750  0.700800  1.0  0.1791
  C  C992  1  0.596840  0.112270  0.736400  1.0  -0.0514
  C  C993  1  0.593800  0.066800  0.660300  1.0  -0.0932
  C  C994  1  0.544700  0.079900  0.654900  1.0  -0.1489
  C  C995  1  0.520600  0.109800  0.688800  1.0  -0.0318
  C  C996  1  0.546900  0.124100  0.730100  1.0  -0.1218
  C  C997  1  0.467100  0.124800  0.681100  1.0  0.2261
  C  C998  1  0.450900  0.161100  0.717400  1.0  -0.3876
  C  C999  1  0.435200  0.076500  0.687000  1.0  -0.3686
  C  C1000  1  0.459400  0.142700  0.628600  1.0  -0.3713
  C  C1001  1  0.747600  0.104700  0.317100  1.0  0.7044
  C  C1002  1  0.801300  0.113000  0.318100  1.0  -0.1209
  C  C1003  1  0.879650  0.084750  0.299200  1.0  0.1786
  C  C1004  1  0.903160  0.112270  0.263600  1.0  -0.0521
  C  C1005  1  0.906200  0.066800  0.339700  1.0  -0.0923
  C  C1006  1  0.955300  0.079900  0.345100  1.0  -0.1446
  C  C1007  1  0.979400  0.109800  0.311200  1.0  -0.0331
  C  C1008  1  0.953100  0.124100  0.269900  1.0  -0.1227
  C  C1009  1  0.032900  0.124800  0.318900  1.0  0.2241
  C  C1010  1  0.049100  0.161100  0.282600  1.0  -0.3872
  C  C1011  1  0.064800  0.076500  0.313000  1.0  -0.3687
  C  C1012  1  0.040600  0.142700  0.371400  1.0  -0.3708
  C  C1013  1  0.247600  0.604700  0.817100  1.0  0.7044
  C  C1014  1  0.301300  0.613000  0.818100  1.0  -0.1209
  C  C1015  1  0.379650  0.584750  0.799200  1.0  0.1786
  C  C1016  1  0.403160  0.612270  0.763600  1.0  -0.0521
  C  C1017  1  0.406200  0.566800  0.839700  1.0  -0.0923
  C  C1018  1  0.455300  0.579900  0.845100  1.0  -0.1446
  C  C1019  1  0.479400  0.609800  0.811200  1.0  -0.0331
  C  C1020  1  0.453100  0.624100  0.769900  1.0  -0.1227
  C  C1021  1  0.532900  0.624800  0.818900  1.0  0.2241
  C  C1022  1  0.549100  0.661100  0.782600  1.0  -0.3872
  C  C1023  1  0.564800  0.576500  0.813000  1.0  -0.3687
  C  C1024  1  0.540600  0.642700  0.871400  1.0  -0.3708
  C  C1025  1  0.752400  0.895300  0.817100  1.0  0.705
  C  C1026  1  0.698700  0.887000  0.818100  1.0  -0.1215
  C  C1027  1  0.620350  0.915250  0.799200  1.0  0.1793
  C  C1028  1  0.596840  0.887730  0.763600  1.0  -0.0522
  C  C1029  1  0.593800  0.933200  0.839700  1.0  -0.092
  C  C1030  1  0.544700  0.920100  0.845100  1.0  -0.1477
  C  C1031  1  0.520600  0.890200  0.811200  1.0  -0.0317
  C  C1032  1  0.546900  0.875900  0.769900  1.0  -0.124
  C  C1033  1  0.467100  0.875200  0.818900  1.0  0.2256
  C  C1034  1  0.450900  0.838900  0.782600  1.0  -0.3865
  C  C1035  1  0.435200  0.923500  0.813000  1.0  -0.368
  C  C1036  1  0.459400  0.857300  0.871400  1.0  -0.3718
  C  C1037  1  0.252400  0.395300  0.317100  1.0  0.705
  C  C1038  1  0.198700  0.387000  0.318100  1.0  -0.1215
  C  C1039  1  0.120350  0.415250  0.299200  1.0  0.1793
  C  C1040  1  0.096840  0.387730  0.263600  1.0  -0.0522
  C  C1041  1  0.093800  0.433200  0.339700  1.0  -0.092
  C  C1042  1  0.044700  0.420100  0.345100  1.0  -0.1477
  C  C1043  1  0.020600  0.390200  0.311200  1.0  -0.0317
  C  C1044  1  0.046900  0.375900  0.269900  1.0  -0.124
  C  C1045  1  0.967100  0.375200  0.318900  1.0  0.2256
  C  C1046  1  0.950900  0.338900  0.282600  1.0  -0.3865
  C  C1047  1  0.935200  0.423500  0.313000  1.0  -0.368
  C  C1048  1  0.959400  0.357300  0.371400  1.0  -0.3718
  C  C1049  1  0.395300  0.682900  0.247600  1.0  0.7131
  C  C1050  1  0.387000  0.681900  0.301300  1.0  -0.1239
  C  C1051  1  0.415250  0.700800  0.379650  1.0  0.1784
  C  C1052  1  0.387730  0.736400  0.403160  1.0  -0.0505
  C  C1053  1  0.433200  0.660300  0.406200  1.0  -0.0926
  C  C1054  1  0.420100  0.654900  0.455300  1.0  -0.1492
  C  C1055  1  0.390200  0.688800  0.479400  1.0  -0.032
  C  C1056  1  0.375900  0.730100  0.453100  1.0  -0.1269
  C  C1057  1  0.375200  0.681100  0.532900  1.0  0.2245
  C  C1058  1  0.338900  0.717400  0.549100  1.0  -0.3898
  C  C1059  1  0.423500  0.687000  0.564800  1.0  -0.3662
  C  C1060  1  0.357300  0.628600  0.540600  1.0  -0.3688
  C  C1061  1  0.895300  0.182900  0.747600  1.0  0.7131
  C  C1062  1  0.887000  0.181900  0.801300  1.0  -0.1239
  C  C1063  1  0.915250  0.200800  0.879650  1.0  0.1784
  C  C1064  1  0.887730  0.236400  0.903160  1.0  -0.0505
  C  C1065  1  0.933200  0.160300  0.906200  1.0  -0.0926
  C  C1066  1  0.920100  0.154900  0.955300  1.0  -0.1492
  C  C1067  1  0.890200  0.188800  0.979400  1.0  -0.032
  C  C1068  1  0.875900  0.230100  0.953100  1.0  -0.1269
  C  C1069  1  0.875200  0.181100  0.032900  1.0  0.2245
  C  C1070  1  0.838900  0.217400  0.049100  1.0  -0.3898
  C  C1071  1  0.923500  0.187000  0.064800  1.0  -0.3662
  C  C1072  1  0.857300  0.128600  0.040600  1.0  -0.3688
  C  C1073  1  0.604700  0.182900  0.252400  1.0  0.7102
  C  C1074  1  0.613000  0.181900  0.198700  1.0  -0.1248
  C  C1075  1  0.584750  0.200800  0.120350  1.0  0.1782
  C  C1076  1  0.612270  0.236400  0.096840  1.0  -0.0496
  C  C1077  1  0.566800  0.160300  0.093800  1.0  -0.0928
  C  C1078  1  0.579900  0.154900  0.044700  1.0  -0.1495
  C  C1079  1  0.609800  0.188800  0.020600  1.0  -0.032
  C  C1080  1  0.624100  0.230100  0.046900  1.0  -0.128
  C  C1081  1  0.624800  0.181100  0.967100  1.0  0.2237
  C  C1082  1  0.661100  0.217400  0.950900  1.0  -0.3887
  C  C1083  1  0.576500  0.187000  0.935200  1.0  -0.3648
  C  C1084  1  0.642700  0.128600  0.959400  1.0  -0.3697
  C  C1085  1  0.104700  0.682900  0.752400  1.0  0.7102
  C  C1086  1  0.113000  0.681900  0.698700  1.0  -0.1248
  C  C1087  1  0.084750  0.700800  0.620350  1.0  0.1782
  C  C1088  1  0.112270  0.736400  0.596840  1.0  -0.0496
  C  C1089  1  0.066800  0.660300  0.593800  1.0  -0.0928
  C  C1090  1  0.079900  0.654900  0.544700  1.0  -0.1495
  C  C1091  1  0.109800  0.688800  0.520600  1.0  -0.032
  C  C1092  1  0.124100  0.730100  0.546900  1.0  -0.128
  C  C1093  1  0.124800  0.681100  0.467100  1.0  0.2237
  C  C1094  1  0.161100  0.717400  0.450900  1.0  -0.3887
  C  C1095  1  0.076500  0.687000  0.435200  1.0  -0.3648
  C  C1096  1  0.142700  0.628600  0.459400  1.0  -0.3697
  C  C1097  1  0.104700  0.317100  0.747600  1.0  0.7107
  C  C1098  1  0.113000  0.318100  0.801300  1.0  -0.123
  C  C1099  1  0.084750  0.299200  0.879650  1.0  0.1778
  C  C1100  1  0.112270  0.263600  0.903160  1.0  -0.0508
  C  C1101  1  0.066800  0.339700  0.906200  1.0  -0.093
  C  C1102  1  0.079900  0.345100  0.955300  1.0  -0.1503
  C  C1103  1  0.109800  0.311200  0.979400  1.0  -0.0315
  C  C1104  1  0.124100  0.269900  0.953100  1.0  -0.1257
  C  C1105  1  0.124800  0.318900  0.032900  1.0  0.224
  C  C1106  1  0.161100  0.282600  0.049100  1.0  -0.388
  C  C1107  1  0.076500  0.313000  0.064800  1.0  -0.3675
  C  C1108  1  0.142700  0.371400  0.040600  1.0  -0.3696
  C  C1109  1  0.604700  0.817100  0.247600  1.0  0.7107
  C  C1110  1  0.613000  0.818100  0.301300  1.0  -0.123
  C  C1111  1  0.584750  0.799200  0.379650  1.0  0.1778
  C  C1112  1  0.612270  0.763600  0.403160  1.0  -0.0508
  C  C1113  1  0.566800  0.839700  0.406200  1.0  -0.093
  C  C1114  1  0.579900  0.845100  0.455300  1.0  -0.1503
  C  C1115  1  0.609800  0.811200  0.479400  1.0  -0.0315
  C  C1116  1  0.624100  0.769900  0.453100  1.0  -0.1257
  C  C1117  1  0.624800  0.818900  0.532900  1.0  0.224
  C  C1118  1  0.661100  0.782600  0.549100  1.0  -0.388
  C  C1119  1  0.576500  0.813000  0.564800  1.0  -0.3675
  C  C1120  1  0.642700  0.871400  0.540600  1.0  -0.3696
  C  C1121  1  0.895300  0.817100  0.752400  1.0  0.7094
  C  C1122  1  0.887000  0.818100  0.698700  1.0  -0.126
  C  C1123  1  0.915250  0.799200  0.620350  1.0  0.1779
  C  C1124  1  0.887730  0.763600  0.596840  1.0  -0.0503
  C  C1125  1  0.933200  0.839700  0.593800  1.0  -0.0914
  C  C1126  1  0.920100  0.845100  0.544700  1.0  -0.1494
  C  C1127  1  0.890200  0.811200  0.520600  1.0  -0.0316
  C  C1128  1  0.875900  0.769900  0.546900  1.0  -0.1277
  C  C1129  1  0.875200  0.818900  0.467100  1.0  0.2246
  C  C1130  1  0.838900  0.782600  0.450900  1.0  -0.3873
  C  C1131  1  0.923500  0.813000  0.435200  1.0  -0.3667
  C  C1132  1  0.857300  0.871400  0.459400  1.0  -0.3696
  C  C1133  1  0.395300  0.317100  0.252400  1.0  0.7094
  C  C1134  1  0.387000  0.318100  0.198700  1.0  -0.126
  C  C1135  1  0.415250  0.299200  0.120350  1.0  0.1779
  C  C1136  1  0.387730  0.263600  0.096840  1.0  -0.0503
  C  C1137  1  0.433200  0.339700  0.093800  1.0  -0.0914
  C  C1138  1  0.420100  0.345100  0.044700  1.0  -0.1494
  C  C1139  1  0.390200  0.311200  0.020600  1.0  -0.0316
  C  C1140  1  0.375900  0.269900  0.046900  1.0  -0.1277
  C  C1141  1  0.375200  0.318900  0.967100  1.0  0.2246
  C  C1142  1  0.338900  0.282600  0.950900  1.0  -0.3873
  C  C1143  1  0.423500  0.313000  0.935200  1.0  -0.3667
  C  C1144  1  0.357300  0.371400  0.959400  1.0  -0.3696
  C  C1145  1  0.682900  0.247600  0.395300  1.0  0.7078
  C  C1146  1  0.681900  0.301300  0.387000  1.0  -0.1244
  C  C1147  1  0.700800  0.379650  0.415250  1.0  0.1785
  C  C1148  1  0.736400  0.403160  0.387730  1.0  -0.0513
  C  C1149  1  0.660300  0.406200  0.433200  1.0  -0.0926
  C  C1150  1  0.654900  0.455300  0.420100  1.0  -0.145
  C  C1151  1  0.688800  0.479400  0.390200  1.0  -0.0307
  C  C1152  1  0.730100  0.453100  0.375900  1.0  -0.1235
  C  C1153  1  0.681100  0.532900  0.375200  1.0  0.2243
  C  C1154  1  0.717400  0.549100  0.338900  1.0  -0.3875
  C  C1155  1  0.687000  0.564800  0.423500  1.0  -0.366
  C  C1156  1  0.628600  0.540600  0.357300  1.0  -0.3707
  C  C1157  1  0.182900  0.747600  0.895300  1.0  0.7078
  C  C1158  1  0.181900  0.801300  0.887000  1.0  -0.1244
  C  C1159  1  0.200800  0.879650  0.915250  1.0  0.1785
  C  C1160  1  0.236400  0.903160  0.887730  1.0  -0.0513
  C  C1161  1  0.160300  0.906200  0.933200  1.0  -0.0926
  C  C1162  1  0.154900  0.955300  0.920100  1.0  -0.145
  C  C1163  1  0.188800  0.979400  0.890200  1.0  -0.0307
  C  C1164  1  0.230100  0.953100  0.875900  1.0  -0.1235
  C  C1165  1  0.181100  0.032900  0.875200  1.0  0.2243
  C  C1166  1  0.217400  0.049100  0.838900  1.0  -0.3875
  C  C1167  1  0.187000  0.064800  0.923500  1.0  -0.366
  C  C1168  1  0.128600  0.040600  0.857300  1.0  -0.3707
  C  C1169  1  0.182900  0.252400  0.604700  1.0  0.7076
  C  C1170  1  0.181900  0.198700  0.613000  1.0  -0.1247
  C  C1171  1  0.200800  0.120350  0.584750  1.0  0.1783
  C  C1172  1  0.236400  0.096840  0.612270  1.0  -0.0506
  C  C1173  1  0.160300  0.093800  0.566800  1.0  -0.0942
  C  C1174  1  0.154900  0.044700  0.579900  1.0  -0.1474
  C  C1175  1  0.188800  0.020600  0.609800  1.0  -0.0306
  C  C1176  1  0.230100  0.046900  0.624100  1.0  -0.1232
  C  C1177  1  0.181100  0.967100  0.624800  1.0  0.2238
  C  C1178  1  0.217400  0.950900  0.661100  1.0  -0.3861
  C  C1179  1  0.187000  0.935200  0.576500  1.0  -0.3655
  C  C1180  1  0.128600  0.959400  0.642700  1.0  -0.371
  C  C1181  1  0.682900  0.752400  0.104700  1.0  0.7076
  C  C1182  1  0.681900  0.698700  0.113000  1.0  -0.1247
  C  C1183  1  0.700800  0.620350  0.084750  1.0  0.1783
  C  C1184  1  0.736400  0.596840  0.112270  1.0  -0.0506
  C  C1185  1  0.660300  0.593800  0.066800  1.0  -0.0942
  C  C1186  1  0.654900  0.544700  0.079900  1.0  -0.1474
  C  C1187  1  0.688800  0.520600  0.109800  1.0  -0.0306
  C  C1188  1  0.730100  0.546900  0.124100  1.0  -0.1232
  C  C1189  1  0.681100  0.467100  0.124800  1.0  0.2238
  C  C1190  1  0.717400  0.450900  0.161100  1.0  -0.3861
  C  C1191  1  0.687000  0.435200  0.076500  1.0  -0.3655
  C  C1192  1  0.628600  0.459400  0.142700  1.0  -0.371
  C  C1193  1  0.317100  0.747600  0.104700  1.0  0.7074
  C  C1194  1  0.318100  0.801300  0.113000  1.0  -0.1248
  C  C1195  1  0.299200  0.879650  0.084750  1.0  0.179
  C  C1196  1  0.263600  0.903160  0.112270  1.0  -0.0516
  C  C1197  1  0.339700  0.906200  0.066800  1.0  -0.0926
  C  C1198  1  0.345100  0.955300  0.079900  1.0  -0.1463
  C  C1199  1  0.311200  0.979400  0.109800  1.0  -0.0319
  C  C1200  1  0.269900  0.953100  0.124100  1.0  -0.1227
  C  C1201  1  0.318900  0.032900  0.124800  1.0  0.2238
  C  C1202  1  0.282600  0.049100  0.161100  1.0  -0.3878
  C  C1203  1  0.313000  0.064800  0.076500  1.0  -0.3647
  C  C1204  1  0.371400  0.040600  0.142700  1.0  -0.3705
  C  C1205  1  0.817100  0.247600  0.604700  1.0  0.7074
  C  C1206  1  0.818100  0.301300  0.613000  1.0  -0.1248
  C  C1207  1  0.799200  0.379650  0.584750  1.0  0.179
  C  C1208  1  0.763600  0.403160  0.612270  1.0  -0.0516
  C  C1209  1  0.839700  0.406200  0.566800  1.0  -0.0926
  C  C1210  1  0.845100  0.455300  0.579900  1.0  -0.1463
  C  C1211  1  0.811200  0.479400  0.609800  1.0  -0.0319
  C  C1212  1  0.769900  0.453100  0.624100  1.0  -0.1227
  C  C1213  1  0.818900  0.532900  0.624800  1.0  0.2238
  C  C1214  1  0.782600  0.549100  0.661100  1.0  -0.3878
  C  C1215  1  0.813000  0.564800  0.576500  1.0  -0.3647
  C  C1216  1  0.871400  0.540600  0.642700  1.0  -0.3705
  C  C1217  1  0.817100  0.752400  0.895300  1.0  0.7069
  C  C1218  1  0.818100  0.698700  0.887000  1.0  -0.1227
  C  C1219  1  0.799200  0.620350  0.915250  1.0  0.1796
  C  C1220  1  0.763600  0.596840  0.887730  1.0  -0.0527
  C  C1221  1  0.839700  0.593800  0.933200  1.0  -0.0917
  C  C1222  1  0.845100  0.544700  0.920100  1.0  -0.1458
  C  C1223  1  0.811200  0.520600  0.890200  1.0  -0.0309
  C  C1224  1  0.769900  0.546900  0.875900  1.0  -0.1245
  C  C1225  1  0.818900  0.467100  0.875200  1.0  0.2247
  C  C1226  1  0.782600  0.450900  0.838900  1.0  -0.3881
  C  C1227  1  0.813000  0.435200  0.923500  1.0  -0.3658
  C  C1228  1  0.871400  0.459400  0.857300  1.0  -0.3706
  C  C1229  1  0.317100  0.252400  0.395300  1.0  0.7069
  C  C1230  1  0.318100  0.198700  0.387000  1.0  -0.1227
  C  C1231  1  0.299200  0.120350  0.415250  1.0  0.1796
  C  C1232  1  0.263600  0.096840  0.387730  1.0  -0.0527
  C  C1233  1  0.339700  0.093800  0.433200  1.0  -0.0917
  C  C1234  1  0.345100  0.044700  0.420100  1.0  -0.1458
  C  C1235  1  0.311200  0.020600  0.390200  1.0  -0.0309
  C  C1236  1  0.269900  0.046900  0.375900  1.0  -0.1245
  C  C1237  1  0.318900  0.967100  0.375200  1.0  0.2247
  C  C1238  1  0.282600  0.950900  0.338900  1.0  -0.3881
  C  C1239  1  0.313000  0.935200  0.423500  1.0  -0.3658
  C  C1240  1  0.371400  0.959400  0.357300  1.0  -0.3706
  S  S1241  1  0.110970  0.122270  0.536240  1.0  -0.0044
  S  S1242  1  0.610970  0.622270  0.036240  1.0  -0.0044
  S  S1243  1  0.389030  0.877730  0.036240  1.0  -0.0065
  S  S1244  1  0.889030  0.377730  0.536240  1.0  -0.0065
  S  S1245  1  0.889030  0.622270  0.963760  1.0  -0.0066
  S  S1246  1  0.389030  0.122270  0.463760  1.0  -0.0066
  S  S1247  1  0.610970  0.377730  0.463760  1.0  -0.0046
  S  S1248  1  0.110970  0.877730  0.963760  1.0  -0.0046
  S  S1249  1  0.536240  0.110970  0.122270  1.0  0.0015
  S  S1250  1  0.036240  0.610970  0.622270  1.0  0.0015
  S  S1251  1  0.036240  0.389030  0.877730  1.0  -0.0022
  S  S1252  1  0.536240  0.889030  0.377730  1.0  -0.0022
  S  S1253  1  0.963760  0.889030  0.622270  1.0  -0.0016
  S  S1254  1  0.463760  0.389030  0.122270  1.0  -0.0016
  S  S1255  1  0.463760  0.610970  0.377730  1.0  0.0015
  S  S1256  1  0.963760  0.110970  0.877730  1.0  0.0015
  S  S1257  1  0.122270  0.536240  0.110970  1.0  -0.0074
  S  S1258  1  0.622270  0.036240  0.610970  1.0  -0.0074
  S  S1259  1  0.877730  0.036240  0.389030  1.0  -0.0084
  S  S1260  1  0.377730  0.536240  0.889030  1.0  -0.0084
  S  S1261  1  0.622270  0.963760  0.889030  1.0  -0.0081
  S  S1262  1  0.122270  0.463760  0.389030  1.0  -0.0081
  S  S1263  1  0.377730  0.463760  0.610970  1.0  -0.0076
  S  S1264  1  0.877730  0.963760  0.110970  1.0  -0.0076
  S  S1265  1  0.372270  0.360970  0.786240  1.0  0.002
  S  S1266  1  0.872270  0.860970  0.286240  1.0  0.002
  S  S1267  1  0.127730  0.639030  0.286240  1.0  -0.0015
  S  S1268  1  0.627730  0.139030  0.786240  1.0  -0.0015
  S  S1269  1  0.872270  0.139030  0.213760  1.0  -0.0014
  S  S1270  1  0.372270  0.639030  0.713760  1.0  -0.0014
  S  S1271  1  0.627730  0.860970  0.713760  1.0  0.0015
  S  S1272  1  0.127730  0.360970  0.213760  1.0  0.0015
  S  S1273  1  0.360970  0.786240  0.372270  1.0  -0.0037
  S  S1274  1  0.860970  0.286240  0.872270  1.0  -0.0037
  S  S1275  1  0.639030  0.286240  0.127730  1.0  -0.0057
  S  S1276  1  0.139030  0.786240  0.627730  1.0  -0.0057
  S  S1277  1  0.139030  0.213760  0.872270  1.0  -0.006
  S  S1278  1  0.639030  0.713760  0.372270  1.0  -0.006
  S  S1279  1  0.860970  0.713760  0.627730  1.0  -0.004
  S  S1280  1  0.360970  0.213760  0.127730  1.0  -0.004
  S  S1281  1  0.786240  0.372270  0.360970  1.0  -0.0085
  S  S1282  1  0.286240  0.872270  0.860970  1.0  -0.0085
  S  S1283  1  0.286240  0.127730  0.639030  1.0  -0.0091
  S  S1284  1  0.786240  0.627730  0.139030  1.0  -0.0091
  S  S1285  1  0.213760  0.872270  0.139030  1.0  -0.0088
  S  S1286  1  0.713760  0.372270  0.639030  1.0  -0.0088
  S  S1287  1  0.713760  0.627730  0.860970  1.0  -0.0083
  S  S1288  1  0.213760  0.127730  0.360970  1.0  -0.0083
  O  O1289  1  0.112200  0.973540  0.413580  1.0  -0.6009
  O  O1290  1  0.182310  0.980870  0.453500  1.0  -0.633
  O  O1291  1  0.175290  0.079890  0.454690  1.0  -0.4561
  O  O1292  1  0.612200  0.473540  0.913580  1.0  -0.6009
  O  O1293  1  0.682310  0.480870  0.953500  1.0  -0.633
  O  O1294  1  0.675290  0.579890  0.954690  1.0  -0.4561
  O  O1295  1  0.387800  0.026460  0.913580  1.0  -0.6012
  O  O1296  1  0.317690  0.019130  0.953500  1.0  -0.6323
  O  O1297  1  0.324710  0.920110  0.954690  1.0  -0.4556
  O  O1298  1  0.887800  0.526460  0.413580  1.0  -0.6012
  O  O1299  1  0.817690  0.519130  0.453500  1.0  -0.6323
  O  O1300  1  0.824710  0.420110  0.454690  1.0  -0.4556
  O  O1301  1  0.887800  0.473540  0.086420  1.0  -0.6006
  O  O1302  1  0.817690  0.480870  0.046500  1.0  -0.6337
  O  O1303  1  0.824710  0.579890  0.045310  1.0  -0.4552
  O  O1304  1  0.387800  0.973540  0.586420  1.0  -0.6006
  O  O1305  1  0.317690  0.980870  0.546500  1.0  -0.6337
  O  O1306  1  0.324710  0.079890  0.545310  1.0  -0.4552
  O  O1307  1  0.612200  0.526460  0.586420  1.0  -0.6012
  O  O1308  1  0.682310  0.519130  0.546500  1.0  -0.6331
  O  O1309  1  0.675290  0.420110  0.545310  1.0  -0.4564
  O  O1310  1  0.112200  0.026460  0.086420  1.0  -0.6012
  O  O1311  1  0.182310  0.019130  0.046500  1.0  -0.6331
  O  O1312  1  0.175290  0.920110  0.045310  1.0  -0.4564
  O  O1313  1  0.413580  0.112200  0.973540  1.0  -0.6033
  O  O1314  1  0.453500  0.182310  0.980870  1.0  -0.6366
  O  O1315  1  0.454690  0.175290  0.079890  1.0  -0.4567
  O  O1316  1  0.913580  0.612200  0.473540  1.0  -0.6033
  O  O1317  1  0.953500  0.682310  0.480870  1.0  -0.6366
  O  O1318  1  0.954690  0.675290  0.579890  1.0  -0.4567
  O  O1319  1  0.913580  0.387800  0.026460  1.0  -0.6031
  O  O1320  1  0.953500  0.317690  0.019130  1.0  -0.6365
  O  O1321  1  0.954690  0.324710  0.920110  1.0  -0.4562
  O  O1322  1  0.413580  0.887800  0.526460  1.0  -0.6031
  O  O1323  1  0.453500  0.817690  0.519130  1.0  -0.6365
  O  O1324  1  0.454690  0.824710  0.420110  1.0  -0.4562
  O  O1325  1  0.086420  0.887800  0.473540  1.0  -0.6039
  O  O1326  1  0.046500  0.817690  0.480870  1.0  -0.6362
  O  O1327  1  0.045310  0.824710  0.579890  1.0  -0.4572
  O  O1328  1  0.586420  0.387800  0.973540  1.0  -0.6039
  O  O1329  1  0.546500  0.317690  0.980870  1.0  -0.6362
  O  O1330  1  0.545310  0.324710  0.079890  1.0  -0.4572
  O  O1331  1  0.586420  0.612200  0.526460  1.0  -0.6045
  O  O1332  1  0.546500  0.682310  0.519130  1.0  -0.6368
  O  O1333  1  0.545310  0.675290  0.420110  1.0  -0.4557
  O  O1334  1  0.086420  0.112200  0.026460  1.0  -0.6045
  O  O1335  1  0.046500  0.182310  0.019130  1.0  -0.6368
  O  O1336  1  0.045310  0.175290  0.920110  1.0  -0.4557
  O  O1337  1  0.973540  0.413580  0.112200  1.0  -0.6045
  O  O1338  1  0.980870  0.453500  0.182310  1.0  -0.6329
  O  O1339  1  0.079890  0.454690  0.175290  1.0  -0.4568
  O  O1340  1  0.473540  0.913580  0.612200  1.0  -0.6045
  O  O1341  1  0.480870  0.953500  0.682310  1.0  -0.6329
  O  O1342  1  0.579890  0.954690  0.675290  1.0  -0.4568
  O  O1343  1  0.026460  0.913580  0.387800  1.0  -0.6043
  O  O1344  1  0.019130  0.953500  0.317690  1.0  -0.632
  O  O1345  1  0.920110  0.954690  0.324710  1.0  -0.4566
  O  O1346  1  0.526460  0.413580  0.887800  1.0  -0.6043
  O  O1347  1  0.519130  0.453500  0.817690  1.0  -0.632
  O  O1348  1  0.420110  0.454690  0.824710  1.0  -0.4566
  O  O1349  1  0.473540  0.086420  0.887800  1.0  -0.6034
  O  O1350  1  0.480870  0.046500  0.817690  1.0  -0.6337
  O  O1351  1  0.579890  0.045310  0.824710  1.0  -0.4567
  O  O1352  1  0.973540  0.586420  0.387800  1.0  -0.6034
  O  O1353  1  0.980870  0.546500  0.317690  1.0  -0.6337
  O  O1354  1  0.079890  0.545310  0.324710  1.0  -0.4567
  O  O1355  1  0.526460  0.586420  0.612200  1.0  -0.6045
  O  O1356  1  0.519130  0.546500  0.682310  1.0  -0.6324
  O  O1357  1  0.420110  0.545310  0.675290  1.0  -0.4561
  O  O1358  1  0.026460  0.086420  0.112200  1.0  -0.6045
  O  O1359  1  0.019130  0.046500  0.182310  1.0  -0.6324
  O  O1360  1  0.920110  0.045310  0.175290  1.0  -0.4561
  O  O1361  1  0.223540  0.362200  0.663580  1.0  -0.604
  O  O1362  1  0.230870  0.432310  0.703500  1.0  -0.6344
  O  O1363  1  0.329890  0.425290  0.704690  1.0  -0.4579
  O  O1364  1  0.723540  0.862200  0.163580  1.0  -0.604
  O  O1365  1  0.730870  0.932310  0.203500  1.0  -0.6344
  O  O1366  1  0.829890  0.925290  0.204690  1.0  -0.4579
  O  O1367  1  0.276460  0.637800  0.163580  1.0  -0.6039
  O  O1368  1  0.269130  0.567690  0.203500  1.0  -0.6329
  O  O1369  1  0.170110  0.574710  0.204690  1.0  -0.4582
  O  O1370  1  0.776460  0.137800  0.663580  1.0  -0.6039
  O  O1371  1  0.769130  0.067690  0.703500  1.0  -0.6329
  O  O1372  1  0.670110  0.074710  0.704690  1.0  -0.4582
  O  O1373  1  0.723540  0.137800  0.336420  1.0  -0.6031
  O  O1374  1  0.730870  0.067690  0.296500  1.0  -0.6352
  O  O1375  1  0.829890  0.074710  0.295310  1.0  -0.4583
  O  O1376  1  0.223540  0.637800  0.836420  1.0  -0.6031
  O  O1377  1  0.230870  0.567690  0.796500  1.0  -0.6352
  O  O1378  1  0.329890  0.574710  0.795310  1.0  -0.4583
  O  O1379  1  0.776460  0.862200  0.836420  1.0  -0.6038
  O  O1380  1  0.769130  0.932310  0.796500  1.0  -0.6337
  O  O1381  1  0.670110  0.925290  0.795310  1.0  -0.4578
  O  O1382  1  0.276460  0.362200  0.336420  1.0  -0.6038
  O  O1383  1  0.269130  0.432310  0.296500  1.0  -0.6337
  O  O1384  1  0.170110  0.425290  0.295310  1.0  -0.4578
  O  O1385  1  0.362200  0.663580  0.223540  1.0  -0.6035
  O  O1386  1  0.432310  0.703500  0.230870  1.0  -0.6343
  O  O1387  1  0.425290  0.704690  0.329890  1.0  -0.4569
  O  O1388  1  0.862200  0.163580  0.723540  1.0  -0.6035
  O  O1389  1  0.932310  0.203500  0.730870  1.0  -0.6343
  O  O1390  1  0.925290  0.204690  0.829890  1.0  -0.4569
  O  O1391  1  0.637800  0.163580  0.276460  1.0  -0.6039
  O  O1392  1  0.567690  0.203500  0.269130  1.0  -0.6342
  O  O1393  1  0.574710  0.204690  0.170110  1.0  -0.4551
  O  O1394  1  0.137800  0.663580  0.776460  1.0  -0.6039
  O  O1395  1  0.067690  0.703500  0.769130  1.0  -0.6342
  O  O1396  1  0.074710  0.704690  0.670110  1.0  -0.4551
  O  O1397  1  0.137800  0.336420  0.723540  1.0  -0.6038
  O  O1398  1  0.067690  0.296500  0.730870  1.0  -0.6346
  O  O1399  1  0.074710  0.295310  0.829890  1.0  -0.4553
  O  O1400  1  0.637800  0.836420  0.223540  1.0  -0.6038
  O  O1401  1  0.567690  0.796500  0.230870  1.0  -0.6346
  O  O1402  1  0.574710  0.795310  0.329890  1.0  -0.4553
  O  O1403  1  0.862200  0.836420  0.776460  1.0  -0.6036
  O  O1404  1  0.932310  0.796500  0.769130  1.0  -0.6346
  O  O1405  1  0.925290  0.795310  0.670110  1.0  -0.4559
  O  O1406  1  0.362200  0.336420  0.276460  1.0  -0.6036
  O  O1407  1  0.432310  0.296500  0.269130  1.0  -0.6346
  O  O1408  1  0.425290  0.295310  0.170110  1.0  -0.4559
  O  O1409  1  0.663580  0.223540  0.362200  1.0  -0.6015
  O  O1410  1  0.703500  0.230870  0.432310  1.0  -0.6337
  O  O1411  1  0.704690  0.329890  0.425290  1.0  -0.4544
  O  O1412  1  0.163580  0.723540  0.862200  1.0  -0.6015
  O  O1413  1  0.203500  0.730870  0.932310  1.0  -0.6337
  O  O1414  1  0.204690  0.829890  0.925290  1.0  -0.4544
  O  O1415  1  0.163580  0.276460  0.637800  1.0  -0.6012
  O  O1416  1  0.203500  0.269130  0.567690  1.0  -0.6342
  O  O1417  1  0.204690  0.170110  0.574710  1.0  -0.4542
  O  O1418  1  0.663580  0.776460  0.137800  1.0  -0.6012
  O  O1419  1  0.703500  0.769130  0.067690  1.0  -0.6342
  O  O1420  1  0.704690  0.670110  0.074710  1.0  -0.4542
  O  O1421  1  0.336420  0.723540  0.137800  1.0  -0.6016
  O  O1422  1  0.296500  0.730870  0.067690  1.0  -0.6354
  O  O1423  1  0.295310  0.829890  0.074710  1.0  -0.455
  O  O1424  1  0.836420  0.223540  0.637800  1.0  -0.6016
  O  O1425  1  0.796500  0.230870  0.567690  1.0  -0.6354
  O  O1426  1  0.795310  0.329890  0.574710  1.0  -0.455
  O  O1427  1  0.836420  0.776460  0.862200  1.0  -0.6021
  O  O1428  1  0.796500  0.769130  0.932310  1.0  -0.6346
  O  O1429  1  0.795310  0.670110  0.925290  1.0  -0.4553
  O  O1430  1  0.336420  0.276460  0.362200  1.0  -0.6021
  O  O1431  1  0.296500  0.269130  0.432310  1.0  -0.6346
  O  O1432  1  0.295310  0.170110  0.425290  1.0  -0.4553
