# generated using pymatgen
data_CuH10(C11O2)2
_symmetry_space_group_name_H-M   'P 1'
_cell_length_a   47.49300000
_cell_length_b   51.75150000
_cell_length_c   32.96740000
_cell_angle_alpha   90.00000000
_cell_angle_beta   92.69000000
_cell_angle_gamma   90.00000000
_symmetry_Int_Tables_number   1
_chemical_formula_structural   CuH10(C11O2)2
_chemical_formula_sum   'Cu48 H480 C1056 O192'
_cell_volume   80939.10956641
_cell_formula_units_Z   48
loop_
 _symmetry_equiv_pos_site_id
 _symmetry_equiv_pos_as_xyz
  1  'x, y, z'
loop_
 _atom_site_type_symbol
 _atom_site_label
 _atom_site_symmetry_multiplicity
 _atom_site_fract_x
 _atom_site_fract_y
 _atom_site_fract_z
 _atom_site_occupancy
 _atom_site_charge
  Cu  Cu1  1  0.140080  0.853790  0.272090  1.0  0.9161
  Cu  Cu2  1  0.182120  0.886850  0.276570  1.0  0.9156
  Cu  Cu3  1  0.388360  0.876370  0.791450  1.0  0.9125
  Cu  Cu4  1  0.432140  0.845310  0.795680  1.0  0.8913
  Cu  Cu5  1  0.783880  0.003070  0.585150  1.0  0.9059
  Cu  Cu6  1  0.778290  0.001190  0.505450  1.0  0.907
  Cu  Cu7  1  0.640080  0.353790  0.272090  1.0  0.9161
  Cu  Cu8  1  0.682120  0.386850  0.276570  1.0  0.9156
  Cu  Cu9  1  0.888360  0.376370  0.791450  1.0  0.9125
  Cu  Cu10  1  0.932140  0.345310  0.795680  1.0  0.8913
  Cu  Cu11  1  0.283880  0.503070  0.585150  1.0  0.9059
  Cu  Cu12  1  0.278290  0.501190  0.505450  1.0  0.907
  Cu  Cu13  1  0.140080  0.146210  0.772090  1.0  0.9164
  Cu  Cu14  1  0.182120  0.113150  0.776570  1.0  0.9132
  Cu  Cu15  1  0.388360  0.123630  0.291450  1.0  0.9114
  Cu  Cu16  1  0.432140  0.154690  0.295680  1.0  0.8951
  Cu  Cu17  1  0.783880  0.996930  0.085150  1.0  0.9061
  Cu  Cu18  1  0.778290  0.998810  0.005450  1.0  0.9069
  Cu  Cu19  1  0.640080  0.646210  0.772090  1.0  0.9164
  Cu  Cu20  1  0.682120  0.613150  0.776570  1.0  0.9132
  Cu  Cu21  1  0.888360  0.623630  0.291450  1.0  0.9114
  Cu  Cu22  1  0.932140  0.654690  0.295680  1.0  0.8951
  Cu  Cu23  1  0.283880  0.496930  0.085150  1.0  0.9061
  Cu  Cu24  1  0.278290  0.498810  0.005450  1.0  0.9069
  Cu  Cu25  1  0.859920  0.853790  0.227910  1.0  0.9136
  Cu  Cu26  1  0.817880  0.886850  0.223430  1.0  0.9146
  Cu  Cu27  1  0.611640  0.876370  0.708550  1.0  0.9119
  Cu  Cu28  1  0.567860  0.845310  0.704320  1.0  0.8925
  Cu  Cu29  1  0.216120  0.003070  0.914850  1.0  0.9057
  Cu  Cu30  1  0.221710  0.001190  0.994550  1.0  0.9071
  Cu  Cu31  1  0.359920  0.353790  0.227910  1.0  0.9136
  Cu  Cu32  1  0.317880  0.386850  0.223430  1.0  0.9146
  Cu  Cu33  1  0.111640  0.376370  0.708550  1.0  0.9119
  Cu  Cu34  1  0.067860  0.345310  0.704320  1.0  0.8925
  Cu  Cu35  1  0.716120  0.503070  0.914850  1.0  0.9057
  Cu  Cu36  1  0.721710  0.501190  0.994550  1.0  0.9071
  Cu  Cu37  1  0.859920  0.146210  0.727910  1.0  0.9164
  Cu  Cu38  1  0.817880  0.113150  0.723430  1.0  0.9137
  Cu  Cu39  1  0.611640  0.123630  0.208550  1.0  0.9104
  Cu  Cu40  1  0.567860  0.154690  0.204320  1.0  0.8943
  Cu  Cu41  1  0.216120  0.996930  0.414850  1.0  0.9059
  Cu  Cu42  1  0.221710  0.998810  0.494550  1.0  0.9069
  Cu  Cu43  1  0.359920  0.646210  0.727910  1.0  0.9164
  Cu  Cu44  1  0.317880  0.613150  0.723430  1.0  0.9137
  Cu  Cu45  1  0.111640  0.623630  0.208550  1.0  0.9104
  Cu  Cu46  1  0.067860  0.654690  0.204320  1.0  0.8943
  Cu  Cu47  1  0.716120  0.496930  0.414850  1.0  0.9059
  Cu  Cu48  1  0.721710  0.498810  0.494550  1.0  0.9069
  H  H49  1  0.184400  0.791100  0.335000  1.0  0.1024
  H  H50  1  0.211900  0.763500  0.376400  1.0  0.1085
  H  H51  1  0.263600  0.822900  0.407500  1.0  0.1121
  H  H52  1  0.236100  0.850500  0.366100  1.0  0.103
  H  H53  1  0.300800  0.781700  0.507600  1.0  0.1133
  H  H54  1  0.328900  0.716400  0.562800  1.0  0.1052
  H  H55  1  0.276200  0.712200  0.463400  1.0  0.1072
  H  H56  1  0.327600  0.822800  0.628500  1.0  0.113
  H  H57  1  0.346600  0.846400  0.683400  1.0  0.1035
  H  H58  1  0.406300  0.791700  0.702800  1.0  0.1047
  H  H59  1  0.387300  0.768100  0.648000  1.0  0.113
  H  H60  1  0.290200  0.624900  0.468500  1.0  0.1119
  H  H61  1  0.284900  0.580400  0.475300  1.0  0.1016
  H  H62  1  0.300800  0.586600  0.596200  1.0  0.0977
  H  H63  1  0.306100  0.631100  0.589400  1.0  0.1004
  H  H64  1  0.417400  0.932900  0.712300  1.0  0.1062
  H  H65  1  0.438800  0.961900  0.669300  1.0  0.113
  H  H66  1  0.509100  0.917900  0.673600  1.0  0.1021
  H  H67  1  0.487600  0.888900  0.716600  1.0  0.1001
  H  H68  1  0.551400  0.983800  0.607100  1.0  0.1071
  H  H69  1  0.546200  0.037400  0.518100  1.0  0.1106
  H  H70  1  0.475300  0.008700  0.563800  1.0  0.1113
  H  H71  1  0.649500  0.010100  0.619000  1.0  0.1099
  H  H72  1  0.698200  0.008400  0.613400  1.0  0.1052
  H  H73  1  0.687700  0.012800  0.491400  1.0  0.1033
  H  H74  1  0.639000  0.014400  0.497000  1.0  0.1118
  H  H75  1  0.427100  0.053200  0.451400  1.0  0.1057
  H  H76  1  0.407800  0.077700  0.397800  1.0  0.1037
  H  H77  1  0.481300  0.116300  0.391400  1.0  0.1007
  H  H78  1  0.500600  0.091700  0.445000  1.0  0.1115
  H  H79  1  0.399800  0.787100  0.876700  1.0  0.1022
  H  H80  1  0.375900  0.761200  0.921500  1.0  0.1091
  H  H81  1  0.308400  0.808400  0.910000  1.0  0.1069
  H  H82  1  0.332300  0.834300  0.865100  1.0  0.1026
  H  H83  1  0.302500  0.707200  0.988100  1.0  0.1098
  H  H84  1  0.252700  0.714900  0.083200  1.0  0.1076
  H  H85  1  0.281100  0.778200  0.026500  1.0  0.1108
  H  H86  1  0.265800  0.623100  0.982400  1.0  0.1085
  H  H87  1  0.266300  0.578100  0.984500  1.0  0.1041
  H  H88  1  0.278700  0.580500  0.106400  1.0  0.1006
  H  H89  1  0.278200  0.625500  0.104300  1.0  0.11
  H  H90  1  0.187100  0.777300  0.133000  1.0  0.1058
  H  H91  1  0.164500  0.804100  0.178000  1.0  0.1027
  H  H92  1  0.233800  0.849200  0.188500  1.0  0.101
  H  H93  1  0.256400  0.822400  0.143500  1.0  0.108
  H  H94  1  0.863900  0.976900  0.484200  1.0  0.0999
  H  H95  1  0.912100  0.968700  0.482900  1.0  0.1085
  H  H96  1  0.921700  0.989600  0.600600  1.0  0.1081
  H  H97  1  0.873500  0.997800  0.601900  1.0  0.1006
  H  H98  1  0.014400  0.951900  0.493900  1.0  0.1114
  H  H99  1  0.085500  0.982400  0.545700  1.0  0.1033
  H  H100  1  0.009800  0.002200  0.586800  1.0  0.1127
  H  H101  1  0.067900  0.900200  0.417500  1.0  0.1125
  H  H102  1  0.091600  0.880500  0.365500  1.0  0.1023
  H  H103  1  0.154100  0.933100  0.379500  1.0  0.0972
  H  H104  1  0.130400  0.952700  0.431500  1.0  0.097
  H  H105  1  0.129000  0.027600  0.648200  1.0  0.1116
  H  H106  1  0.152300  0.056600  0.692100  1.0  0.1052
  H  H107  1  0.081400  0.099400  0.696000  1.0  0.1012
  H  H108  1  0.058000  0.070300  0.652200  1.0  0.1135
  H  H109  1  0.684400  0.291100  0.335000  1.0  0.1024
  H  H110  1  0.711900  0.263500  0.376400  1.0  0.1085
  H  H111  1  0.763600  0.322900  0.407500  1.0  0.1121
  H  H112  1  0.736100  0.350500  0.366100  1.0  0.103
  H  H113  1  0.800800  0.281700  0.507600  1.0  0.1133
  H  H114  1  0.828900  0.216400  0.562800  1.0  0.1052
  H  H115  1  0.776200  0.212200  0.463400  1.0  0.1072
  H  H116  1  0.827600  0.322800  0.628500  1.0  0.113
  H  H117  1  0.846600  0.346400  0.683400  1.0  0.1035
  H  H118  1  0.906300  0.291700  0.702800  1.0  0.1047
  H  H119  1  0.887300  0.268100  0.648000  1.0  0.113
  H  H120  1  0.790200  0.124900  0.468500  1.0  0.1119
  H  H121  1  0.784900  0.080400  0.475300  1.0  0.1016
  H  H122  1  0.800800  0.086600  0.596200  1.0  0.0977
  H  H123  1  0.806100  0.131100  0.589400  1.0  0.1004
  H  H124  1  0.917400  0.432900  0.712300  1.0  0.1062
  H  H125  1  0.938800  0.461900  0.669300  1.0  0.1137
  H  H126  1  0.009100  0.417900  0.673600  1.0  0.1021
  H  H127  1  0.987600  0.388900  0.716600  1.0  0.1001
  H  H128  1  0.051400  0.483800  0.607100  1.0  0.1071
  H  H129  1  0.046200  0.537400  0.518100  1.0  0.1106
  H  H130  1  0.975300  0.508700  0.563800  1.0  0.1113
  H  H131  1  0.149500  0.510100  0.619000  1.0  0.1099
  H  H132  1  0.198200  0.508400  0.613400  1.0  0.1052
  H  H133  1  0.187700  0.512800  0.491400  1.0  0.1033
  H  H134  1  0.139000  0.514400  0.497000  1.0  0.1114
  H  H135  1  0.927100  0.553200  0.451400  1.0  0.1057
  H  H136  1  0.907800  0.577700  0.397800  1.0  0.1037
  H  H137  1  0.981300  0.616300  0.391400  1.0  0.1007
  H  H138  1  0.000600  0.591700  0.445000  1.0  0.1116
  H  H139  1  0.899800  0.287100  0.876700  1.0  0.1022
  H  H140  1  0.875900  0.261200  0.921500  1.0  0.1093
  H  H141  1  0.808400  0.308400  0.910000  1.0  0.1069
  H  H142  1  0.832300  0.334300  0.865100  1.0  0.1026
  H  H143  1  0.802500  0.207200  0.988100  1.0  0.1098
  H  H144  1  0.752700  0.214900  0.083200  1.0  0.1076
  H  H145  1  0.781100  0.278200  0.026500  1.0  0.1108
  H  H146  1  0.765800  0.123100  0.982400  1.0  0.1085
  H  H147  1  0.766300  0.078100  0.984500  1.0  0.1041
  H  H148  1  0.778700  0.080500  0.106400  1.0  0.1006
  H  H149  1  0.778200  0.125500  0.104300  1.0  0.11
  H  H150  1  0.687100  0.277300  0.133000  1.0  0.1058
  H  H151  1  0.664500  0.304100  0.178000  1.0  0.1027
  H  H152  1  0.733800  0.349200  0.188500  1.0  0.101
  H  H153  1  0.756400  0.322400  0.143500  1.0  0.108
  H  H154  1  0.363900  0.476900  0.484200  1.0  0.0999
  H  H155  1  0.412100  0.468700  0.482900  1.0  0.1085
  H  H156  1  0.421700  0.489600  0.600600  1.0  0.1081
  H  H157  1  0.373500  0.497800  0.601900  1.0  0.1006
  H  H158  1  0.514400  0.451900  0.493900  1.0  0.1115
  H  H159  1  0.585500  0.482400  0.545700  1.0  0.1033
  H  H160  1  0.509800  0.502200  0.586800  1.0  0.1127
  H  H161  1  0.567900  0.400200  0.417500  1.0  0.1125
  H  H162  1  0.591600  0.380500  0.365500  1.0  0.1023
  H  H163  1  0.654100  0.433100  0.379500  1.0  0.0972
  H  H164  1  0.630400  0.452700  0.431500  1.0  0.097
  H  H165  1  0.629000  0.527600  0.648200  1.0  0.1116
  H  H166  1  0.652300  0.556600  0.692100  1.0  0.1052
  H  H167  1  0.581400  0.599400  0.696000  1.0  0.1012
  H  H168  1  0.558000  0.570300  0.652200  1.0  0.1135
  H  H169  1  0.184400  0.208900  0.835000  1.0  0.1027
  H  H170  1  0.211900  0.236500  0.876400  1.0  0.1086
  H  H171  1  0.263600  0.177100  0.907500  1.0  0.1119
  H  H172  1  0.236100  0.149500  0.866100  1.0  0.1035
  H  H173  1  0.300800  0.218300  0.007600  1.0  0.1132
  H  H174  1  0.328900  0.283600  0.062800  1.0  0.1051
  H  H175  1  0.276200  0.287800  0.963400  1.0  0.1079
  H  H176  1  0.327600  0.177200  0.128500  1.0  0.1129
  H  H177  1  0.346600  0.153600  0.183400  1.0  0.1032
  H  H178  1  0.406300  0.208300  0.202800  1.0  0.1048
  H  H179  1  0.387300  0.231900  0.148000  1.0  0.1132
  H  H180  1  0.290200  0.375100  0.968500  1.0  0.1118
  H  H181  1  0.284900  0.419600  0.975300  1.0  0.1015
  H  H182  1  0.300800  0.413400  0.096200  1.0  0.0974
  H  H183  1  0.306100  0.368900  0.089400  1.0  0.1006
  H  H184  1  0.417400  0.067100  0.212300  1.0  0.1065
  H  H185  1  0.438800  0.038100  0.169300  1.0  0.1124
  H  H186  1  0.509100  0.082100  0.173600  1.0  0.1019
  H  H187  1  0.487600  0.111100  0.216600  1.0  0.1004
  H  H188  1  0.551400  0.016200  0.107100  1.0  0.1074
  H  H189  1  0.546200  0.962600  0.018100  1.0  0.1097
  H  H190  1  0.475300  0.991300  0.063800  1.0  0.1115
  H  H191  1  0.649500  0.989900  0.119000  1.0  0.1101
  H  H192  1  0.698200  0.991600  0.113400  1.0  0.105
  H  H193  1  0.687700  0.987200  0.991400  1.0  0.1034
  H  H194  1  0.639000  0.985600  0.997000  1.0  0.1115
  H  H195  1  0.427100  0.946800  0.951400  1.0  0.1054
  H  H196  1  0.407800  0.922300  0.897800  1.0  0.1039
  H  H197  1  0.481300  0.883700  0.891400  1.0  0.1003
  H  H198  1  0.500600  0.908300  0.945000  1.0  0.1104
  H  H199  1  0.399800  0.212900  0.376700  1.0  0.1026
  H  H200  1  0.375900  0.238800  0.421500  1.0  0.112
  H  H201  1  0.308400  0.191600  0.410000  1.0  0.1069
  H  H202  1  0.332300  0.165700  0.365100  1.0  0.1018
  H  H203  1  0.302500  0.292800  0.488100  1.0  0.1102
  H  H204  1  0.252700  0.285100  0.583200  1.0  0.1077
  H  H205  1  0.281100  0.221800  0.526500  1.0  0.1112
  H  H206  1  0.265800  0.376900  0.482400  1.0  0.1085
  H  H207  1  0.266300  0.421900  0.484500  1.0  0.1041
  H  H208  1  0.278700  0.419500  0.606400  1.0  0.1007
  H  H209  1  0.278200  0.374500  0.604300  1.0  0.1097
  H  H210  1  0.187100  0.222700  0.633000  1.0  0.1066
  H  H211  1  0.164500  0.195900  0.678000  1.0  0.1026
  H  H212  1  0.233800  0.150800  0.688500  1.0  0.1005
  H  H213  1  0.256400  0.177600  0.643500  1.0  0.1074
  H  H214  1  0.863900  0.023100  0.984200  1.0  0.1
  H  H215  1  0.912100  0.031300  0.982900  1.0  0.1082
  H  H216  1  0.921700  0.010400  0.100600  1.0  0.1077
  H  H217  1  0.873500  0.002200  0.101900  1.0  0.1001
  H  H218  1  0.014400  0.048100  0.993900  1.0  0.1129
  H  H219  1  0.085500  0.017600  0.045700  1.0  0.1038
  H  H220  1  0.009800  0.997800  0.086800  1.0  0.1126
  H  H221  1  0.067900  0.099800  0.917500  1.0  0.1119
  H  H222  1  0.091600  0.119500  0.865500  1.0  0.1028
  H  H223  1  0.154100  0.066900  0.879500  1.0  0.0972
  H  H224  1  0.130400  0.047300  0.931500  1.0  0.0975
  H  H225  1  0.129000  0.972400  0.148200  1.0  0.1125
  H  H226  1  0.152300  0.943400  0.192100  1.0  0.1053
  H  H227  1  0.081400  0.900600  0.196000  1.0  0.1005
  H  H228  1  0.058000  0.929700  0.152200  1.0  0.1135
  H  H229  1  0.684400  0.708900  0.835000  1.0  0.1027
  H  H230  1  0.711900  0.736500  0.876400  1.0  0.1086
  H  H231  1  0.763600  0.677100  0.907500  1.0  0.1119
  H  H232  1  0.736100  0.649500  0.866100  1.0  0.1035
  H  H233  1  0.800800  0.718300  0.007600  1.0  0.1132
  H  H234  1  0.828900  0.783600  0.062800  1.0  0.1051
  H  H235  1  0.776200  0.787800  0.963400  1.0  0.1079
  H  H236  1  0.827600  0.677200  0.128500  1.0  0.1129
  H  H237  1  0.846600  0.653600  0.183400  1.0  0.1032
  H  H238  1  0.906300  0.708300  0.202800  1.0  0.1048
  H  H239  1  0.887300  0.731900  0.148000  1.0  0.1132
  H  H240  1  0.790200  0.875100  0.968500  1.0  0.1118
  H  H241  1  0.784900  0.919600  0.975300  1.0  0.1015
  H  H242  1  0.800800  0.913400  0.096200  1.0  0.0974
  H  H243  1  0.806100  0.868900  0.089400  1.0  0.1006
  H  H244  1  0.917400  0.567100  0.212300  1.0  0.1065
  H  H245  1  0.938800  0.538100  0.169300  1.0  0.113
  H  H246  1  0.009100  0.582100  0.173600  1.0  0.1019
  H  H247  1  0.987600  0.611100  0.216600  1.0  0.1004
  H  H248  1  0.051400  0.516200  0.107100  1.0  0.1074
  H  H249  1  0.046200  0.462600  0.018100  1.0  0.1097
  H  H250  1  0.975300  0.491300  0.063800  1.0  0.1115
  H  H251  1  0.149500  0.489900  0.119000  1.0  0.1101
  H  H252  1  0.198200  0.491600  0.113400  1.0  0.105
  H  H253  1  0.187700  0.487200  0.991400  1.0  0.1034
  H  H254  1  0.139000  0.485600  0.997000  1.0  0.1111
  H  H255  1  0.927100  0.446800  0.951400  1.0  0.1054
  H  H256  1  0.907800  0.422300  0.897800  1.0  0.1039
  H  H257  1  0.981300  0.383700  0.891400  1.0  0.1003
  H  H258  1  0.000600  0.408300  0.945000  1.0  0.1103
  H  H259  1  0.899800  0.712900  0.376700  1.0  0.1026
  H  H260  1  0.875900  0.738800  0.421500  1.0  0.1111
  H  H261  1  0.808400  0.691600  0.410000  1.0  0.1069
  H  H262  1  0.832300  0.665700  0.365100  1.0  0.1018
  H  H263  1  0.802500  0.792800  0.488100  1.0  0.1102
  H  H264  1  0.752700  0.785100  0.583200  1.0  0.1077
  H  H265  1  0.781100  0.721800  0.526500  1.0  0.1112
  H  H266  1  0.765800  0.876900  0.482400  1.0  0.1085
  H  H267  1  0.766300  0.921900  0.484500  1.0  0.1041
  H  H268  1  0.778700  0.919500  0.606400  1.0  0.1007
  H  H269  1  0.778200  0.874500  0.604300  1.0  0.1099
  H  H270  1  0.687100  0.722700  0.633000  1.0  0.1066
  H  H271  1  0.664500  0.695900  0.678000  1.0  0.1026
  H  H272  1  0.733800  0.650800  0.688500  1.0  0.1005
  H  H273  1  0.756400  0.677600  0.643500  1.0  0.1082
  H  H274  1  0.363900  0.523100  0.984200  1.0  0.1
  H  H275  1  0.412100  0.531300  0.982900  1.0  0.1082
  H  H276  1  0.421700  0.510400  0.100600  1.0  0.1077
  H  H277  1  0.373500  0.502200  0.101900  1.0  0.1001
  H  H278  1  0.514400  0.548100  0.993900  1.0  0.1129
  H  H279  1  0.585500  0.517600  0.045700  1.0  0.1038
  H  H280  1  0.509800  0.497800  0.086800  1.0  0.1126
  H  H281  1  0.567900  0.599800  0.917500  1.0  0.1119
  H  H282  1  0.591600  0.619500  0.865500  1.0  0.1028
  H  H283  1  0.654100  0.566900  0.879500  1.0  0.0972
  H  H284  1  0.630400  0.547300  0.931500  1.0  0.0975
  H  H285  1  0.629000  0.472400  0.148200  1.0  0.1125
  H  H286  1  0.652300  0.443400  0.192100  1.0  0.1053
  H  H287  1  0.581400  0.400600  0.196000  1.0  0.1005
  H  H288  1  0.558000  0.429700  0.152200  1.0  0.1135
  H  H289  1  0.815600  0.791100  0.165000  1.0  0.1024
  H  H290  1  0.788100  0.763500  0.123600  1.0  0.1081
  H  H291  1  0.736400  0.822900  0.092500  1.0  0.1124
  H  H292  1  0.763900  0.850500  0.133900  1.0  0.1036
  H  H293  1  0.699200  0.781700  0.992400  1.0  0.1134
  H  H294  1  0.671100  0.716400  0.937200  1.0  0.1052
  H  H295  1  0.723800  0.712200  0.036600  1.0  0.1094
  H  H296  1  0.672400  0.822800  0.871500  1.0  0.113
  H  H297  1  0.653400  0.846400  0.816600  1.0  0.1036
  H  H298  1  0.593700  0.791700  0.797200  1.0  0.1045
  H  H299  1  0.612700  0.768100  0.852000  1.0  0.1127
  H  H300  1  0.709800  0.624900  0.031500  1.0  0.1124
  H  H301  1  0.715100  0.580400  0.024700  1.0  0.1016
  H  H302  1  0.699200  0.586600  0.903800  1.0  0.0988
  H  H303  1  0.693900  0.631100  0.910600  1.0  0.1003
  H  H304  1  0.582600  0.932900  0.787700  1.0  0.1064
  H  H305  1  0.561200  0.961900  0.830700  1.0  0.1125
  H  H306  1  0.490900  0.917900  0.826400  1.0  0.1019
  H  H307  1  0.512400  0.888900  0.783400  1.0  0.1
  H  H308  1  0.448600  0.983800  0.892900  1.0  0.106
  H  H309  1  0.453800  0.037400  0.981900  1.0  0.1115
  H  H310  1  0.524700  0.008700  0.936200  1.0  0.1094
  H  H311  1  0.350500  0.010100  0.881000  1.0  0.1102
  H  H312  1  0.301800  0.008400  0.886600  1.0  0.1053
  H  H313  1  0.312300  0.012800  0.008600  1.0  0.1029
  H  H314  1  0.361000  0.014400  0.003000  1.0  0.1119
  H  H315  1  0.572900  0.053200  0.048600  1.0  0.1058
  H  H316  1  0.592200  0.077700  0.102200  1.0  0.1028
  H  H317  1  0.518700  0.116300  0.108600  1.0  0.1006
  H  H318  1  0.499400  0.091700  0.055000  1.0  0.1109
  H  H319  1  0.600200  0.787100  0.623300  1.0  0.1021
  H  H320  1  0.624100  0.761200  0.578500  1.0  0.112
  H  H321  1  0.691600  0.808400  0.590000  1.0  0.1073
  H  H322  1  0.667700  0.834300  0.634900  1.0  0.1023
  H  H323  1  0.697500  0.707200  0.511900  1.0  0.1101
  H  H324  1  0.747300  0.714900  0.416800  1.0  0.1064
  H  H325  1  0.718900  0.778200  0.473500  1.0  0.1117
  H  H326  1  0.734200  0.623100  0.517600  1.0  0.1088
  H  H327  1  0.733700  0.578100  0.515500  1.0  0.1038
  H  H328  1  0.721300  0.580500  0.393600  1.0  0.1007
  H  H329  1  0.721800  0.625500  0.395700  1.0  0.1092
  H  H330  1  0.812900  0.777300  0.367000  1.0  0.1059
  H  H331  1  0.835500  0.804100  0.322000  1.0  0.1034
  H  H332  1  0.766200  0.849200  0.311500  1.0  0.101
  H  H333  1  0.743600  0.822400  0.356500  1.0  0.1083
  H  H334  1  0.136100  0.976900  0.015800  1.0  0.0998
  H  H335  1  0.087900  0.968700  0.017100  1.0  0.108
  H  H336  1  0.078300  0.989600  0.899400  1.0  0.1066
  H  H337  1  0.126500  0.997800  0.898100  1.0  0.1005
  H  H338  1  0.985600  0.951900  0.006100  1.0  0.1113
  H  H339  1  0.914500  0.982400  0.954300  1.0  0.1043
  H  H340  1  0.990200  0.002200  0.913200  1.0  0.1108
  H  H341  1  0.932100  0.900200  0.082500  1.0  0.1119
  H  H342  1  0.908400  0.880500  0.134500  1.0  0.1024
  H  H343  1  0.845900  0.933100  0.120500  1.0  0.0986
  H  H344  1  0.869600  0.952700  0.068500  1.0  0.0971
  H  H345  1  0.871000  0.027600  0.851800  1.0  0.1112
  H  H346  1  0.847700  0.056600  0.807900  1.0  0.106
  H  H347  1  0.918600  0.099400  0.804000  1.0  0.1014
  H  H348  1  0.942000  0.070300  0.847800  1.0  0.1133
  H  H349  1  0.315600  0.291100  0.165000  1.0  0.1024
  H  H350  1  0.288100  0.263500  0.123600  1.0  0.1081
  H  H351  1  0.236400  0.322900  0.092500  1.0  0.1124
  H  H352  1  0.263900  0.350500  0.133900  1.0  0.1036
  H  H353  1  0.199200  0.281700  0.992400  1.0  0.1134
  H  H354  1  0.171100  0.216400  0.937200  1.0  0.1052
  H  H355  1  0.223800  0.212200  0.036600  1.0  0.1094
  H  H356  1  0.172400  0.322800  0.871500  1.0  0.113
  H  H357  1  0.153400  0.346400  0.816600  1.0  0.1036
  H  H358  1  0.093700  0.291700  0.797200  1.0  0.1045
  H  H359  1  0.112700  0.268100  0.852000  1.0  0.1127
  H  H360  1  0.209800  0.124900  0.031500  1.0  0.1124
  H  H361  1  0.215100  0.080400  0.024700  1.0  0.1016
  H  H362  1  0.199200  0.086600  0.903800  1.0  0.0988
  H  H363  1  0.193900  0.131100  0.910600  1.0  0.1003
  H  H364  1  0.082600  0.432900  0.787700  1.0  0.1064
  H  H365  1  0.061200  0.461900  0.830700  1.0  0.1127
  H  H366  1  0.990900  0.417900  0.826400  1.0  0.1019
  H  H367  1  0.012400  0.388900  0.783400  1.0  0.1
  H  H368  1  0.948600  0.483800  0.892900  1.0  0.106
  H  H369  1  0.953800  0.537400  0.981900  1.0  0.1115
  H  H370  1  0.024700  0.508700  0.936200  1.0  0.1094
  H  H371  1  0.850500  0.510100  0.881000  1.0  0.1102
  H  H372  1  0.801800  0.508400  0.886600  1.0  0.1053
  H  H373  1  0.812300  0.512800  0.008600  1.0  0.1029
  H  H374  1  0.861000  0.514400  0.003000  1.0  0.1114
  H  H375  1  0.072900  0.553200  0.048600  1.0  0.1058
  H  H376  1  0.092200  0.577700  0.102200  1.0  0.1028
  H  H377  1  0.018700  0.616300  0.108600  1.0  0.1006
  H  H378  1  0.999400  0.591700  0.055000  1.0  0.1107
  H  H379  1  0.100200  0.287100  0.623300  1.0  0.1021
  H  H380  1  0.124100  0.261200  0.578500  1.0  0.1108
  H  H381  1  0.191600  0.308400  0.590000  1.0  0.1073
  H  H382  1  0.167700  0.334300  0.634900  1.0  0.1023
  H  H383  1  0.197500  0.207200  0.511900  1.0  0.1101
  H  H384  1  0.247300  0.214900  0.416800  1.0  0.1064
  H  H385  1  0.218900  0.278200  0.473500  1.0  0.1117
  H  H386  1  0.234200  0.123100  0.517600  1.0  0.1088
  H  H387  1  0.233700  0.078100  0.515500  1.0  0.1038
  H  H388  1  0.221300  0.080500  0.393600  1.0  0.1007
  H  H389  1  0.221800  0.125500  0.395700  1.0  0.1095
  H  H390  1  0.312900  0.277300  0.367000  1.0  0.1059
  H  H391  1  0.335500  0.304100  0.322000  1.0  0.1034
  H  H392  1  0.266200  0.349200  0.311500  1.0  0.101
  H  H393  1  0.243600  0.322400  0.356500  1.0  0.1091
  H  H394  1  0.636100  0.476900  0.015800  1.0  0.0998
  H  H395  1  0.587900  0.468700  0.017100  1.0  0.108
  H  H396  1  0.578300  0.489600  0.899400  1.0  0.1066
  H  H397  1  0.626500  0.497800  0.898100  1.0  0.1005
  H  H398  1  0.485600  0.451900  0.006100  1.0  0.1121
  H  H399  1  0.414500  0.482400  0.954300  1.0  0.1043
  H  H400  1  0.490200  0.502200  0.913200  1.0  0.1108
  H  H401  1  0.432100  0.400200  0.082500  1.0  0.1119
  H  H402  1  0.408400  0.380500  0.134500  1.0  0.1024
  H  H403  1  0.345900  0.433100  0.120500  1.0  0.0986
  H  H404  1  0.369600  0.452700  0.068500  1.0  0.0971
  H  H405  1  0.371000  0.527600  0.851800  1.0  0.1112
  H  H406  1  0.347700  0.556600  0.807900  1.0  0.106
  H  H407  1  0.418600  0.599400  0.804000  1.0  0.1014
  H  H408  1  0.442000  0.570300  0.847800  1.0  0.1133
  H  H409  1  0.815600  0.208900  0.665000  1.0  0.1028
  H  H410  1  0.788100  0.236500  0.623600  1.0  0.109
  H  H411  1  0.736400  0.177100  0.592500  1.0  0.1121
  H  H412  1  0.763900  0.149500  0.633900  1.0  0.1033
  H  H413  1  0.699200  0.218300  0.492400  1.0  0.1131
  H  H414  1  0.671100  0.283600  0.437200  1.0  0.1053
  H  H415  1  0.723800  0.287800  0.536600  1.0  0.1095
  H  H416  1  0.672400  0.177200  0.371500  1.0  0.1127
  H  H417  1  0.653400  0.153600  0.316600  1.0  0.1034
  H  H418  1  0.593700  0.208300  0.297200  1.0  0.1048
  H  H419  1  0.612700  0.231900  0.352000  1.0  0.1128
  H  H420  1  0.709800  0.375100  0.531500  1.0  0.1123
  H  H421  1  0.715100  0.419600  0.524700  1.0  0.1018
  H  H422  1  0.699200  0.413400  0.403800  1.0  0.0988
  H  H423  1  0.693900  0.368900  0.410600  1.0  0.1001
  H  H424  1  0.582600  0.067100  0.287700  1.0  0.1063
  H  H425  1  0.561200  0.038100  0.330700  1.0  0.1125
  H  H426  1  0.490900  0.082100  0.326400  1.0  0.1018
  H  H427  1  0.512400  0.111100  0.283400  1.0  0.1005
  H  H428  1  0.448600  0.016200  0.392900  1.0  0.1064
  H  H429  1  0.453800  0.962600  0.481900  1.0  0.111
  H  H430  1  0.524700  0.991300  0.436200  1.0  0.1098
  H  H431  1  0.350500  0.989900  0.381000  1.0  0.1105
  H  H432  1  0.301800  0.991600  0.386600  1.0  0.1055
  H  H433  1  0.312300  0.987200  0.508600  1.0  0.1032
  H  H434  1  0.361000  0.985600  0.503000  1.0  0.1119
  H  H435  1  0.572900  0.946800  0.548600  1.0  0.1055
  H  H436  1  0.592200  0.922300  0.602200  1.0  0.1029
  H  H437  1  0.518700  0.883700  0.608600  1.0  0.1001
  H  H438  1  0.499400  0.908300  0.555000  1.0  0.1122
  H  H439  1  0.600200  0.212900  0.123300  1.0  0.1017
  H  H440  1  0.624100  0.238800  0.078500  1.0  0.1103
  H  H441  1  0.691600  0.191600  0.090000  1.0  0.1067
  H  H442  1  0.667700  0.165700  0.134900  1.0  0.1019
  H  H443  1  0.697500  0.292800  0.011900  1.0  0.1104
  H  H444  1  0.747300  0.285100  0.916800  1.0  0.1063
  H  H445  1  0.718900  0.221800  0.973500  1.0  0.1114
  H  H446  1  0.734200  0.376900  0.017600  1.0  0.1085
  H  H447  1  0.733700  0.421900  0.015500  1.0  0.1039
  H  H448  1  0.721300  0.419500  0.893600  1.0  0.1006
  H  H449  1  0.721800  0.374500  0.895700  1.0  0.1094
  H  H450  1  0.812900  0.222700  0.867000  1.0  0.106
  H  H451  1  0.835500  0.195900  0.822000  1.0  0.1038
  H  H452  1  0.766200  0.150800  0.811500  1.0  0.1003
  H  H453  1  0.743600  0.177600  0.856500  1.0  0.1085
  H  H454  1  0.136100  0.023100  0.515800  1.0  0.0998
  H  H455  1  0.087900  0.031300  0.517100  1.0  0.108
  H  H456  1  0.078300  0.010400  0.399400  1.0  0.1066
  H  H457  1  0.126500  0.002200  0.398100  1.0  0.1002
  H  H458  1  0.985600  0.048100  0.506100  1.0  0.1127
  H  H459  1  0.914500  0.017600  0.454300  1.0  0.1037
  H  H460  1  0.990200  0.997800  0.413200  1.0  0.1105
  H  H461  1  0.932100  0.099800  0.582500  1.0  0.1124
  H  H462  1  0.908400  0.119500  0.634500  1.0  0.1026
  H  H463  1  0.845900  0.066900  0.620500  1.0  0.0991
  H  H464  1  0.869600  0.047300  0.568500  1.0  0.0972
  H  H465  1  0.871000  0.972400  0.351800  1.0  0.1118
  H  H466  1  0.847700  0.943400  0.307900  1.0  0.1052
  H  H467  1  0.918600  0.900600  0.304000  1.0  0.101
  H  H468  1  0.942000  0.929700  0.347800  1.0  0.1132
  H  H469  1  0.315600  0.708900  0.665000  1.0  0.1028
  H  H470  1  0.288100  0.736500  0.623600  1.0  0.109
  H  H471  1  0.236400  0.677100  0.592500  1.0  0.1121
  H  H472  1  0.263900  0.649500  0.633900  1.0  0.1033
  H  H473  1  0.199200  0.718300  0.492400  1.0  0.1131
  H  H474  1  0.171100  0.783600  0.437200  1.0  0.1053
  H  H475  1  0.223800  0.787800  0.536600  1.0  0.1095
  H  H476  1  0.172400  0.677200  0.371500  1.0  0.1127
  H  H477  1  0.153400  0.653600  0.316600  1.0  0.1034
  H  H478  1  0.093700  0.708300  0.297200  1.0  0.1048
  H  H479  1  0.112700  0.731900  0.352000  1.0  0.1128
  H  H480  1  0.209800  0.875100  0.531500  1.0  0.1123
  H  H481  1  0.215100  0.919600  0.524700  1.0  0.1018
  H  H482  1  0.199200  0.913400  0.403800  1.0  0.0988
  H  H483  1  0.193900  0.868900  0.410600  1.0  0.1001
  H  H484  1  0.082600  0.567100  0.287700  1.0  0.1063
  H  H485  1  0.061200  0.538100  0.330700  1.0  0.1127
  H  H486  1  0.990900  0.582100  0.326400  1.0  0.1018
  H  H487  1  0.012400  0.611100  0.283400  1.0  0.1005
  H  H488  1  0.948600  0.516200  0.392900  1.0  0.1064
  H  H489  1  0.953800  0.462600  0.481900  1.0  0.111
  H  H490  1  0.024700  0.491300  0.436200  1.0  0.1098
  H  H491  1  0.850500  0.489900  0.381000  1.0  0.1105
  H  H492  1  0.801800  0.491600  0.386600  1.0  0.1055
  H  H493  1  0.812300  0.487200  0.508600  1.0  0.1031
  H  H494  1  0.861000  0.485600  0.503000  1.0  0.1114
  H  H495  1  0.072900  0.446800  0.548600  1.0  0.1055
  H  H496  1  0.092200  0.422300  0.602200  1.0  0.1029
  H  H497  1  0.018700  0.383700  0.608600  1.0  0.1001
  H  H498  1  0.999400  0.408300  0.555000  1.0  0.1125
  H  H499  1  0.100200  0.712900  0.123300  1.0  0.1017
  H  H500  1  0.124100  0.738800  0.078500  1.0  0.1106
  H  H501  1  0.191600  0.691600  0.090000  1.0  0.1067
  H  H502  1  0.167700  0.665700  0.134900  1.0  0.1019
  H  H503  1  0.197500  0.792800  0.011900  1.0  0.1104
  H  H504  1  0.247300  0.785100  0.916800  1.0  0.1063
  H  H505  1  0.218900  0.721800  0.973500  1.0  0.1114
  H  H506  1  0.234200  0.876900  0.017600  1.0  0.1085
  H  H507  1  0.233700  0.921900  0.015500  1.0  0.1039
  H  H508  1  0.221300  0.919500  0.893600  1.0  0.1006
  H  H509  1  0.221800  0.874500  0.895700  1.0  0.1094
  H  H510  1  0.312900  0.722700  0.867000  1.0  0.106
  H  H511  1  0.335500  0.695900  0.822000  1.0  0.1038
  H  H512  1  0.266200  0.650800  0.811500  1.0  0.1003
  H  H513  1  0.243600  0.677600  0.856500  1.0  0.1085
  H  H514  1  0.636100  0.523100  0.515800  1.0  0.0998
  H  H515  1  0.587900  0.531300  0.517100  1.0  0.108
  H  H516  1  0.578300  0.510400  0.399400  1.0  0.1066
  H  H517  1  0.626500  0.502200  0.398100  1.0  0.1002
  H  H518  1  0.485600  0.548100  0.506100  1.0  0.113
  H  H519  1  0.414500  0.517600  0.454300  1.0  0.1037
  H  H520  1  0.490200  0.497800  0.413200  1.0  0.1105
  H  H521  1  0.432100  0.599800  0.582500  1.0  0.1124
  H  H522  1  0.408400  0.619500  0.634500  1.0  0.1026
  H  H523  1  0.345900  0.566900  0.620500  1.0  0.0991
  H  H524  1  0.369600  0.547300  0.568500  1.0  0.0972
  H  H525  1  0.371000  0.472400  0.351800  1.0  0.1118
  H  H526  1  0.347700  0.443400  0.307900  1.0  0.1052
  H  H527  1  0.418600  0.400600  0.304000  1.0  0.101
  H  H528  1  0.442000  0.429700  0.347800  1.0  0.1132
  C  C529  1  0.189290  0.840010  0.322900  1.0  0.6559
  C  C530  1  0.207610  0.823420  0.346580  1.0  -0.1146
  C  C531  1  0.200410  0.797490  0.349660  1.0  -0.0805
  C  C532  1  0.216810  0.781060  0.374340  1.0  -0.086
  C  C533  1  0.240420  0.790580  0.395960  1.0  0.1709
  C  C534  1  0.247620  0.816510  0.392890  1.0  -0.0956
  C  C535  1  0.231220  0.832940  0.368200  1.0  -0.0608
  C  C536  1  0.257100  0.773830  0.425200  1.0  -0.0966
  C  C537  1  0.269730  0.761780  0.450400  1.0  0.0591
  C  C538  1  0.285880  0.748930  0.480510  1.0  0.0993
  C  C539  1  0.301250  0.763590  0.509090  1.0  -0.0759
  C  C540  1  0.317310  0.751440  0.539840  1.0  0.1314
  C  C541  1  0.317990  0.724620  0.542010  1.0  -0.0894
  C  C542  1  0.302620  0.709960  0.513430  1.0  0.1292
  C  C543  1  0.286560  0.722110  0.482680  1.0  -0.1007
  C  C544  1  0.330600  0.766010  0.571900  1.0  0.0184
  C  C545  1  0.342300  0.778700  0.601800  1.0  0.0588
  C  C546  1  0.355560  0.793200  0.632960  1.0  0.1274
  C  C547  1  0.343440  0.816550  0.643500  1.0  -0.2181
  C  C548  1  0.354810  0.830630  0.676300  1.0  -0.0979
  C  C549  1  0.378300  0.821360  0.698430  1.0  -0.1227
  C  C550  1  0.390420  0.798010  0.687900  1.0  -0.0736
  C  C551  1  0.379060  0.783930  0.655100  1.0  -0.1426
  C  C552  1  0.389600  0.835580  0.733500  1.0  0.6765
  C  C553  1  0.301350  0.682310  0.517700  1.0  -0.0894
  C  C554  1  0.299990  0.658800  0.524100  1.0  -0.0375
  C  C555  1  0.298640  0.632300  0.528300  1.0  0.0174
  C  C556  1  0.292310  0.617170  0.494270  1.0  -0.1361
  C  C557  1  0.289160  0.590600  0.498320  1.0  -0.049
  C  C558  1  0.292340  0.579170  0.536420  1.0  -0.11
  C  C559  1  0.298670  0.594310  0.570460  1.0  -0.0535
  C  C560  1  0.301820  0.620880  0.566410  1.0  -0.1448
  C  C561  1  0.288830  0.551610  0.541000  1.0  0.6764
  C  C562  1  0.433000  0.891560  0.743060  1.0  0.4987
  C  C563  1  0.450450  0.908140  0.718580  1.0  -0.1247
  C  C564  1  0.435890  0.929890  0.704470  1.0  -0.0827
  C  C565  1  0.448670  0.947170  0.678810  1.0  -0.15
  C  C566  1  0.476020  0.942690  0.667260  1.0  0.0563
  C  C567  1  0.490580  0.920930  0.681370  1.0  -0.1442
  C  C568  1  0.477790  0.903650  0.707030  1.0  -0.0682
  C  C569  1  0.488680  0.959800  0.642200  1.0  0.0156
  C  C570  1  0.499170  0.975050  0.617500  1.0  -0.0132
  C  C571  1  0.511220  0.993610  0.589780  1.0  -0.0232
  C  C572  1  0.540460  0.994370  0.589320  1.0  -0.0792
  C  C573  1  0.553520  0.010710  0.562530  1.0  -0.0172
  C  C574  1  0.537350  0.026310  0.536200  1.0  -0.1163
  C  C575  1  0.508110  0.025550  0.536660  1.0  0.0997
  C  C576  1  0.495040  0.009210  0.563450  1.0  -0.0808
  C  C577  1  0.584100  0.011650  0.560900  1.0  0.0519
  C  C578  1  0.609700  0.011760  0.559900  1.0  0.0209
  C  C579  1  0.639560  0.012420  0.558500  1.0  0.1142
  C  C580  1  0.657220  0.010620  0.593260  1.0  -0.124
  C  C581  1  0.686260  0.009610  0.589900  1.0  -0.0887
  C  C582  1  0.697660  0.010410  0.551900  1.0  -0.1555
  C  C583  1  0.680000  0.012210  0.517150  1.0  -0.072
  C  C584  1  0.650950  0.013220  0.520500  1.0  -0.1516
  C  C585  1  0.728590  0.008450  0.551900  1.0  0.6661
  C  C586  1  0.491530  0.040130  0.509200  1.0  0.2532
  C  C587  1  0.480090  0.054070  0.486100  1.0  -0.0489
  C  C588  1  0.465680  0.070060  0.453370  1.0  0.1386
  C  C589  1  0.438010  0.065890  0.439300  1.0  -0.099
  C  C590  1  0.426520  0.080560  0.407300  1.0  -0.0464
  C  C591  1  0.442700  0.099400  0.389400  1.0  -0.1466
  C  C592  1  0.470370  0.103570  0.403470  1.0  -0.0813
  C  C593  1  0.481860  0.088900  0.435500  1.0  -0.1037
  C  C594  1  0.430130  0.113650  0.355300  1.0  0.6791
  C  C595  1  0.382400  0.831960  0.839800  1.0  0.6626
  C  C596  1  0.368330  0.813210  0.866600  1.0  -0.168
  C  C597  1  0.381360  0.791400  0.883400  1.0  -0.067
  C  C598  1  0.367110  0.775920  0.910100  1.0  -0.1327
  C  C599  1  0.339830  0.782260  0.920060  1.0  0.0532
  C  C600  1  0.326810  0.804080  0.903200  1.0  -0.1269
  C  C601  1  0.341060  0.819550  0.876500  1.0  -0.0537
  C  C602  1  0.323210  0.767510  0.946600  1.0  0.0645
  C  C603  1  0.311050  0.756580  0.971500  1.0  -0.0579
  C  C604  1  0.294340  0.744480  0.002410  1.0  -0.0355
  C  C605  1  0.292940  0.717750  0.006020  1.0  -0.0985
  C  C606  1  0.277380  0.706700  0.036190  1.0  0.1313
  C  C607  1  0.263210  0.722370  0.062750  1.0  -0.0935
  C  C608  1  0.264610  0.749100  0.059140  1.0  0.0487
  C  C609  1  0.280180  0.760150  0.028970  1.0  -0.0895
  C  C610  1  0.274960  0.680750  0.039400  1.0  0.104
  C  C611  1  0.273190  0.655640  0.042100  1.0  -0.0175
  C  C612  1  0.271930  0.628670  0.043200  1.0  0.0645
  C  C613  1  0.268400  0.614540  0.007450  1.0  -0.1365
  C  C614  1  0.268710  0.587690  0.008700  1.0  -0.0674
  C  C615  1  0.272560  0.574980  0.045700  1.0  -0.0904
  C  C616  1  0.276090  0.589110  0.081420  1.0  -0.0889
  C  C617  1  0.275780  0.615960  0.080160  1.0  -0.1267
  C  C618  1  0.276320  0.547740  0.046700  1.0  0.6476
  C  C619  1  0.249880  0.765920  0.084400  1.0  0.0119
  C  C620  1  0.238490  0.780170  0.107300  1.0  -0.0222
  C  C621  1  0.223940  0.797290  0.133890  1.0  0.0307
  C  C622  1  0.196530  0.791830  0.144200  1.0  -0.0949
  C  C623  1  0.183040  0.807800  0.171100  1.0  -0.0687
  C  C624  1  0.196960  0.829240  0.187640  1.0  -0.1314
  C  C625  1  0.224380  0.834700  0.177300  1.0  -0.061
  C  C626  1  0.237870  0.818730  0.150500  1.0  -0.1056
  C  C627  1  0.182800  0.845520  0.216600  1.0  0.6799
  C  C628  1  0.834620  0.993730  0.545400  1.0  0.7019
  C  C629  1  0.864070  0.988160  0.543200  1.0  -0.1053
  C  C630  1  0.875590  0.979470  0.507660  1.0  -0.0659
  C  C631  1  0.904330  0.974570  0.506890  1.0  -0.0891
  C  C632  1  0.921560  0.978350  0.541600  1.0  0.0081
  C  C633  1  0.910040  0.987040  0.577150  1.0  -0.0876
  C  C634  1  0.881300  0.991940  0.577920  1.0  -0.0943
  C  C635  1  0.952020  0.976490  0.538700  1.0  0.1388
  C  C636  1  0.976060  0.975600  0.538700  1.0  -0.021
  C  C637  1  0.007340  0.976710  0.540000  1.0  -0.0165
  C  C638  1  0.023310  0.962750  0.513340  1.0  -0.0952
  C  C639  1  0.052520  0.964880  0.515470  1.0  0.1434
  C  C640  1  0.065750  0.980960  0.544250  1.0  -0.0433
  C  C641  1  0.049780  0.994920  0.570910  1.0  0.0897
  C  C642  1  0.020570  0.992800  0.568780  1.0  -0.0858
  C  C643  1  0.067540  0.951720  0.486100  1.0  0.0071
  C  C644  1  0.080940  0.941640  0.461400  1.0  -0.0257
  C  C645  1  0.096870  0.928370  0.429520  1.0  -0.0165
  C  C646  1  0.085300  0.906830  0.409830  1.0  -0.1099
  C  C647  1  0.099460  0.895090  0.378800  1.0  -0.0841
  C  C648  1  0.125190  0.904890  0.367470  1.0  -0.1295
  C  C649  1  0.136750  0.926430  0.387170  1.0  -0.0423
  C  C650  1  0.122590  0.938170  0.418190  1.0  -0.0984
  C  C651  1  0.140200  0.893320  0.333460  1.0  0.6384
  C  C652  1  0.064290  0.012750  0.598400  1.0  -0.0203
  C  C653  1  0.075750  0.028550  0.620300  1.0  -0.0019
  C  C654  1  0.091250  0.046140  0.645980  1.0  0.0068
  C  C655  1  0.119360  0.042070  0.657870  1.0  -0.1226
  C  C656  1  0.133300  0.059400  0.684020  1.0  -0.0738
  C  C657  1  0.119110  0.080810  0.698280  1.0  -0.1041
  C  C658  1  0.090990  0.084880  0.686390  1.0  -0.0789
  C  C659  1  0.077060  0.067550  0.660240  1.0  -0.1486
  C  C660  1  0.136500  0.097820  0.723400  1.0  0.5854
  C  C661  1  0.689290  0.340010  0.322900  1.0  0.6561
  C  C662  1  0.707610  0.323420  0.346580  1.0  -0.1142
  C  C663  1  0.700410  0.297490  0.349660  1.0  -0.0805
  C  C664  1  0.716810  0.281060  0.374340  1.0  -0.086
  C  C665  1  0.740420  0.290580  0.395960  1.0  0.1709
  C  C666  1  0.747620  0.316510  0.392890  1.0  -0.0956
  C  C667  1  0.731220  0.332940  0.368200  1.0  -0.0608
  C  C668  1  0.757100  0.273830  0.425200  1.0  -0.0966
  C  C669  1  0.769730  0.261780  0.450400  1.0  0.0591
  C  C670  1  0.785880  0.248930  0.480510  1.0  0.0993
  C  C671  1  0.801250  0.263590  0.509090  1.0  -0.0759
  C  C672  1  0.817310  0.251440  0.539840  1.0  0.1314
  C  C673  1  0.817990  0.224620  0.542010  1.0  -0.0894
  C  C674  1  0.802620  0.209960  0.513430  1.0  0.1292
  C  C675  1  0.786560  0.222110  0.482680  1.0  -0.1007
  C  C676  1  0.830600  0.266010  0.571900  1.0  0.0184
  C  C677  1  0.842300  0.278700  0.601800  1.0  0.0588
  C  C678  1  0.855560  0.293200  0.632960  1.0  0.1274
  C  C679  1  0.843440  0.316550  0.643500  1.0  -0.2181
  C  C680  1  0.854810  0.330630  0.676300  1.0  -0.0979
  C  C681  1  0.878300  0.321360  0.698430  1.0  -0.1227
  C  C682  1  0.890420  0.298010  0.687900  1.0  -0.0736
  C  C683  1  0.879060  0.283930  0.655100  1.0  -0.1426
  C  C684  1  0.889600  0.335580  0.733500  1.0  0.6765
  C  C685  1  0.801350  0.182310  0.517700  1.0  -0.0894
  C  C686  1  0.799990  0.158800  0.524100  1.0  -0.0375
  C  C687  1  0.798640  0.132300  0.528300  1.0  0.0174
  C  C688  1  0.792310  0.117170  0.494270  1.0  -0.1361
  C  C689  1  0.789160  0.090600  0.498320  1.0  -0.049
  C  C690  1  0.792340  0.079170  0.536420  1.0  -0.11
  C  C691  1  0.798670  0.094310  0.570460  1.0  -0.0535
  C  C692  1  0.801820  0.120880  0.566410  1.0  -0.1448
  C  C693  1  0.788830  0.051610  0.541000  1.0  0.6764
  C  C694  1  0.933000  0.391560  0.743060  1.0  0.4987
  C  C695  1  0.950450  0.408140  0.718580  1.0  -0.1247
  C  C696  1  0.935890  0.429890  0.704470  1.0  -0.0827
  C  C697  1  0.948670  0.447170  0.678810  1.0  -0.15
  C  C698  1  0.976020  0.442690  0.667260  1.0  0.0563
  C  C699  1  0.990580  0.420930  0.681370  1.0  -0.1442
  C  C700  1  0.977790  0.403650  0.707030  1.0  -0.0682
  C  C701  1  0.988680  0.459800  0.642200  1.0  0.0156
  C  C702  1  0.999170  0.475050  0.617500  1.0  -0.0132
  C  C703  1  0.011220  0.493610  0.589780  1.0  -0.0232
  C  C704  1  0.040460  0.494370  0.589320  1.0  -0.0792
  C  C705  1  0.053520  0.510710  0.562530  1.0  -0.0172
  C  C706  1  0.037350  0.526310  0.536200  1.0  -0.1163
  C  C707  1  0.008110  0.525550  0.536660  1.0  0.0997
  C  C708  1  0.995040  0.509210  0.563450  1.0  -0.0808
  C  C709  1  0.084100  0.511650  0.560900  1.0  0.0519
  C  C710  1  0.109700  0.511760  0.559900  1.0  0.0209
  C  C711  1  0.139560  0.512420  0.558500  1.0  0.1142
  C  C712  1  0.157220  0.510620  0.593260  1.0  -0.124
  C  C713  1  0.186260  0.509610  0.589900  1.0  -0.0887
  C  C714  1  0.197660  0.510410  0.551900  1.0  -0.1555
  C  C715  1  0.180000  0.512210  0.517150  1.0  -0.072
  C  C716  1  0.150950  0.513220  0.520500  1.0  -0.1516
  C  C717  1  0.228590  0.508450  0.551900  1.0  0.6661
  C  C718  1  0.991530  0.540130  0.509200  1.0  0.2532
  C  C719  1  0.980090  0.554070  0.486100  1.0  -0.0489
  C  C720  1  0.965680  0.570060  0.453370  1.0  0.1386
  C  C721  1  0.938010  0.565890  0.439300  1.0  -0.099
  C  C722  1  0.926520  0.580560  0.407300  1.0  -0.0464
  C  C723  1  0.942700  0.599400  0.389400  1.0  -0.1466
  C  C724  1  0.970370  0.603570  0.403470  1.0  -0.0813
  C  C725  1  0.981860  0.588900  0.435500  1.0  -0.1037
  C  C726  1  0.930130  0.613650  0.355300  1.0  0.6791
  C  C727  1  0.882400  0.331960  0.839800  1.0  0.6626
  C  C728  1  0.868330  0.313210  0.866600  1.0  -0.168
  C  C729  1  0.881360  0.291400  0.883400  1.0  -0.067
  C  C730  1  0.867110  0.275920  0.910100  1.0  -0.1327
  C  C731  1  0.839830  0.282260  0.920060  1.0  0.0532
  C  C732  1  0.826810  0.304080  0.903200  1.0  -0.1269
  C  C733  1  0.841060  0.319550  0.876500  1.0  -0.0537
  C  C734  1  0.823210  0.267510  0.946600  1.0  0.0645
  C  C735  1  0.811050  0.256580  0.971500  1.0  -0.0579
  C  C736  1  0.794340  0.244480  0.002410  1.0  -0.0355
  C  C737  1  0.792940  0.217750  0.006020  1.0  -0.0985
  C  C738  1  0.777380  0.206700  0.036190  1.0  0.1313
  C  C739  1  0.763210  0.222370  0.062750  1.0  -0.0935
  C  C740  1  0.764610  0.249100  0.059140  1.0  0.0487
  C  C741  1  0.780180  0.260150  0.028970  1.0  -0.0895
  C  C742  1  0.774960  0.180750  0.039400  1.0  0.104
  C  C743  1  0.773190  0.155640  0.042100  1.0  -0.0175
  C  C744  1  0.771930  0.128670  0.043200  1.0  0.0645
  C  C745  1  0.768400  0.114540  0.007450  1.0  -0.1365
  C  C746  1  0.768710  0.087690  0.008700  1.0  -0.0674
  C  C747  1  0.772560  0.074980  0.045700  1.0  -0.0904
  C  C748  1  0.776090  0.089110  0.081420  1.0  -0.0889
  C  C749  1  0.775780  0.115960  0.080160  1.0  -0.1267
  C  C750  1  0.776320  0.047740  0.046700  1.0  0.6476
  C  C751  1  0.749880  0.265920  0.084400  1.0  0.0119
  C  C752  1  0.738490  0.280170  0.107300  1.0  -0.0222
  C  C753  1  0.723940  0.297290  0.133890  1.0  0.0307
  C  C754  1  0.696530  0.291830  0.144200  1.0  -0.0949
  C  C755  1  0.683040  0.307800  0.171100  1.0  -0.0687
  C  C756  1  0.696960  0.329240  0.187640  1.0  -0.1314
  C  C757  1  0.724380  0.334700  0.177300  1.0  -0.061
  C  C758  1  0.737870  0.318730  0.150500  1.0  -0.1056
  C  C759  1  0.682800  0.345520  0.216600  1.0  0.6799
  C  C760  1  0.334620  0.493730  0.545400  1.0  0.7019
  C  C761  1  0.364070  0.488160  0.543200  1.0  -0.1053
  C  C762  1  0.375590  0.479470  0.507660  1.0  -0.0659
  C  C763  1  0.404330  0.474570  0.506890  1.0  -0.0891
  C  C764  1  0.421560  0.478350  0.541600  1.0  0.0081
  C  C765  1  0.410040  0.487040  0.577150  1.0  -0.0876
  C  C766  1  0.381300  0.491940  0.577920  1.0  -0.0943
  C  C767  1  0.452020  0.476490  0.538700  1.0  0.1388
  C  C768  1  0.476060  0.475600  0.538700  1.0  -0.021
  C  C769  1  0.507340  0.476710  0.540000  1.0  -0.0165
  C  C770  1  0.523310  0.462750  0.513340  1.0  -0.0952
  C  C771  1  0.552520  0.464880  0.515470  1.0  0.1434
  C  C772  1  0.565750  0.480960  0.544250  1.0  -0.0433
  C  C773  1  0.549780  0.494920  0.570910  1.0  0.0897
  C  C774  1  0.520570  0.492800  0.568780  1.0  -0.0858
  C  C775  1  0.567540  0.451720  0.486100  1.0  0.0071
  C  C776  1  0.580940  0.441640  0.461400  1.0  -0.0257
  C  C777  1  0.596870  0.428370  0.429520  1.0  -0.0165
  C  C778  1  0.585300  0.406830  0.409830  1.0  -0.1099
  C  C779  1  0.599460  0.395090  0.378800  1.0  -0.0841
  C  C780  1  0.625190  0.404890  0.367470  1.0  -0.1295
  C  C781  1  0.636750  0.426430  0.387170  1.0  -0.0423
  C  C782  1  0.622590  0.438170  0.418190  1.0  -0.0984
  C  C783  1  0.640200  0.393320  0.333460  1.0  0.6384
  C  C784  1  0.564290  0.512750  0.598400  1.0  -0.0203
  C  C785  1  0.575750  0.528550  0.620300  1.0  -0.0019
  C  C786  1  0.591250  0.546140  0.645980  1.0  0.0068
  C  C787  1  0.619360  0.542070  0.657870  1.0  -0.1226
  C  C788  1  0.633300  0.559400  0.684020  1.0  -0.0738
  C  C789  1  0.619110  0.580810  0.698280  1.0  -0.1041
  C  C790  1  0.590990  0.584880  0.686390  1.0  -0.0789
  C  C791  1  0.577060  0.567550  0.660240  1.0  -0.1486
  C  C792  1  0.636500  0.597820  0.723400  1.0  0.5854
  C  C793  1  0.189290  0.159990  0.822900  1.0  0.6555
  C  C794  1  0.207610  0.176580  0.846580  1.0  -0.1145
  C  C795  1  0.200410  0.202510  0.849660  1.0  -0.081
  C  C796  1  0.216810  0.218940  0.874340  1.0  -0.0853
  C  C797  1  0.240420  0.209420  0.895960  1.0  0.1713
  C  C798  1  0.247620  0.183490  0.892890  1.0  -0.0956
  C  C799  1  0.231220  0.167060  0.868200  1.0  -0.06
  C  C800  1  0.257100  0.226170  0.925200  1.0  -0.0965
  C  C801  1  0.269730  0.238220  0.950400  1.0  0.0584
  C  C802  1  0.285880  0.251070  0.980510  1.0  0.0994
  C  C803  1  0.301250  0.236410  0.009090  1.0  -0.0782
  C  C804  1  0.317310  0.248560  0.039840  1.0  0.131
  C  C805  1  0.317990  0.275380  0.042010  1.0  -0.0894
  C  C806  1  0.302620  0.290040  0.013430  1.0  0.1288
  C  C807  1  0.286560  0.277890  0.982680  1.0  -0.102
  C  C808  1  0.330600  0.233990  0.071900  1.0  0.0167
  C  C809  1  0.342300  0.221300  0.101800  1.0  0.0587
  C  C810  1  0.355560  0.206800  0.132960  1.0  0.1275
  C  C811  1  0.343440  0.183450  0.143500  1.0  -0.2184
  C  C812  1  0.354810  0.169370  0.176300  1.0  -0.099
  C  C813  1  0.378300  0.178640  0.198430  1.0  -0.1226
  C  C814  1  0.390420  0.201990  0.187900  1.0  -0.0736
  C  C815  1  0.379060  0.216070  0.155100  1.0  -0.142
  C  C816  1  0.389600  0.164420  0.233500  1.0  0.6764
  C  C817  1  0.301350  0.317690  0.017700  1.0  -0.0885
  C  C818  1  0.299990  0.341200  0.024100  1.0  -0.038
  C  C819  1  0.298640  0.367700  0.028300  1.0  0.0176
  C  C820  1  0.292310  0.382830  0.994270  1.0  -0.1357
  C  C821  1  0.289160  0.409400  0.998320  1.0  -0.0488
  C  C822  1  0.292340  0.420830  0.036420  1.0  -0.1093
  C  C823  1  0.298670  0.405690  0.070460  1.0  -0.0537
  C  C824  1  0.301820  0.379120  0.066410  1.0  -0.1448
  C  C825  1  0.288830  0.448390  0.041000  1.0  0.6761
  C  C826  1  0.433000  0.108440  0.243060  1.0  0.4987
  C  C827  1  0.450450  0.091860  0.218580  1.0  -0.1246
  C  C828  1  0.435890  0.070110  0.204470  1.0  -0.0829
  C  C829  1  0.448670  0.052830  0.178810  1.0  -0.1489
  C  C830  1  0.476020  0.057310  0.167260  1.0  0.0552
  C  C831  1  0.490580  0.079070  0.181370  1.0  -0.1447
  C  C832  1  0.477790  0.096350  0.207030  1.0  -0.0691
  C  C833  1  0.488680  0.040200  0.142200  1.0  0.0167
  C  C834  1  0.499170  0.024950  0.117500  1.0  -0.0128
  C  C835  1  0.511220  0.006390  0.089780  1.0  -0.0239
  C  C836  1  0.540460  0.005630  0.089320  1.0  -0.0788
  C  C837  1  0.553520  0.989290  0.062530  1.0  -0.0169
  C  C838  1  0.537350  0.973690  0.036200  1.0  -0.1166
  C  C839  1  0.508110  0.974450  0.036660  1.0  0.0988
  C  C840  1  0.495040  0.990790  0.063450  1.0  -0.0806
  C  C841  1  0.584100  0.988350  0.060900  1.0  0.0521
  C  C842  1  0.609700  0.988240  0.059900  1.0  0.0211
  C  C843  1  0.639560  0.987580  0.058500  1.0  0.1144
  C  C844  1  0.657220  0.989380  0.093260  1.0  -0.124
  C  C845  1  0.686260  0.990390  0.089900  1.0  -0.0887
  C  C846  1  0.697660  0.989590  0.051900  1.0  -0.1557
  C  C847  1  0.680000  0.987790  0.017150  1.0  -0.0717
  C  C848  1  0.650950  0.986780  0.020500  1.0  -0.1516
  C  C849  1  0.728590  0.991550  0.051900  1.0  0.6662
  C  C850  1  0.491530  0.959870  0.009200  1.0  0.252
  C  C851  1  0.480090  0.945930  0.986100  1.0  -0.0503
  C  C852  1  0.465680  0.929940  0.953370  1.0  0.1364
  C  C853  1  0.438010  0.934110  0.939300  1.0  -0.0996
  C  C854  1  0.426520  0.919440  0.907300  1.0  -0.047
  C  C855  1  0.442700  0.900600  0.889400  1.0  -0.1476
  C  C856  1  0.470370  0.896430  0.903470  1.0  -0.082
  C  C857  1  0.481860  0.911100  0.935500  1.0  -0.104
  C  C858  1  0.430130  0.886350  0.855300  1.0  0.6791
  C  C859  1  0.382400  0.168040  0.339800  1.0  0.6624
  C  C860  1  0.368330  0.186790  0.366600  1.0  -0.1684
  C  C861  1  0.381360  0.208600  0.383400  1.0  -0.0668
  C  C862  1  0.367110  0.224080  0.410100  1.0  -0.1323
  C  C863  1  0.339830  0.217740  0.420060  1.0  0.0531
  C  C864  1  0.326810  0.195920  0.403200  1.0  -0.1267
  C  C865  1  0.341060  0.180450  0.376500  1.0  -0.0533
  C  C866  1  0.323210  0.232490  0.446600  1.0  0.064
  C  C867  1  0.311050  0.243420  0.471500  1.0  -0.058
  C  C868  1  0.294340  0.255520  0.502410  1.0  -0.0356
  C  C869  1  0.292940  0.282250  0.506020  1.0  -0.0987
  C  C870  1  0.277380  0.293300  0.536190  1.0  0.132
  C  C871  1  0.263210  0.277630  0.562750  1.0  -0.0935
  C  C872  1  0.264610  0.250900  0.559140  1.0  0.0488
  C  C873  1  0.280180  0.239850  0.528970  1.0  -0.088
  C  C874  1  0.274960  0.319250  0.539400  1.0  0.103
  C  C875  1  0.273190  0.344360  0.542100  1.0  -0.0172
  C  C876  1  0.271930  0.371330  0.543200  1.0  0.0666
  C  C877  1  0.268400  0.385460  0.507450  1.0  -0.1367
  C  C878  1  0.268710  0.412310  0.508700  1.0  -0.0676
  C  C879  1  0.272560  0.425020  0.545700  1.0  -0.0905
  C  C880  1  0.276090  0.410890  0.581420  1.0  -0.0886
  C  C881  1  0.275780  0.384040  0.580160  1.0  -0.1273
  C  C882  1  0.276320  0.452260  0.546700  1.0  0.648
  C  C883  1  0.249880  0.234080  0.584400  1.0  0.0127
  C  C884  1  0.238490  0.219830  0.607300  1.0  -0.0223
  C  C885  1  0.223940  0.202710  0.633890  1.0  0.03
  C  C886  1  0.196530  0.208170  0.644200  1.0  -0.0968
  C  C887  1  0.183040  0.192200  0.671100  1.0  -0.0681
  C  C888  1  0.196960  0.170760  0.687640  1.0  -0.1315
  C  C889  1  0.224380  0.165300  0.677300  1.0  -0.0616
  C  C890  1  0.237870  0.181270  0.650500  1.0  -0.1053
  C  C891  1  0.182800  0.154480  0.716600  1.0  0.6802
  C  C892  1  0.834620  0.006270  0.045400  1.0  0.7016
  C  C893  1  0.864070  0.011840  0.043200  1.0  -0.1046
  C  C894  1  0.875590  0.020530  0.007660  1.0  -0.0661
  C  C895  1  0.904330  0.025430  0.006890  1.0  -0.0888
  C  C896  1  0.921560  0.021650  0.041600  1.0  0.0095
  C  C897  1  0.910040  0.012960  0.077150  1.0  -0.087
  C  C898  1  0.881300  0.008060  0.077920  1.0  -0.0938
  C  C899  1  0.952020  0.023510  0.038700  1.0  0.1381
  C  C900  1  0.976060  0.024400  0.038700  1.0  -0.0215
  C  C901  1  0.007340  0.023290  0.040000  1.0  -0.0156
  C  C902  1  0.023310  0.037250  0.013340  1.0  -0.0955
  C  C903  1  0.052520  0.035120  0.015470  1.0  0.1426
  C  C904  1  0.065750  0.019040  0.044250  1.0  -0.0427
  C  C905  1  0.049780  0.005080  0.070910  1.0  0.0899
  C  C906  1  0.020570  0.007200  0.068780  1.0  -0.0852
  C  C907  1  0.067540  0.048280  0.986100  1.0  0.007
  C  C908  1  0.080940  0.058360  0.961400  1.0  -0.0266
  C  C909  1  0.096870  0.071630  0.929520  1.0  -0.0173
  C  C910  1  0.085300  0.093170  0.909830  1.0  -0.111
  C  C911  1  0.099460  0.104910  0.878800  1.0  -0.0837
  C  C912  1  0.125190  0.095110  0.867470  1.0  -0.1292
  C  C913  1  0.136750  0.073570  0.887170  1.0  -0.0425
  C  C914  1  0.122590  0.061830  0.918190  1.0  -0.0976
  C  C915  1  0.140200  0.106680  0.833460  1.0  0.6383
  C  C916  1  0.064290  0.987250  0.098400  1.0  -0.0205
  C  C917  1  0.075750  0.971450  0.120300  1.0  -0.002
  C  C918  1  0.091250  0.953860  0.145980  1.0  0.0077
  C  C919  1  0.119360  0.957930  0.157870  1.0  -0.1229
  C  C920  1  0.133300  0.940600  0.184020  1.0  -0.0732
  C  C921  1  0.119110  0.919190  0.198280  1.0  -0.1038
  C  C922  1  0.090990  0.915120  0.186390  1.0  -0.0787
  C  C923  1  0.077060  0.932450  0.160240  1.0  -0.1485
  C  C924  1  0.136500  0.902180  0.223400  1.0  0.5847
  C  C925  1  0.689290  0.659990  0.822900  1.0  0.6557
  C  C926  1  0.707610  0.676580  0.846580  1.0  -0.1141
  C  C927  1  0.700410  0.702510  0.849660  1.0  -0.081
  C  C928  1  0.716810  0.718940  0.874340  1.0  -0.0853
  C  C929  1  0.740420  0.709420  0.895960  1.0  0.1713
  C  C930  1  0.747620  0.683490  0.892890  1.0  -0.0956
  C  C931  1  0.731220  0.667060  0.868200  1.0  -0.06
  C  C932  1  0.757100  0.726170  0.925200  1.0  -0.0965
  C  C933  1  0.769730  0.738220  0.950400  1.0  0.0584
  C  C934  1  0.785880  0.751070  0.980510  1.0  0.1037
  C  C935  1  0.801250  0.736410  0.009090  1.0  -0.0782
  C  C936  1  0.817310  0.748560  0.039840  1.0  0.131
  C  C937  1  0.817990  0.775380  0.042010  1.0  -0.0894
  C  C938  1  0.802620  0.790040  0.013430  1.0  0.1288
  C  C939  1  0.786560  0.777890  0.982680  1.0  -0.101
  C  C940  1  0.830600  0.733990  0.071900  1.0  0.0167
  C  C941  1  0.842300  0.721300  0.101800  1.0  0.0587
  C  C942  1  0.855560  0.706800  0.132960  1.0  0.1275
  C  C943  1  0.843440  0.683450  0.143500  1.0  -0.2184
  C  C944  1  0.854810  0.669370  0.176300  1.0  -0.099
  C  C945  1  0.878300  0.678640  0.198430  1.0  -0.1226
  C  C946  1  0.890420  0.701990  0.187900  1.0  -0.0736
  C  C947  1  0.879060  0.716070  0.155100  1.0  -0.142
  C  C948  1  0.889600  0.664420  0.233500  1.0  0.6764
  C  C949  1  0.801350  0.817690  0.017700  1.0  -0.0885
  C  C950  1  0.799990  0.841200  0.024100  1.0  -0.038
  C  C951  1  0.798640  0.867700  0.028300  1.0  0.0176
  C  C952  1  0.792310  0.882830  0.994270  1.0  -0.1357
  C  C953  1  0.789160  0.909400  0.998320  1.0  -0.0488
  C  C954  1  0.792340  0.920830  0.036420  1.0  -0.1093
  C  C955  1  0.798670  0.905690  0.070460  1.0  -0.0537
  C  C956  1  0.801820  0.879120  0.066410  1.0  -0.1448
  C  C957  1  0.788830  0.948390  0.041000  1.0  0.6761
  C  C958  1  0.933000  0.608440  0.243060  1.0  0.4987
  C  C959  1  0.950450  0.591860  0.218580  1.0  -0.1246
  C  C960  1  0.935890  0.570110  0.204470  1.0  -0.0829
  C  C961  1  0.948670  0.552830  0.178810  1.0  -0.1489
  C  C962  1  0.976020  0.557310  0.167260  1.0  0.0552
  C  C963  1  0.990580  0.579070  0.181370  1.0  -0.1447
  C  C964  1  0.977790  0.596350  0.207030  1.0  -0.0691
  C  C965  1  0.988680  0.540200  0.142200  1.0  0.0167
  C  C966  1  0.999170  0.524950  0.117500  1.0  -0.0128
  C  C967  1  0.011220  0.506390  0.089780  1.0  -0.0239
  C  C968  1  0.040460  0.505630  0.089320  1.0  -0.0788
  C  C969  1  0.053520  0.489290  0.062530  1.0  -0.0169
  C  C970  1  0.037350  0.473690  0.036200  1.0  -0.1166
  C  C971  1  0.008110  0.474450  0.036660  1.0  0.0988
  C  C972  1  0.995040  0.490790  0.063450  1.0  -0.0806
  C  C973  1  0.084100  0.488350  0.060900  1.0  0.0521
  C  C974  1  0.109700  0.488240  0.059900  1.0  0.0211
  C  C975  1  0.139560  0.487580  0.058500  1.0  0.1144
  C  C976  1  0.157220  0.489380  0.093260  1.0  -0.124
  C  C977  1  0.186260  0.490390  0.089900  1.0  -0.0887
  C  C978  1  0.197660  0.489590  0.051900  1.0  -0.1557
  C  C979  1  0.180000  0.487790  0.017150  1.0  -0.0717
  C  C980  1  0.150950  0.486780  0.020500  1.0  -0.1516
  C  C981  1  0.228590  0.491550  0.051900  1.0  0.6662
  C  C982  1  0.991530  0.459870  0.009200  1.0  0.252
  C  C983  1  0.980090  0.445930  0.986100  1.0  -0.0503
  C  C984  1  0.965680  0.429940  0.953370  1.0  0.1364
  C  C985  1  0.938010  0.434110  0.939300  1.0  -0.0996
  C  C986  1  0.926520  0.419440  0.907300  1.0  -0.047
  C  C987  1  0.942700  0.400600  0.889400  1.0  -0.1476
  C  C988  1  0.970370  0.396430  0.903470  1.0  -0.082
  C  C989  1  0.981860  0.411100  0.935500  1.0  -0.104
  C  C990  1  0.930130  0.386350  0.855300  1.0  0.6791
  C  C991  1  0.882400  0.668040  0.339800  1.0  0.6624
  C  C992  1  0.868330  0.686790  0.366600  1.0  -0.1684
  C  C993  1  0.881360  0.708600  0.383400  1.0  -0.0668
  C  C994  1  0.867110  0.724080  0.410100  1.0  -0.1323
  C  C995  1  0.839830  0.717740  0.420060  1.0  0.0531
  C  C996  1  0.826810  0.695920  0.403200  1.0  -0.1267
  C  C997  1  0.841060  0.680450  0.376500  1.0  -0.0533
  C  C998  1  0.823210  0.732490  0.446600  1.0  0.064
  C  C999  1  0.811050  0.743420  0.471500  1.0  -0.058
  C  C1000  1  0.794340  0.755520  0.502410  1.0  -0.0363
  C  C1001  1  0.792940  0.782250  0.506020  1.0  -0.0972
  C  C1002  1  0.777380  0.793300  0.536190  1.0  0.1333
  C  C1003  1  0.763210  0.777630  0.562750  1.0  -0.093
  C  C1004  1  0.764610  0.750900  0.559140  1.0  0.0421
  C  C1005  1  0.780180  0.739850  0.528970  1.0  -0.0908
  C  C1006  1  0.774960  0.819250  0.539400  1.0  0.103
  C  C1007  1  0.773190  0.844360  0.542100  1.0  -0.0172
  C  C1008  1  0.771930  0.871330  0.543200  1.0  0.0666
  C  C1009  1  0.768400  0.885460  0.507450  1.0  -0.1367
  C  C1010  1  0.768710  0.912310  0.508700  1.0  -0.0676
  C  C1011  1  0.772560  0.925020  0.545700  1.0  -0.0905
  C  C1012  1  0.776090  0.910890  0.581420  1.0  -0.0886
  C  C1013  1  0.775780  0.884040  0.580160  1.0  -0.1273
  C  C1014  1  0.776320  0.952260  0.546700  1.0  0.648
  C  C1015  1  0.749880  0.734080  0.584400  1.0  0.0127
  C  C1016  1  0.738490  0.719830  0.607300  1.0  -0.0223
  C  C1017  1  0.723940  0.702710  0.633890  1.0  0.03
  C  C1018  1  0.696530  0.708170  0.644200  1.0  -0.0968
  C  C1019  1  0.683040  0.692200  0.671100  1.0  -0.0681
  C  C1020  1  0.696960  0.670760  0.687640  1.0  -0.1315
  C  C1021  1  0.724380  0.665300  0.677300  1.0  -0.0616
  C  C1022  1  0.737870  0.681270  0.650500  1.0  -0.1053
  C  C1023  1  0.682800  0.654480  0.716600  1.0  0.6802
  C  C1024  1  0.334620  0.506270  0.045400  1.0  0.7016
  C  C1025  1  0.364070  0.511840  0.043200  1.0  -0.1046
  C  C1026  1  0.375590  0.520530  0.007660  1.0  -0.0661
  C  C1027  1  0.404330  0.525430  0.006890  1.0  -0.0888
  C  C1028  1  0.421560  0.521650  0.041600  1.0  0.0095
  C  C1029  1  0.410040  0.512960  0.077150  1.0  -0.087
  C  C1030  1  0.381300  0.508060  0.077920  1.0  -0.0938
  C  C1031  1  0.452020  0.523510  0.038700  1.0  0.1381
  C  C1032  1  0.476060  0.524400  0.038700  1.0  -0.0215
  C  C1033  1  0.507340  0.523290  0.040000  1.0  -0.0156
  C  C1034  1  0.523310  0.537250  0.013340  1.0  -0.0955
  C  C1035  1  0.552520  0.535120  0.015470  1.0  0.1426
  C  C1036  1  0.565750  0.519040  0.044250  1.0  -0.0427
  C  C1037  1  0.549780  0.505080  0.070910  1.0  0.0899
  C  C1038  1  0.520570  0.507200  0.068780  1.0  -0.0852
  C  C1039  1  0.567540  0.548280  0.986100  1.0  0.007
  C  C1040  1  0.580940  0.558360  0.961400  1.0  -0.0266
  C  C1041  1  0.596870  0.571630  0.929520  1.0  -0.0173
  C  C1042  1  0.585300  0.593170  0.909830  1.0  -0.111
  C  C1043  1  0.599460  0.604910  0.878800  1.0  -0.0837
  C  C1044  1  0.625190  0.595110  0.867470  1.0  -0.1292
  C  C1045  1  0.636750  0.573570  0.887170  1.0  -0.0425
  C  C1046  1  0.622590  0.561830  0.918190  1.0  -0.0976
  C  C1047  1  0.640200  0.606680  0.833460  1.0  0.6383
  C  C1048  1  0.564290  0.487250  0.098400  1.0  -0.0205
  C  C1049  1  0.575750  0.471450  0.120300  1.0  -0.002
  C  C1050  1  0.591250  0.453860  0.145980  1.0  0.0077
  C  C1051  1  0.619360  0.457930  0.157870  1.0  -0.1229
  C  C1052  1  0.633300  0.440600  0.184020  1.0  -0.0732
  C  C1053  1  0.619110  0.419190  0.198280  1.0  -0.1038
  C  C1054  1  0.590990  0.415120  0.186390  1.0  -0.0787
  C  C1055  1  0.577060  0.432450  0.160240  1.0  -0.1485
  C  C1056  1  0.636500  0.402180  0.223400  1.0  0.5847
  C  C1057  1  0.810710  0.840010  0.177100  1.0  0.6554
  C  C1058  1  0.792390  0.823420  0.153420  1.0  -0.1158
  C  C1059  1  0.799590  0.797490  0.150340  1.0  -0.081
  C  C1060  1  0.783190  0.781060  0.125660  1.0  -0.0868
  C  C1061  1  0.759580  0.790580  0.104040  1.0  0.1725
  C  C1062  1  0.752380  0.816510  0.107110  1.0  -0.0947
  C  C1063  1  0.768780  0.832940  0.131800  1.0  -0.0627
  C  C1064  1  0.742900  0.773830  0.074800  1.0  -0.0945
  C  C1065  1  0.730270  0.761780  0.049600  1.0  0.0558
  C  C1066  1  0.714120  0.748930  0.019490  1.0  0.0954
  C  C1067  1  0.698750  0.763590  0.990910  1.0  -0.0781
  C  C1068  1  0.682690  0.751440  0.960160  1.0  0.131
  C  C1069  1  0.682010  0.724620  0.957990  1.0  -0.0903
  C  C1070  1  0.697380  0.709960  0.986570  1.0  0.1295
  C  C1071  1  0.713440  0.722110  0.017320  1.0  -0.0992
  C  C1072  1  0.669400  0.766010  0.928100  1.0  0.0169
  C  C1073  1  0.657700  0.778700  0.898200  1.0  0.0583
  C  C1074  1  0.644440  0.793200  0.867040  1.0  0.1268
  C  C1075  1  0.656560  0.816550  0.856500  1.0  -0.2195
  C  C1076  1  0.645190  0.830630  0.823700  1.0  -0.0977
  C  C1077  1  0.621700  0.821360  0.801570  1.0  -0.1228
  C  C1078  1  0.609580  0.798010  0.812100  1.0  -0.0741
  C  C1079  1  0.620940  0.783930  0.844900  1.0  -0.1421
  C  C1080  1  0.610400  0.835580  0.766500  1.0  0.6766
  C  C1081  1  0.698650  0.682310  0.982300  1.0  -0.09
  C  C1082  1  0.700010  0.658800  0.975900  1.0  -0.0371
  C  C1083  1  0.701360  0.632300  0.971700  1.0  0.0165
  C  C1084  1  0.707690  0.617170  0.005730  1.0  -0.137
  C  C1085  1  0.710840  0.590600  0.001680  1.0  -0.0483
  C  C1086  1  0.707660  0.579170  0.963580  1.0  -0.109
  C  C1087  1  0.701330  0.594310  0.929540  1.0  -0.0543
  C  C1088  1  0.698180  0.620880  0.933590  1.0  -0.1448
  C  C1089  1  0.711170  0.551610  0.959000  1.0  0.6769
  C  C1090  1  0.567000  0.891560  0.756940  1.0  0.4973
  C  C1091  1  0.549550  0.908140  0.781420  1.0  -0.1263
  C  C1092  1  0.564110  0.929890  0.795530  1.0  -0.0795
  C  C1093  1  0.551330  0.947170  0.821190  1.0  -0.1471
  C  C1094  1  0.523980  0.942690  0.832740  1.0  0.0551
  C  C1095  1  0.509420  0.920930  0.818630  1.0  -0.1455
  C  C1096  1  0.522210  0.903650  0.792970  1.0  -0.0685
  C  C1097  1  0.511320  0.959800  0.857800  1.0  0.0156
  C  C1098  1  0.500830  0.975050  0.882500  1.0  -0.0128
  C  C1099  1  0.488780  0.993610  0.910220  1.0  -0.0216
  C  C1100  1  0.459540  0.994370  0.910680  1.0  -0.0812
  C  C1101  1  0.446480  0.010710  0.937470  1.0  -0.0154
  C  C1102  1  0.462650  0.026310  0.963800  1.0  -0.117
  C  C1103  1  0.491890  0.025550  0.963340  1.0  0.0987
  C  C1104  1  0.504960  0.009210  0.936550  1.0  -0.0779
  C  C1105  1  0.415900  0.011650  0.939100  1.0  0.05
  C  C1106  1  0.390300  0.011760  0.940100  1.0  0.0229
  C  C1107  1  0.360440  0.012420  0.941500  1.0  0.1162
  C  C1108  1  0.342780  0.010620  0.906740  1.0  -0.1231
  C  C1109  1  0.313740  0.009610  0.910100  1.0  -0.0893
  C  C1110  1  0.302340  0.010410  0.948100  1.0  -0.1564
  C  C1111  1  0.320000  0.012210  0.982850  1.0  -0.073
  C  C1112  1  0.349050  0.013220  0.979500  1.0  -0.1502
  C  C1113  1  0.271410  0.008450  0.948100  1.0  0.667
  C  C1114  1  0.508470  0.040130  0.990800  1.0  0.2523
  C  C1115  1  0.519910  0.054070  0.013900  1.0  -0.0503
  C  C1116  1  0.534320  0.070060  0.046630  1.0  0.1356
  C  C1117  1  0.561990  0.065890  0.060700  1.0  -0.0998
  C  C1118  1  0.573480  0.080560  0.092700  1.0  -0.045
  C  C1119  1  0.557300  0.099400  0.110600  1.0  -0.1479
  C  C1120  1  0.529630  0.103570  0.096530  1.0  -0.0836
  C  C1121  1  0.518140  0.088900  0.064500  1.0  -0.104
  C  C1122  1  0.569870  0.113650  0.144700  1.0  0.6799
  C  C1123  1  0.617600  0.831960  0.660200  1.0  0.6621
  C  C1124  1  0.631670  0.813210  0.633400  1.0  -0.1678
  C  C1125  1  0.618640  0.791400  0.616600  1.0  -0.0677
  C  C1126  1  0.632890  0.775920  0.589900  1.0  -0.1334
  C  C1127  1  0.660170  0.782260  0.579940  1.0  0.0539
  C  C1128  1  0.673190  0.804080  0.596800  1.0  -0.1267
  C  C1129  1  0.658940  0.819550  0.623500  1.0  -0.0541
  C  C1130  1  0.676790  0.767510  0.553400  1.0  0.0643
  C  C1131  1  0.688950  0.756580  0.528500  1.0  -0.0609
  C  C1132  1  0.705660  0.744480  0.497590  1.0  -0.0328
  C  C1133  1  0.707060  0.717750  0.493980  1.0  -0.099
  C  C1134  1  0.722620  0.706700  0.463810  1.0  0.1312
  C  C1135  1  0.736790  0.722370  0.437250  1.0  -0.0941
  C  C1136  1  0.735390  0.749100  0.440860  1.0  0.0509
  C  C1137  1  0.719820  0.760150  0.471030  1.0  -0.0921
  C  C1138  1  0.725040  0.680750  0.460600  1.0  0.1037
  C  C1139  1  0.726810  0.655640  0.457900  1.0  -0.0181
  C  C1140  1  0.728070  0.628670  0.456800  1.0  0.0645
  C  C1141  1  0.731600  0.614540  0.492550  1.0  -0.1351
  C  C1142  1  0.731290  0.587690  0.491300  1.0  -0.0678
  C  C1143  1  0.727440  0.574980  0.454300  1.0  -0.0899
  C  C1144  1  0.723910  0.589110  0.418580  1.0  -0.0875
  C  C1145  1  0.724220  0.615960  0.419840  1.0  -0.1272
  C  C1146  1  0.723680  0.547740  0.453300  1.0  0.6484
  C  C1147  1  0.750120  0.765920  0.415600  1.0  0.0155
  C  C1148  1  0.761510  0.780170  0.392700  1.0  -0.0243
  C  C1149  1  0.776060  0.797290  0.366110  1.0  0.0296
  C  C1150  1  0.803470  0.791830  0.355800  1.0  -0.0953
  C  C1151  1  0.816960  0.807800  0.328900  1.0  -0.0686
  C  C1152  1  0.803040  0.829240  0.312360  1.0  -0.131
  C  C1153  1  0.775620  0.834700  0.322700  1.0  -0.0628
  C  C1154  1  0.762130  0.818730  0.349500  1.0  -0.1079
  C  C1155  1  0.817200  0.845520  0.283400  1.0  0.6798
  C  C1156  1  0.165380  0.993730  0.954600  1.0  0.7
  C  C1157  1  0.135930  0.988160  0.956800  1.0  -0.1059
  C  C1158  1  0.124410  0.979470  0.992340  1.0  -0.0656
  C  C1159  1  0.095670  0.974570  0.993110  1.0  -0.0902
  C  C1160  1  0.078440  0.978350  0.958400  1.0  0.006
  C  C1161  1  0.089960  0.987040  0.922850  1.0  -0.0879
  C  C1162  1  0.118700  0.991940  0.922080  1.0  -0.0927
  C  C1163  1  0.047980  0.976490  0.961300  1.0  0.1399
  C  C1164  1  0.023940  0.975600  0.961300  1.0  -0.0207
  C  C1165  1  0.992660  0.976710  0.960000  1.0  -0.0149
  C  C1166  1  0.976690  0.962750  0.986660  1.0  -0.0964
  C  C1167  1  0.947480  0.964880  0.984530  1.0  0.1432
  C  C1168  1  0.934250  0.980960  0.955750  1.0  -0.048
  C  C1169  1  0.950220  0.994920  0.929090  1.0  0.0917
  C  C1170  1  0.979430  0.992800  0.931220  1.0  -0.0868
  C  C1171  1  0.932460  0.951720  0.013900  1.0  0.0054
  C  C1172  1  0.919060  0.941640  0.038600  1.0  -0.0233
  C  C1173  1  0.903130  0.928370  0.070480  1.0  -0.0143
  C  C1174  1  0.914700  0.906830  0.090170  1.0  -0.1103
  C  C1175  1  0.900540  0.895090  0.121200  1.0  -0.0844
  C  C1176  1  0.874810  0.904890  0.132530  1.0  -0.1309
  C  C1177  1  0.863250  0.926430  0.112830  1.0  -0.0425
  C  C1178  1  0.877410  0.938170  0.081810  1.0  -0.099
  C  C1179  1  0.859800  0.893320  0.166540  1.0  0.6387
  C  C1180  1  0.935710  0.012750  0.901600  1.0  -0.0205
  C  C1181  1  0.924250  0.028550  0.879700  1.0  -0.0016
  C  C1182  1  0.908750  0.046140  0.854020  1.0  0.006
  C  C1183  1  0.880640  0.042070  0.842130  1.0  -0.1223
  C  C1184  1  0.866700  0.059400  0.815980  1.0  -0.0765
  C  C1185  1  0.880890  0.080810  0.801720  1.0  -0.1033
  C  C1186  1  0.909010  0.084880  0.813610  1.0  -0.0786
  C  C1187  1  0.922940  0.067550  0.839760  1.0  -0.1467
  C  C1188  1  0.863500  0.097820  0.776600  1.0  0.587
  C  C1189  1  0.310710  0.340010  0.177100  1.0  0.6555
  C  C1190  1  0.292390  0.323420  0.153420  1.0  -0.1154
  C  C1191  1  0.299590  0.297490  0.150340  1.0  -0.081
  C  C1192  1  0.283190  0.281060  0.125660  1.0  -0.0868
  C  C1193  1  0.259580  0.290580  0.104040  1.0  0.1725
  C  C1194  1  0.252380  0.316510  0.107110  1.0  -0.0947
  C  C1195  1  0.268780  0.332940  0.131800  1.0  -0.0627
  C  C1196  1  0.242900  0.273830  0.074800  1.0  -0.0945
  C  C1197  1  0.230270  0.261780  0.049600  1.0  0.0558
  C  C1198  1  0.214120  0.248930  0.019490  1.0  0.1016
  C  C1199  1  0.198750  0.263590  0.990910  1.0  -0.0781
  C  C1200  1  0.182690  0.251440  0.960160  1.0  0.131
  C  C1201  1  0.182010  0.224620  0.957990  1.0  -0.0903
  C  C1202  1  0.197380  0.209960  0.986570  1.0  0.1295
  C  C1203  1  0.213440  0.222110  0.017320  1.0  -0.0986
  C  C1204  1  0.169400  0.266010  0.928100  1.0  0.0169
  C  C1205  1  0.157700  0.278700  0.898200  1.0  0.0583
  C  C1206  1  0.144440  0.293200  0.867040  1.0  0.1268
  C  C1207  1  0.156560  0.316550  0.856500  1.0  -0.2195
  C  C1208  1  0.145190  0.330630  0.823700  1.0  -0.0977
  C  C1209  1  0.121700  0.321360  0.801570  1.0  -0.1228
  C  C1210  1  0.109580  0.298010  0.812100  1.0  -0.0741
  C  C1211  1  0.120940  0.283930  0.844900  1.0  -0.1421
  C  C1212  1  0.110400  0.335580  0.766500  1.0  0.6766
  C  C1213  1  0.198650  0.182310  0.982300  1.0  -0.09
  C  C1214  1  0.200010  0.158800  0.975900  1.0  -0.0371
  C  C1215  1  0.201360  0.132300  0.971700  1.0  0.0165
  C  C1216  1  0.207690  0.117170  0.005730  1.0  -0.137
  C  C1217  1  0.210840  0.090600  0.001680  1.0  -0.0483
  C  C1218  1  0.207660  0.079170  0.963580  1.0  -0.109
  C  C1219  1  0.201330  0.094310  0.929540  1.0  -0.0543
  C  C1220  1  0.198180  0.120880  0.933590  1.0  -0.1448
  C  C1221  1  0.211170  0.051610  0.959000  1.0  0.6769
  C  C1222  1  0.067000  0.391560  0.756940  1.0  0.4973
  C  C1223  1  0.049550  0.408140  0.781420  1.0  -0.1263
  C  C1224  1  0.064110  0.429890  0.795530  1.0  -0.0795
  C  C1225  1  0.051330  0.447170  0.821190  1.0  -0.1471
  C  C1226  1  0.023980  0.442690  0.832740  1.0  0.0551
  C  C1227  1  0.009420  0.420930  0.818630  1.0  -0.1455
  C  C1228  1  0.022210  0.403650  0.792970  1.0  -0.0685
  C  C1229  1  0.011320  0.459800  0.857800  1.0  0.0156
  C  C1230  1  0.000830  0.475050  0.882500  1.0  -0.0128
  C  C1231  1  0.988780  0.493610  0.910220  1.0  -0.0216
  C  C1232  1  0.959540  0.494370  0.910680  1.0  -0.0812
  C  C1233  1  0.946480  0.510710  0.937470  1.0  -0.0154
  C  C1234  1  0.962650  0.526310  0.963800  1.0  -0.117
  C  C1235  1  0.991890  0.525550  0.963340  1.0  0.0987
  C  C1236  1  0.004960  0.509210  0.936550  1.0  -0.0779
  C  C1237  1  0.915900  0.511650  0.939100  1.0  0.05
  C  C1238  1  0.890300  0.511760  0.940100  1.0  0.0229
  C  C1239  1  0.860440  0.512420  0.941500  1.0  0.1162
  C  C1240  1  0.842780  0.510620  0.906740  1.0  -0.1231
  C  C1241  1  0.813740  0.509610  0.910100  1.0  -0.0893
  C  C1242  1  0.802340  0.510410  0.948100  1.0  -0.1564
  C  C1243  1  0.820000  0.512210  0.982850  1.0  -0.073
  C  C1244  1  0.849050  0.513220  0.979500  1.0  -0.1502
  C  C1245  1  0.771410  0.508450  0.948100  1.0  0.667
  C  C1246  1  0.008470  0.540130  0.990800  1.0  0.2523
  C  C1247  1  0.019910  0.554070  0.013900  1.0  -0.0503
  C  C1248  1  0.034320  0.570060  0.046630  1.0  0.1356
  C  C1249  1  0.061990  0.565890  0.060700  1.0  -0.0998
  C  C1250  1  0.073480  0.580560  0.092700  1.0  -0.045
  C  C1251  1  0.057300  0.599400  0.110600  1.0  -0.1479
  C  C1252  1  0.029630  0.603570  0.096530  1.0  -0.0836
  C  C1253  1  0.018140  0.588900  0.064500  1.0  -0.104
  C  C1254  1  0.069870  0.613650  0.144700  1.0  0.6799
  C  C1255  1  0.117600  0.331960  0.660200  1.0  0.6621
  C  C1256  1  0.131670  0.313210  0.633400  1.0  -0.1678
  C  C1257  1  0.118640  0.291400  0.616600  1.0  -0.0677
  C  C1258  1  0.132890  0.275920  0.589900  1.0  -0.1334
  C  C1259  1  0.160170  0.282260  0.579940  1.0  0.0539
  C  C1260  1  0.173190  0.304080  0.596800  1.0  -0.1267
  C  C1261  1  0.158940  0.319550  0.623500  1.0  -0.0541
  C  C1262  1  0.176790  0.267510  0.553400  1.0  0.0643
  C  C1263  1  0.188950  0.256580  0.528500  1.0  -0.0609
  C  C1264  1  0.205660  0.244480  0.497590  1.0  -0.0334
  C  C1265  1  0.207060  0.217750  0.493980  1.0  -0.0981
  C  C1266  1  0.222620  0.206700  0.463810  1.0  0.1321
  C  C1267  1  0.236790  0.222370  0.437250  1.0  -0.0935
  C  C1268  1  0.235390  0.249100  0.440860  1.0  0.0428
  C  C1269  1  0.219820  0.260150  0.471030  1.0  -0.0959
  C  C1270  1  0.225040  0.180750  0.460600  1.0  0.1037
  C  C1271  1  0.226810  0.155640  0.457900  1.0  -0.0181
  C  C1272  1  0.228070  0.128670  0.456800  1.0  0.0645
  C  C1273  1  0.231600  0.114540  0.492550  1.0  -0.1351
  C  C1274  1  0.231290  0.087690  0.491300  1.0  -0.0678
  C  C1275  1  0.227440  0.074980  0.454300  1.0  -0.0899
  C  C1276  1  0.223910  0.089110  0.418580  1.0  -0.0875
  C  C1277  1  0.224220  0.115960  0.419840  1.0  -0.1272
  C  C1278  1  0.223680  0.047740  0.453300  1.0  0.6484
  C  C1279  1  0.250120  0.265920  0.415600  1.0  0.0155
  C  C1280  1  0.261510  0.280170  0.392700  1.0  -0.0243
  C  C1281  1  0.276060  0.297290  0.366110  1.0  0.0296
  C  C1282  1  0.303470  0.291830  0.355800  1.0  -0.0953
  C  C1283  1  0.316960  0.307800  0.328900  1.0  -0.0686
  C  C1284  1  0.303040  0.329240  0.312360  1.0  -0.131
  C  C1285  1  0.275620  0.334700  0.322700  1.0  -0.0628
  C  C1286  1  0.262130  0.318730  0.349500  1.0  -0.1079
  C  C1287  1  0.317200  0.345520  0.283400  1.0  0.6798
  C  C1288  1  0.665380  0.493730  0.954600  1.0  0.7
  C  C1289  1  0.635930  0.488160  0.956800  1.0  -0.1059
  C  C1290  1  0.624410  0.479470  0.992340  1.0  -0.0656
  C  C1291  1  0.595670  0.474570  0.993110  1.0  -0.0902
  C  C1292  1  0.578440  0.478350  0.958400  1.0  0.006
  C  C1293  1  0.589960  0.487040  0.922850  1.0  -0.0879
  C  C1294  1  0.618700  0.491940  0.922080  1.0  -0.0927
  C  C1295  1  0.547980  0.476490  0.961300  1.0  0.1399
  C  C1296  1  0.523940  0.475600  0.961300  1.0  -0.0207
  C  C1297  1  0.492660  0.476710  0.960000  1.0  -0.0149
  C  C1298  1  0.476690  0.462750  0.986660  1.0  -0.0964
  C  C1299  1  0.447480  0.464880  0.984530  1.0  0.1432
  C  C1300  1  0.434250  0.480960  0.955750  1.0  -0.048
  C  C1301  1  0.450220  0.494920  0.929090  1.0  0.0917
  C  C1302  1  0.479430  0.492800  0.931220  1.0  -0.0868
  C  C1303  1  0.432460  0.451720  0.013900  1.0  0.0054
  C  C1304  1  0.419060  0.441640  0.038600  1.0  -0.0233
  C  C1305  1  0.403130  0.428370  0.070480  1.0  -0.0143
  C  C1306  1  0.414700  0.406830  0.090170  1.0  -0.1103
  C  C1307  1  0.400540  0.395090  0.121200  1.0  -0.0844
  C  C1308  1  0.374810  0.404890  0.132530  1.0  -0.1309
  C  C1309  1  0.363250  0.426430  0.112830  1.0  -0.0425
  C  C1310  1  0.377410  0.438170  0.081810  1.0  -0.099
  C  C1311  1  0.359800  0.393320  0.166540  1.0  0.6387
  C  C1312  1  0.435710  0.512750  0.901600  1.0  -0.0205
  C  C1313  1  0.424250  0.528550  0.879700  1.0  -0.0016
  C  C1314  1  0.408750  0.546140  0.854020  1.0  0.006
  C  C1315  1  0.380640  0.542070  0.842130  1.0  -0.1223
  C  C1316  1  0.366700  0.559400  0.815980  1.0  -0.0765
  C  C1317  1  0.380890  0.580810  0.801720  1.0  -0.1033
  C  C1318  1  0.409010  0.584880  0.813610  1.0  -0.0786
  C  C1319  1  0.422940  0.567550  0.839760  1.0  -0.1467
  C  C1320  1  0.363500  0.597820  0.776600  1.0  0.587
  C  C1321  1  0.810710  0.159990  0.677100  1.0  0.6549
  C  C1322  1  0.792390  0.176580  0.653420  1.0  -0.1159
  C  C1323  1  0.799590  0.202510  0.650340  1.0  -0.0805
  C  C1324  1  0.783190  0.218940  0.625660  1.0  -0.0864
  C  C1325  1  0.759580  0.209420  0.604040  1.0  0.1738
  C  C1326  1  0.752380  0.183490  0.607110  1.0  -0.0942
  C  C1327  1  0.768780  0.167060  0.631800  1.0  -0.0609
  C  C1328  1  0.742900  0.226170  0.574800  1.0  -0.0949
  C  C1329  1  0.730270  0.238220  0.549600  1.0  0.055
  C  C1330  1  0.714120  0.251070  0.519490  1.0  0.0959
  C  C1331  1  0.698750  0.236410  0.490910  1.0  -0.0769
  C  C1332  1  0.682690  0.248560  0.460160  1.0  0.1297
  C  C1333  1  0.682010  0.275380  0.457990  1.0  -0.0901
  C  C1334  1  0.697380  0.290040  0.486570  1.0  0.1281
  C  C1335  1  0.713440  0.277890  0.517320  1.0  -0.1002
  C  C1336  1  0.669400  0.233990  0.428100  1.0  0.0153
  C  C1337  1  0.657700  0.221300  0.398200  1.0  0.0578
  C  C1338  1  0.644440  0.206800  0.367040  1.0  0.1262
  C  C1339  1  0.656560  0.183450  0.356500  1.0  -0.2195
  C  C1340  1  0.645190  0.169370  0.323700  1.0  -0.098
  C  C1341  1  0.621700  0.178640  0.301570  1.0  -0.1226
  C  C1342  1  0.609580  0.201990  0.312100  1.0  -0.0739
  C  C1343  1  0.620940  0.216070  0.344900  1.0  -0.142
  C  C1344  1  0.610400  0.164420  0.266500  1.0  0.6765
  C  C1345  1  0.698650  0.317690  0.482300  1.0  -0.0899
  C  C1346  1  0.700010  0.341200  0.475900  1.0  -0.0374
  C  C1347  1  0.701360  0.367700  0.471700  1.0  0.0176
  C  C1348  1  0.707690  0.382830  0.505730  1.0  -0.1361
  C  C1349  1  0.710840  0.409400  0.501680  1.0  -0.0487
  C  C1350  1  0.707660  0.420830  0.463580  1.0  -0.1089
  C  C1351  1  0.701330  0.405690  0.429540  1.0  -0.0547
  C  C1352  1  0.698180  0.379120  0.433590  1.0  -0.1451
  C  C1353  1  0.711170  0.448390  0.459000  1.0  0.6765
  C  C1354  1  0.567000  0.108440  0.256940  1.0  0.4972
  C  C1355  1  0.549550  0.091860  0.281420  1.0  -0.1265
  C  C1356  1  0.564110  0.070110  0.295530  1.0  -0.0806
  C  C1357  1  0.551330  0.052830  0.321190  1.0  -0.1476
  C  C1358  1  0.523980  0.057310  0.332740  1.0  0.0554
  C  C1359  1  0.509420  0.079070  0.318630  1.0  -0.1454
  C  C1360  1  0.522210  0.096350  0.292970  1.0  -0.0688
  C  C1361  1  0.511320  0.040200  0.357800  1.0  0.0169
  C  C1362  1  0.500830  0.024950  0.382500  1.0  -0.0129
  C  C1363  1  0.488780  0.006390  0.410220  1.0  -0.0213
  C  C1364  1  0.459540  0.005630  0.410680  1.0  -0.0805
  C  C1365  1  0.446480  0.989290  0.437470  1.0  -0.0159
  C  C1366  1  0.462650  0.973690  0.463800  1.0  -0.1165
  C  C1367  1  0.491890  0.974450  0.463340  1.0  0.0987
  C  C1368  1  0.504960  0.990790  0.436550  1.0  -0.0781
  C  C1369  1  0.415900  0.988350  0.439100  1.0  0.0506
  C  C1370  1  0.390300  0.988240  0.440100  1.0  0.0231
  C  C1371  1  0.360440  0.987580  0.441500  1.0  0.1163
  C  C1372  1  0.342780  0.989380  0.406740  1.0  -0.1232
  C  C1373  1  0.313740  0.990390  0.410100  1.0  -0.0893
  C  C1374  1  0.302340  0.989590  0.448100  1.0  -0.1565
  C  C1375  1  0.320000  0.987790  0.482850  1.0  -0.0732
  C  C1376  1  0.349050  0.986780  0.479500  1.0  -0.1502
  C  C1377  1  0.271410  0.991550  0.448100  1.0  0.667
  C  C1378  1  0.508470  0.959870  0.490800  1.0  0.2518
  C  C1379  1  0.519910  0.945930  0.513900  1.0  -0.0518
  C  C1380  1  0.534320  0.929940  0.546630  1.0  0.137
  C  C1381  1  0.561990  0.934110  0.560700  1.0  -0.099
  C  C1382  1  0.573480  0.919440  0.592700  1.0  -0.0453
  C  C1383  1  0.557300  0.900600  0.610600  1.0  -0.148
  C  C1384  1  0.529630  0.896430  0.596530  1.0  -0.0829
  C  C1385  1  0.518140  0.911100  0.564500  1.0  -0.1026
  C  C1386  1  0.569870  0.886350  0.644700  1.0  0.6798
  C  C1387  1  0.617600  0.168040  0.160200  1.0  0.6619
  C  C1388  1  0.631670  0.186790  0.133400  1.0  -0.168
  C  C1389  1  0.618640  0.208600  0.116600  1.0  -0.0674
  C  C1390  1  0.632890  0.224080  0.089900  1.0  -0.1338
  C  C1391  1  0.660170  0.217740  0.079940  1.0  0.0548
  C  C1392  1  0.673190  0.195920  0.096800  1.0  -0.1272
  C  C1393  1  0.658940  0.180450  0.123500  1.0  -0.0539
  C  C1394  1  0.676790  0.232490  0.053400  1.0  0.0642
  C  C1395  1  0.688950  0.243420  0.028500  1.0  -0.0615
  C  C1396  1  0.705660  0.255520  0.997590  1.0  -0.0334
  C  C1397  1  0.707060  0.282250  0.993980  1.0  -0.1008
  C  C1398  1  0.722620  0.293300  0.963810  1.0  0.1318
  C  C1399  1  0.736790  0.277630  0.937250  1.0  -0.0942
  C  C1400  1  0.735390  0.250900  0.940860  1.0  0.0502
  C  C1401  1  0.719820  0.239850  0.971030  1.0  -0.0908
  C  C1402  1  0.725040  0.319250  0.960600  1.0  0.1028
  C  C1403  1  0.726810  0.344360  0.957900  1.0  -0.0176
  C  C1404  1  0.728070  0.371330  0.956800  1.0  0.0664
  C  C1405  1  0.731600  0.385460  0.992550  1.0  -0.1357
  C  C1406  1  0.731290  0.412310  0.991300  1.0  -0.0676
  C  C1407  1  0.727440  0.425020  0.954300  1.0  -0.0902
  C  C1408  1  0.723910  0.410890  0.918580  1.0  -0.0878
  C  C1409  1  0.724220  0.384040  0.919840  1.0  -0.1263
  C  C1410  1  0.723680  0.452260  0.953300  1.0  0.6484
  C  C1411  1  0.750120  0.234080  0.915600  1.0  0.0157
  C  C1412  1  0.761510  0.219830  0.892700  1.0  -0.0245
  C  C1413  1  0.776060  0.202710  0.866110  1.0  0.0289
  C  C1414  1  0.803470  0.208170  0.855800  1.0  -0.0967
  C  C1415  1  0.816960  0.192200  0.828900  1.0  -0.0682
  C  C1416  1  0.803040  0.170760  0.812360  1.0  -0.1308
  C  C1417  1  0.775620  0.165300  0.822700  1.0  -0.0618
  C  C1418  1  0.762130  0.181270  0.849500  1.0  -0.1076
  C  C1419  1  0.817200  0.154480  0.783400  1.0  0.6801
  C  C1420  1  0.165380  0.006270  0.454600  1.0  0.6998
  C  C1421  1  0.135930  0.011840  0.456800  1.0  -0.1053
  C  C1422  1  0.124410  0.020530  0.492340  1.0  -0.0648
  C  C1423  1  0.095670  0.025430  0.493110  1.0  -0.0899
  C  C1424  1  0.078440  0.021650  0.458400  1.0  0.0073
  C  C1425  1  0.089960  0.012960  0.422850  1.0  -0.0876
  C  C1426  1  0.118700  0.008060  0.422080  1.0  -0.0927
  C  C1427  1  0.047980  0.023510  0.461300  1.0  0.1384
  C  C1428  1  0.023940  0.024400  0.461300  1.0  -0.0183
  C  C1429  1  0.992660  0.023290  0.460000  1.0  -0.0144
  C  C1430  1  0.976690  0.037250  0.486660  1.0  -0.0954
  C  C1431  1  0.947480  0.035120  0.484530  1.0  0.1427
  C  C1432  1  0.934250  0.019040  0.455750  1.0  -0.0477
  C  C1433  1  0.950220  0.005080  0.429090  1.0  0.0909
  C  C1434  1  0.979430  0.007200  0.431220  1.0  -0.0872
  C  C1435  1  0.932460  0.048280  0.513900  1.0  0.0049
  C  C1436  1  0.919060  0.058360  0.538600  1.0  -0.0246
  C  C1437  1  0.903130  0.071630  0.570480  1.0  -0.0148
  C  C1438  1  0.914700  0.093170  0.590170  1.0  -0.1098
  C  C1439  1  0.900540  0.104910  0.621200  1.0  -0.0834
  C  C1440  1  0.874810  0.095110  0.632530  1.0  -0.1311
  C  C1441  1  0.863250  0.073570  0.612830  1.0  -0.0422
  C  C1442  1  0.877410  0.061830  0.581810  1.0  -0.0976
  C  C1443  1  0.859800  0.106680  0.666540  1.0  0.6387
  C  C1444  1  0.935710  0.987250  0.401600  1.0  -0.0208
  C  C1445  1  0.924250  0.971450  0.379700  1.0  -0.0022
  C  C1446  1  0.908750  0.953860  0.354020  1.0  0.0057
  C  C1447  1  0.880640  0.957930  0.342130  1.0  -0.124
  C  C1448  1  0.866700  0.940600  0.315980  1.0  -0.0763
  C  C1449  1  0.880890  0.919190  0.301720  1.0  -0.1031
  C  C1450  1  0.909010  0.915120  0.313610  1.0  -0.0786
  C  C1451  1  0.922940  0.932450  0.339760  1.0  -0.1465
  C  C1452  1  0.863500  0.902180  0.276600  1.0  0.5864
  C  C1453  1  0.310710  0.659990  0.677100  1.0  0.655
  C  C1454  1  0.292390  0.676580  0.653420  1.0  -0.1154
  C  C1455  1  0.299590  0.702510  0.650340  1.0  -0.0805
  C  C1456  1  0.283190  0.718940  0.625660  1.0  -0.0864
  C  C1457  1  0.259580  0.709420  0.604040  1.0  0.1738
  C  C1458  1  0.252380  0.683490  0.607110  1.0  -0.0942
  C  C1459  1  0.268780  0.667060  0.631800  1.0  -0.0609
  C  C1460  1  0.242900  0.726170  0.574800  1.0  -0.0949
  C  C1461  1  0.230270  0.738220  0.549600  1.0  0.055
  C  C1462  1  0.214120  0.751070  0.519490  1.0  0.0959
  C  C1463  1  0.198750  0.736410  0.490910  1.0  -0.0769
  C  C1464  1  0.182690  0.748560  0.460160  1.0  0.1297
  C  C1465  1  0.182010  0.775380  0.457990  1.0  -0.0901
  C  C1466  1  0.197380  0.790040  0.486570  1.0  0.1281
  C  C1467  1  0.213440  0.777890  0.517320  1.0  -0.1002
  C  C1468  1  0.169400  0.733990  0.428100  1.0  0.0153
  C  C1469  1  0.157700  0.721300  0.398200  1.0  0.0578
  C  C1470  1  0.144440  0.706800  0.367040  1.0  0.1262
  C  C1471  1  0.156560  0.683450  0.356500  1.0  -0.2195
  C  C1472  1  0.145190  0.669370  0.323700  1.0  -0.098
  C  C1473  1  0.121700  0.678640  0.301570  1.0  -0.1226
  C  C1474  1  0.109580  0.701990  0.312100  1.0  -0.0739
  C  C1475  1  0.120940  0.716070  0.344900  1.0  -0.142
  C  C1476  1  0.110400  0.664420  0.266500  1.0  0.6765
  C  C1477  1  0.198650  0.817690  0.482300  1.0  -0.0899
  C  C1478  1  0.200010  0.841200  0.475900  1.0  -0.0374
  C  C1479  1  0.201360  0.867700  0.471700  1.0  0.0176
  C  C1480  1  0.207690  0.882830  0.505730  1.0  -0.1361
  C  C1481  1  0.210840  0.909400  0.501680  1.0  -0.0487
  C  C1482  1  0.207660  0.920830  0.463580  1.0  -0.1089
  C  C1483  1  0.201330  0.905690  0.429540  1.0  -0.0547
  C  C1484  1  0.198180  0.879120  0.433590  1.0  -0.1451
  C  C1485  1  0.211170  0.948390  0.459000  1.0  0.6765
  C  C1486  1  0.067000  0.608440  0.256940  1.0  0.4972
  C  C1487  1  0.049550  0.591860  0.281420  1.0  -0.1265
  C  C1488  1  0.064110  0.570110  0.295530  1.0  -0.0806
  C  C1489  1  0.051330  0.552830  0.321190  1.0  -0.1476
  C  C1490  1  0.023980  0.557310  0.332740  1.0  0.0554
  C  C1491  1  0.009420  0.579070  0.318630  1.0  -0.1454
  C  C1492  1  0.022210  0.596350  0.292970  1.0  -0.0688
  C  C1493  1  0.011320  0.540200  0.357800  1.0  0.0169
  C  C1494  1  0.000830  0.524950  0.382500  1.0  -0.0129
  C  C1495  1  0.988780  0.506390  0.410220  1.0  -0.0213
  C  C1496  1  0.959540  0.505630  0.410680  1.0  -0.0805
  C  C1497  1  0.946480  0.489290  0.437470  1.0  -0.0159
  C  C1498  1  0.962650  0.473690  0.463800  1.0  -0.1165
  C  C1499  1  0.991890  0.474450  0.463340  1.0  0.0987
  C  C1500  1  0.004960  0.490790  0.436550  1.0  -0.0781
  C  C1501  1  0.915900  0.488350  0.439100  1.0  0.0506
  C  C1502  1  0.890300  0.488240  0.440100  1.0  0.0231
  C  C1503  1  0.860440  0.487580  0.441500  1.0  0.1163
  C  C1504  1  0.842780  0.489380  0.406740  1.0  -0.1232
  C  C1505  1  0.813740  0.490390  0.410100  1.0  -0.0893
  C  C1506  1  0.802340  0.489590  0.448100  1.0  -0.1565
  C  C1507  1  0.820000  0.487790  0.482850  1.0  -0.0732
  C  C1508  1  0.849050  0.486780  0.479500  1.0  -0.1502
  C  C1509  1  0.771410  0.491550  0.448100  1.0  0.667
  C  C1510  1  0.008470  0.459870  0.490800  1.0  0.2518
  C  C1511  1  0.019910  0.445930  0.513900  1.0  -0.0518
  C  C1512  1  0.034320  0.429940  0.546630  1.0  0.137
  C  C1513  1  0.061990  0.434110  0.560700  1.0  -0.099
  C  C1514  1  0.073480  0.419440  0.592700  1.0  -0.0453
  C  C1515  1  0.057300  0.400600  0.610600  1.0  -0.148
  C  C1516  1  0.029630  0.396430  0.596530  1.0  -0.0829
  C  C1517  1  0.018140  0.411100  0.564500  1.0  -0.1026
  C  C1518  1  0.069870  0.386350  0.644700  1.0  0.6798
  C  C1519  1  0.117600  0.668040  0.160200  1.0  0.6619
  C  C1520  1  0.131670  0.686790  0.133400  1.0  -0.168
  C  C1521  1  0.118640  0.708600  0.116600  1.0  -0.0674
  C  C1522  1  0.132890  0.724080  0.089900  1.0  -0.1338
  C  C1523  1  0.160170  0.717740  0.079940  1.0  0.0548
  C  C1524  1  0.173190  0.695920  0.096800  1.0  -0.1272
  C  C1525  1  0.158940  0.680450  0.123500  1.0  -0.0539
  C  C1526  1  0.176790  0.732490  0.053400  1.0  0.0642
  C  C1527  1  0.188950  0.743420  0.028500  1.0  -0.0615
  C  C1528  1  0.205660  0.755520  0.997590  1.0  -0.0334
  C  C1529  1  0.207060  0.782250  0.993980  1.0  -0.1008
  C  C1530  1  0.222620  0.793300  0.963810  1.0  0.1318
  C  C1531  1  0.236790  0.777630  0.937250  1.0  -0.0942
  C  C1532  1  0.235390  0.750900  0.940860  1.0  0.0502
  C  C1533  1  0.219820  0.739850  0.971030  1.0  -0.0908
  C  C1534  1  0.225040  0.819250  0.960600  1.0  0.1028
  C  C1535  1  0.226810  0.844360  0.957900  1.0  -0.0176
  C  C1536  1  0.228070  0.871330  0.956800  1.0  0.0664
  C  C1537  1  0.231600  0.885460  0.992550  1.0  -0.1357
  C  C1538  1  0.231290  0.912310  0.991300  1.0  -0.0676
  C  C1539  1  0.227440  0.925020  0.954300  1.0  -0.0902
  C  C1540  1  0.223910  0.910890  0.918580  1.0  -0.0878
  C  C1541  1  0.224220  0.884040  0.919840  1.0  -0.1263
  C  C1542  1  0.223680  0.952260  0.953300  1.0  0.6484
  C  C1543  1  0.250120  0.734080  0.915600  1.0  0.0157
  C  C1544  1  0.261510  0.719830  0.892700  1.0  -0.0245
  C  C1545  1  0.276060  0.702710  0.866110  1.0  0.0289
  C  C1546  1  0.303470  0.708170  0.855800  1.0  -0.0967
  C  C1547  1  0.316960  0.692200  0.828900  1.0  -0.0682
  C  C1548  1  0.303040  0.670760  0.812360  1.0  -0.1308
  C  C1549  1  0.275620  0.665300  0.822700  1.0  -0.0618
  C  C1550  1  0.262130  0.681270  0.849500  1.0  -0.1076
  C  C1551  1  0.317200  0.654480  0.783400  1.0  0.6801
  C  C1552  1  0.665380  0.506270  0.454600  1.0  0.6998
  C  C1553  1  0.635930  0.511840  0.456800  1.0  -0.1053
  C  C1554  1  0.624410  0.520530  0.492340  1.0  -0.0648
  C  C1555  1  0.595670  0.525430  0.493110  1.0  -0.0899
  C  C1556  1  0.578440  0.521650  0.458400  1.0  0.0073
  C  C1557  1  0.589960  0.512960  0.422850  1.0  -0.0876
  C  C1558  1  0.618700  0.508060  0.422080  1.0  -0.0927
  C  C1559  1  0.547980  0.523510  0.461300  1.0  0.1384
  C  C1560  1  0.523940  0.524400  0.461300  1.0  -0.0183
  C  C1561  1  0.492660  0.523290  0.460000  1.0  -0.0144
  C  C1562  1  0.476690  0.537250  0.486660  1.0  -0.0954
  C  C1563  1  0.447480  0.535120  0.484530  1.0  0.1427
  C  C1564  1  0.434250  0.519040  0.455750  1.0  -0.0477
  C  C1565  1  0.450220  0.505080  0.429090  1.0  0.0909
  C  C1566  1  0.479430  0.507200  0.431220  1.0  -0.0872
  C  C1567  1  0.432460  0.548280  0.513900  1.0  0.0049
  C  C1568  1  0.419060  0.558360  0.538600  1.0  -0.0246
  C  C1569  1  0.403130  0.571630  0.570480  1.0  -0.0148
  C  C1570  1  0.414700  0.593170  0.590170  1.0  -0.1098
  C  C1571  1  0.400540  0.604910  0.621200  1.0  -0.0834
  C  C1572  1  0.374810  0.595110  0.632530  1.0  -0.1311
  C  C1573  1  0.363250  0.573570  0.612830  1.0  -0.0422
  C  C1574  1  0.377410  0.561830  0.581810  1.0  -0.0976
  C  C1575  1  0.359800  0.606680  0.666540  1.0  0.6387
  C  C1576  1  0.435710  0.487250  0.401600  1.0  -0.0208
  C  C1577  1  0.424250  0.471450  0.379700  1.0  -0.0022
  C  C1578  1  0.408750  0.453860  0.354020  1.0  0.0057
  C  C1579  1  0.380640  0.457930  0.342130  1.0  -0.124
  C  C1580  1  0.366700  0.440600  0.315980  1.0  -0.0763
  C  C1581  1  0.380890  0.419190  0.301720  1.0  -0.1031
  C  C1582  1  0.409010  0.415120  0.313610  1.0  -0.0786
  C  C1583  1  0.422940  0.432450  0.339760  1.0  -0.1465
  C  C1584  1  0.363500  0.402180  0.276600  1.0  0.5864
  O  O1585  1  0.166670  0.832940  0.306820  1.0  -0.5856
  O  O1586  1  0.199320  0.863640  0.316540  1.0  -0.5957
  O  O1587  1  0.122530  0.119220  0.737230  1.0  -0.5966
  O  O1588  1  0.160820  0.093340  0.737740  1.0  -0.6001
  O  O1589  1  0.158020  0.839020  0.226130  1.0  -0.5984
  O  O1590  1  0.195960  0.863640  0.234630  1.0  -0.6145
  O  O1591  1  0.127410  0.871470  0.318490  1.0  -0.5784
  O  O1592  1  0.160430  0.903020  0.318940  1.0  -0.5513
  O  O1593  1  0.377120  0.855680  0.743810  1.0  -0.5689
  O  O1594  1  0.413660  0.827360  0.749800  1.0  -0.5943
  O  O1595  1  0.406010  0.108000  0.340160  1.0  -0.5919
  O  O1596  1  0.444830  0.132040  0.340240  1.0  -0.616
  O  O1597  1  0.411840  0.897280  0.758510  1.0  -0.575
  O  O1598  1  0.448290  0.870190  0.758140  1.0  -0.6147
  O  O1599  1  0.371610  0.850960  0.825290  1.0  -0.5733
  O  O1600  1  0.408540  0.825240  0.833170  1.0  -0.605
  O  O1601  1  0.744180  0.006610  0.583840  1.0  -0.5832
  O  O1602  1  0.738700  0.008020  0.515780  1.0  -0.5936
  O  O1603  1  0.823800  0.998480  0.577720  1.0  -0.5839
  O  O1604  1  0.819140  0.993410  0.511120  1.0  -0.609
  O  O1605  1  0.288720  0.540750  0.574710  1.0  -0.6089
  O  O1606  1  0.286150  0.537870  0.508640  1.0  -0.6161
  O  O1607  1  0.279610  0.534770  0.079870  1.0  -0.6029
  O  O1608  1  0.271470  0.535370  0.013050  1.0  -0.6031
  O  O1609  1  0.666667  0.332940  0.306820  1.0  -0.5857
  O  O1610  1  0.699320  0.363640  0.316540  1.0  -0.5957
  O  O1611  1  0.622530  0.619220  0.737230  1.0  -0.5966
  O  O1612  1  0.660820  0.593340  0.737740  1.0  -0.6001
  O  O1613  1  0.658020  0.339020  0.226130  1.0  -0.5984
  O  O1614  1  0.695960  0.363640  0.234630  1.0  -0.6145
  O  O1615  1  0.627410  0.371470  0.318490  1.0  -0.5784
  O  O1616  1  0.660430  0.403020  0.318940  1.0  -0.5513
  O  O1617  1  0.877120  0.355680  0.743810  1.0  -0.5689
  O  O1618  1  0.913660  0.327360  0.749800  1.0  -0.5943
  O  O1619  1  0.906010  0.608000  0.340160  1.0  -0.5919
  O  O1620  1  0.944830  0.632040  0.340240  1.0  -0.616
  O  O1621  1  0.911840  0.397280  0.758510  1.0  -0.575
  O  O1622  1  0.948290  0.370190  0.758140  1.0  -0.6147
  O  O1623  1  0.871610  0.350960  0.825290  1.0  -0.5733
  O  O1624  1  0.908540  0.325240  0.833170  1.0  -0.605
  O  O1625  1  0.244180  0.506610  0.583840  1.0  -0.5829
  O  O1626  1  0.238700  0.508020  0.515780  1.0  -0.5936
  O  O1627  1  0.323800  0.498480  0.577720  1.0  -0.5837
  O  O1628  1  0.319140  0.493410  0.511120  1.0  -0.6091
  O  O1629  1  0.788720  0.040750  0.574710  1.0  -0.609
  O  O1630  1  0.786150  0.037870  0.508640  1.0  -0.6162
  O  O1631  1  0.779610  0.034770  0.079870  1.0  -0.6029
  O  O1632  1  0.771470  0.035370  0.013050  1.0  -0.6031
  O  O1633  1  0.166670  0.167060  0.806820  1.0  -0.5848
  O  O1634  1  0.199320  0.136360  0.816540  1.0  -0.5974
  O  O1635  1  0.122530  0.880780  0.237230  1.0  -0.5958
  O  O1636  1  0.160820  0.906660  0.237740  1.0  -0.6002
  O  O1637  1  0.158020  0.160980  0.726130  1.0  -0.5981
  O  O1638  1  0.195960  0.136360  0.734630  1.0  -0.6145
  O  O1639  1  0.127410  0.128530  0.818490  1.0  -0.5766
  O  O1640  1  0.160430  0.096980  0.818940  1.0  -0.5517
  O  O1641  1  0.377120  0.144320  0.243810  1.0  -0.5689
  O  O1642  1  0.413660  0.172640  0.249800  1.0  -0.5941
  O  O1643  1  0.406010  0.892000  0.840160  1.0  -0.5918
  O  O1644  1  0.444830  0.867960  0.840240  1.0  -0.6152
  O  O1645  1  0.411840  0.102720  0.258510  1.0  -0.5742
  O  O1646  1  0.448290  0.129810  0.258140  1.0  -0.6142
  O  O1647  1  0.371610  0.149040  0.325290  1.0  -0.5726
  O  O1648  1  0.408540  0.174760  0.333170  1.0  -0.6038
  O  O1649  1  0.744180  0.993390  0.083840  1.0  -0.5833
  O  O1650  1  0.738700  0.991980  0.015780  1.0  -0.5935
  O  O1651  1  0.823800  0.001520  0.077720  1.0  -0.5837
  O  O1652  1  0.819140  0.006590  0.011120  1.0  -0.6095
  O  O1653  1  0.288720  0.459250  0.074710  1.0  -0.6088
  O  O1654  1  0.286150  0.462130  0.008640  1.0  -0.6159
  O  O1655  1  0.279610  0.465230  0.579870  1.0  -0.6022
  O  O1656  1  0.271470  0.464630  0.513050  1.0  -0.6032
  O  O1657  1  0.666667  0.667060  0.806820  1.0  -0.5849
  O  O1658  1  0.699320  0.636360  0.816540  1.0  -0.5974
  O  O1659  1  0.622530  0.380780  0.237230  1.0  -0.5958
  O  O1660  1  0.660820  0.406660  0.237740  1.0  -0.6002
  O  O1661  1  0.658020  0.660980  0.726130  1.0  -0.5981
  O  O1662  1  0.695960  0.636360  0.734630  1.0  -0.6145
  O  O1663  1  0.627410  0.628530  0.818490  1.0  -0.5766
  O  O1664  1  0.660430  0.596980  0.818940  1.0  -0.5517
  O  O1665  1  0.877120  0.644320  0.243810  1.0  -0.5689
  O  O1666  1  0.913660  0.672640  0.249800  1.0  -0.5941
  O  O1667  1  0.906010  0.392000  0.840160  1.0  -0.5918
  O  O1668  1  0.944830  0.367960  0.840240  1.0  -0.6152
  O  O1669  1  0.911840  0.602720  0.258510  1.0  -0.5742
  O  O1670  1  0.948290  0.629810  0.258140  1.0  -0.6142
  O  O1671  1  0.871610  0.649040  0.325290  1.0  -0.5726
  O  O1672  1  0.908540  0.674760  0.333170  1.0  -0.6038
  O  O1673  1  0.244180  0.493390  0.083840  1.0  -0.583
  O  O1674  1  0.238700  0.491980  0.015780  1.0  -0.5935
  O  O1675  1  0.323800  0.501520  0.077720  1.0  -0.5837
  O  O1676  1  0.319140  0.506590  0.011120  1.0  -0.6094
  O  O1677  1  0.788720  0.959250  0.074710  1.0  -0.6089
  O  O1678  1  0.786150  0.962130  0.008640  1.0  -0.616
  O  O1679  1  0.779610  0.965230  0.579870  1.0  -0.6022
  O  O1680  1  0.771470  0.964630  0.513050  1.0  -0.6032
  O  O1681  1  0.833330  0.832940  0.193180  1.0  -0.5861
  O  O1682  1  0.800680  0.863640  0.183460  1.0  -0.5965
  O  O1683  1  0.877470  0.119220  0.762770  1.0  -0.5962
  O  O1684  1  0.839180  0.093340  0.762260  1.0  -0.5997
  O  O1685  1  0.841980  0.839020  0.273870  1.0  -0.5972
  O  O1686  1  0.804040  0.863640  0.265370  1.0  -0.6138
  O  O1687  1  0.872590  0.871470  0.181510  1.0  -0.5795
  O  O1688  1  0.839570  0.903020  0.181060  1.0  -0.5501
  O  O1689  1  0.622880  0.855680  0.756190  1.0  -0.5696
  O  O1690  1  0.586340  0.827360  0.750200  1.0  -0.5945
  O  O1691  1  0.593990  0.108000  0.159840  1.0  -0.5934
  O  O1692  1  0.555170  0.132040  0.159760  1.0  -0.6161
  O  O1693  1  0.588160  0.897280  0.741490  1.0  -0.5753
  O  O1694  1  0.551710  0.870190  0.741860  1.0  -0.6135
  O  O1695  1  0.628390  0.850960  0.674710  1.0  -0.5745
  O  O1696  1  0.591460  0.825240  0.666830  1.0  -0.6057
  O  O1697  1  0.255820  0.006610  0.916160  1.0  -0.5847
  O  O1698  1  0.261300  0.008020  0.984220  1.0  -0.5933
  O  O1699  1  0.176200  0.998480  0.922280  1.0  -0.5842
  O  O1700  1  0.180860  0.993410  0.988880  1.0  -0.6075
  O  O1701  1  0.711280  0.540750  0.925290  1.0  -0.6069
  O  O1702  1  0.713850  0.537870  0.991360  1.0  -0.6158
  O  O1703  1  0.720390  0.534770  0.420130  1.0  -0.6009
  O  O1704  1  0.728530  0.535370  0.486950  1.0  -0.6029
  O  O1705  1  0.333333  0.332940  0.193180  1.0  -0.5862
  O  O1706  1  0.300680  0.363640  0.183460  1.0  -0.5965
  O  O1707  1  0.377470  0.619220  0.762770  1.0  -0.5962
  O  O1708  1  0.339180  0.593340  0.762260  1.0  -0.5997
  O  O1709  1  0.341980  0.339020  0.273870  1.0  -0.5972
  O  O1710  1  0.304040  0.363640  0.265370  1.0  -0.6138
  O  O1711  1  0.372590  0.371470  0.181510  1.0  -0.5795
  O  O1712  1  0.339570  0.403020  0.181060  1.0  -0.5501
  O  O1713  1  0.122880  0.355680  0.756190  1.0  -0.5696
  O  O1714  1  0.086340  0.327360  0.750200  1.0  -0.5945
  O  O1715  1  0.093990  0.608000  0.159840  1.0  -0.5934
  O  O1716  1  0.055170  0.632040  0.159760  1.0  -0.6161
  O  O1717  1  0.088160  0.397280  0.741490  1.0  -0.5753
  O  O1718  1  0.051710  0.370190  0.741860  1.0  -0.6135
  O  O1719  1  0.128390  0.350960  0.674710  1.0  -0.5745
  O  O1720  1  0.091460  0.325240  0.666830  1.0  -0.6057
  O  O1721  1  0.755820  0.506610  0.916160  1.0  -0.5847
  O  O1722  1  0.761300  0.508020  0.984220  1.0  -0.5933
  O  O1723  1  0.676200  0.498480  0.922280  1.0  -0.5839
  O  O1724  1  0.680860  0.493410  0.988880  1.0  -0.6074
  O  O1725  1  0.211280  0.040750  0.925290  1.0  -0.607
  O  O1726  1  0.213850  0.037870  0.991360  1.0  -0.6157
  O  O1727  1  0.220390  0.034770  0.420130  1.0  -0.6009
  O  O1728  1  0.228530  0.035370  0.486950  1.0  -0.6029
  O  O1729  1  0.833330  0.167060  0.693180  1.0  -0.5866
  O  O1730  1  0.800680  0.136360  0.683460  1.0  -0.5953
  O  O1731  1  0.877470  0.880780  0.262770  1.0  -0.5958
  O  O1732  1  0.839180  0.906660  0.262260  1.0  -0.5999
  O  O1733  1  0.841980  0.160980  0.773870  1.0  -0.5969
  O  O1734  1  0.804040  0.136360  0.765370  1.0  -0.6131
  O  O1735  1  0.872590  0.128530  0.681510  1.0  -0.5784
  O  O1736  1  0.839570  0.096980  0.681060  1.0  -0.5503
  O  O1737  1  0.622880  0.144320  0.256190  1.0  -0.5697
  O  O1738  1  0.586340  0.172640  0.250200  1.0  -0.5947
  O  O1739  1  0.593990  0.892000  0.659840  1.0  -0.5933
  O  O1740  1  0.555170  0.867960  0.659760  1.0  -0.6152
  O  O1741  1  0.588160  0.102720  0.241490  1.0  -0.575
  O  O1742  1  0.551710  0.129810  0.241860  1.0  -0.6133
  O  O1743  1  0.628390  0.149040  0.174710  1.0  -0.5731
  O  O1744  1  0.591460  0.174760  0.166830  1.0  -0.605
  O  O1745  1  0.255820  0.993390  0.416160  1.0  -0.5845
  O  O1746  1  0.261300  0.991980  0.484220  1.0  -0.5933
  O  O1747  1  0.176200  0.001520  0.422280  1.0  -0.5839
  O  O1748  1  0.180860  0.006590  0.488880  1.0  -0.6076
  O  O1749  1  0.711280  0.459250  0.425290  1.0  -0.6065
  O  O1750  1  0.713850  0.462130  0.491360  1.0  -0.6155
  O  O1751  1  0.720390  0.465230  0.920130  1.0  -0.6008
  O  O1752  1  0.728530  0.464630  0.986950  1.0  -0.6023
  O  O1753  1  0.333333  0.667060  0.693180  1.0  -0.5867
  O  O1754  1  0.300680  0.636360  0.683460  1.0  -0.5953
  O  O1755  1  0.377470  0.380780  0.262770  1.0  -0.5958
  O  O1756  1  0.339180  0.406660  0.262260  1.0  -0.5999
  O  O1757  1  0.341980  0.660980  0.773870  1.0  -0.5969
  O  O1758  1  0.304040  0.636360  0.765370  1.0  -0.6131
  O  O1759  1  0.372590  0.628530  0.681510  1.0  -0.5784
  O  O1760  1  0.339570  0.596980  0.681060  1.0  -0.5503
  O  O1761  1  0.122880  0.644320  0.256190  1.0  -0.5697
  O  O1762  1  0.086340  0.672640  0.250200  1.0  -0.5947
  O  O1763  1  0.093990  0.392000  0.659840  1.0  -0.5933
  O  O1764  1  0.055170  0.367960  0.659760  1.0  -0.6152
  O  O1765  1  0.088160  0.602720  0.241490  1.0  -0.575
  O  O1766  1  0.051710  0.629810  0.241860  1.0  -0.6133
  O  O1767  1  0.128390  0.649040  0.174710  1.0  -0.5731
  O  O1768  1  0.091460  0.674760  0.166830  1.0  -0.605
  O  O1769  1  0.755820  0.493390  0.416160  1.0  -0.5845
  O  O1770  1  0.761300  0.491980  0.484220  1.0  -0.5932
  O  O1771  1  0.676200  0.501520  0.422280  1.0  -0.5838
  O  O1772  1  0.680860  0.506590  0.488880  1.0  -0.6077
  O  O1773  1  0.211280  0.959250  0.425290  1.0  -0.6066
  O  O1774  1  0.213850  0.962130  0.491360  1.0  -0.6155
  O  O1775  1  0.220390  0.965230  0.920130  1.0  -0.6008
  O  O1776  1  0.228530  0.964630  0.986950  1.0  -0.6023
