# generated using pymatgen
data_Zn2C25N8
_symmetry_space_group_name_H-M   'P 1'
_cell_length_a   17.63560000
_cell_length_b   48.06440000
_cell_length_c   24.55390000
_cell_angle_alpha   90.00000000
_cell_angle_beta   90.00000000
_cell_angle_gamma   90.00000000
_symmetry_Int_Tables_number   1
_chemical_formula_structural   Zn2C25N8
_chemical_formula_sum   'Zn48 C600 N192'
_cell_volume   20812.97908999
_cell_formula_units_Z   24
loop_
 _symmetry_equiv_pos_site_id
 _symmetry_equiv_pos_as_xyz
  1  'x, y, z'
loop_
 _atom_site_type_symbol
 _atom_site_label
 _atom_site_symmetry_multiplicity
 _atom_site_fract_x
 _atom_site_fract_y
 _atom_site_fract_z
 _atom_site_occupancy
 _atom_site_charge
  Zn  Zn1  1  0.431440  0.310680  0.190660  1.0  0.8593
  Zn  Zn2  1  0.373100  0.419090  0.090060  1.0  0.8401
  Zn  Zn3  1  0.431220  0.527160  0.195970  1.0  0.8834
  Zn  Zn4  1  0.743930  0.524470  0.105640  1.0  0.9071
  Zn  Zn5  1  0.688350  0.416840  0.999380  1.0  0.836
  Zn  Zn6  1  0.748580  0.310820  0.105690  1.0  0.9306
  Zn  Zn7  1  0.068560  0.689320  0.690660  1.0  0.8587
  Zn  Zn8  1  0.126900  0.580910  0.590060  1.0  0.8396
  Zn  Zn9  1  0.068780  0.472840  0.695970  1.0  0.8836
  Zn  Zn10  1  0.756070  0.475530  0.605640  1.0  0.9066
  Zn  Zn11  1  0.811650  0.583160  0.499380  1.0  0.8364
  Zn  Zn12  1  0.751420  0.689180  0.605690  1.0  0.9304
  Zn  Zn13  1  0.568560  0.810680  0.809340  1.0  0.8584
  Zn  Zn14  1  0.626900  0.919090  0.909940  1.0  0.8393
  Zn  Zn15  1  0.568780  0.027160  0.804030  1.0  0.8836
  Zn  Zn16  1  0.256070  0.024470  0.894360  1.0  0.9063
  Zn  Zn17  1  0.311650  0.916840  0.000620  1.0  0.8368
  Zn  Zn18  1  0.251420  0.810820  0.894310  1.0  0.9304
  Zn  Zn19  1  0.931440  0.189320  0.309340  1.0  0.8594
  Zn  Zn20  1  0.873100  0.080910  0.409940  1.0  0.8393
  Zn  Zn21  1  0.931220  0.972840  0.304030  1.0  0.8834
  Zn  Zn22  1  0.243930  0.975530  0.394360  1.0  0.9069
  Zn  Zn23  1  0.188350  0.083160  0.500620  1.0  0.8361
  Zn  Zn24  1  0.248580  0.189180  0.394310  1.0  0.9312
  Zn  Zn25  1  0.568560  0.689320  0.809340  1.0  0.8587
  Zn  Zn26  1  0.626900  0.580910  0.909940  1.0  0.8391
  Zn  Zn27  1  0.568780  0.472840  0.804030  1.0  0.8835
  Zn  Zn28  1  0.256070  0.475530  0.894360  1.0  0.9064
  Zn  Zn29  1  0.311650  0.583160  0.000620  1.0  0.8368
  Zn  Zn30  1  0.251420  0.689180  0.894310  1.0  0.9307
  Zn  Zn31  1  0.931440  0.310680  0.309340  1.0  0.8593
  Zn  Zn32  1  0.873100  0.419090  0.409940  1.0  0.8396
  Zn  Zn33  1  0.931220  0.527160  0.304030  1.0  0.8834
  Zn  Zn34  1  0.243930  0.524470  0.394360  1.0  0.9068
  Zn  Zn35  1  0.188350  0.416840  0.500620  1.0  0.8362
  Zn  Zn36  1  0.248580  0.310820  0.394310  1.0  0.9311
  Zn  Zn37  1  0.431440  0.189320  0.190660  1.0  0.8594
  Zn  Zn38  1  0.373100  0.080910  0.090060  1.0  0.8398
  Zn  Zn39  1  0.431220  0.972840  0.195970  1.0  0.8834
  Zn  Zn40  1  0.743930  0.975530  0.105640  1.0  0.9072
  Zn  Zn41  1  0.688350  0.083160  0.999380  1.0  0.836
  Zn  Zn42  1  0.748580  0.189180  0.105690  1.0  0.9307
  Zn  Zn43  1  0.068560  0.810680  0.690660  1.0  0.8585
  Zn  Zn44  1  0.126900  0.919090  0.590060  1.0  0.8399
  Zn  Zn45  1  0.068780  0.027160  0.695970  1.0  0.8836
  Zn  Zn46  1  0.756070  0.024470  0.605640  1.0  0.9067
  Zn  Zn47  1  0.811650  0.916840  0.499380  1.0  0.8364
  Zn  Zn48  1  0.751420  0.810820  0.605690  1.0  0.9301
  C  C49  1  0.401400  0.364500  0.138600  1.0  0.1314
  C  C50  1  0.294000  0.343600  0.152100  1.0  0.0806
  C  C51  1  0.235100  0.324600  0.157600  1.0  0.0165
  C  C52  1  0.162200  0.331800  0.141200  1.0  -0.0293
  C  C53  1  0.148300  0.358000  0.119400  1.0  0.0247
  C  C54  1  0.207200  0.377000  0.113900  1.0  0.0266
  C  C55  1  0.280100  0.369800  0.130300  1.0  0.1
  C  C56  1  0.067600  0.362600  0.089400  1.0  -0.0925
  C  C57  1  0.398600  0.470600  0.147400  1.0  0.0467
  C  C58  1  0.278400  0.466800  0.136200  1.0  0.107
  C  C59  1  0.204500  0.460800  0.120300  1.0  0.0285
  C  C60  1  0.147200  0.480200  0.128800  1.0  0.032
  C  C61  1  0.163700  0.505500  0.153300  1.0  0.0066
  C  C62  1  0.237600  0.511500  0.169200  1.0  -0.021
  C  C63  1  0.294900  0.492200  0.160700  1.0  0.1603
  C  C64  1  0.062300  0.476300  0.104400  1.0  -0.0657
  C  C65  1  0.588800  0.528800  0.152600  1.0  -0.0346
  C  C66  1  0.587000  0.494200  0.210100  1.0  0.1748
  C  C67  1  0.555000  0.474800  0.245300  1.0  0.0259
  C  C68  1  0.595000  0.451000  0.259600  1.0  0.1246
  C  C69  1  0.668000  0.446600  0.238700  1.0  0.0892
  C  C70  1  0.699600  0.466000  0.203600  1.0  0.0083
  C  C71  1  0.659000  0.489800  0.189300  1.0  0.0646
  C  C72  1  0.716000  0.418900  0.251000  1.0  -0.1361
  C  C73  1  0.723700  0.472200  0.055400  1.0  0.08
  C  C74  1  0.813000  0.461000  0.976000  1.0  -0.0491
  C  C75  1  0.821100  0.486100  0.008900  1.0  0.0819
  C  C76  1  0.722500  0.360500  0.050200  1.0  0.1406
  C  C77  1  0.799000  0.370600  0.981000  1.0  0.0351
  C  C78  1  0.814800  0.346800  0.002800  1.0  0.0202
  C  C79  1  0.586000  0.308200  0.147900  1.0  -0.0486
  C  C80  1  0.573700  0.343900  0.207900  1.0  0.073
  C  C81  1  0.548800  0.365100  0.242000  1.0  0.022
  C  C82  1  0.598000  0.386400  0.256700  1.0  0.0381
  C  C83  1  0.672000  0.386500  0.237400  1.0  0.0045
  C  C84  1  0.696900  0.365300  0.203300  1.0  0.0057
  C  C85  1  0.647800  0.344000  0.188600  1.0  0.0818
  C  C86  1  0.576000  0.413800  0.292100  1.0  -0.1356
  C  C87  1  0.525300  0.418000  0.041400  1.0  -0.0085
  C  C88  1  0.536200  0.418100  0.129900  1.0  0.0966
  C  C89  1  0.524000  0.418300  0.185800  1.0  0.0303
  C  C90  1  0.585000  0.416800  0.221400  1.0  0.0525
  C  C91  1  0.658600  0.415300  0.201000  1.0  0.0604
  C  C92  1  0.670800  0.415100  0.145100  1.0  -0.0003
  C  C93  1  0.609600  0.416500  0.109500  1.0  0.0761
  C  C94  1  0.412000  0.265400  0.110800  1.0  0.1547
  C  C95  1  0.392000  0.278600  0.052000  1.0  -0.0407
  C  C96  1  0.634300  0.444000  0.899500  1.0  0.1362
  C  C97  1  0.603600  0.401200  0.898900  1.0  0.1752
  C  C98  1  0.588000  0.373900  0.913500  1.0  -0.0276
  C  C99  1  0.536000  0.358400  0.883000  1.0  -0.0306
  C  C100  1  0.500000  0.370300  0.839000  1.0  -0.0152
  C  C101  1  0.516000  0.397600  0.824300  1.0  0.0013
  C  C102  1  0.567000  0.413100  0.854300  1.0  0.051
  C  C103  1  0.436000  0.359000  0.799000  1.0  -0.0854
  C  C104  1  0.344300  0.524900  0.293800  1.0  0.1113
  C  C105  1  0.452000  0.553500  0.314000  1.0  0.0
  C  C106  1  0.393000  0.552800  0.354100  1.0  -0.0481
  C  C107  1  0.306400  0.446800  0.991400  1.0  0.0312
  C  C108  1  0.325700  0.403700  0.974900  1.0  0.1415
  C  C109  1  0.359700  0.377600  0.971400  1.0  -0.0069
  C  C110  1  0.366000  0.364400  0.921000  1.0  -0.0166
  C  C111  1  0.338000  0.377100  0.874600  1.0  0.0848
  C  C112  1  0.304000  0.403200  0.878000  1.0  -0.0462
  C  C113  1  0.297900  0.416400  0.928100  1.0  0.1169
  C  C114  1  0.407000  0.335100  0.916000  1.0  -0.0493
  C  C115  1  0.355000  0.358000  0.823000  1.0  -0.1284
  C  C116  1  0.338200  0.310700  0.293000  1.0  0.1094
  C  C117  1  0.409000  0.300600  0.360700  1.0  -0.0463
  C  C118  1  0.449300  0.298800  0.310900  1.0  -0.0202
  C  C119  1  0.676300  0.264300  0.034500  1.0  0.0373
  C  C120  1  0.621000  0.279200  0.002000  1.0  -0.0378
  C  C121  1  0.565000  0.262300  0.972000  1.0  0.0634
  C  C122  1  0.460000  0.278000  0.072000  1.0  0.0985
  C  C123  1  0.098600  0.635500  0.638600  1.0  0.1229
  C  C124  1  0.206000  0.656400  0.652100  1.0  0.0813
  C  C125  1  0.264900  0.675400  0.657600  1.0  0.0182
  C  C126  1  0.337800  0.668200  0.641200  1.0  -0.0293
  C  C127  1  0.351700  0.642000  0.619400  1.0  0.0217
  C  C128  1  0.292800  0.623000  0.613900  1.0  0.0265
  C  C129  1  0.219900  0.630200  0.630300  1.0  0.1003
  C  C130  1  0.432400  0.637400  0.589400  1.0  -0.0933
  C  C131  1  0.101400  0.529400  0.647400  1.0  0.0511
  C  C132  1  0.221600  0.533200  0.636200  1.0  0.1069
  C  C133  1  0.295500  0.539200  0.620300  1.0  0.0265
  C  C134  1  0.352800  0.519800  0.628800  1.0  0.0316
  C  C135  1  0.336300  0.494500  0.653300  1.0  0.0054
  C  C136  1  0.262400  0.488500  0.669200  1.0  -0.0205
  C  C137  1  0.205100  0.507800  0.660700  1.0  0.1603
  C  C138  1  0.437700  0.523700  0.604400  1.0  -0.0668
  C  C139  1  0.911200  0.471200  0.652600  1.0  -0.0333
  C  C140  1  0.913000  0.505800  0.710100  1.0  0.1755
  C  C141  1  0.945000  0.525200  0.745300  1.0  0.0263
  C  C142  1  0.905000  0.549000  0.759600  1.0  0.1247
  C  C143  1  0.832000  0.553400  0.738700  1.0  0.0906
  C  C144  1  0.800400  0.534000  0.703600  1.0  0.0102
  C  C145  1  0.841000  0.510200  0.689300  1.0  0.0631
  C  C146  1  0.784000  0.581100  0.751000  1.0  -0.138
  C  C147  1  0.776300  0.527800  0.555400  1.0  0.0848
  C  C148  1  0.687000  0.539000  0.476000  1.0  -0.0471
  C  C149  1  0.678900  0.513900  0.508900  1.0  0.0792
  C  C150  1  0.777500  0.639500  0.550200  1.0  0.1441
  C  C151  1  0.701000  0.629400  0.481000  1.0  0.0317
  C  C152  1  0.685200  0.653200  0.502800  1.0  0.0199
  C  C153  1  0.914000  0.691800  0.647900  1.0  -0.0503
  C  C154  1  0.926300  0.656100  0.707900  1.0  0.0731
  C  C155  1  0.951200  0.634900  0.742000  1.0  0.022
  C  C156  1  0.902000  0.613600  0.756700  1.0  0.0392
  C  C157  1  0.828000  0.613500  0.737400  1.0  0.0051
  C  C158  1  0.803100  0.634700  0.703300  1.0  0.0088
  C  C159  1  0.852200  0.656000  0.688600  1.0  0.0814
  C  C160  1  0.924000  0.586200  0.792100  1.0  -0.1341
  C  C161  1  0.974700  0.582000  0.541400  1.0  -0.0087
  C  C162  1  0.963800  0.581900  0.629900  1.0  0.0981
  C  C163  1  0.976000  0.581700  0.685800  1.0  0.0265
  C  C164  1  0.915000  0.583200  0.721400  1.0  0.054
  C  C165  1  0.841400  0.584700  0.701000  1.0  0.0636
  C  C166  1  0.829200  0.584900  0.645100  1.0  -1e-04
  C  C167  1  0.890400  0.583500  0.609500  1.0  0.0765
  C  C168  1  0.088000  0.734600  0.610800  1.0  0.1547
  C  C169  1  0.108000  0.721400  0.552000  1.0  -0.0387
  C  C170  1  0.865700  0.556000  0.399500  1.0  0.1356
  C  C171  1  0.896400  0.598800  0.398900  1.0  0.1756
  C  C172  1  0.912000  0.626100  0.413500  1.0  -0.0268
  C  C173  1  0.964000  0.641600  0.383000  1.0  -0.0295
  C  C174  1  0.000000  0.629700  0.339000  1.0  -0.0142
  C  C175  1  0.984000  0.602400  0.324300  1.0  0.0012
  C  C176  1  0.933000  0.586900  0.354300  1.0  0.0506
  C  C177  1  0.064000  0.641000  0.299000  1.0  -0.0838
  C  C178  1  0.155700  0.475100  0.793800  1.0  0.1162
  C  C179  1  0.048000  0.446500  0.814000  1.0  -0.0011
  C  C180  1  0.107000  0.447200  0.854100  1.0  -0.0481
  C  C181  1  0.193600  0.553200  0.491400  1.0  0.0303
  C  C182  1  0.174300  0.596300  0.474900  1.0  0.1405
  C  C183  1  0.140300  0.622400  0.471400  1.0  -0.0084
  C  C184  1  0.134000  0.635600  0.421000  1.0  -0.0163
  C  C185  1  0.162000  0.622900  0.374600  1.0  0.0841
  C  C186  1  0.196000  0.596800  0.378000  1.0  -0.046
  C  C187  1  0.202100  0.583600  0.428100  1.0  0.1152
  C  C188  1  0.093000  0.664900  0.416000  1.0  -0.0491
  C  C189  1  0.145000  0.642000  0.323000  1.0  -0.1285
  C  C190  1  0.161800  0.689300  0.793000  1.0  0.1123
  C  C191  1  0.091000  0.699400  0.860700  1.0  -0.0475
  C  C192  1  0.050700  0.701200  0.810900  1.0  -0.0171
  C  C193  1  0.823700  0.735700  0.534500  1.0  0.0381
  C  C194  1  0.879000  0.720800  0.502000  1.0  -0.0331
  C  C195  1  0.935000  0.737700  0.472000  1.0  0.0646
  C  C196  1  0.040000  0.722000  0.572000  1.0  0.1016
  C  C197  1  0.598600  0.864500  0.861400  1.0  0.1229
  C  C198  1  0.706000  0.843600  0.847900  1.0  0.0813
  C  C199  1  0.764900  0.824600  0.842400  1.0  0.0156
  C  C200  1  0.837800  0.831800  0.858800  1.0  -0.0289
  C  C201  1  0.851700  0.858000  0.880600  1.0  0.0212
  C  C202  1  0.792800  0.877000  0.886100  1.0  0.0249
  C  C203  1  0.719900  0.869800  0.869700  1.0  0.0999
  C  C204  1  0.932400  0.862600  0.910600  1.0  -0.0932
  C  C205  1  0.601400  0.970600  0.852600  1.0  0.0506
  C  C206  1  0.721600  0.966800  0.863800  1.0  0.1083
  C  C207  1  0.795500  0.960800  0.879700  1.0  0.0259
  C  C208  1  0.852800  0.980200  0.871200  1.0  0.0307
  C  C209  1  0.836300  0.005500  0.846700  1.0  0.0056
  C  C210  1  0.762400  0.011500  0.830800  1.0  -0.02
  C  C211  1  0.705100  0.992200  0.839300  1.0  0.1596
  C  C212  1  0.937700  0.976300  0.895600  1.0  -0.0685
  C  C213  1  0.411200  0.028800  0.847400  1.0  -0.0334
  C  C214  1  0.413000  0.994200  0.789900  1.0  0.1779
  C  C215  1  0.445000  0.974800  0.754700  1.0  0.0275
  C  C216  1  0.405000  0.951000  0.740400  1.0  0.1243
  C  C217  1  0.332000  0.946600  0.761300  1.0  0.0887
  C  C218  1  0.300400  0.966000  0.796400  1.0  0.0095
  C  C219  1  0.341000  0.989800  0.810700  1.0  0.064
  C  C220  1  0.284000  0.918900  0.749000  1.0  -0.1344
  C  C221  1  0.276300  0.972200  0.944600  1.0  0.0855
  C  C222  1  0.187000  0.961000  0.024000  1.0  -0.0499
  C  C223  1  0.178900  0.986100  0.991100  1.0  0.0814
  C  C224  1  0.277500  0.860500  0.949800  1.0  0.1428
  C  C225  1  0.201000  0.870600  0.019000  1.0  0.032
  C  C226  1  0.185200  0.846800  0.997200  1.0  0.0178
  C  C227  1  0.414000  0.808200  0.852100  1.0  -0.0501
  C  C228  1  0.426300  0.843900  0.792100  1.0  0.0741
  C  C229  1  0.451200  0.865100  0.758000  1.0  0.0211
  C  C230  1  0.402000  0.886400  0.743300  1.0  0.0392
  C  C231  1  0.328000  0.886500  0.762600  1.0  0.0033
  C  C232  1  0.303100  0.865300  0.796700  1.0  0.0076
  C  C233  1  0.352200  0.844000  0.811400  1.0  0.0799
  C  C234  1  0.424000  0.913800  0.707900  1.0  -0.1264
  C  C235  1  0.474700  0.918000  0.958600  1.0  -0.0079
  C  C236  1  0.463800  0.918100  0.870100  1.0  0.0978
  C  C237  1  0.476000  0.918300  0.814200  1.0  0.0268
  C  C238  1  0.415000  0.916800  0.778600  1.0  0.0529
  C  C239  1  0.341400  0.915300  0.799000  1.0  0.0598
  C  C240  1  0.329200  0.915100  0.854900  1.0  0.0006
  C  C241  1  0.390400  0.916500  0.890500  1.0  0.0751
  C  C242  1  0.588000  0.765400  0.889200  1.0  0.1546
  C  C243  1  0.608000  0.778600  0.948000  1.0  -0.041
  C  C244  1  0.365700  0.944000  0.100500  1.0  0.1348
  C  C245  1  0.396400  0.901200  0.101100  1.0  0.1759
  C  C246  1  0.412000  0.873900  0.086500  1.0  -0.0268
  C  C247  1  0.464000  0.858400  0.117000  1.0  -0.0297
  C  C248  1  0.500000  0.870300  0.161000  1.0  -0.0169
  C  C249  1  0.484000  0.897600  0.175700  1.0  -0.0031
  C  C250  1  0.433000  0.913100  0.145700  1.0  0.0503
  C  C251  1  0.564000  0.859000  0.201000  1.0  -0.0918
  C  C252  1  0.655700  0.024900  0.706200  1.0  0.1142
  C  C253  1  0.548000  0.053500  0.686000  1.0  -1e-04
  C  C254  1  0.607000  0.052800  0.645900  1.0  -0.0505
  C  C255  1  0.693600  0.946800  0.008600  1.0  0.0293
  C  C256  1  0.674300  0.903700  0.025100  1.0  0.1421
  C  C257  1  0.640300  0.877600  0.028600  1.0  -0.0058
  C  C258  1  0.634000  0.864400  0.079000  1.0  -0.0171
  C  C259  1  0.662000  0.877100  0.125400  1.0  0.0854
  C  C260  1  0.696000  0.903200  0.122000  1.0  -0.0421
  C  C261  1  0.702100  0.916400  0.071900  1.0  0.1149
  C  C262  1  0.593000  0.835100  0.084000  1.0  -0.0479
  C  C263  1  0.645000  0.858000  0.177000  1.0  -0.1331
  C  C264  1  0.661800  0.810700  0.707000  1.0  0.1129
  C  C265  1  0.591000  0.800600  0.639300  1.0  -0.0465
  C  C266  1  0.550700  0.798800  0.689100  1.0  -0.0168
  C  C267  1  0.323700  0.764300  0.965500  1.0  0.0371
  C  C268  1  0.379000  0.779200  0.998000  1.0  -0.0371
  C  C269  1  0.435000  0.762300  0.028000  1.0  0.0599
  C  C270  1  0.540000  0.778000  0.928000  1.0  0.0987
  C  C271  1  0.901400  0.135500  0.361400  1.0  0.1313
  C  C272  1  0.794000  0.156400  0.347900  1.0  0.0824
  C  C273  1  0.735100  0.175400  0.342400  1.0  0.0184
  C  C274  1  0.662200  0.168200  0.358800  1.0  -0.0271
  C  C275  1  0.648300  0.142000  0.380600  1.0  0.0252
  C  C276  1  0.707200  0.123000  0.386100  1.0  0.0268
  C  C277  1  0.780100  0.130200  0.369700  1.0  0.0988
  C  C278  1  0.567600  0.137400  0.410600  1.0  -0.0937
  C  C279  1  0.898600  0.029400  0.352600  1.0  0.0467
  C  C280  1  0.778400  0.033200  0.363800  1.0  0.1077
  C  C281  1  0.704500  0.039200  0.379700  1.0  0.0246
  C  C282  1  0.647200  0.019800  0.371200  1.0  0.031
  C  C283  1  0.663700  0.994500  0.346700  1.0  0.0061
  C  C284  1  0.737600  0.988500  0.330800  1.0  -0.019
  C  C285  1  0.794900  0.007800  0.339300  1.0  0.1596
  C  C286  1  0.562300  0.023700  0.395600  1.0  -0.0662
  C  C287  1  0.088800  0.971200  0.347400  1.0  -0.0344
  C  C288  1  0.087000  0.005800  0.289900  1.0  0.1759
  C  C289  1  0.055000  0.025200  0.254700  1.0  0.0265
  C  C290  1  0.095000  0.049000  0.240400  1.0  0.1242
  C  C291  1  0.168000  0.053400  0.261300  1.0  0.0889
  C  C292  1  0.199600  0.034000  0.296400  1.0  0.0079
  C  C293  1  0.159000  0.010200  0.310700  1.0  0.0644
  C  C294  1  0.216000  0.081100  0.249000  1.0  -0.1347
  C  C295  1  0.223700  0.027800  0.444600  1.0  0.0812
  C  C296  1  0.313000  0.039000  0.524000  1.0  -0.0531
  C  C297  1  0.321100  0.013900  0.491100  1.0  0.0798
  C  C298  1  0.222500  0.139500  0.449800  1.0  0.1389
  C  C299  1  0.299000  0.129400  0.519000  1.0  0.0324
  C  C300  1  0.314800  0.153200  0.497200  1.0  0.0213
  C  C301  1  0.086000  0.191800  0.352100  1.0  -0.0517
  C  C302  1  0.073700  0.156100  0.292100  1.0  0.0739
  C  C303  1  0.048800  0.134900  0.258000  1.0  0.0232
  C  C304  1  0.098000  0.113600  0.243300  1.0  0.04
  C  C305  1  0.172000  0.113500  0.262600  1.0  0.0051
  C  C306  1  0.196900  0.134700  0.296700  1.0  0.0054
  C  C307  1  0.147800  0.156000  0.311400  1.0  0.0822
  C  C308  1  0.076000  0.086200  0.207900  1.0  -0.1271
  C  C309  1  0.025300  0.082000  0.458600  1.0  -0.0079
  C  C310  1  0.036200  0.081900  0.370100  1.0  0.0965
  C  C311  1  0.024000  0.081700  0.314200  1.0  0.0299
  C  C312  1  0.085000  0.083200  0.278600  1.0  0.0512
  C  C313  1  0.158600  0.084700  0.299000  1.0  0.0573
  C  C314  1  0.170800  0.084900  0.354900  1.0  0.0003
  C  C315  1  0.109600  0.083500  0.390500  1.0  0.0751
  C  C316  1  0.912000  0.234600  0.389200  1.0  0.1549
  C  C317  1  0.892000  0.221400  0.448000  1.0  -0.0449
  C  C318  1  0.134300  0.056000  0.600500  1.0  0.1372
  C  C319  1  0.103600  0.098800  0.601100  1.0  0.1755
  C  C320  1  0.088000  0.126100  0.586500  1.0  -0.0287
  C  C321  1  0.036000  0.141600  0.617000  1.0  -0.0283
  C  C322  1  0.000000  0.129700  0.661000  1.0  -0.0151
  C  C323  1  0.016000  0.102400  0.675700  1.0  -0.0038
  C  C324  1  0.067000  0.086900  0.645700  1.0  0.0506
  C  C325  1  0.936000  0.141000  0.701000  1.0  -0.0831
  C  C326  1  0.844300  0.975100  0.206200  1.0  0.113
  C  C327  1  0.952000  0.946500  0.186000  1.0  1e-04
  C  C328  1  0.893000  0.947200  0.145900  1.0  -0.0489
  C  C329  1  0.806400  0.053200  0.508600  1.0  0.0315
  C  C330  1  0.825700  0.096300  0.525100  1.0  0.1422
  C  C331  1  0.859700  0.122400  0.528600  1.0  -0.0056
  C  C332  1  0.866000  0.135600  0.579000  1.0  -0.0165
  C  C333  1  0.838000  0.122900  0.625400  1.0  0.0874
  C  C334  1  0.804000  0.096800  0.622000  1.0  -0.0445
  C  C335  1  0.797900  0.083600  0.571900  1.0  0.1161
  C  C336  1  0.907000  0.164900  0.584000  1.0  -0.0484
  C  C337  1  0.855000  0.142000  0.677000  1.0  -0.1336
  C  C338  1  0.838200  0.189300  0.207000  1.0  0.1081
  C  C339  1  0.909000  0.199400  0.139300  1.0  -0.046
  C  C340  1  0.949300  0.201200  0.189100  1.0  -0.0222
  C  C341  1  0.176300  0.235700  0.465500  1.0  0.0387
  C  C342  1  0.121000  0.220800  0.498000  1.0  -0.036
  C  C343  1  0.065000  0.237700  0.528000  1.0  0.0588
  C  C344  1  0.960000  0.222000  0.428000  1.0  0.0998
  C  C345  1  0.598600  0.635500  0.861400  1.0  0.123
  C  C346  1  0.706000  0.656400  0.847900  1.0  0.0822
  C  C347  1  0.764900  0.675400  0.842400  1.0  0.0188
  C  C348  1  0.837800  0.668200  0.858800  1.0  -0.0276
  C  C349  1  0.851700  0.642000  0.880600  1.0  0.0212
  C  C350  1  0.792800  0.623000  0.886100  1.0  0.0266
  C  C351  1  0.719900  0.630200  0.869700  1.0  0.0995
  C  C352  1  0.932400  0.637400  0.910600  1.0  -0.094
  C  C353  1  0.601400  0.529400  0.852600  1.0  0.0511
  C  C354  1  0.721600  0.533200  0.863800  1.0  0.1077
  C  C355  1  0.795500  0.539200  0.879700  1.0  0.025
  C  C356  1  0.852800  0.519800  0.871200  1.0  0.0324
  C  C357  1  0.836300  0.494500  0.846700  1.0  0.0054
  C  C358  1  0.762400  0.488500  0.830800  1.0  -0.0197
  C  C359  1  0.705100  0.507800  0.839300  1.0  0.1596
  C  C360  1  0.937700  0.523700  0.895600  1.0  -0.0682
  C  C361  1  0.411200  0.471200  0.847400  1.0  -0.0329
  C  C362  1  0.413000  0.505800  0.789900  1.0  0.177
  C  C363  1  0.445000  0.525200  0.754700  1.0  0.0272
  C  C364  1  0.405000  0.549000  0.740400  1.0  0.1246
  C  C365  1  0.332000  0.553400  0.761300  1.0  0.0884
  C  C366  1  0.300400  0.534000  0.796400  1.0  0.0097
  C  C367  1  0.341000  0.510200  0.810700  1.0  0.0635
  C  C368  1  0.284000  0.581100  0.749000  1.0  -0.1345
  C  C369  1  0.276300  0.527800  0.944600  1.0  0.0856
  C  C370  1  0.187000  0.539000  0.024000  1.0  -0.0503
  C  C371  1  0.178900  0.513900  0.991100  1.0  0.0792
  C  C372  1  0.277500  0.639500  0.949800  1.0  0.1422
  C  C373  1  0.201000  0.629400  0.019000  1.0  0.0307
  C  C374  1  0.185200  0.653200  0.997200  1.0  0.0166
  C  C375  1  0.414000  0.691800  0.852100  1.0  -0.0517
  C  C376  1  0.426300  0.656100  0.792100  1.0  0.0741
  C  C377  1  0.451200  0.634900  0.758000  1.0  0.0209
  C  C378  1  0.402000  0.613600  0.743300  1.0  0.0398
  C  C379  1  0.328000  0.613500  0.762600  1.0  0.0045
  C  C380  1  0.303100  0.634700  0.796700  1.0  0.0086
  C  C381  1  0.352200  0.656000  0.811400  1.0  0.0813
  C  C382  1  0.424000  0.586200  0.707900  1.0  -0.1269
  C  C383  1  0.474700  0.582000  0.958600  1.0  -0.0073
  C  C384  1  0.463800  0.581900  0.870100  1.0  0.0978
  C  C385  1  0.476000  0.581700  0.814200  1.0  0.0266
  C  C386  1  0.415000  0.583200  0.778600  1.0  0.053
  C  C387  1  0.341400  0.584700  0.799000  1.0  0.0598
  C  C388  1  0.329200  0.584900  0.854900  1.0  0.0006
  C  C389  1  0.390400  0.583500  0.890500  1.0  0.0752
  C  C390  1  0.588000  0.734600  0.889200  1.0  0.1552
  C  C391  1  0.608000  0.721400  0.948000  1.0  -0.0412
  C  C392  1  0.365700  0.556000  0.100500  1.0  0.1355
  C  C393  1  0.396400  0.598800  0.101100  1.0  0.1764
  C  C394  1  0.412000  0.626100  0.086500  1.0  -0.027
  C  C395  1  0.464000  0.641600  0.117000  1.0  -0.0286
  C  C396  1  0.500000  0.629700  0.161000  1.0  -0.0164
  C  C397  1  0.484000  0.602400  0.175700  1.0  -0.0033
  C  C398  1  0.433000  0.586900  0.145700  1.0  0.0502
  C  C399  1  0.564000  0.641000  0.201000  1.0  -0.0887
  C  C400  1  0.655700  0.475100  0.706200  1.0  0.1157
  C  C401  1  0.548000  0.446500  0.686000  1.0  -0.0004
  C  C402  1  0.607000  0.447200  0.645900  1.0  -0.05
  C  C403  1  0.693600  0.553200  0.008600  1.0  0.0304
  C  C404  1  0.674300  0.596300  0.025100  1.0  0.1417
  C  C405  1  0.640300  0.622400  0.028600  1.0  -0.0068
  C  C406  1  0.634000  0.635600  0.079000  1.0  -0.0164
  C  C407  1  0.662000  0.622900  0.125400  1.0  0.0861
  C  C408  1  0.696000  0.596800  0.122000  1.0  -0.0419
  C  C409  1  0.702100  0.583600  0.071900  1.0  0.1144
  C  C410  1  0.593000  0.664900  0.084000  1.0  -0.0487
  C  C411  1  0.645000  0.642000  0.177000  1.0  -0.1301
  C  C412  1  0.661800  0.689300  0.707000  1.0  0.1126
  C  C413  1  0.591000  0.699400  0.639300  1.0  -0.046
  C  C414  1  0.550700  0.701200  0.689100  1.0  -0.0176
  C  C415  1  0.323700  0.735700  0.965500  1.0  0.0376
  C  C416  1  0.379000  0.720800  0.998000  1.0  -0.0357
  C  C417  1  0.435000  0.737700  0.028000  1.0  0.0602
  C  C418  1  0.540000  0.722000  0.928000  1.0  0.1002
  C  C419  1  0.901400  0.364500  0.361400  1.0  0.1312
  C  C420  1  0.794000  0.343600  0.347900  1.0  0.081
  C  C421  1  0.735100  0.324600  0.342400  1.0  0.0154
  C  C422  1  0.662200  0.331800  0.358800  1.0  -0.0284
  C  C423  1  0.648300  0.358000  0.380600  1.0  0.0245
  C  C424  1  0.707200  0.377000  0.386100  1.0  0.0257
  C  C425  1  0.780100  0.369800  0.369700  1.0  0.0995
  C  C426  1  0.567600  0.362600  0.410600  1.0  -0.0932
  C  C427  1  0.898600  0.470600  0.352600  1.0  0.0467
  C  C428  1  0.778400  0.466800  0.363800  1.0  0.1078
  C  C429  1  0.704500  0.460800  0.379700  1.0  0.0255
  C  C430  1  0.647200  0.480200  0.371200  1.0  0.0336
  C  C431  1  0.663700  0.505500  0.346700  1.0  0.006
  C  C432  1  0.737600  0.511500  0.330800  1.0  -0.0198
  C  C433  1  0.794900  0.492200  0.339300  1.0  0.1599
  C  C434  1  0.562300  0.476300  0.395600  1.0  -0.0665
  C  C435  1  0.088800  0.528800  0.347400  1.0  -0.0342
  C  C436  1  0.087000  0.494200  0.289900  1.0  0.1771
  C  C437  1  0.055000  0.474800  0.254700  1.0  0.0274
  C  C438  1  0.095000  0.451000  0.240400  1.0  0.1251
  C  C439  1  0.168000  0.446600  0.261300  1.0  0.0882
  C  C440  1  0.199600  0.466000  0.296400  1.0  0.0071
  C  C441  1  0.159000  0.489800  0.310700  1.0  0.0646
  C  C442  1  0.216000  0.418900  0.249000  1.0  -0.1345
  C  C443  1  0.223700  0.472200  0.444600  1.0  0.0811
  C  C444  1  0.313000  0.461000  0.524000  1.0  -0.0525
  C  C445  1  0.321100  0.486100  0.491100  1.0  0.0814
  C  C446  1  0.222500  0.360500  0.449800  1.0  0.1392
  C  C447  1  0.299000  0.370600  0.519000  1.0  0.0336
  C  C448  1  0.314800  0.346800  0.497200  1.0  0.0242
  C  C449  1  0.086000  0.308200  0.352100  1.0  -0.0501
  C  C450  1  0.073700  0.343900  0.292100  1.0  0.0735
  C  C451  1  0.048800  0.365100  0.258000  1.0  0.0226
  C  C452  1  0.098000  0.386400  0.243300  1.0  0.0387
  C  C453  1  0.172000  0.386500  0.262600  1.0  0.0046
  C  C454  1  0.196900  0.365300  0.296700  1.0  0.0053
  C  C455  1  0.147800  0.344000  0.311400  1.0  0.0818
  C  C456  1  0.076000  0.413800  0.207900  1.0  -0.1263
  C  C457  1  0.025300  0.418000  0.458600  1.0  -0.0084
  C  C458  1  0.036200  0.418100  0.370100  1.0  0.0966
  C  C459  1  0.024000  0.418300  0.314200  1.0  0.0302
  C  C460  1  0.085000  0.416800  0.278600  1.0  0.0514
  C  C461  1  0.158600  0.415300  0.299000  1.0  0.0573
  C  C462  1  0.170800  0.415100  0.354900  1.0  0.0005
  C  C463  1  0.109600  0.416500  0.390500  1.0  0.0751
  C  C464  1  0.912000  0.265400  0.389200  1.0  0.155
  C  C465  1  0.892000  0.278600  0.448000  1.0  -0.0438
  C  C466  1  0.134300  0.444000  0.600500  1.0  0.1365
  C  C467  1  0.103600  0.401200  0.601100  1.0  0.1756
  C  C468  1  0.088000  0.373900  0.586500  1.0  -0.0282
  C  C469  1  0.036000  0.358400  0.617000  1.0  -0.0303
  C  C470  1  0.000000  0.370300  0.661000  1.0  -0.0168
  C  C471  1  0.016000  0.397600  0.675700  1.0  -0.0039
  C  C472  1  0.067000  0.413100  0.645700  1.0  0.0504
  C  C473  1  0.936000  0.359000  0.701000  1.0  -0.0858
  C  C474  1  0.844300  0.524900  0.206200  1.0  0.1106
  C  C475  1  0.952000  0.553500  0.186000  1.0  0.0003
  C  C476  1  0.893000  0.552800  0.145900  1.0  -0.0499
  C  C477  1  0.806400  0.446800  0.508600  1.0  0.0303
  C  C478  1  0.825700  0.403700  0.525100  1.0  0.142
  C  C479  1  0.859700  0.377600  0.528600  1.0  -0.0037
  C  C480  1  0.866000  0.364400  0.579000  1.0  -0.0168
  C  C481  1  0.838000  0.377100  0.625400  1.0  0.0862
  C  C482  1  0.804000  0.403200  0.622000  1.0  -0.0452
  C  C483  1  0.797900  0.416400  0.571900  1.0  0.1164
  C  C484  1  0.907000  0.335100  0.584000  1.0  -0.0478
  C  C485  1  0.855000  0.358000  0.677000  1.0  -0.137
  C  C486  1  0.838200  0.310700  0.207000  1.0  0.1087
  C  C487  1  0.909000  0.300600  0.139300  1.0  -0.0462
  C  C488  1  0.949300  0.298800  0.189100  1.0  -0.0211
  C  C489  1  0.176300  0.264300  0.465500  1.0  0.0368
  C  C490  1  0.121000  0.279200  0.498000  1.0  -0.0374
  C  C491  1  0.065000  0.262300  0.528000  1.0  0.0594
  C  C492  1  0.960000  0.278000  0.428000  1.0  0.0969
  C  C493  1  0.401400  0.135500  0.138600  1.0  0.1315
  C  C494  1  0.294000  0.156400  0.152100  1.0  0.0816
  C  C495  1  0.235100  0.175400  0.157600  1.0  0.0175
  C  C496  1  0.162200  0.168200  0.141200  1.0  -0.0265
  C  C497  1  0.148300  0.142000  0.119400  1.0  0.0253
  C  C498  1  0.207200  0.123000  0.113900  1.0  0.0278
  C  C499  1  0.280100  0.130200  0.130300  1.0  0.0995
  C  C500  1  0.067600  0.137400  0.089400  1.0  -0.0932
  C  C501  1  0.398600  0.029400  0.147400  1.0  0.0467
  C  C502  1  0.278400  0.033200  0.136200  1.0  0.1067
  C  C503  1  0.204500  0.039200  0.120300  1.0  0.0276
  C  C504  1  0.147200  0.019800  0.128800  1.0  0.0333
  C  C505  1  0.163700  0.994500  0.153300  1.0  0.0066
  C  C506  1  0.237600  0.988500  0.169200  1.0  -0.02
  C  C507  1  0.294900  0.007800  0.160700  1.0  0.1602
  C  C508  1  0.062300  0.023700  0.104400  1.0  -0.0651
  C  C509  1  0.588800  0.971200  0.152600  1.0  -0.0344
  C  C510  1  0.587000  0.005800  0.210100  1.0  0.1746
  C  C511  1  0.555000  0.025200  0.245300  1.0  0.0255
  C  C512  1  0.595000  0.049000  0.259600  1.0  0.1235
  C  C513  1  0.668000  0.053400  0.238700  1.0  0.0907
  C  C514  1  0.699600  0.034000  0.203600  1.0  0.0083
  C  C515  1  0.659000  0.010200  0.189300  1.0  0.0641
  C  C516  1  0.716000  0.081100  0.251000  1.0  -0.1365
  C  C517  1  0.723700  0.027800  0.055400  1.0  0.08
  C  C518  1  0.813000  0.039000  0.976000  1.0  -0.0489
  C  C519  1  0.821100  0.013900  0.008900  1.0  0.0804
  C  C520  1  0.722500  0.139500  0.050200  1.0  0.1402
  C  C521  1  0.799000  0.129400  0.981000  1.0  0.0335
  C  C522  1  0.814800  0.153200  0.002800  1.0  0.0185
  C  C523  1  0.586000  0.191800  0.147900  1.0  -0.0501
  C  C524  1  0.573700  0.156100  0.207900  1.0  0.0733
  C  C525  1  0.548800  0.134900  0.242000  1.0  0.0224
  C  C526  1  0.598000  0.113600  0.256700  1.0  0.0378
  C  C527  1  0.672000  0.113500  0.237400  1.0  0.0046
  C  C528  1  0.696900  0.134700  0.203300  1.0  0.0061
  C  C529  1  0.647800  0.156000  0.188600  1.0  0.0823
  C  C530  1  0.576000  0.086200  0.292100  1.0  -0.1351
  C  C531  1  0.525300  0.082000  0.041400  1.0  -0.0084
  C  C532  1  0.536200  0.081900  0.129900  1.0  0.0965
  C  C533  1  0.524000  0.081700  0.185800  1.0  0.0302
  C  C534  1  0.585000  0.083200  0.221400  1.0  0.0527
  C  C535  1  0.658600  0.084700  0.201000  1.0  0.0603
  C  C536  1  0.670800  0.084900  0.145100  1.0  -0.0004
  C  C537  1  0.609600  0.083500  0.109500  1.0  0.0761
  C  C538  1  0.412000  0.234600  0.110800  1.0  0.1545
  C  C539  1  0.392000  0.221400  0.052000  1.0  -0.0407
  C  C540  1  0.634300  0.056000  0.899500  1.0  0.138
  C  C541  1  0.603600  0.098800  0.898900  1.0  0.1749
  C  C542  1  0.588000  0.126100  0.913500  1.0  -0.0273
  C  C543  1  0.536000  0.141600  0.883000  1.0  -0.0293
  C  C544  1  0.500000  0.129700  0.839000  1.0  -0.0143
  C  C545  1  0.516000  0.102400  0.824300  1.0  0.0016
  C  C546  1  0.567000  0.086900  0.854300  1.0  0.0506
  C  C547  1  0.436000  0.141000  0.799000  1.0  -0.0876
  C  C548  1  0.344300  0.975100  0.293800  1.0  0.1134
  C  C549  1  0.452000  0.946500  0.314000  1.0  -0.0008
  C  C550  1  0.393000  0.947200  0.354100  1.0  -0.0481
  C  C551  1  0.306400  0.053200  0.991400  1.0  0.0315
  C  C552  1  0.325700  0.096300  0.974900  1.0  0.1407
  C  C553  1  0.359700  0.122400  0.971400  1.0  -0.0068
  C  C554  1  0.366000  0.135600  0.921000  1.0  -0.017
  C  C555  1  0.338000  0.122900  0.874600  1.0  0.0857
  C  C556  1  0.304000  0.096800  0.878000  1.0  -0.0466
  C  C557  1  0.297900  0.083600  0.928100  1.0  0.1167
  C  C558  1  0.407000  0.164900  0.916000  1.0  -0.0492
  C  C559  1  0.355000  0.142000  0.823000  1.0  -0.1297
  C  C560  1  0.338200  0.189300  0.293000  1.0  0.1088
  C  C561  1  0.409000  0.199400  0.360700  1.0  -0.0461
  C  C562  1  0.449300  0.201200  0.310900  1.0  -0.0215
  C  C563  1  0.676300  0.235700  0.034500  1.0  0.0376
  C  C564  1  0.621000  0.220800  0.002000  1.0  -0.0332
  C  C565  1  0.565000  0.237700  0.972000  1.0  0.0647
  C  C566  1  0.460000  0.222000  0.072000  1.0  0.1012
  C  C567  1  0.098600  0.864500  0.638600  1.0  0.1228
  C  C568  1  0.206000  0.843600  0.652100  1.0  0.0807
  C  C569  1  0.264900  0.824600  0.657600  1.0  0.0164
  C  C570  1  0.337800  0.831800  0.641200  1.0  -0.0277
  C  C571  1  0.351700  0.858000  0.619400  1.0  0.0216
  C  C572  1  0.292800  0.877000  0.613900  1.0  0.0247
  C  C573  1  0.219900  0.869800  0.630300  1.0  0.1005
  C  C574  1  0.432400  0.862600  0.589400  1.0  -0.0926
  C  C575  1  0.101400  0.970600  0.647400  1.0  0.0507
  C  C576  1  0.221600  0.966800  0.636200  1.0  0.1076
  C  C577  1  0.295500  0.960800  0.620300  1.0  0.0271
  C  C578  1  0.352800  0.980200  0.628800  1.0  0.0329
  C  C579  1  0.336300  0.005500  0.653300  1.0  0.006
  C  C580  1  0.262400  0.011500  0.669200  1.0  -0.0209
  C  C581  1  0.205100  0.992200  0.660700  1.0  0.1601
  C  C582  1  0.437700  0.976300  0.604400  1.0  -0.0672
  C  C583  1  0.911200  0.028800  0.652600  1.0  -0.0337
  C  C584  1  0.913000  0.994200  0.710100  1.0  0.1749
  C  C585  1  0.945000  0.974800  0.745300  1.0  0.0267
  C  C586  1  0.905000  0.951000  0.759600  1.0  0.1244
  C  C587  1  0.832000  0.946600  0.738700  1.0  0.0901
  C  C588  1  0.800400  0.966000  0.703600  1.0  0.0104
  C  C589  1  0.841000  0.989800  0.689300  1.0  0.0637
  C  C590  1  0.784000  0.918900  0.751000  1.0  -0.1375
  C  C591  1  0.776300  0.972200  0.555400  1.0  0.0848
  C  C592  1  0.687000  0.961000  0.476000  1.0  -0.0477
  C  C593  1  0.678900  0.986100  0.508900  1.0  0.0815
  C  C594  1  0.777500  0.860500  0.550200  1.0  0.1447
  C  C595  1  0.701000  0.870600  0.481000  1.0  0.0333
  C  C596  1  0.685200  0.846800  0.502800  1.0  0.0212
  C  C597  1  0.914000  0.808200  0.647900  1.0  -0.0487
  C  C598  1  0.926300  0.843900  0.707900  1.0  0.0732
  C  C599  1  0.951200  0.865100  0.742000  1.0  0.0218
  C  C600  1  0.902000  0.886400  0.756700  1.0  0.0395
  C  C601  1  0.828000  0.886500  0.737400  1.0  0.0043
  C  C602  1  0.803100  0.865300  0.703300  1.0  0.0075
  C  C603  1  0.852200  0.844000  0.688600  1.0  0.08
  C  C604  1  0.924000  0.913800  0.792100  1.0  -0.1348
  C  C605  1  0.974700  0.918000  0.541400  1.0  -0.0089
  C  C606  1  0.963800  0.918100  0.629900  1.0  0.0981
  C  C607  1  0.976000  0.918300  0.685800  1.0  0.0263
  C  C608  1  0.915000  0.916800  0.721400  1.0  0.0535
  C  C609  1  0.841400  0.915300  0.701000  1.0  0.0636
  C  C610  1  0.829200  0.915100  0.645100  1.0  -0.0002
  C  C611  1  0.890400  0.916500  0.609500  1.0  0.0765
  C  C612  1  0.088000  0.765400  0.610800  1.0  0.1542
  C  C613  1  0.108000  0.778600  0.552000  1.0  -0.0394
  C  C614  1  0.865700  0.944000  0.399500  1.0  0.1343
  C  C615  1  0.896400  0.901200  0.398900  1.0  0.1751
  C  C616  1  0.912000  0.873900  0.413500  1.0  -0.0271
  C  C617  1  0.964000  0.858400  0.383000  1.0  -0.0299
  C  C618  1  0.000000  0.870300  0.339000  1.0  -0.0144
  C  C619  1  0.984000  0.897600  0.324300  1.0  0.001
  C  C620  1  0.933000  0.913100  0.354300  1.0  0.0511
  C  C621  1  0.064000  0.859000  0.299000  1.0  -0.0826
  C  C622  1  0.155700  0.024900  0.793800  1.0  0.1145
  C  C623  1  0.048000  0.053500  0.814000  1.0  -0.0003
  C  C624  1  0.107000  0.052800  0.854100  1.0  -0.0483
  C  C625  1  0.193600  0.946800  0.491400  1.0  0.0301
  C  C626  1  0.174300  0.903700  0.474900  1.0  0.1415
  C  C627  1  0.140300  0.877600  0.471400  1.0  -0.0095
  C  C628  1  0.134000  0.864400  0.421000  1.0  -0.0161
  C  C629  1  0.162000  0.877100  0.374600  1.0  0.084
  C  C630  1  0.196000  0.903200  0.378000  1.0  -0.0452
  C  C631  1  0.202100  0.916400  0.428100  1.0  0.1155
  C  C632  1  0.093000  0.835100  0.416000  1.0  -0.0489
  C  C633  1  0.145000  0.858000  0.323000  1.0  -0.1262
  C  C634  1  0.161800  0.810700  0.793000  1.0  0.1126
  C  C635  1  0.091000  0.800600  0.860700  1.0  -0.0475
  C  C636  1  0.050700  0.798800  0.810900  1.0  -0.0162
  C  C637  1  0.823700  0.764300  0.534500  1.0  0.0365
  C  C638  1  0.879000  0.779200  0.502000  1.0  -0.0381
  C  C639  1  0.935000  0.762300  0.472000  1.0  0.0625
  C  C640  1  0.040000  0.778000  0.572000  1.0  0.0999
  C  C641  1  0.421000  0.250000  0.192500  1.0  -0.0053
  C  C642  1  0.753500  0.250000  0.097300  1.0  0.0709
  C  C643  1  0.079000  0.750000  0.692500  1.0  -0.0059
  C  C644  1  0.746500  0.750000  0.597300  1.0  0.0701
  C  C645  1  0.579000  0.750000  0.807500  1.0  0.0007
  C  C646  1  0.246500  0.750000  0.902700  1.0  0.0717
  C  C647  1  0.921000  0.250000  0.307500  1.0  0.0007
  C  C648  1  0.253500  0.250000  0.402700  1.0  0.072
  N  N649  1  0.371400  0.341200  0.157400  1.0  -0.2971
  N  N650  1  0.346200  0.382700  0.123500  1.0  -0.3183
  N  N651  1  0.344300  0.453400  0.128900  1.0  -0.2875
  N  N652  1  0.367600  0.495200  0.168400  1.0  -0.3919
  N  N653  1  0.539900  0.514900  0.188500  1.0  -0.3767
  N  N654  1  0.655900  0.512800  0.155700  1.0  -0.3258
  N  N655  1  0.770200  0.493900  0.052600  1.0  -0.3794
  N  N656  1  0.741700  0.452800  0.015900  1.0  -0.2993
  N  N657  1  0.738500  0.380700  0.012900  1.0  -0.2142
  N  N658  1  0.766700  0.338800  0.049600  1.0  -0.4011
  N  N659  1  0.658800  0.322000  0.150800  1.0  -0.3456
  N  N660  1  0.538900  0.321400  0.182800  1.0  -0.2407
  N  N661  1  0.487400  0.419100  0.087600  1.0  -0.1584
  N  N662  1  0.601500  0.416800  0.054900  1.0  -0.2437
  N  N663  1  0.419900  0.273400  0.159500  1.0  -0.2275
  N  N664  1  0.592300  0.441000  0.855400  1.0  -0.2706
  N  N665  1  0.642500  0.420100  0.927300  1.0  -0.3266
  N  N666  1  0.404800  0.536300  0.274500  1.0  -0.3086
  N  N667  1  0.331300  0.534200  0.345500  1.0  -0.3741
  N  N668  1  0.286200  0.444100  0.939300  1.0  -0.3849
  N  N669  1  0.331100  0.422300  0.014700  1.0  -0.3775
  N  N670  1  0.335700  0.307500  0.346000  1.0  -0.3042
  N  N671  1  0.726500  0.273500  0.075200  1.0  -0.3058
  N  N672  1  0.405500  0.307600  0.268600  1.0  -0.3725
  N  N673  1  0.128600  0.658800  0.657400  1.0  -0.2981
  N  N674  1  0.153800  0.617300  0.623500  1.0  -0.3172
  N  N675  1  0.155700  0.546600  0.628900  1.0  -0.2887
  N  N676  1  0.132400  0.504800  0.668400  1.0  -0.392
  N  N677  1  0.960100  0.485100  0.688500  1.0  -0.3754
  N  N678  1  0.844100  0.487200  0.655700  1.0  -0.3268
  N  N679  1  0.729800  0.506100  0.552600  1.0  -0.3796
  N  N680  1  0.758300  0.547200  0.515900  1.0  -0.2983
  N  N681  1  0.761500  0.619300  0.512900  1.0  -0.2133
  N  N682  1  0.733300  0.661200  0.549600  1.0  -0.4005
  N  N683  1  0.841200  0.678000  0.650800  1.0  -0.3476
  N  N684  1  0.961100  0.678600  0.682800  1.0  -0.2402
  N  N685  1  0.012600  0.580900  0.587600  1.0  -0.1584
  N  N686  1  0.898500  0.583200  0.554900  1.0  -0.2451
  N  N687  1  0.080100  0.726600  0.659500  1.0  -0.2272
  N  N688  1  0.907700  0.559000  0.355400  1.0  -0.2708
  N  N689  1  0.857500  0.579900  0.427300  1.0  -0.3268
  N  N690  1  0.095200  0.463700  0.774500  1.0  -0.3091
  N  N691  1  0.168700  0.465800  0.845500  1.0  -0.3761
  N  N692  1  0.213800  0.555900  0.439300  1.0  -0.3846
  N  N693  1  0.168900  0.577700  0.514700  1.0  -0.3772
  N  N694  1  0.164300  0.692500  0.846000  1.0  -0.3045
  N  N695  1  0.773500  0.726500  0.575200  1.0  -0.3056
  N  N696  1  0.094500  0.692400  0.768600  1.0  -0.3723
  N  N697  1  0.628600  0.841200  0.842600  1.0  -0.2969
  N  N698  1  0.653800  0.882700  0.876500  1.0  -0.319
  N  N699  1  0.655700  0.953400  0.871100  1.0  -0.2884
  N  N700  1  0.632400  0.995200  0.831600  1.0  -0.3907
  N  N701  1  0.460100  0.014900  0.811500  1.0  -0.3756
  N  N702  1  0.344100  0.012800  0.844300  1.0  -0.3273
  N  N703  1  0.229800  0.993900  0.947400  1.0  -0.3798
  N  N704  1  0.258300  0.952800  0.984100  1.0  -0.3001
  N  N705  1  0.261500  0.880700  0.987100  1.0  -0.2153
  N  N706  1  0.233300  0.838800  0.950400  1.0  -0.4014
  N  N707  1  0.341200  0.822000  0.849200  1.0  -0.3474
  N  N708  1  0.461100  0.821400  0.817200  1.0  -0.2397
  N  N709  1  0.512600  0.919100  0.912400  1.0  -0.158
  N  N710  1  0.398500  0.916800  0.945100  1.0  -0.2444
  N  N711  1  0.580100  0.773400  0.840500  1.0  -0.2276
  N  N712  1  0.407700  0.941000  0.144600  1.0  -0.2714
  N  N713  1  0.357500  0.920100  0.072700  1.0  -0.3262
  N  N714  1  0.595200  0.036300  0.725500  1.0  -0.3085
  N  N715  1  0.668700  0.034200  0.654500  1.0  -0.3755
  N  N716  1  0.713800  0.944100  0.060700  1.0  -0.3861
  N  N717  1  0.668900  0.922300  0.985300  1.0  -0.3772
  N  N718  1  0.664300  0.807500  0.654000  1.0  -0.3035
  N  N719  1  0.273500  0.773500  0.924800  1.0  -0.3053
  N  N720  1  0.594500  0.807600  0.731400  1.0  -0.3709
  N  N721  1  0.871400  0.158800  0.342600  1.0  -0.2973
  N  N722  1  0.846200  0.117300  0.376500  1.0  -0.3175
  N  N723  1  0.844300  0.046600  0.371100  1.0  -0.2887
  N  N724  1  0.867600  0.004800  0.331600  1.0  -0.3919
  N  N725  1  0.039900  0.985100  0.311500  1.0  -0.3767
  N  N726  1  0.155900  0.987200  0.344300  1.0  -0.325
  N  N727  1  0.270200  0.006100  0.447400  1.0  -0.3783
  N  N728  1  0.241700  0.047200  0.484100  1.0  -0.2988
  N  N729  1  0.238500  0.119300  0.487100  1.0  -0.2135
  N  N730  1  0.266700  0.161200  0.450400  1.0  -0.4009
  N  N731  1  0.158800  0.178000  0.349200  1.0  -0.3461
  N  N732  1  0.038900  0.178600  0.317200  1.0  -0.239
  N  N733  1  0.987400  0.080900  0.412400  1.0  -0.1582
  N  N734  1  0.101500  0.083200  0.445100  1.0  -0.2425
  N  N735  1  0.919900  0.226600  0.340500  1.0  -0.2274
  N  N736  1  0.092300  0.059000  0.644600  1.0  -0.27
  N  N737  1  0.142500  0.079900  0.572700  1.0  -0.327
  N  N738  1  0.904800  0.963700  0.225500  1.0  -0.3069
  N  N739  1  0.831300  0.965800  0.154500  1.0  -0.3746
  N  N740  1  0.786200  0.055900  0.560700  1.0  -0.3856
  N  N741  1  0.831100  0.077700  0.485300  1.0  -0.3771
  N  N742  1  0.835700  0.192500  0.154000  1.0  -0.3034
  N  N743  1  0.226500  0.226500  0.424800  1.0  -0.3045
  N  N744  1  0.905500  0.192400  0.231400  1.0  -0.3707
  N  N745  1  0.628600  0.658800  0.842600  1.0  -0.2977
  N  N746  1  0.653800  0.617300  0.876500  1.0  -0.3178
  N  N747  1  0.655700  0.546600  0.871100  1.0  -0.2891
  N  N748  1  0.632400  0.504800  0.831600  1.0  -0.392
  N  N749  1  0.460100  0.485100  0.811500  1.0  -0.3752
  N  N750  1  0.344100  0.487200  0.844300  1.0  -0.3259
  N  N751  1  0.229800  0.506100  0.947400  1.0  -0.3794
  N  N752  1  0.258300  0.547200  0.984100  1.0  -0.2989
  N  N753  1  0.261500  0.619300  0.987100  1.0  -0.2136
  N  N754  1  0.233300  0.661200  0.950400  1.0  -0.4013
  N  N755  1  0.341200  0.678000  0.849200  1.0  -0.3478
  N  N756  1  0.461100  0.678600  0.817200  1.0  -0.2397
  N  N757  1  0.512600  0.580900  0.912400  1.0  -0.1578
  N  N758  1  0.398500  0.583200  0.945100  1.0  -0.2443
  N  N759  1  0.580100  0.726600  0.840500  1.0  -0.2274
  N  N760  1  0.407700  0.559000  0.144600  1.0  -0.2708
  N  N761  1  0.357500  0.579900  0.072700  1.0  -0.3267
  N  N762  1  0.595200  0.463700  0.725500  1.0  -0.3083
  N  N763  1  0.668700  0.465800  0.654500  1.0  -0.3757
  N  N764  1  0.713800  0.555900  0.060700  1.0  -0.3856
  N  N765  1  0.668900  0.577700  0.985300  1.0  -0.377
  N  N766  1  0.664300  0.692500  0.654000  1.0  -0.3034
  N  N767  1  0.273500  0.726500  0.924800  1.0  -0.3051
  N  N768  1  0.594500  0.692400  0.731400  1.0  -0.3706
  N  N769  1  0.871400  0.341200  0.342600  1.0  -0.2964
  N  N770  1  0.846200  0.382700  0.376500  1.0  -0.3187
  N  N771  1  0.844300  0.453400  0.371100  1.0  -0.2878
  N  N772  1  0.867600  0.495200  0.331600  1.0  -0.3921
  N  N773  1  0.039900  0.514900  0.311500  1.0  -0.3765
  N  N774  1  0.155900  0.512800  0.344300  1.0  -0.3262
  N  N775  1  0.270200  0.493900  0.447400  1.0  -0.3788
  N  N776  1  0.241700  0.452800  0.484100  1.0  -0.2998
  N  N777  1  0.238500  0.380700  0.487100  1.0  -0.2145
  N  N778  1  0.266700  0.338800  0.450400  1.0  -0.4008
  N  N779  1  0.158800  0.322000  0.349200  1.0  -0.3455
  N  N780  1  0.038900  0.321400  0.317200  1.0  -0.24
  N  N781  1  0.987400  0.419100  0.412400  1.0  -0.1582
  N  N782  1  0.101500  0.416800  0.445100  1.0  -0.2427
  N  N783  1  0.919900  0.273400  0.340500  1.0  -0.2279
  N  N784  1  0.092300  0.441000  0.644600  1.0  -0.2706
  N  N785  1  0.142500  0.420100  0.572700  1.0  -0.3269
  N  N786  1  0.904800  0.536300  0.225500  1.0  -0.3072
  N  N787  1  0.831300  0.534200  0.154500  1.0  -0.3741
  N  N788  1  0.786200  0.444100  0.560700  1.0  -0.3857
  N  N789  1  0.831100  0.422300  0.485300  1.0  -0.3772
  N  N790  1  0.835700  0.307500  0.154000  1.0  -0.303
  N  N791  1  0.226500  0.273500  0.424800  1.0  -0.3052
  N  N792  1  0.905500  0.307600  0.231400  1.0  -0.3707
  N  N793  1  0.371400  0.158800  0.157400  1.0  -0.2978
  N  N794  1  0.346200  0.117300  0.123500  1.0  -0.3169
  N  N795  1  0.344300  0.046600  0.128900  1.0  -0.2882
  N  N796  1  0.367600  0.004800  0.168400  1.0  -0.3915
  N  N797  1  0.539900  0.985100  0.188500  1.0  -0.3768
  N  N798  1  0.655900  0.987200  0.155700  1.0  -0.3258
  N  N799  1  0.770200  0.006100  0.052600  1.0  -0.3787
  N  N800  1  0.741700  0.047200  0.015900  1.0  -0.2983
  N  N801  1  0.738500  0.119300  0.012900  1.0  -0.2134
  N  N802  1  0.766700  0.161200  0.049600  1.0  -0.4002
  N  N803  1  0.658800  0.178000  0.150800  1.0  -0.3462
  N  N804  1  0.538900  0.178600  0.182800  1.0  -0.2397
  N  N805  1  0.487400  0.080900  0.087600  1.0  -0.1591
  N  N806  1  0.601500  0.083200  0.054900  1.0  -0.2435
  N  N807  1  0.419900  0.226600  0.159500  1.0  -0.2274
  N  N808  1  0.592300  0.059000  0.855400  1.0  -0.2701
  N  N809  1  0.642500  0.079900  0.927300  1.0  -0.3267
  N  N810  1  0.404800  0.963700  0.274500  1.0  -0.3085
  N  N811  1  0.331300  0.965800  0.345500  1.0  -0.3748
  N  N812  1  0.286200  0.055900  0.939300  1.0  -0.3844
  N  N813  1  0.331100  0.077700  0.014700  1.0  -0.3774
  N  N814  1  0.335700  0.192500  0.346000  1.0  -0.3037
  N  N815  1  0.726500  0.226500  0.075200  1.0  -0.3052
  N  N816  1  0.405500  0.192400  0.268600  1.0  -0.3726
  N  N817  1  0.128600  0.841200  0.657400  1.0  -0.2977
  N  N818  1  0.153800  0.882700  0.623500  1.0  -0.3186
  N  N819  1  0.155700  0.953400  0.628900  1.0  -0.2882
  N  N820  1  0.132400  0.995200  0.668400  1.0  -0.3911
  N  N821  1  0.960100  0.014900  0.688500  1.0  -0.3759
  N  N822  1  0.844100  0.012800  0.655700  1.0  -0.327
  N  N823  1  0.729800  0.993900  0.552600  1.0  -0.3801
  N  N824  1  0.758300  0.952800  0.515900  1.0  -0.2997
  N  N825  1  0.761500  0.880700  0.512900  1.0  -0.2149
  N  N826  1  0.733300  0.838800  0.549600  1.0  -0.4014
  N  N827  1  0.841200  0.822000  0.650800  1.0  -0.3476
  N  N828  1  0.961100  0.821400  0.682800  1.0  -0.2402
  N  N829  1  0.012600  0.919100  0.587600  1.0  -0.1578
  N  N830  1  0.898500  0.916800  0.554900  1.0  -0.2451
  N  N831  1  0.080100  0.773400  0.659500  1.0  -0.2269
  N  N832  1  0.907700  0.941000  0.355400  1.0  -0.2713
  N  N833  1  0.857500  0.920100  0.427300  1.0  -0.3264
  N  N834  1  0.095200  0.036300  0.774500  1.0  -0.3089
  N  N835  1  0.168700  0.034200  0.845500  1.0  -0.3755
  N  N836  1  0.213800  0.944100  0.439300  1.0  -0.3855
  N  N837  1  0.168900  0.922300  0.514700  1.0  -0.3773
  N  N838  1  0.164300  0.807500  0.846000  1.0  -0.3043
  N  N839  1  0.773500  0.773500  0.575200  1.0  -0.3058
  N  N840  1  0.094500  0.807600  0.768600  1.0  -0.3724
