# generated using pymatgen
data_CuH10(C9O2)2
_symmetry_space_group_name_H-M   'P 1'
_cell_length_a   26.98800000
_cell_length_b   26.98800000
_cell_length_c   26.98800000
_cell_angle_alpha   90.00000000
_cell_angle_beta   90.00000000
_cell_angle_gamma   90.00000000
_symmetry_Int_Tables_number   1
_chemical_formula_structural   CuH10(C9O2)2
_chemical_formula_sum   'Cu24 H240 C432 O96'
_cell_volume   19656.76766227
_cell_formula_units_Z   24
loop_
 _symmetry_equiv_pos_site_id
 _symmetry_equiv_pos_as_xyz
  1  'x, y, z'
loop_
 _atom_site_type_symbol
 _atom_site_label
 _atom_site_symmetry_multiplicity
 _atom_site_fract_x
 _atom_site_fract_y
 _atom_site_fract_z
 _atom_site_occupancy
 _atom_site_charge
  Cu  Cu1  1  0.500000  0.000000  0.144410  1.0  0.885
  Cu  Cu2  1  0.500000  0.000000  0.240280  1.0  0.9114
  Cu  Cu3  1  0.500000  0.000000  0.855590  1.0  0.8855
  Cu  Cu4  1  0.500000  0.000000  0.759720  1.0  0.9127
  Cu  Cu5  1  0.144410  0.500000  0.000000  1.0  0.885
  Cu  Cu6  1  0.240280  0.500000  0.000000  1.0  0.9142
  Cu  Cu7  1  0.855590  0.500000  0.000000  1.0  0.8857
  Cu  Cu8  1  0.759720  0.500000  0.000000  1.0  0.9136
  Cu  Cu9  1  0.000000  0.144410  0.500000  1.0  0.8866
  Cu  Cu10  1  0.000000  0.240280  0.500000  1.0  0.9137
  Cu  Cu11  1  0.000000  0.855590  0.500000  1.0  0.8854
  Cu  Cu12  1  0.000000  0.759720  0.500000  1.0  0.9152
  Cu  Cu13  1  0.000000  0.500000  0.644410  1.0  0.885
  Cu  Cu14  1  0.000000  0.500000  0.740280  1.0  0.9114
  Cu  Cu15  1  0.000000  0.500000  0.355590  1.0  0.8855
  Cu  Cu16  1  0.000000  0.500000  0.259720  1.0  0.9127
  Cu  Cu17  1  0.644410  0.000000  0.500000  1.0  0.885
  Cu  Cu18  1  0.740280  0.000000  0.500000  1.0  0.9142
  Cu  Cu19  1  0.355590  0.000000  0.500000  1.0  0.8857
  Cu  Cu20  1  0.259720  0.000000  0.500000  1.0  0.9136
  Cu  Cu21  1  0.500000  0.644410  0.000000  1.0  0.8866
  Cu  Cu22  1  0.500000  0.740280  0.000000  1.0  0.9137
  Cu  Cu23  1  0.500000  0.355590  0.000000  1.0  0.8854
  Cu  Cu24  1  0.500000  0.259720  0.000000  1.0  0.9152
  H  H25  1  0.373900  0.098900  0.118000  1.0  0.1066
  H  H26  1  0.305700  0.137300  0.272800  1.0  0.1009
  H  H27  1  0.299700  0.144700  0.122500  1.0  0.1184
  H  H28  1  0.380400  0.094500  0.267800  1.0  0.114
  H  H29  1  0.221500  0.143100  0.263900  1.0  0.1101
  H  H30  1  0.626100  0.901100  0.118000  1.0  0.1071
  H  H31  1  0.694300  0.862700  0.272800  1.0  0.1016
  H  H32  1  0.700300  0.855300  0.122500  1.0  0.1185
  H  H33  1  0.619600  0.905500  0.267800  1.0  0.1144
  H  H34  1  0.778500  0.856900  0.263900  1.0  0.109
  H  H35  1  0.626100  0.098900  0.882000  1.0  0.1065
  H  H36  1  0.694300  0.137300  0.727200  1.0  0.1016
  H  H37  1  0.700300  0.144700  0.877500  1.0  0.1191
  H  H38  1  0.619600  0.094500  0.732200  1.0  0.1147
  H  H39  1  0.778500  0.143100  0.736100  1.0  0.1102
  H  H40  1  0.373900  0.901100  0.882000  1.0  0.1062
  H  H41  1  0.305700  0.862700  0.727200  1.0  0.1019
  H  H42  1  0.299700  0.855300  0.877500  1.0  0.1189
  H  H43  1  0.380400  0.905500  0.732200  1.0  0.1146
  H  H44  1  0.221500  0.856900  0.736100  1.0  0.1094
  H  H45  1  0.118000  0.373900  0.098900  1.0  0.1074
  H  H46  1  0.272800  0.305700  0.137300  1.0  0.1043
  H  H47  1  0.122500  0.299700  0.144700  1.0  0.1192
  H  H48  1  0.267800  0.380400  0.094500  1.0  0.1139
  H  H49  1  0.263900  0.221500  0.143100  1.0  0.1124
  H  H50  1  0.118000  0.626100  0.901100  1.0  0.1074
  H  H51  1  0.272800  0.694300  0.862700  1.0  0.1039
  H  H52  1  0.122500  0.700300  0.855300  1.0  0.1199
  H  H53  1  0.267800  0.619600  0.905500  1.0  0.1137
  H  H54  1  0.263900  0.778500  0.856900  1.0  0.1122
  H  H55  1  0.882000  0.626100  0.098900  1.0  0.1079
  H  H56  1  0.727200  0.694300  0.137300  1.0  0.1047
  H  H57  1  0.877500  0.700300  0.144700  1.0  0.1193
  H  H58  1  0.732200  0.619600  0.094500  1.0  0.1138
  H  H59  1  0.736100  0.778500  0.143100  1.0  0.1132
  H  H60  1  0.882000  0.373900  0.901100  1.0  0.1079
  H  H61  1  0.727200  0.305700  0.862700  1.0  0.1039
  H  H62  1  0.877500  0.299700  0.855300  1.0  0.1191
  H  H63  1  0.732200  0.380400  0.905500  1.0  0.1139
  H  H64  1  0.736100  0.221500  0.856900  1.0  0.1125
  H  H65  1  0.098900  0.118000  0.373900  1.0  0.1071
  H  H66  1  0.137300  0.272800  0.305700  1.0  0.1019
  H  H67  1  0.144700  0.122500  0.299700  1.0  0.1168
  H  H68  1  0.094500  0.267800  0.380400  1.0  0.1145
  H  H69  1  0.143100  0.263900  0.221500  1.0  0.1115
  H  H70  1  0.901100  0.118000  0.626100  1.0  0.1075
  H  H71  1  0.862700  0.272800  0.694300  1.0  0.1019
  H  H72  1  0.855300  0.122500  0.700300  1.0  0.1178
  H  H73  1  0.905500  0.267800  0.619600  1.0  0.1143
  H  H74  1  0.856900  0.263900  0.778500  1.0  0.1104
  H  H75  1  0.098900  0.882000  0.626100  1.0  0.1077
  H  H76  1  0.137300  0.727200  0.694300  1.0  0.1016
  H  H77  1  0.144700  0.877500  0.700300  1.0  0.1171
  H  H78  1  0.094500  0.732200  0.619600  1.0  0.1138
  H  H79  1  0.143100  0.736100  0.778500  1.0  0.1117
  H  H80  1  0.901100  0.882000  0.373900  1.0  0.1074
  H  H81  1  0.862700  0.727200  0.305700  1.0  0.1019
  H  H82  1  0.855300  0.877500  0.299700  1.0  0.1179
  H  H83  1  0.905500  0.732200  0.380400  1.0  0.1141
  H  H84  1  0.856900  0.736100  0.221500  1.0  0.1114
  H  H85  1  0.626100  0.901100  0.882000  1.0  0.106
  H  H86  1  0.694300  0.862700  0.727200  1.0  0.1019
  H  H87  1  0.700300  0.855300  0.877500  1.0  0.1192
  H  H88  1  0.619600  0.905500  0.732200  1.0  0.1148
  H  H89  1  0.778500  0.856900  0.736100  1.0  0.1092
  H  H90  1  0.373900  0.098900  0.882000  1.0  0.1064
  H  H91  1  0.305700  0.137300  0.727200  1.0  0.1014
  H  H92  1  0.299700  0.144700  0.877500  1.0  0.1187
  H  H93  1  0.380400  0.094500  0.732200  1.0  0.1145
  H  H94  1  0.221500  0.143100  0.736100  1.0  0.11
  H  H95  1  0.373900  0.901100  0.118000  1.0  0.107
  H  H96  1  0.305700  0.862700  0.272800  1.0  0.1014
  H  H97  1  0.299700  0.855300  0.122500  1.0  0.1183
  H  H98  1  0.380400  0.905500  0.267800  1.0  0.1142
  H  H99  1  0.221500  0.856900  0.263900  1.0  0.1092
  H  H100  1  0.626100  0.098900  0.118000  1.0  0.1067
  H  H101  1  0.694300  0.137300  0.272800  1.0  0.1012
  H  H102  1  0.700300  0.144700  0.122500  1.0  0.1188
  H  H103  1  0.619600  0.094500  0.267800  1.0  0.1143
  H  H104  1  0.778500  0.143100  0.263900  1.0  0.1102
  H  H105  1  0.882000  0.626100  0.901100  1.0  0.1079
  H  H106  1  0.727200  0.694300  0.862700  1.0  0.1047
  H  H107  1  0.877500  0.700300  0.855300  1.0  0.1194
  H  H108  1  0.732200  0.619600  0.905500  1.0  0.1138
  H  H109  1  0.736100  0.778500  0.856900  1.0  0.1128
  H  H110  1  0.882000  0.373900  0.098900  1.0  0.1082
  H  H111  1  0.727200  0.305700  0.137300  1.0  0.1037
  H  H112  1  0.877500  0.299700  0.144700  1.0  0.1191
  H  H113  1  0.732200  0.380400  0.094500  1.0  0.114
  H  H114  1  0.736100  0.221500  0.143100  1.0  0.1127
  H  H115  1  0.118000  0.373900  0.901100  1.0  0.1076
  H  H116  1  0.272800  0.305700  0.862700  1.0  0.1046
  H  H117  1  0.122500  0.299700  0.855300  1.0  0.1198
  H  H118  1  0.267800  0.380400  0.905500  1.0  0.1138
  H  H119  1  0.263900  0.221500  0.856900  1.0  0.1122
  H  H120  1  0.118000  0.626100  0.098900  1.0  0.1071
  H  H121  1  0.272800  0.694300  0.137300  1.0  0.1038
  H  H122  1  0.122500  0.700300  0.144700  1.0  0.1193
  H  H123  1  0.267800  0.619600  0.094500  1.0  0.1136
  H  H124  1  0.263900  0.778500  0.143100  1.0  0.1124
  H  H125  1  0.901100  0.882000  0.626100  1.0  0.1076
  H  H126  1  0.862700  0.727200  0.694300  1.0  0.1017
  H  H127  1  0.855300  0.877500  0.700300  1.0  0.1174
  H  H128  1  0.905500  0.732200  0.619600  1.0  0.1139
  H  H129  1  0.856900  0.736100  0.778500  1.0  0.1108
  H  H130  1  0.098900  0.882000  0.373900  1.0  0.1075
  H  H131  1  0.137300  0.727200  0.305700  1.0  0.1016
  H  H132  1  0.144700  0.877500  0.299700  1.0  0.1174
  H  H133  1  0.094500  0.732200  0.380400  1.0  0.1142
  H  H134  1  0.143100  0.736100  0.221500  1.0  0.1118
  H  H135  1  0.901100  0.118000  0.373900  1.0  0.1073
  H  H136  1  0.862700  0.272800  0.305700  1.0  0.1022
  H  H137  1  0.855300  0.122500  0.299700  1.0  0.1173
  H  H138  1  0.905500  0.267800  0.380400  1.0  0.1143
  H  H139  1  0.856900  0.263900  0.221500  1.0  0.111
  H  H140  1  0.098900  0.118000  0.626100  1.0  0.1071
  H  H141  1  0.137300  0.272800  0.694300  1.0  0.1019
  H  H142  1  0.144700  0.122500  0.700300  1.0  0.1174
  H  H143  1  0.094500  0.267800  0.619600  1.0  0.1143
  H  H144  1  0.143100  0.263900  0.778500  1.0  0.1111
  H  H145  1  0.873900  0.598900  0.618000  1.0  0.1066
  H  H146  1  0.805700  0.637300  0.772800  1.0  0.1009
  H  H147  1  0.799700  0.644700  0.622500  1.0  0.1184
  H  H148  1  0.880400  0.594500  0.767800  1.0  0.114
  H  H149  1  0.721500  0.643100  0.763900  1.0  0.1101
  H  H150  1  0.126100  0.401100  0.618000  1.0  0.1071
  H  H151  1  0.194300  0.362700  0.772800  1.0  0.1016
  H  H152  1  0.200300  0.355300  0.622500  1.0  0.1185
  H  H153  1  0.119600  0.405500  0.767800  1.0  0.1144
  H  H154  1  0.278500  0.356900  0.763900  1.0  0.109
  H  H155  1  0.126100  0.598900  0.382000  1.0  0.1065
  H  H156  1  0.194300  0.637300  0.227200  1.0  0.1016
  H  H157  1  0.200300  0.644700  0.377500  1.0  0.1191
  H  H158  1  0.119600  0.594500  0.232200  1.0  0.1147
  H  H159  1  0.278500  0.643100  0.236100  1.0  0.1102
  H  H160  1  0.873900  0.401100  0.382000  1.0  0.1062
  H  H161  1  0.805700  0.362700  0.227200  1.0  0.1019
  H  H162  1  0.799700  0.355300  0.377500  1.0  0.1189
  H  H163  1  0.880400  0.405500  0.232200  1.0  0.1146
  H  H164  1  0.721500  0.356900  0.236100  1.0  0.1094
  H  H165  1  0.618000  0.873900  0.598900  1.0  0.1074
  H  H166  1  0.772800  0.805700  0.637300  1.0  0.1043
  H  H167  1  0.622500  0.799700  0.644700  1.0  0.1192
  H  H168  1  0.767800  0.880400  0.594500  1.0  0.1139
  H  H169  1  0.763900  0.721500  0.643100  1.0  0.1124
  H  H170  1  0.618000  0.126100  0.401100  1.0  0.1074
  H  H171  1  0.772800  0.194300  0.362700  1.0  0.1039
  H  H172  1  0.622500  0.200300  0.355300  1.0  0.1199
  H  H173  1  0.767800  0.119600  0.405500  1.0  0.1137
  H  H174  1  0.763900  0.278500  0.356900  1.0  0.1122
  H  H175  1  0.382000  0.126100  0.598900  1.0  0.1079
  H  H176  1  0.227200  0.194300  0.637300  1.0  0.1047
  H  H177  1  0.377500  0.200300  0.644700  1.0  0.1193
  H  H178  1  0.232200  0.119600  0.594500  1.0  0.1138
  H  H179  1  0.236100  0.278500  0.643100  1.0  0.1132
  H  H180  1  0.382000  0.873900  0.401100  1.0  0.1079
  H  H181  1  0.227200  0.805700  0.362700  1.0  0.1039
  H  H182  1  0.377500  0.799700  0.355300  1.0  0.1191
  H  H183  1  0.232200  0.880400  0.405500  1.0  0.1139
  H  H184  1  0.236100  0.721500  0.356900  1.0  0.1125
  H  H185  1  0.598900  0.618000  0.873900  1.0  0.1071
  H  H186  1  0.637300  0.772800  0.805700  1.0  0.1019
  H  H187  1  0.644700  0.622500  0.799700  1.0  0.1168
  H  H188  1  0.594500  0.767800  0.880400  1.0  0.1145
  H  H189  1  0.643100  0.763900  0.721500  1.0  0.1115
  H  H190  1  0.401100  0.618000  0.126100  1.0  0.1075
  H  H191  1  0.362700  0.772800  0.194300  1.0  0.1019
  H  H192  1  0.355300  0.622500  0.200300  1.0  0.1178
  H  H193  1  0.405500  0.767800  0.119600  1.0  0.1143
  H  H194  1  0.356900  0.763900  0.278500  1.0  0.1104
  H  H195  1  0.598900  0.382000  0.126100  1.0  0.1077
  H  H196  1  0.637300  0.227200  0.194300  1.0  0.1016
  H  H197  1  0.644700  0.377500  0.200300  1.0  0.1171
  H  H198  1  0.594500  0.232200  0.119600  1.0  0.1138
  H  H199  1  0.643100  0.236100  0.278500  1.0  0.1117
  H  H200  1  0.401100  0.382000  0.873900  1.0  0.1074
  H  H201  1  0.362700  0.227200  0.805700  1.0  0.1019
  H  H202  1  0.355300  0.377500  0.799700  1.0  0.1179
  H  H203  1  0.405500  0.232200  0.880400  1.0  0.1141
  H  H204  1  0.356900  0.236100  0.721500  1.0  0.1114
  H  H205  1  0.126100  0.401100  0.382000  1.0  0.106
  H  H206  1  0.194300  0.362700  0.227200  1.0  0.1019
  H  H207  1  0.200300  0.355300  0.377500  1.0  0.1192
  H  H208  1  0.119600  0.405500  0.232200  1.0  0.1148
  H  H209  1  0.278500  0.356900  0.236100  1.0  0.1092
  H  H210  1  0.873900  0.598900  0.382000  1.0  0.1064
  H  H211  1  0.805700  0.637300  0.227200  1.0  0.1014
  H  H212  1  0.799700  0.644700  0.377500  1.0  0.1187
  H  H213  1  0.880400  0.594500  0.232200  1.0  0.1145
  H  H214  1  0.721500  0.643100  0.236100  1.0  0.11
  H  H215  1  0.873900  0.401100  0.618000  1.0  0.107
  H  H216  1  0.805700  0.362700  0.772800  1.0  0.1014
  H  H217  1  0.799700  0.355300  0.622500  1.0  0.1183
  H  H218  1  0.880400  0.405500  0.767800  1.0  0.1142
  H  H219  1  0.721500  0.356900  0.763900  1.0  0.1092
  H  H220  1  0.126100  0.598900  0.618000  1.0  0.1067
  H  H221  1  0.194300  0.637300  0.772800  1.0  0.1012
  H  H222  1  0.200300  0.644700  0.622500  1.0  0.1188
  H  H223  1  0.119600  0.594500  0.767800  1.0  0.1143
  H  H224  1  0.278500  0.643100  0.763900  1.0  0.1102
  H  H225  1  0.382000  0.126100  0.401100  1.0  0.1079
  H  H226  1  0.227200  0.194300  0.362700  1.0  0.1047
  H  H227  1  0.377500  0.200300  0.355300  1.0  0.1194
  H  H228  1  0.232200  0.119600  0.405500  1.0  0.1138
  H  H229  1  0.236100  0.278500  0.356900  1.0  0.1128
  H  H230  1  0.382000  0.873900  0.598900  1.0  0.1082
  H  H231  1  0.227200  0.805700  0.637300  1.0  0.1037
  H  H232  1  0.377500  0.799700  0.644700  1.0  0.1191
  H  H233  1  0.232200  0.880400  0.594500  1.0  0.114
  H  H234  1  0.236100  0.721500  0.643100  1.0  0.1127
  H  H235  1  0.618000  0.873900  0.401100  1.0  0.1076
  H  H236  1  0.772800  0.805700  0.362700  1.0  0.1046
  H  H237  1  0.622500  0.799700  0.355300  1.0  0.1198
  H  H238  1  0.767800  0.880400  0.405500  1.0  0.1138
  H  H239  1  0.763900  0.721500  0.356900  1.0  0.1122
  H  H240  1  0.618000  0.126100  0.598900  1.0  0.1071
  H  H241  1  0.772800  0.194300  0.637300  1.0  0.1038
  H  H242  1  0.622500  0.200300  0.644700  1.0  0.1193
  H  H243  1  0.767800  0.119600  0.594500  1.0  0.1136
  H  H244  1  0.763900  0.278500  0.643100  1.0  0.1124
  H  H245  1  0.401100  0.382000  0.126100  1.0  0.1076
  H  H246  1  0.362700  0.227200  0.194300  1.0  0.1017
  H  H247  1  0.355300  0.377500  0.200300  1.0  0.1174
  H  H248  1  0.405500  0.232200  0.119600  1.0  0.1139
  H  H249  1  0.356900  0.236100  0.278500  1.0  0.1108
  H  H250  1  0.598900  0.382000  0.873900  1.0  0.1075
  H  H251  1  0.637300  0.227200  0.805700  1.0  0.1016
  H  H252  1  0.644700  0.377500  0.799700  1.0  0.1174
  H  H253  1  0.594500  0.232200  0.880400  1.0  0.1142
  H  H254  1  0.643100  0.236100  0.721500  1.0  0.1118
  H  H255  1  0.401100  0.618000  0.873900  1.0  0.1073
  H  H256  1  0.362700  0.772800  0.805700  1.0  0.1022
  H  H257  1  0.355300  0.622500  0.799700  1.0  0.1173
  H  H258  1  0.405500  0.767800  0.880400  1.0  0.1143
  H  H259  1  0.356900  0.763900  0.721500  1.0  0.111
  H  H260  1  0.598900  0.618000  0.126100  1.0  0.1071
  H  H261  1  0.637300  0.772800  0.194300  1.0  0.1019
  H  H262  1  0.644700  0.622500  0.200300  1.0  0.1174
  H  H263  1  0.594500  0.767800  0.119600  1.0  0.1143
  H  H264  1  0.643100  0.763900  0.278500  1.0  0.1111
  C  C265  1  0.294800  0.145880  0.198010  1.0  0.0446
  C  C266  1  0.430630  0.062190  0.190780  1.0  0.7047
  C  C267  1  0.360240  0.107240  0.149410  1.0  -0.0615
  C  C268  1  0.319600  0.130110  0.241290  1.0  -0.1198
  C  C269  1  0.315680  0.134300  0.152060  1.0  -0.1241
  C  C270  1  0.363920  0.104270  0.238360  1.0  -0.0796
  C  C271  1  0.216770  0.170310  0.242020  1.0  -0.1382
  C  C272  1  0.384290  0.092650  0.192450  1.0  -0.1258
  C  C273  1  0.249650  0.177340  0.202550  1.0  0.0433
  C  C274  1  0.705200  0.854120  0.198010  1.0  0.0463
  C  C275  1  0.569370  0.937810  0.190780  1.0  0.7047
  C  C276  1  0.639760  0.892760  0.149410  1.0  -0.0625
  C  C277  1  0.680400  0.869890  0.241290  1.0  -0.1185
  C  C278  1  0.684320  0.865700  0.152060  1.0  -0.1259
  C  C279  1  0.636080  0.895730  0.238360  1.0  -0.078
  C  C280  1  0.783230  0.829690  0.242020  1.0  -0.1375
  C  C281  1  0.615710  0.907350  0.192450  1.0  -0.1243
  C  C282  1  0.750350  0.822660  0.202550  1.0  0.0454
  C  C283  1  0.705200  0.145880  0.801990  1.0  0.046
  C  C284  1  0.569370  0.062190  0.809220  1.0  0.7041
  C  C285  1  0.639760  0.107240  0.850590  1.0  -0.0632
  C  C286  1  0.680400  0.130110  0.758710  1.0  -0.1178
  C  C287  1  0.684320  0.134300  0.847940  1.0  -0.1258
  C  C288  1  0.636080  0.104270  0.761640  1.0  -0.0794
  C  C289  1  0.783230  0.170310  0.757980  1.0  -0.1381
  C  C290  1  0.615710  0.092650  0.807550  1.0  -0.1254
  C  C291  1  0.750350  0.177340  0.797450  1.0  0.0445
  C  C292  1  0.294800  0.854120  0.801990  1.0  0.0461
  C  C293  1  0.430630  0.937810  0.809220  1.0  0.7053
  C  C294  1  0.360240  0.892760  0.850590  1.0  -0.0627
  C  C295  1  0.319600  0.869890  0.758710  1.0  -0.12
  C  C296  1  0.315680  0.865700  0.847940  1.0  -0.1246
  C  C297  1  0.363920  0.895730  0.761640  1.0  -0.0794
  C  C298  1  0.216770  0.829690  0.757980  1.0  -0.1373
  C  C299  1  0.384290  0.907350  0.807550  1.0  -0.1254
  C  C300  1  0.249650  0.822660  0.797450  1.0  0.0437
  C  C301  1  0.198010  0.294800  0.145880  1.0  0.0453
  C  C302  1  0.190780  0.430630  0.062190  1.0  0.7068
  C  C303  1  0.149410  0.360240  0.107240  1.0  -0.0583
  C  C304  1  0.241290  0.319600  0.130110  1.0  -0.1177
  C  C305  1  0.152060  0.315680  0.134300  1.0  -0.1209
  C  C306  1  0.238360  0.363920  0.104270  1.0  -0.0776
  C  C307  1  0.242020  0.216770  0.170310  1.0  -0.143
  C  C308  1  0.192450  0.384290  0.092650  1.0  -0.1229
  C  C309  1  0.202550  0.249650  0.177340  1.0  0.0417
  C  C310  1  0.198010  0.705200  0.854120  1.0  0.0457
  C  C311  1  0.190780  0.569370  0.937810  1.0  0.7062
  C  C312  1  0.149410  0.639760  0.892760  1.0  -0.0583
  C  C313  1  0.241290  0.680400  0.869890  1.0  -0.118
  C  C314  1  0.152060  0.684320  0.865700  1.0  -0.1218
  C  C315  1  0.238360  0.636080  0.895730  1.0  -0.0763
  C  C316  1  0.242020  0.783230  0.829690  1.0  -0.1405
  C  C317  1  0.192450  0.615710  0.907350  1.0  -0.1233
  C  C318  1  0.202550  0.750350  0.822660  1.0  0.0438
  C  C319  1  0.801990  0.705200  0.145880  1.0  0.0472
  C  C320  1  0.809220  0.569370  0.062190  1.0  0.7053
  C  C321  1  0.850590  0.639760  0.107240  1.0  -0.0592
  C  C322  1  0.758710  0.680400  0.130110  1.0  -0.1162
  C  C323  1  0.847940  0.684320  0.134300  1.0  -0.121
  C  C324  1  0.761640  0.636080  0.104270  1.0  -0.0758
  C  C325  1  0.757980  0.783230  0.170310  1.0  -0.1412
  C  C326  1  0.807550  0.615710  0.092650  1.0  -0.1242
  C  C327  1  0.797450  0.750350  0.177340  1.0  0.0414
  C  C328  1  0.801990  0.294800  0.854120  1.0  0.0476
  C  C329  1  0.809220  0.430630  0.937810  1.0  0.7052
  C  C330  1  0.850590  0.360240  0.892760  1.0  -0.0573
  C  C331  1  0.758710  0.319600  0.869890  1.0  -0.1186
  C  C332  1  0.847940  0.315680  0.865700  1.0  -0.1217
  C  C333  1  0.761640  0.363920  0.895730  1.0  -0.0767
  C  C334  1  0.757980  0.216770  0.829690  1.0  -0.1393
  C  C335  1  0.807550  0.384290  0.907350  1.0  -0.1233
  C  C336  1  0.797450  0.249650  0.822660  1.0  0.0455
  C  C337  1  0.145880  0.198010  0.294800  1.0  0.0469
  C  C338  1  0.062190  0.190780  0.430630  1.0  0.7061
  C  C339  1  0.107240  0.149410  0.360240  1.0  -0.0603
  C  C340  1  0.130110  0.241290  0.319600  1.0  -0.1185
  C  C341  1  0.134300  0.152060  0.315680  1.0  -0.1209
  C  C342  1  0.104270  0.238360  0.363920  1.0  -0.0743
  C  C343  1  0.170310  0.242020  0.216770  1.0  -0.1452
  C  C344  1  0.092650  0.192450  0.384290  1.0  -0.1249
  C  C345  1  0.177340  0.202550  0.249650  1.0  0.0444
  C  C346  1  0.854120  0.198010  0.705200  1.0  0.0465
  C  C347  1  0.937810  0.190780  0.569370  1.0  0.7058
  C  C348  1  0.892760  0.149410  0.639760  1.0  -0.0581
  C  C349  1  0.869890  0.241290  0.680400  1.0  -0.1174
  C  C350  1  0.865700  0.152060  0.684320  1.0  -0.12
  C  C351  1  0.895730  0.238360  0.636080  1.0  -0.0751
  C  C352  1  0.829690  0.242020  0.783230  1.0  -0.1434
  C  C353  1  0.907350  0.192450  0.615710  1.0  -0.1249
  C  C354  1  0.822660  0.202550  0.750350  1.0  0.0477
  C  C355  1  0.145880  0.801990  0.705200  1.0  0.0464
  C  C356  1  0.062190  0.809220  0.569370  1.0  0.7057
  C  C357  1  0.107240  0.850590  0.639760  1.0  -0.0589
  C  C358  1  0.130110  0.758710  0.680400  1.0  -0.118
  C  C359  1  0.134300  0.847940  0.684320  1.0  -0.1198
  C  C360  1  0.104270  0.761640  0.636080  1.0  -0.0741
  C  C361  1  0.170310  0.757980  0.783230  1.0  -0.1443
  C  C362  1  0.092650  0.807550  0.615710  1.0  -0.1245
  C  C363  1  0.177340  0.797450  0.750350  1.0  0.045
  C  C364  1  0.854120  0.801990  0.294800  1.0  0.0465
  C  C365  1  0.937810  0.809220  0.430630  1.0  0.7068
  C  C366  1  0.892760  0.850590  0.360240  1.0  -0.0578
  C  C367  1  0.869890  0.758710  0.319600  1.0  -0.1174
  C  C368  1  0.865700  0.847940  0.315680  1.0  -0.1214
  C  C369  1  0.895730  0.761640  0.363920  1.0  -0.0756
  C  C370  1  0.829690  0.757980  0.216770  1.0  -0.1431
  C  C371  1  0.907350  0.807550  0.384290  1.0  -0.1264
  C  C372  1  0.822660  0.797450  0.249650  1.0  0.0468
  C  C373  1  0.705200  0.854120  0.801990  1.0  0.0462
  C  C374  1  0.569370  0.937810  0.809220  1.0  0.7039
  C  C375  1  0.639760  0.892760  0.850590  1.0  -0.0637
  C  C376  1  0.680400  0.869890  0.758710  1.0  -0.119
  C  C377  1  0.684320  0.865700  0.847940  1.0  -0.1244
  C  C378  1  0.636080  0.895730  0.761640  1.0  -0.0782
  C  C379  1  0.783230  0.829690  0.757980  1.0  -0.1368
  C  C380  1  0.615710  0.907350  0.807550  1.0  -0.1244
  C  C381  1  0.750350  0.822660  0.797450  1.0  0.0445
  C  C382  1  0.294800  0.145880  0.801990  1.0  0.0457
  C  C383  1  0.430630  0.062190  0.809220  1.0  0.7041
  C  C384  1  0.360240  0.107240  0.850590  1.0  -0.0623
  C  C385  1  0.319600  0.130110  0.758710  1.0  -0.1191
  C  C386  1  0.315680  0.134300  0.847940  1.0  -0.1251
  C  C387  1  0.363920  0.104270  0.761640  1.0  -0.0804
  C  C388  1  0.216770  0.170310  0.757980  1.0  -0.1388
  C  C389  1  0.384290  0.092650  0.807550  1.0  -0.126
  C  C390  1  0.249650  0.177340  0.797450  1.0  0.0444
  C  C391  1  0.294800  0.854120  0.198010  1.0  0.0455
  C  C392  1  0.430630  0.937810  0.190780  1.0  0.7046
  C  C393  1  0.360240  0.892760  0.149410  1.0  -0.0617
  C  C394  1  0.319600  0.869890  0.241290  1.0  -0.1197
  C  C395  1  0.315680  0.865700  0.152060  1.0  -0.124
  C  C396  1  0.363920  0.895730  0.238360  1.0  -0.0785
  C  C397  1  0.216770  0.829690  0.242020  1.0  -0.1377
  C  C398  1  0.384290  0.907350  0.192450  1.0  -0.1252
  C  C399  1  0.249650  0.822660  0.202550  1.0  0.0454
  C  C400  1  0.705200  0.145880  0.198010  1.0  0.0451
  C  C401  1  0.569370  0.062190  0.190780  1.0  0.7051
  C  C402  1  0.639760  0.107240  0.149410  1.0  -0.0622
  C  C403  1  0.680400  0.130110  0.241290  1.0  -0.118
  C  C404  1  0.684320  0.134300  0.152060  1.0  -0.1266
  C  C405  1  0.636080  0.104270  0.238360  1.0  -0.0788
  C  C406  1  0.783230  0.170310  0.242020  1.0  -0.1374
  C  C407  1  0.615710  0.092650  0.192450  1.0  -0.1253
  C  C408  1  0.750350  0.177340  0.202550  1.0  0.0435
  C  C409  1  0.801990  0.705200  0.854120  1.0  0.0476
  C  C410  1  0.809220  0.569370  0.937810  1.0  0.7052
  C  C411  1  0.850590  0.639760  0.892760  1.0  -0.0589
  C  C412  1  0.758710  0.680400  0.869890  1.0  -0.1179
  C  C413  1  0.847940  0.684320  0.865700  1.0  -0.1211
  C  C414  1  0.761640  0.636080  0.895730  1.0  -0.0764
  C  C415  1  0.757980  0.783230  0.829690  1.0  -0.1391
  C  C416  1  0.807550  0.615710  0.907350  1.0  -0.1235
  C  C417  1  0.797450  0.750350  0.822660  1.0  0.0433
  C  C418  1  0.801990  0.294800  0.145880  1.0  0.045
  C  C419  1  0.809220  0.430630  0.062190  1.0  0.7055
  C  C420  1  0.850590  0.360240  0.107240  1.0  -0.0575
  C  C421  1  0.758710  0.319600  0.130110  1.0  -0.1169
  C  C422  1  0.847940  0.315680  0.134300  1.0  -0.1217
  C  C423  1  0.761640  0.363920  0.104270  1.0  -0.0749
  C  C424  1  0.757980  0.216770  0.170310  1.0  -0.1422
  C  C425  1  0.807550  0.384290  0.092650  1.0  -0.123
  C  C426  1  0.797450  0.249650  0.177340  1.0  0.0415
  C  C427  1  0.198010  0.294800  0.854120  1.0  0.046
  C  C428  1  0.190780  0.430630  0.937810  1.0  0.7062
  C  C429  1  0.149410  0.360240  0.892760  1.0  -0.0586
  C  C430  1  0.241290  0.319600  0.869890  1.0  -0.1188
  C  C431  1  0.152060  0.315680  0.865700  1.0  -0.1206
  C  C432  1  0.238360  0.363920  0.895730  1.0  -0.0784
  C  C433  1  0.242020  0.216770  0.829690  1.0  -0.1416
  C  C434  1  0.192450  0.384290  0.907350  1.0  -0.1229
  C  C435  1  0.202550  0.249650  0.822660  1.0  0.0453
  C  C436  1  0.198010  0.705200  0.145880  1.0  0.0485
  C  C437  1  0.190780  0.569370  0.062190  1.0  0.7066
  C  C438  1  0.149410  0.639760  0.107240  1.0  -0.0581
  C  C439  1  0.241290  0.680400  0.130110  1.0  -0.1171
  C  C440  1  0.152060  0.684320  0.134300  1.0  -0.1218
  C  C441  1  0.238360  0.636080  0.104270  1.0  -0.0759
  C  C442  1  0.242020  0.783230  0.170310  1.0  -0.1421
  C  C443  1  0.192450  0.615710  0.092650  1.0  -0.1241
  C  C444  1  0.202550  0.750350  0.177340  1.0  0.0417
  C  C445  1  0.854120  0.801990  0.705200  1.0  0.0455
  C  C446  1  0.937810  0.809220  0.569370  1.0  0.7067
  C  C447  1  0.892760  0.850590  0.639760  1.0  -0.058
  C  C448  1  0.869890  0.758710  0.680400  1.0  -0.1169
  C  C449  1  0.865700  0.847940  0.684320  1.0  -0.1203
  C  C450  1  0.895730  0.761640  0.636080  1.0  -0.0756
  C  C451  1  0.829690  0.757980  0.783230  1.0  -0.1419
  C  C452  1  0.907350  0.807550  0.615710  1.0  -0.1248
  C  C453  1  0.822660  0.797450  0.750350  1.0  0.0476
  C  C454  1  0.145880  0.801990  0.294800  1.0  0.047
  C  C455  1  0.062190  0.809220  0.430630  1.0  0.7058
  C  C456  1  0.107240  0.850590  0.360240  1.0  -0.0587
  C  C457  1  0.130110  0.758710  0.319600  1.0  -0.1179
  C  C458  1  0.134300  0.847940  0.315680  1.0  -0.1205
  C  C459  1  0.104270  0.761640  0.363920  1.0  -0.0745
  C  C460  1  0.170310  0.757980  0.216770  1.0  -0.1447
  C  C461  1  0.092650  0.807550  0.384290  1.0  -0.125
  C  C462  1  0.177340  0.797450  0.249650  1.0  0.0452
  C  C463  1  0.854120  0.198010  0.294800  1.0  0.0468
  C  C464  1  0.937810  0.190780  0.430630  1.0  0.7059
  C  C465  1  0.892760  0.149410  0.360240  1.0  -0.0581
  C  C466  1  0.869890  0.241290  0.319600  1.0  -0.1179
  C  C467  1  0.865700  0.152060  0.315680  1.0  -0.1205
  C  C468  1  0.895730  0.238360  0.363920  1.0  -0.0759
  C  C469  1  0.829690  0.242020  0.216770  1.0  -0.1428
  C  C470  1  0.907350  0.192450  0.384290  1.0  -0.1263
  C  C471  1  0.822660  0.202550  0.249650  1.0  0.046
  C  C472  1  0.145880  0.198010  0.705200  1.0  0.0465
  C  C473  1  0.062190  0.190780  0.569370  1.0  0.7059
  C  C474  1  0.107240  0.149410  0.639760  1.0  -0.0604
  C  C475  1  0.130110  0.241290  0.680400  1.0  -0.1185
  C  C476  1  0.134300  0.152060  0.684320  1.0  -0.1205
  C  C477  1  0.104270  0.238360  0.636080  1.0  -0.073
  C  C478  1  0.170310  0.242020  0.783230  1.0  -0.1465
  C  C479  1  0.092650  0.192450  0.615710  1.0  -0.1247
  C  C480  1  0.177340  0.202550  0.750350  1.0  0.0455
  C  C481  1  0.794800  0.645880  0.698010  1.0  0.0446
  C  C482  1  0.930630  0.562190  0.690780  1.0  0.7048
  C  C483  1  0.860240  0.607240  0.649410  1.0  -0.0615
  C  C484  1  0.819600  0.630110  0.741290  1.0  -0.1198
  C  C485  1  0.815680  0.634300  0.652060  1.0  -0.1241
  C  C486  1  0.863920  0.604270  0.738360  1.0  -0.0796
  C  C487  1  0.716770  0.670310  0.742020  1.0  -0.1382
  C  C488  1  0.884290  0.592650  0.692450  1.0  -0.1258
  C  C489  1  0.749650  0.677340  0.702550  1.0  0.0433
  C  C490  1  0.205200  0.354120  0.698010  1.0  0.0463
  C  C491  1  0.069370  0.437810  0.690780  1.0  0.7047
  C  C492  1  0.139760  0.392760  0.649410  1.0  -0.0625
  C  C493  1  0.180400  0.369890  0.741290  1.0  -0.1185
  C  C494  1  0.184320  0.365700  0.652060  1.0  -0.1259
  C  C495  1  0.136080  0.395730  0.738360  1.0  -0.078
  C  C496  1  0.283230  0.329690  0.742020  1.0  -0.1375
  C  C497  1  0.115710  0.407350  0.692450  1.0  -0.1243
  C  C498  1  0.250350  0.322660  0.702550  1.0  0.0454
  C  C499  1  0.205200  0.645880  0.301990  1.0  0.046
  C  C500  1  0.069370  0.562190  0.309220  1.0  0.7041
  C  C501  1  0.139760  0.607240  0.350590  1.0  -0.0632
  C  C502  1  0.180400  0.630110  0.258710  1.0  -0.1178
  C  C503  1  0.184320  0.634300  0.347940  1.0  -0.1258
  C  C504  1  0.136080  0.604270  0.261640  1.0  -0.0794
  C  C505  1  0.283230  0.670310  0.257980  1.0  -0.1381
  C  C506  1  0.115710  0.592650  0.307550  1.0  -0.1254
  C  C507  1  0.250350  0.677340  0.297450  1.0  0.0445
  C  C508  1  0.794800  0.354120  0.301990  1.0  0.0461
  C  C509  1  0.930630  0.437810  0.309220  1.0  0.7053
  C  C510  1  0.860240  0.392760  0.350590  1.0  -0.0627
  C  C511  1  0.819600  0.369890  0.258710  1.0  -0.12
  C  C512  1  0.815680  0.365700  0.347940  1.0  -0.1246
  C  C513  1  0.863920  0.395730  0.261640  1.0  -0.0794
  C  C514  1  0.716770  0.329690  0.257980  1.0  -0.1373
  C  C515  1  0.884290  0.407350  0.307550  1.0  -0.1254
  C  C516  1  0.749650  0.322660  0.297450  1.0  0.0437
  C  C517  1  0.698010  0.794800  0.645880  1.0  0.0453
  C  C518  1  0.690780  0.930630  0.562190  1.0  0.7063
  C  C519  1  0.649410  0.860240  0.607240  1.0  -0.0583
  C  C520  1  0.741290  0.819600  0.630110  1.0  -0.1177
  C  C521  1  0.652060  0.815680  0.634300  1.0  -0.1209
  C  C522  1  0.738360  0.863920  0.604270  1.0  -0.0776
  C  C523  1  0.742020  0.716770  0.670310  1.0  -0.143
  C  C524  1  0.692450  0.884290  0.592650  1.0  -0.1229
  C  C525  1  0.702550  0.749650  0.677340  1.0  0.0417
  C  C526  1  0.698010  0.205200  0.354120  1.0  0.0457
  C  C527  1  0.690780  0.069370  0.437810  1.0  0.7063
  C  C528  1  0.649410  0.139760  0.392760  1.0  -0.0583
  C  C529  1  0.741290  0.180400  0.369890  1.0  -0.118
  C  C530  1  0.652060  0.184320  0.365700  1.0  -0.1218
  C  C531  1  0.738360  0.136080  0.395730  1.0  -0.0763
  C  C532  1  0.742020  0.283230  0.329690  1.0  -0.1405
  C  C533  1  0.692450  0.115710  0.407350  1.0  -0.1233
  C  C534  1  0.702550  0.250350  0.322660  1.0  0.0438
  C  C535  1  0.301990  0.205200  0.645880  1.0  0.0472
  C  C536  1  0.309220  0.069370  0.562190  1.0  0.7053
  C  C537  1  0.350590  0.139760  0.607240  1.0  -0.0592
  C  C538  1  0.258710  0.180400  0.630110  1.0  -0.1162
  C  C539  1  0.347940  0.184320  0.634300  1.0  -0.121
  C  C540  1  0.261640  0.136080  0.604270  1.0  -0.0758
  C  C541  1  0.257980  0.283230  0.670310  1.0  -0.1412
  C  C542  1  0.307550  0.115710  0.592650  1.0  -0.1242
  C  C543  1  0.297450  0.250350  0.677340  1.0  0.0414
  C  C544  1  0.301990  0.794800  0.354120  1.0  0.0476
  C  C545  1  0.309220  0.930630  0.437810  1.0  0.7052
  C  C546  1  0.350590  0.860240  0.392760  1.0  -0.0573
  C  C547  1  0.258710  0.819600  0.369890  1.0  -0.1186
  C  C548  1  0.347940  0.815680  0.365700  1.0  -0.1217
  C  C549  1  0.261640  0.863920  0.395730  1.0  -0.0767
  C  C550  1  0.257980  0.716770  0.329690  1.0  -0.1393
  C  C551  1  0.307550  0.884290  0.407350  1.0  -0.1233
  C  C552  1  0.297450  0.749650  0.322660  1.0  0.0455
  C  C553  1  0.645880  0.698010  0.794800  1.0  0.0469
  C  C554  1  0.562190  0.690780  0.930630  1.0  0.7061
  C  C555  1  0.607240  0.649410  0.860240  1.0  -0.0603
  C  C556  1  0.630110  0.741290  0.819600  1.0  -0.1185
  C  C557  1  0.634300  0.652060  0.815680  1.0  -0.1209
  C  C558  1  0.604270  0.738360  0.863920  1.0  -0.0743
  C  C559  1  0.670310  0.742020  0.716770  1.0  -0.1452
  C  C560  1  0.592650  0.692450  0.884290  1.0  -0.1249
  C  C561  1  0.677340  0.702550  0.749650  1.0  0.0444
  C  C562  1  0.354120  0.698010  0.205200  1.0  0.0465
  C  C563  1  0.437810  0.690780  0.069370  1.0  0.7057
  C  C564  1  0.392760  0.649410  0.139760  1.0  -0.0581
  C  C565  1  0.369890  0.741290  0.180400  1.0  -0.1174
  C  C566  1  0.365700  0.652060  0.184320  1.0  -0.12
  C  C567  1  0.395730  0.738360  0.136080  1.0  -0.0751
  C  C568  1  0.329690  0.742020  0.283230  1.0  -0.1434
  C  C569  1  0.407350  0.692450  0.115710  1.0  -0.1249
  C  C570  1  0.322660  0.702550  0.250350  1.0  0.0477
  C  C571  1  0.645880  0.301990  0.205200  1.0  0.0464
  C  C572  1  0.562190  0.309220  0.069370  1.0  0.7057
  C  C573  1  0.607240  0.350590  0.139760  1.0  -0.0589
  C  C574  1  0.630110  0.258710  0.180400  1.0  -0.118
  C  C575  1  0.634300  0.347940  0.184320  1.0  -0.1198
  C  C576  1  0.604270  0.261640  0.136080  1.0  -0.0741
  C  C577  1  0.670310  0.257980  0.283230  1.0  -0.1443
  C  C578  1  0.592650  0.307550  0.115710  1.0  -0.1245
  C  C579  1  0.677340  0.297450  0.250350  1.0  0.045
  C  C580  1  0.354120  0.301990  0.794800  1.0  0.0465
  C  C581  1  0.437810  0.309220  0.930630  1.0  0.7068
  C  C582  1  0.392760  0.350590  0.860240  1.0  -0.0578
  C  C583  1  0.369890  0.258710  0.819600  1.0  -0.1174
  C  C584  1  0.365700  0.347940  0.815680  1.0  -0.1214
  C  C585  1  0.395730  0.261640  0.863920  1.0  -0.0756
  C  C586  1  0.329690  0.257980  0.716770  1.0  -0.1431
  C  C587  1  0.407350  0.307550  0.884290  1.0  -0.1264
  C  C588  1  0.322660  0.297450  0.749650  1.0  0.0468
  C  C589  1  0.205200  0.354120  0.301990  1.0  0.0462
  C  C590  1  0.069370  0.437810  0.309220  1.0  0.704
  C  C591  1  0.139760  0.392760  0.350590  1.0  -0.0637
  C  C592  1  0.180400  0.369890  0.258710  1.0  -0.119
  C  C593  1  0.184320  0.365700  0.347940  1.0  -0.1244
  C  C594  1  0.136080  0.395730  0.261640  1.0  -0.0782
  C  C595  1  0.283230  0.329690  0.257980  1.0  -0.1368
  C  C596  1  0.115710  0.407350  0.307550  1.0  -0.1244
  C  C597  1  0.250350  0.322660  0.297450  1.0  0.0445
  C  C598  1  0.794800  0.645880  0.301990  1.0  0.0457
  C  C599  1  0.930630  0.562190  0.309220  1.0  0.7052
  C  C600  1  0.860240  0.607240  0.350590  1.0  -0.0623
  C  C601  1  0.819600  0.630110  0.258710  1.0  -0.1191
  C  C602  1  0.815680  0.634300  0.347940  1.0  -0.1251
  C  C603  1  0.863920  0.604270  0.261640  1.0  -0.0804
  C  C604  1  0.716770  0.670310  0.257980  1.0  -0.1388
  C  C605  1  0.884290  0.592650  0.307550  1.0  -0.126
  C  C606  1  0.749650  0.677340  0.297450  1.0  0.0444
  C  C607  1  0.794800  0.354120  0.698010  1.0  0.0455
  C  C608  1  0.930630  0.437810  0.690780  1.0  0.7046
  C  C609  1  0.860240  0.392760  0.649410  1.0  -0.0617
  C  C610  1  0.819600  0.369890  0.741290  1.0  -0.1197
  C  C611  1  0.815680  0.365700  0.652060  1.0  -0.124
  C  C612  1  0.863920  0.395730  0.738360  1.0  -0.0785
  C  C613  1  0.716770  0.329690  0.742020  1.0  -0.1377
  C  C614  1  0.884290  0.407350  0.692450  1.0  -0.1252
  C  C615  1  0.749650  0.322660  0.702550  1.0  0.0454
  C  C616  1  0.205200  0.645880  0.698010  1.0  0.0451
  C  C617  1  0.069370  0.562190  0.690780  1.0  0.7051
  C  C618  1  0.139760  0.607240  0.649410  1.0  -0.0622
  C  C619  1  0.180400  0.630110  0.741290  1.0  -0.118
  C  C620  1  0.184320  0.634300  0.652060  1.0  -0.1266
  C  C621  1  0.136080  0.604270  0.738360  1.0  -0.0788
  C  C622  1  0.283230  0.670310  0.742020  1.0  -0.1374
  C  C623  1  0.115710  0.592650  0.692450  1.0  -0.1253
  C  C624  1  0.250350  0.677340  0.702550  1.0  0.0435
  C  C625  1  0.301990  0.205200  0.354120  1.0  0.0476
  C  C626  1  0.309220  0.069370  0.437810  1.0  0.7052
  C  C627  1  0.350590  0.139760  0.392760  1.0  -0.0589
  C  C628  1  0.258710  0.180400  0.369890  1.0  -0.1179
  C  C629  1  0.347940  0.184320  0.365700  1.0  -0.1211
  C  C630  1  0.261640  0.136080  0.395730  1.0  -0.0764
  C  C631  1  0.257980  0.283230  0.329690  1.0  -0.1391
  C  C632  1  0.307550  0.115710  0.407350  1.0  -0.1235
  C  C633  1  0.297450  0.250350  0.322660  1.0  0.0433
  C  C634  1  0.301990  0.794800  0.645880  1.0  0.045
  C  C635  1  0.309220  0.930630  0.562190  1.0  0.7053
  C  C636  1  0.350590  0.860240  0.607240  1.0  -0.0575
  C  C637  1  0.258710  0.819600  0.630110  1.0  -0.1169
  C  C638  1  0.347940  0.815680  0.634300  1.0  -0.1217
  C  C639  1  0.261640  0.863920  0.604270  1.0  -0.0749
  C  C640  1  0.257980  0.716770  0.670310  1.0  -0.1422
  C  C641  1  0.307550  0.884290  0.592650  1.0  -0.123
  C  C642  1  0.297450  0.749650  0.677340  1.0  0.0415
  C  C643  1  0.698010  0.794800  0.354120  1.0  0.046
  C  C644  1  0.690780  0.930630  0.437810  1.0  0.7062
  C  C645  1  0.649410  0.860240  0.392760  1.0  -0.0586
  C  C646  1  0.741290  0.819600  0.369890  1.0  -0.1188
  C  C647  1  0.652060  0.815680  0.365700  1.0  -0.1206
  C  C648  1  0.738360  0.863920  0.395730  1.0  -0.0784
  C  C649  1  0.742020  0.716770  0.329690  1.0  -0.1416
  C  C650  1  0.692450  0.884290  0.407350  1.0  -0.1229
  C  C651  1  0.702550  0.749650  0.322660  1.0  0.0453
  C  C652  1  0.698010  0.205200  0.645880  1.0  0.0485
  C  C653  1  0.690780  0.069370  0.562190  1.0  0.7066
  C  C654  1  0.649410  0.139760  0.607240  1.0  -0.0581
  C  C655  1  0.741290  0.180400  0.630110  1.0  -0.1171
  C  C656  1  0.652060  0.184320  0.634300  1.0  -0.1218
  C  C657  1  0.738360  0.136080  0.604270  1.0  -0.0759
  C  C658  1  0.742020  0.283230  0.670310  1.0  -0.1421
  C  C659  1  0.692450  0.115710  0.592650  1.0  -0.1241
  C  C660  1  0.702550  0.250350  0.677340  1.0  0.0417
  C  C661  1  0.354120  0.301990  0.205200  1.0  0.0455
  C  C662  1  0.437810  0.309220  0.069370  1.0  0.7055
  C  C663  1  0.392760  0.350590  0.139760  1.0  -0.058
  C  C664  1  0.369890  0.258710  0.180400  1.0  -0.1169
  C  C665  1  0.365700  0.347940  0.184320  1.0  -0.1203
  C  C666  1  0.395730  0.261640  0.136080  1.0  -0.0756
  C  C667  1  0.329690  0.257980  0.283230  1.0  -0.1419
  C  C668  1  0.407350  0.307550  0.115710  1.0  -0.1248
  C  C669  1  0.322660  0.297450  0.250350  1.0  0.0476
  C  C670  1  0.645880  0.301990  0.794800  1.0  0.047
  C  C671  1  0.562190  0.309220  0.930630  1.0  0.7057
  C  C672  1  0.607240  0.350590  0.860240  1.0  -0.0587
  C  C673  1  0.630110  0.258710  0.819600  1.0  -0.1179
  C  C674  1  0.634300  0.347940  0.815680  1.0  -0.1205
  C  C675  1  0.604270  0.261640  0.863920  1.0  -0.0745
  C  C676  1  0.670310  0.257980  0.716770  1.0  -0.1447
  C  C677  1  0.592650  0.307550  0.884290  1.0  -0.125
  C  C678  1  0.677340  0.297450  0.749650  1.0  0.0452
  C  C679  1  0.354120  0.698010  0.794800  1.0  0.0468
  C  C680  1  0.437810  0.690780  0.930630  1.0  0.7059
  C  C681  1  0.392760  0.649410  0.860240  1.0  -0.0581
  C  C682  1  0.369890  0.741290  0.819600  1.0  -0.1179
  C  C683  1  0.365700  0.652060  0.815680  1.0  -0.1205
  C  C684  1  0.395730  0.738360  0.863920  1.0  -0.0759
  C  C685  1  0.329690  0.742020  0.716770  1.0  -0.1428
  C  C686  1  0.407350  0.692450  0.884290  1.0  -0.1263
  C  C687  1  0.322660  0.702550  0.749650  1.0  0.046
  C  C688  1  0.645880  0.698010  0.205200  1.0  0.0465
  C  C689  1  0.562190  0.690780  0.069370  1.0  0.7059
  C  C690  1  0.607240  0.649410  0.139760  1.0  -0.0604
  C  C691  1  0.630110  0.741290  0.180400  1.0  -0.1185
  C  C692  1  0.634300  0.652060  0.184320  1.0  -0.1205
  C  C693  1  0.604270  0.738360  0.136080  1.0  -0.073
  C  C694  1  0.670310  0.742020  0.283230  1.0  -0.1465
  C  C695  1  0.592650  0.692450  0.115710  1.0  -0.1247
  C  C696  1  0.677340  0.702550  0.250350  1.0  0.0455
  O  O697  1  0.447670  0.050160  0.148890  1.0  -0.5772
  O  O698  1  0.448440  0.049380  0.231540  1.0  -0.5792
  O  O699  1  0.552330  0.949840  0.148890  1.0  -0.5769
  O  O700  1  0.551560  0.950620  0.231540  1.0  -0.5787
  O  O701  1  0.552330  0.050160  0.851110  1.0  -0.5761
  O  O702  1  0.551560  0.049380  0.768460  1.0  -0.5787
  O  O703  1  0.447670  0.949840  0.851110  1.0  -0.5761
  O  O704  1  0.448440  0.950620  0.768460  1.0  -0.5793
  O  O705  1  0.148890  0.447670  0.050160  1.0  -0.5774
  O  O706  1  0.231540  0.448440  0.049380  1.0  -0.5783
  O  O707  1  0.148890  0.552330  0.949840  1.0  -0.5774
  O  O708  1  0.231540  0.551560  0.950620  1.0  -0.5782
  O  O709  1  0.851110  0.552330  0.050160  1.0  -0.578
  O  O710  1  0.768460  0.551560  0.049380  1.0  -0.5774
  O  O711  1  0.851110  0.447670  0.949840  1.0  -0.5787
  O  O712  1  0.768460  0.448440  0.950620  1.0  -0.5773
  O  O713  1  0.050160  0.148890  0.447670  1.0  -0.5809
  O  O714  1  0.049380  0.231540  0.448440  1.0  -0.5787
  O  O715  1  0.949840  0.148890  0.552330  1.0  -0.5801
  O  O716  1  0.950620  0.231540  0.551560  1.0  -0.5796
  O  O717  1  0.050160  0.851110  0.552330  1.0  -0.5794
  O  O718  1  0.049380  0.768460  0.551560  1.0  -0.5798
  O  O719  1  0.949840  0.851110  0.447670  1.0  -0.58
  O  O720  1  0.950620  0.768460  0.448440  1.0  -0.5792
  O  O721  1  0.552330  0.949840  0.851110  1.0  -0.5767
  O  O722  1  0.551560  0.950620  0.768460  1.0  -0.5779
  O  O723  1  0.447670  0.050160  0.851110  1.0  -0.5765
  O  O724  1  0.448440  0.049380  0.768460  1.0  -0.5802
  O  O725  1  0.447670  0.949840  0.148890  1.0  -0.5769
  O  O726  1  0.448440  0.950620  0.231540  1.0  -0.5788
  O  O727  1  0.552330  0.050160  0.148890  1.0  -0.5757
  O  O728  1  0.551560  0.049380  0.231540  1.0  -0.5792
  O  O729  1  0.851110  0.552330  0.949840  1.0  -0.5785
  O  O730  1  0.768460  0.551560  0.950620  1.0  -0.5773
  O  O731  1  0.851110  0.447670  0.050160  1.0  -0.5784
  O  O732  1  0.768460  0.448440  0.049380  1.0  -0.5773
  O  O733  1  0.148890  0.447670  0.949840  1.0  -0.5775
  O  O734  1  0.231540  0.448440  0.950620  1.0  -0.5783
  O  O735  1  0.148890  0.552330  0.050160  1.0  -0.5775
  O  O736  1  0.231540  0.551560  0.049380  1.0  -0.5783
  O  O737  1  0.949840  0.851110  0.552330  1.0  -0.5801
  O  O738  1  0.950620  0.768460  0.551560  1.0  -0.5797
  O  O739  1  0.050160  0.851110  0.447670  1.0  -0.5795
  O  O740  1  0.049380  0.768460  0.448440  1.0  -0.5794
  O  O741  1  0.949840  0.148890  0.447670  1.0  -0.5802
  O  O742  1  0.950620  0.231540  0.448440  1.0  -0.5794
  O  O743  1  0.050160  0.148890  0.552330  1.0  -0.5808
  O  O744  1  0.049380  0.231540  0.551560  1.0  -0.5791
  O  O745  1  0.947670  0.550160  0.648890  1.0  -0.5772
  O  O746  1  0.948440  0.549380  0.731540  1.0  -0.5792
  O  O747  1  0.052330  0.449840  0.648890  1.0  -0.5769
  O  O748  1  0.051560  0.450620  0.731540  1.0  -0.5787
  O  O749  1  0.052330  0.550160  0.351110  1.0  -0.5761
  O  O750  1  0.051560  0.549380  0.268460  1.0  -0.5787
  O  O751  1  0.947670  0.449840  0.351110  1.0  -0.5761
  O  O752  1  0.948440  0.450620  0.268460  1.0  -0.5793
  O  O753  1  0.648890  0.947670  0.550160  1.0  -0.5774
  O  O754  1  0.731540  0.948440  0.549380  1.0  -0.5783
  O  O755  1  0.648890  0.052330  0.449840  1.0  -0.5774
  O  O756  1  0.731540  0.051560  0.450620  1.0  -0.5782
  O  O757  1  0.351110  0.052330  0.550160  1.0  -0.578
  O  O758  1  0.268460  0.051560  0.549380  1.0  -0.5774
  O  O759  1  0.351110  0.947670  0.449840  1.0  -0.5773
  O  O760  1  0.268460  0.948440  0.450620  1.0  -0.5773
  O  O761  1  0.550160  0.648890  0.947670  1.0  -0.5809
  O  O762  1  0.549380  0.731540  0.948440  1.0  -0.5787
  O  O763  1  0.449840  0.648890  0.052330  1.0  -0.5801
  O  O764  1  0.450620  0.731540  0.051560  1.0  -0.5796
  O  O765  1  0.550160  0.351110  0.052330  1.0  -0.5794
  O  O766  1  0.549380  0.268460  0.051560  1.0  -0.5798
  O  O767  1  0.449840  0.351110  0.947670  1.0  -0.58
  O  O768  1  0.450620  0.268460  0.948440  1.0  -0.5792
  O  O769  1  0.052330  0.449840  0.351110  1.0  -0.5767
  O  O770  1  0.051560  0.450620  0.268460  1.0  -0.5779
  O  O771  1  0.947670  0.550160  0.351110  1.0  -0.5765
  O  O772  1  0.948440  0.549380  0.268460  1.0  -0.5802
  O  O773  1  0.947670  0.449840  0.648890  1.0  -0.5769
  O  O774  1  0.948440  0.450620  0.731540  1.0  -0.5788
  O  O775  1  0.052330  0.550160  0.648890  1.0  -0.5757
  O  O776  1  0.051560  0.549380  0.731540  1.0  -0.5792
  O  O777  1  0.351110  0.052330  0.449840  1.0  -0.5785
  O  O778  1  0.268460  0.051560  0.450620  1.0  -0.5773
  O  O779  1  0.351110  0.947670  0.550160  1.0  -0.5784
  O  O780  1  0.268460  0.948440  0.549380  1.0  -0.5773
  O  O781  1  0.648890  0.947670  0.449840  1.0  -0.5775
  O  O782  1  0.731540  0.948440  0.450620  1.0  -0.5783
  O  O783  1  0.648890  0.052330  0.550160  1.0  -0.5775
  O  O784  1  0.731540  0.051560  0.549380  1.0  -0.5783
  O  O785  1  0.449840  0.351110  0.052330  1.0  -0.5801
  O  O786  1  0.450620  0.268460  0.051560  1.0  -0.5797
  O  O787  1  0.550160  0.351110  0.947670  1.0  -0.5795
  O  O788  1  0.549380  0.268460  0.948440  1.0  -0.5794
  O  O789  1  0.449840  0.648890  0.947670  1.0  -0.5802
  O  O790  1  0.450620  0.731540  0.948440  1.0  -0.5794
  O  O791  1  0.550160  0.648890  0.052330  1.0  -0.5808
  O  O792  1  0.549380  0.731540  0.051560  1.0  -0.5791
