# generated using pymatgen
data_CuH10(C9O2)2
_symmetry_space_group_name_H-M   'P 1'
_cell_length_a   26.99000000
_cell_length_b   26.99000000
_cell_length_c   26.99000000
_cell_angle_alpha   90.00000000
_cell_angle_beta   90.00000000
_cell_angle_gamma   90.00000000
_symmetry_Int_Tables_number   1
_chemical_formula_structural   CuH10(C9O2)2
_chemical_formula_sum   'Cu24 H240 C432 O96'
_cell_volume   19661.13809900
_cell_formula_units_Z   24
loop_
 _symmetry_equiv_pos_site_id
 _symmetry_equiv_pos_as_xyz
  1  'x, y, z'
loop_
 _atom_site_type_symbol
 _atom_site_label
 _atom_site_symmetry_multiplicity
 _atom_site_fract_x
 _atom_site_fract_y
 _atom_site_fract_z
 _atom_site_occupancy
 _atom_site_charge
  Cu  Cu1  1  0.500000  0.000000  0.144380  1.0  0.9005
  Cu  Cu2  1  0.500000  0.000000  0.240260  1.0  0.9079
  Cu  Cu3  1  0.500000  0.000000  0.855620  1.0  0.9011
  Cu  Cu4  1  0.500000  0.000000  0.759740  1.0  0.9091
  Cu  Cu5  1  0.144380  0.500000  0.000000  1.0  0.9007
  Cu  Cu6  1  0.240260  0.500000  0.000000  1.0  0.9107
  Cu  Cu7  1  0.855620  0.500000  0.000000  1.0  0.9013
  Cu  Cu8  1  0.759740  0.500000  0.000000  1.0  0.9098
  Cu  Cu9  1  0.000000  0.144380  0.500000  1.0  0.9021
  Cu  Cu10  1  0.000000  0.240260  0.500000  1.0  0.91
  Cu  Cu11  1  0.000000  0.855620  0.500000  1.0  0.9008
  Cu  Cu12  1  0.000000  0.759740  0.500000  1.0  0.9115
  Cu  Cu13  1  0.000000  0.500000  0.644380  1.0  0.9005
  Cu  Cu14  1  0.000000  0.500000  0.740260  1.0  0.9079
  Cu  Cu15  1  0.000000  0.500000  0.355620  1.0  0.9011
  Cu  Cu16  1  0.000000  0.500000  0.259740  1.0  0.9091
  Cu  Cu17  1  0.644380  0.000000  0.500000  1.0  0.9007
  Cu  Cu18  1  0.740260  0.000000  0.500000  1.0  0.9107
  Cu  Cu19  1  0.355620  0.000000  0.500000  1.0  0.9013
  Cu  Cu20  1  0.259740  0.000000  0.500000  1.0  0.9098
  Cu  Cu21  1  0.500000  0.644380  0.000000  1.0  0.9021
  Cu  Cu22  1  0.500000  0.740260  0.000000  1.0  0.91
  Cu  Cu23  1  0.500000  0.355620  0.000000  1.0  0.9008
  Cu  Cu24  1  0.500000  0.259740  0.000000  1.0  0.9115
  H  H25  1  0.373800  0.098900  0.118100  1.0  0.1025
  H  H26  1  0.305800  0.137200  0.273000  1.0  0.0997
  H  H27  1  0.300000  0.145000  0.122400  1.0  0.1166
  H  H28  1  0.380500  0.094400  0.267800  1.0  0.1111
  H  H29  1  0.221400  0.143100  0.263900  1.0  0.1071
  H  H30  1  0.626200  0.901100  0.118100  1.0  0.103
  H  H31  1  0.694200  0.862800  0.273000  1.0  0.1001
  H  H32  1  0.700000  0.855000  0.122400  1.0  0.1165
  H  H33  1  0.619500  0.905600  0.267800  1.0  0.1114
  H  H34  1  0.778600  0.856900  0.263900  1.0  0.1061
  H  H35  1  0.626200  0.098900  0.881900  1.0  0.1022
  H  H36  1  0.694200  0.137200  0.727000  1.0  0.0997
  H  H37  1  0.700000  0.145000  0.877600  1.0  0.1172
  H  H38  1  0.619500  0.094400  0.732200  1.0  0.1114
  H  H39  1  0.778600  0.143100  0.736100  1.0  0.1073
  H  H40  1  0.373800  0.901100  0.881900  1.0  0.102
  H  H41  1  0.305800  0.862800  0.727000  1.0  0.1007
  H  H42  1  0.300000  0.855000  0.877600  1.0  0.1168
  H  H43  1  0.380500  0.905600  0.732200  1.0  0.1113
  H  H44  1  0.221400  0.856900  0.736100  1.0  0.1065
  H  H45  1  0.118100  0.373800  0.098900  1.0  0.1033
  H  H46  1  0.273000  0.305800  0.137200  1.0  0.1026
  H  H47  1  0.122400  0.300000  0.145000  1.0  0.1173
  H  H48  1  0.267800  0.380500  0.094400  1.0  0.1109
  H  H49  1  0.263900  0.221400  0.143100  1.0  0.1095
  H  H50  1  0.118100  0.626200  0.901100  1.0  0.1034
  H  H51  1  0.273000  0.694200  0.862800  1.0  0.1024
  H  H52  1  0.122400  0.700000  0.855000  1.0  0.1179
  H  H53  1  0.267800  0.619500  0.905600  1.0  0.1108
  H  H54  1  0.263900  0.778600  0.856900  1.0  0.1093
  H  H55  1  0.881900  0.626200  0.098900  1.0  0.104
  H  H56  1  0.727000  0.694200  0.137200  1.0  0.1023
  H  H57  1  0.877600  0.700000  0.145000  1.0  0.1173
  H  H58  1  0.732200  0.619500  0.094400  1.0  0.1107
  H  H59  1  0.736100  0.778600  0.143100  1.0  0.1104
  H  H60  1  0.881900  0.373800  0.901100  1.0  0.1041
  H  H61  1  0.727000  0.305800  0.862800  1.0  0.1025
  H  H62  1  0.877600  0.300000  0.855000  1.0  0.1169
  H  H63  1  0.732200  0.380500  0.905600  1.0  0.1108
  H  H64  1  0.736100  0.221400  0.856900  1.0  0.1095
  H  H65  1  0.098900  0.118100  0.373800  1.0  0.1031
  H  H66  1  0.137200  0.273000  0.305800  1.0  0.1004
  H  H67  1  0.145000  0.122400  0.300000  1.0  0.1148
  H  H68  1  0.094400  0.267800  0.380500  1.0  0.1111
  H  H69  1  0.143100  0.263900  0.221400  1.0  0.1086
  H  H70  1  0.901100  0.118100  0.626200  1.0  0.1034
  H  H71  1  0.862800  0.273000  0.694200  1.0  0.1006
  H  H72  1  0.855000  0.122400  0.700000  1.0  0.1158
  H  H73  1  0.905600  0.267800  0.619500  1.0  0.1112
  H  H74  1  0.856900  0.263900  0.778600  1.0  0.1076
  H  H75  1  0.098900  0.881900  0.626200  1.0  0.1033
  H  H76  1  0.137200  0.727000  0.694200  1.0  0.1002
  H  H77  1  0.145000  0.877600  0.700000  1.0  0.1152
  H  H78  1  0.094400  0.732200  0.619500  1.0  0.1106
  H  H79  1  0.143100  0.736100  0.778600  1.0  0.1088
  H  H80  1  0.901100  0.881900  0.373800  1.0  0.103
  H  H81  1  0.862800  0.727000  0.305800  1.0  0.1004
  H  H82  1  0.855000  0.877600  0.300000  1.0  0.1157
  H  H83  1  0.905600  0.732200  0.380500  1.0  0.111
  H  H84  1  0.856900  0.736100  0.221400  1.0  0.1086
  H  H85  1  0.626200  0.901100  0.881900  1.0  0.1018
  H  H86  1  0.694200  0.862800  0.727000  1.0  0.1004
  H  H87  1  0.700000  0.855000  0.877600  1.0  0.1172
  H  H88  1  0.619500  0.905600  0.732200  1.0  0.1115
  H  H89  1  0.778600  0.856900  0.736100  1.0  0.1063
  H  H90  1  0.373800  0.098900  0.881900  1.0  0.1022
  H  H91  1  0.305800  0.137200  0.727000  1.0  0.0999
  H  H92  1  0.300000  0.145000  0.877600  1.0  0.1168
  H  H93  1  0.380500  0.094400  0.732200  1.0  0.1113
  H  H94  1  0.221400  0.143100  0.736100  1.0  0.107
  H  H95  1  0.373800  0.901100  0.118100  1.0  0.1029
  H  H96  1  0.305800  0.862800  0.273000  1.0  0.1003
  H  H97  1  0.300000  0.855000  0.122400  1.0  0.1163
  H  H98  1  0.380500  0.905600  0.267800  1.0  0.1111
  H  H99  1  0.221400  0.856900  0.263900  1.0  0.1062
  H  H100  1  0.626200  0.098900  0.118100  1.0  0.1025
  H  H101  1  0.694200  0.137200  0.273000  1.0  0.0996
  H  H102  1  0.700000  0.145000  0.122400  1.0  0.117
  H  H103  1  0.619500  0.094400  0.267800  1.0  0.1113
  H  H104  1  0.778600  0.143100  0.263900  1.0  0.1072
  H  H105  1  0.881900  0.626200  0.901100  1.0  0.1041
  H  H106  1  0.727000  0.694200  0.862800  1.0  0.1023
  H  H107  1  0.877600  0.700000  0.855000  1.0  0.1171
  H  H108  1  0.732200  0.619500  0.905600  1.0  0.1107
  H  H109  1  0.736100  0.778600  0.856900  1.0  0.1099
  H  H110  1  0.881900  0.373800  0.098900  1.0  0.1043
  H  H111  1  0.727000  0.305800  0.137200  1.0  0.1024
  H  H112  1  0.877600  0.300000  0.145000  1.0  0.117
  H  H113  1  0.732200  0.380500  0.094400  1.0  0.1108
  H  H114  1  0.736100  0.221400  0.143100  1.0  0.1098
  H  H115  1  0.118100  0.373800  0.901100  1.0  0.1035
  H  H116  1  0.273000  0.305800  0.862800  1.0  0.1027
  H  H117  1  0.122400  0.300000  0.855000  1.0  0.1178
  H  H118  1  0.267800  0.380500  0.905600  1.0  0.1108
  H  H119  1  0.263900  0.221400  0.856900  1.0  0.1093
  H  H120  1  0.118100  0.626200  0.098900  1.0  0.1031
  H  H121  1  0.273000  0.694200  0.137200  1.0  0.1024
  H  H122  1  0.122400  0.700000  0.145000  1.0  0.1174
  H  H123  1  0.267800  0.619500  0.094400  1.0  0.1107
  H  H124  1  0.263900  0.778600  0.143100  1.0  0.1095
  H  H125  1  0.901100  0.881900  0.626200  1.0  0.1032
  H  H126  1  0.862800  0.727000  0.694200  1.0  0.1003
  H  H127  1  0.855000  0.877600  0.700000  1.0  0.1154
  H  H128  1  0.905600  0.732200  0.619500  1.0  0.1108
  H  H129  1  0.856900  0.736100  0.778600  1.0  0.108
  H  H130  1  0.098900  0.881900  0.373800  1.0  0.1031
  H  H131  1  0.137200  0.727000  0.305800  1.0  0.1001
  H  H132  1  0.145000  0.877600  0.300000  1.0  0.1154
  H  H133  1  0.094400  0.732200  0.380500  1.0  0.1109
  H  H134  1  0.143100  0.736100  0.221400  1.0  0.1089
  H  H135  1  0.901100  0.118100  0.373800  1.0  0.1032
  H  H136  1  0.862800  0.273000  0.305800  1.0  0.1008
  H  H137  1  0.855000  0.122400  0.300000  1.0  0.1152
  H  H138  1  0.905600  0.267800  0.380500  1.0  0.1111
  H  H139  1  0.856900  0.263900  0.221400  1.0  0.1082
  H  H140  1  0.098900  0.118100  0.626200  1.0  0.103
  H  H141  1  0.137200  0.273000  0.694200  1.0  0.1005
  H  H142  1  0.145000  0.122400  0.700000  1.0  0.1155
  H  H143  1  0.094400  0.267800  0.619500  1.0  0.1111
  H  H144  1  0.143100  0.263900  0.778600  1.0  0.1083
  H  H145  1  0.873800  0.598900  0.618100  1.0  0.1025
  H  H146  1  0.805800  0.637200  0.773000  1.0  0.0999
  H  H147  1  0.800000  0.645000  0.622400  1.0  0.1166
  H  H148  1  0.880500  0.594400  0.767800  1.0  0.1111
  H  H149  1  0.721400  0.643100  0.763900  1.0  0.1071
  H  H150  1  0.126200  0.401100  0.618100  1.0  0.103
  H  H151  1  0.194200  0.362800  0.773000  1.0  0.1003
  H  H152  1  0.200000  0.355000  0.622400  1.0  0.1165
  H  H153  1  0.119500  0.405600  0.767800  1.0  0.1114
  H  H154  1  0.278600  0.356900  0.763900  1.0  0.1061
  H  H155  1  0.126200  0.598900  0.381900  1.0  0.1022
  H  H156  1  0.194200  0.637200  0.227000  1.0  0.1
  H  H157  1  0.200000  0.645000  0.377600  1.0  0.1172
  H  H158  1  0.119500  0.594400  0.232200  1.0  0.1114
  H  H159  1  0.278600  0.643100  0.236100  1.0  0.1073
  H  H160  1  0.873800  0.401100  0.381900  1.0  0.102
  H  H161  1  0.805800  0.362800  0.227000  1.0  0.1009
  H  H162  1  0.800000  0.355000  0.377600  1.0  0.1168
  H  H163  1  0.880500  0.405600  0.232200  1.0  0.1113
  H  H164  1  0.721400  0.356900  0.236100  1.0  0.1065
  H  H165  1  0.618100  0.873800  0.598900  1.0  0.1033
  H  H166  1  0.773000  0.805800  0.637200  1.0  0.1027
  H  H167  1  0.622400  0.800000  0.645000  1.0  0.1173
  H  H168  1  0.767800  0.880500  0.594400  1.0  0.1109
  H  H169  1  0.763900  0.721400  0.643100  1.0  0.1095
  H  H170  1  0.618100  0.126200  0.401100  1.0  0.1034
  H  H171  1  0.773000  0.194200  0.362800  1.0  0.1027
  H  H172  1  0.622400  0.200000  0.355000  1.0  0.1179
  H  H173  1  0.767800  0.119500  0.405600  1.0  0.1108
  H  H174  1  0.763900  0.278600  0.356900  1.0  0.1093
  H  H175  1  0.381900  0.126200  0.598900  1.0  0.104
  H  H176  1  0.227000  0.194200  0.637200  1.0  0.1025
  H  H177  1  0.377600  0.200000  0.645000  1.0  0.1173
  H  H178  1  0.232200  0.119500  0.594400  1.0  0.1107
  H  H179  1  0.236100  0.278600  0.643100  1.0  0.1104
  H  H180  1  0.381900  0.873800  0.401100  1.0  0.1041
  H  H181  1  0.227000  0.805800  0.362800  1.0  0.1028
  H  H182  1  0.377600  0.800000  0.355000  1.0  0.1169
  H  H183  1  0.232200  0.880500  0.405600  1.0  0.1108
  H  H184  1  0.236100  0.721400  0.356900  1.0  0.1095
  H  H185  1  0.598900  0.618100  0.873800  1.0  0.1031
  H  H186  1  0.637200  0.773000  0.805800  1.0  0.1006
  H  H187  1  0.645000  0.622400  0.800000  1.0  0.1148
  H  H188  1  0.594400  0.767800  0.880500  1.0  0.1111
  H  H189  1  0.643100  0.763900  0.721400  1.0  0.1086
  H  H190  1  0.401100  0.618100  0.126200  1.0  0.1034
  H  H191  1  0.362800  0.773000  0.194200  1.0  0.1008
  H  H192  1  0.355000  0.622400  0.200000  1.0  0.1158
  H  H193  1  0.405600  0.767800  0.119500  1.0  0.1112
  H  H194  1  0.356900  0.763900  0.278600  1.0  0.1076
  H  H195  1  0.598900  0.381900  0.126200  1.0  0.1033
  H  H196  1  0.637200  0.227000  0.194200  1.0  0.1004
  H  H197  1  0.645000  0.377600  0.200000  1.0  0.1152
  H  H198  1  0.594400  0.232200  0.119500  1.0  0.1106
  H  H199  1  0.643100  0.236100  0.278600  1.0  0.1088
  H  H200  1  0.401100  0.381900  0.873800  1.0  0.103
  H  H201  1  0.362800  0.227000  0.805800  1.0  0.1006
  H  H202  1  0.355000  0.377600  0.800000  1.0  0.1157
  H  H203  1  0.405600  0.232200  0.880500  1.0  0.111
  H  H204  1  0.356900  0.236100  0.721400  1.0  0.1086
  H  H205  1  0.126200  0.401100  0.381900  1.0  0.1018
  H  H206  1  0.194200  0.362800  0.227000  1.0  0.1006
  H  H207  1  0.200000  0.355000  0.377600  1.0  0.1172
  H  H208  1  0.119500  0.405600  0.232200  1.0  0.1115
  H  H209  1  0.278600  0.356900  0.236100  1.0  0.1063
  H  H210  1  0.873800  0.598900  0.381900  1.0  0.1022
  H  H211  1  0.805800  0.637200  0.227000  1.0  0.1002
  H  H212  1  0.800000  0.645000  0.377600  1.0  0.1168
  H  H213  1  0.880500  0.594400  0.232200  1.0  0.1113
  H  H214  1  0.721400  0.643100  0.236100  1.0  0.107
  H  H215  1  0.873800  0.401100  0.618100  1.0  0.1029
  H  H216  1  0.805800  0.362800  0.773000  1.0  0.1005
  H  H217  1  0.800000  0.355000  0.622400  1.0  0.1163
  H  H218  1  0.880500  0.405600  0.767800  1.0  0.1111
  H  H219  1  0.721400  0.356900  0.763900  1.0  0.1062
  H  H220  1  0.126200  0.598900  0.618100  1.0  0.1025
  H  H221  1  0.194200  0.637200  0.773000  1.0  0.0999
  H  H222  1  0.200000  0.645000  0.622400  1.0  0.117
  H  H223  1  0.119500  0.594400  0.767800  1.0  0.1113
  H  H224  1  0.278600  0.643100  0.763900  1.0  0.1072
  H  H225  1  0.381900  0.126200  0.401100  1.0  0.1041
  H  H226  1  0.227000  0.194200  0.362800  1.0  0.1026
  H  H227  1  0.377600  0.200000  0.355000  1.0  0.1171
  H  H228  1  0.232200  0.119500  0.405600  1.0  0.1107
  H  H229  1  0.236100  0.278600  0.356900  1.0  0.1099
  H  H230  1  0.381900  0.873800  0.598900  1.0  0.1043
  H  H231  1  0.227000  0.805800  0.637200  1.0  0.1027
  H  H232  1  0.377600  0.800000  0.645000  1.0  0.117
  H  H233  1  0.232200  0.880500  0.594400  1.0  0.1108
  H  H234  1  0.236100  0.721400  0.643100  1.0  0.1098
  H  H235  1  0.618100  0.873800  0.401100  1.0  0.1035
  H  H236  1  0.773000  0.805800  0.362800  1.0  0.1029
  H  H237  1  0.622400  0.800000  0.355000  1.0  0.1178
  H  H238  1  0.767800  0.880500  0.405600  1.0  0.1108
  H  H239  1  0.763900  0.721400  0.356900  1.0  0.1093
  H  H240  1  0.618100  0.126200  0.598900  1.0  0.1031
  H  H241  1  0.773000  0.194200  0.637200  1.0  0.1025
  H  H242  1  0.622400  0.200000  0.645000  1.0  0.1174
  H  H243  1  0.767800  0.119500  0.594400  1.0  0.1107
  H  H244  1  0.763900  0.278600  0.643100  1.0  0.1095
  H  H245  1  0.401100  0.381900  0.126200  1.0  0.1032
  H  H246  1  0.362800  0.227000  0.194200  1.0  0.1005
  H  H247  1  0.355000  0.377600  0.200000  1.0  0.1154
  H  H248  1  0.405600  0.232200  0.119500  1.0  0.1108
  H  H249  1  0.356900  0.236100  0.278600  1.0  0.108
  H  H250  1  0.598900  0.381900  0.873800  1.0  0.1031
  H  H251  1  0.637200  0.227000  0.805800  1.0  0.1003
  H  H252  1  0.645000  0.377600  0.800000  1.0  0.1154
  H  H253  1  0.594400  0.232200  0.880500  1.0  0.1109
  H  H254  1  0.643100  0.236100  0.721400  1.0  0.1089
  H  H255  1  0.401100  0.618100  0.873800  1.0  0.1032
  H  H256  1  0.362800  0.773000  0.805800  1.0  0.101
  H  H257  1  0.355000  0.622400  0.800000  1.0  0.1152
  H  H258  1  0.405600  0.767800  0.880500  1.0  0.1111
  H  H259  1  0.356900  0.763900  0.721400  1.0  0.1082
  H  H260  1  0.598900  0.618100  0.126200  1.0  0.103
  H  H261  1  0.637200  0.773000  0.194200  1.0  0.1007
  H  H262  1  0.645000  0.622400  0.200000  1.0  0.1155
  H  H263  1  0.594400  0.767800  0.119500  1.0  0.1111
  H  H264  1  0.643100  0.763900  0.278600  1.0  0.1083
  C  C265  1  0.294780  0.145930  0.198010  1.0  0.0521
  C  C266  1  0.430700  0.062290  0.190820  1.0  0.703
  C  C267  1  0.360220  0.107300  0.149430  1.0  -0.0535
  C  C268  1  0.319650  0.130050  0.241400  1.0  -0.1192
  C  C269  1  0.315780  0.134440  0.151980  1.0  -0.1238
  C  C270  1  0.363970  0.104230  0.238360  1.0  -0.0828
  C  C271  1  0.216770  0.170340  0.242040  1.0  -0.1334
  C  C272  1  0.384320  0.092680  0.192480  1.0  -0.1284
  C  C273  1  0.249670  0.177390  0.202550  1.0  0.0413
  C  C274  1  0.705220  0.854070  0.198010  1.0  0.0529
  C  C275  1  0.569300  0.937710  0.190820  1.0  0.7029
  C  C276  1  0.639780  0.892700  0.149430  1.0  -0.0537
  C  C277  1  0.680350  0.869950  0.241400  1.0  -0.1185
  C  C278  1  0.684220  0.865560  0.151980  1.0  -0.1256
  C  C279  1  0.636030  0.895770  0.238360  1.0  -0.0811
  C  C280  1  0.783230  0.829660  0.242040  1.0  -0.1326
  C  C281  1  0.615680  0.907320  0.192480  1.0  -0.127
  C  C282  1  0.750330  0.822610  0.202550  1.0  0.0439
  C  C283  1  0.705220  0.145930  0.801990  1.0  0.0529
  C  C284  1  0.569300  0.062290  0.809180  1.0  0.703
  C  C285  1  0.639780  0.107300  0.850570  1.0  -0.0562
  C  C286  1  0.680350  0.130050  0.758600  1.0  -0.1177
  C  C287  1  0.684220  0.134440  0.848020  1.0  -0.1267
  C  C288  1  0.636030  0.104230  0.761640  1.0  -0.0816
  C  C289  1  0.783230  0.170340  0.757960  1.0  -0.1349
  C  C290  1  0.615680  0.092680  0.807520  1.0  -0.128
  C  C291  1  0.750330  0.177390  0.797450  1.0  0.0428
  C  C292  1  0.294780  0.854070  0.801990  1.0  0.0541
  C  C293  1  0.430700  0.937710  0.809180  1.0  0.7031
  C  C294  1  0.360220  0.892700  0.850570  1.0  -0.0554
  C  C295  1  0.319650  0.869950  0.758600  1.0  -0.1194
  C  C296  1  0.315780  0.865560  0.848020  1.0  -0.1248
  C  C297  1  0.363970  0.895770  0.761640  1.0  -0.0816
  C  C298  1  0.216770  0.829660  0.757960  1.0  -0.1328
  C  C299  1  0.384320  0.907320  0.807520  1.0  -0.1281
  C  C300  1  0.249670  0.822610  0.797450  1.0  0.042
  C  C301  1  0.198010  0.294780  0.145930  1.0  0.0516
  C  C302  1  0.190820  0.430700  0.062290  1.0  0.7042
  C  C303  1  0.149430  0.360220  0.107300  1.0  -0.0491
  C  C304  1  0.241400  0.319650  0.130050  1.0  -0.1169
  C  C305  1  0.151980  0.315780  0.134440  1.0  -0.1212
  C  C306  1  0.238360  0.363970  0.104230  1.0  -0.0794
  C  C307  1  0.242040  0.216770  0.170340  1.0  -0.1388
  C  C308  1  0.192480  0.384320  0.092680  1.0  -0.1258
  C  C309  1  0.202550  0.249670  0.177390  1.0  0.0402
  C  C310  1  0.198010  0.705220  0.854070  1.0  0.0535
  C  C311  1  0.190820  0.569300  0.937710  1.0  0.7038
  C  C312  1  0.149430  0.639780  0.892700  1.0  -0.0482
  C  C313  1  0.241400  0.680350  0.869950  1.0  -0.1177
  C  C314  1  0.151980  0.684220  0.865560  1.0  -0.1227
  C  C315  1  0.238360  0.636030  0.895770  1.0  -0.08
  C  C316  1  0.242040  0.783230  0.829660  1.0  -0.1368
  C  C317  1  0.192480  0.615680  0.907320  1.0  -0.1261
  C  C318  1  0.202550  0.750330  0.822610  1.0  0.0421
  C  C319  1  0.801990  0.705220  0.145930  1.0  0.0531
  C  C320  1  0.809180  0.569300  0.062290  1.0  0.7041
  C  C321  1  0.850570  0.639780  0.107300  1.0  -0.048
  C  C322  1  0.758600  0.680350  0.130050  1.0  -0.1163
  C  C323  1  0.848020  0.684220  0.134440  1.0  -0.1213
  C  C324  1  0.761640  0.636030  0.104230  1.0  -0.0778
  C  C325  1  0.757960  0.783230  0.170340  1.0  -0.1371
  C  C326  1  0.807520  0.615680  0.092680  1.0  -0.127
  C  C327  1  0.797450  0.750330  0.177390  1.0  0.0399
  C  C328  1  0.801990  0.294780  0.854070  1.0  0.0535
  C  C329  1  0.809180  0.430700  0.937710  1.0  0.7038
  C  C330  1  0.850570  0.360220  0.892700  1.0  -0.0464
  C  C331  1  0.758600  0.319650  0.869950  1.0  -0.1177
  C  C332  1  0.848020  0.315780  0.865560  1.0  -0.1222
  C  C333  1  0.761640  0.363970  0.895770  1.0  -0.0793
  C  C334  1  0.757960  0.216770  0.829660  1.0  -0.1357
  C  C335  1  0.807520  0.384320  0.907320  1.0  -0.1262
  C  C336  1  0.797450  0.249670  0.822610  1.0  0.0439
  C  C337  1  0.145930  0.198010  0.294780  1.0  0.0533
  C  C338  1  0.062290  0.190820  0.430700  1.0  0.7044
  C  C339  1  0.107300  0.149430  0.360220  1.0  -0.0505
  C  C340  1  0.130050  0.241400  0.319650  1.0  -0.1179
  C  C341  1  0.134440  0.151980  0.315780  1.0  -0.1188
  C  C342  1  0.104230  0.238360  0.363970  1.0  -0.0774
  C  C343  1  0.170340  0.242040  0.216770  1.0  -0.1413
  C  C344  1  0.092680  0.192480  0.384320  1.0  -0.128
  C  C345  1  0.177390  0.202550  0.249670  1.0  0.0427
  C  C346  1  0.854070  0.198010  0.705220  1.0  0.0536
  C  C347  1  0.937710  0.190820  0.569300  1.0  0.7039
  C  C348  1  0.892700  0.149430  0.639780  1.0  -0.0502
  C  C349  1  0.869950  0.241400  0.680350  1.0  -0.117
  C  C350  1  0.865560  0.151980  0.684220  1.0  -0.119
  C  C351  1  0.895770  0.238360  0.636030  1.0  -0.0782
  C  C352  1  0.829660  0.242040  0.783230  1.0  -0.1383
  C  C353  1  0.907320  0.192480  0.615680  1.0  -0.1278
  C  C354  1  0.822610  0.202550  0.750330  1.0  0.0461
  C  C355  1  0.145930  0.801990  0.705220  1.0  0.0539
  C  C356  1  0.062290  0.809180  0.569300  1.0  0.7044
  C  C357  1  0.107300  0.850570  0.639780  1.0  -0.0495
  C  C358  1  0.130050  0.758600  0.680350  1.0  -0.1175
  C  C359  1  0.134440  0.848020  0.684220  1.0  -0.1193
  C  C360  1  0.104230  0.761640  0.636030  1.0  -0.0768
  C  C361  1  0.170340  0.757960  0.783230  1.0  -0.1409
  C  C362  1  0.092680  0.807520  0.615680  1.0  -0.127
  C  C363  1  0.177390  0.797450  0.750330  1.0  0.0431
  C  C364  1  0.854070  0.801990  0.294780  1.0  0.0531
  C  C365  1  0.937710  0.809180  0.430700  1.0  0.7042
  C  C366  1  0.892700  0.850570  0.360220  1.0  -0.0489
  C  C367  1  0.869950  0.758600  0.319650  1.0  -0.1171
  C  C368  1  0.865560  0.848020  0.315780  1.0  -0.1216
  C  C369  1  0.895770  0.761640  0.363970  1.0  -0.0785
  C  C370  1  0.829660  0.757960  0.216770  1.0  -0.1376
  C  C371  1  0.907320  0.807520  0.384320  1.0  -0.1296
  C  C372  1  0.822610  0.797450  0.249670  1.0  0.045
  C  C373  1  0.705220  0.854070  0.801990  1.0  0.0533
  C  C374  1  0.569300  0.937710  0.809180  1.0  0.7031
  C  C375  1  0.639780  0.892700  0.850570  1.0  -0.0562
  C  C376  1  0.680350  0.869950  0.758600  1.0  -0.1189
  C  C377  1  0.684220  0.865560  0.848020  1.0  -0.1247
  C  C378  1  0.636030  0.895770  0.761640  1.0  -0.0802
  C  C379  1  0.783230  0.829660  0.757960  1.0  -0.1327
  C  C380  1  0.615680  0.907320  0.807520  1.0  -0.1271
  C  C381  1  0.750330  0.822610  0.797450  1.0  0.043
  C  C382  1  0.294780  0.145930  0.801990  1.0  0.0533
  C  C383  1  0.430700  0.062290  0.809180  1.0  0.703
  C  C384  1  0.360220  0.107300  0.850570  1.0  -0.0556
  C  C385  1  0.319650  0.130050  0.758600  1.0  -0.1183
  C  C386  1  0.315780  0.134440  0.848020  1.0  -0.1252
  C  C387  1  0.363970  0.104230  0.761640  1.0  -0.0827
  C  C388  1  0.216770  0.170340  0.757960  1.0  -0.1347
  C  C389  1  0.384320  0.092680  0.807520  1.0  -0.1287
  C  C390  1  0.249670  0.177390  0.797450  1.0  0.0426
  C  C391  1  0.294780  0.854070  0.198010  1.0  0.053
  C  C392  1  0.430700  0.937710  0.190820  1.0  0.7029
  C  C393  1  0.360220  0.892700  0.149430  1.0  -0.0545
  C  C394  1  0.319650  0.869950  0.241400  1.0  -0.1193
  C  C395  1  0.315780  0.865560  0.151980  1.0  -0.1238
  C  C396  1  0.363970  0.895770  0.238360  1.0  -0.0817
  C  C397  1  0.216770  0.829660  0.242040  1.0  -0.1326
  C  C398  1  0.384320  0.907320  0.192480  1.0  -0.1279
  C  C399  1  0.249670  0.822610  0.202550  1.0  0.0437
  C  C400  1  0.705220  0.145930  0.198010  1.0  0.052
  C  C401  1  0.569300  0.062290  0.190820  1.0  0.7031
  C  C402  1  0.639780  0.107300  0.149430  1.0  -0.0527
  C  C403  1  0.680350  0.130050  0.241400  1.0  -0.118
  C  C404  1  0.684220  0.134440  0.151980  1.0  -0.1265
  C  C405  1  0.636030  0.104230  0.238360  1.0  -0.082
  C  C406  1  0.783230  0.170340  0.242040  1.0  -0.1333
  C  C407  1  0.615680  0.092680  0.192480  1.0  -0.1279
  C  C408  1  0.750330  0.177390  0.202550  1.0  0.0419
  C  C409  1  0.801990  0.705220  0.854070  1.0  0.0539
  C  C410  1  0.809180  0.569300  0.937710  1.0  0.7038
  C  C411  1  0.850570  0.639780  0.892700  1.0  -0.0468
  C  C412  1  0.758600  0.680350  0.869950  1.0  -0.1176
  C  C413  1  0.848020  0.684220  0.865560  1.0  -0.1217
  C  C414  1  0.761640  0.636030  0.895770  1.0  -0.0784
  C  C415  1  0.757960  0.783230  0.829660  1.0  -0.1357
  C  C416  1  0.807520  0.615680  0.907320  1.0  -0.1264
  C  C417  1  0.797450  0.750330  0.822610  1.0  0.0419
  C  C418  1  0.801990  0.294780  0.145930  1.0  0.0505
  C  C419  1  0.809180  0.430700  0.062290  1.0  0.704
  C  C420  1  0.850570  0.360220  0.107300  1.0  -0.0477
  C  C421  1  0.758600  0.319650  0.130050  1.0  -0.1162
  C  C422  1  0.848020  0.315780  0.134440  1.0  -0.1221
  C  C423  1  0.761640  0.363970  0.104230  1.0  -0.0775
  C  C424  1  0.757960  0.216770  0.170340  1.0  -0.1379
  C  C425  1  0.807520  0.384320  0.092680  1.0  -0.126
  C  C426  1  0.797450  0.249670  0.177390  1.0  0.0401
  C  C427  1  0.198010  0.294780  0.854070  1.0  0.0536
  C  C428  1  0.190820  0.430700  0.937710  1.0  0.7039
  C  C429  1  0.149430  0.360220  0.892700  1.0  -0.0486
  C  C430  1  0.241400  0.319650  0.869950  1.0  -0.1177
  C  C431  1  0.151980  0.315780  0.865560  1.0  -0.1217
  C  C432  1  0.238360  0.363970  0.895770  1.0  -0.0804
  C  C433  1  0.242040  0.216770  0.829660  1.0  -0.1371
  C  C434  1  0.192480  0.384320  0.907320  1.0  -0.1257
  C  C435  1  0.202550  0.249670  0.822610  1.0  0.0437
  C  C436  1  0.198010  0.705220  0.145930  1.0  0.0552
  C  C437  1  0.190820  0.569300  0.062290  1.0  0.7042
  C  C438  1  0.149430  0.639780  0.107300  1.0  -0.0486
  C  C439  1  0.241400  0.680350  0.130050  1.0  -0.1169
  C  C440  1  0.151980  0.684220  0.134440  1.0  -0.1217
  C  C441  1  0.238360  0.636030  0.104230  1.0  -0.0795
  C  C442  1  0.242040  0.783230  0.170340  1.0  -0.137
  C  C443  1  0.192480  0.615680  0.092680  1.0  -0.1268
  C  C444  1  0.202550  0.750330  0.177390  1.0  0.0402
  C  C445  1  0.854070  0.801990  0.705220  1.0  0.053
  C  C446  1  0.937710  0.809180  0.569300  1.0  0.7041
  C  C447  1  0.892700  0.850570  0.639780  1.0  -0.0491
  C  C448  1  0.869950  0.758600  0.680350  1.0  -0.1166
  C  C449  1  0.865560  0.848020  0.684220  1.0  -0.1204
  C  C450  1  0.895770  0.761640  0.636030  1.0  -0.0786
  C  C451  1  0.829660  0.757960  0.783230  1.0  -0.1379
  C  C452  1  0.907320  0.807520  0.615680  1.0  -0.1277
  C  C453  1  0.822610  0.797450  0.750330  1.0  0.0459
  C  C454  1  0.145930  0.801990  0.294780  1.0  0.0537
  C  C455  1  0.062290  0.809180  0.430700  1.0  0.7045
  C  C456  1  0.107300  0.850570  0.360220  1.0  -0.0492
  C  C457  1  0.130050  0.758600  0.319650  1.0  -0.1174
  C  C458  1  0.134440  0.848020  0.315780  1.0  -0.12
  C  C459  1  0.104230  0.761640  0.363970  1.0  -0.0773
  C  C460  1  0.170340  0.757960  0.216770  1.0  -0.1403
  C  C461  1  0.092680  0.807520  0.384320  1.0  -0.128
  C  C462  1  0.177390  0.797450  0.249670  1.0  0.0431
  C  C463  1  0.854070  0.198010  0.294780  1.0  0.0531
  C  C464  1  0.937710  0.190820  0.430700  1.0  0.704
  C  C465  1  0.892700  0.149430  0.360220  1.0  -0.0503
  C  C466  1  0.869950  0.241400  0.319650  1.0  -0.1173
  C  C467  1  0.865560  0.151980  0.315780  1.0  -0.1193
  C  C468  1  0.895770  0.238360  0.363970  1.0  -0.079
  C  C469  1  0.829660  0.242040  0.216770  1.0  -0.1381
  C  C470  1  0.907320  0.192480  0.384320  1.0  -0.1295
  C  C471  1  0.822610  0.202550  0.249670  1.0  0.0444
  C  C472  1  0.145930  0.198010  0.705220  1.0  0.0538
  C  C473  1  0.062290  0.190820  0.569300  1.0  0.7042
  C  C474  1  0.107300  0.149430  0.639780  1.0  -0.0506
  C  C475  1  0.130050  0.241400  0.680350  1.0  -0.118
  C  C476  1  0.134440  0.151980  0.684220  1.0  -0.1185
  C  C477  1  0.104230  0.238360  0.636030  1.0  -0.0758
  C  C478  1  0.170340  0.242040  0.783230  1.0  -0.1423
  C  C479  1  0.092680  0.192480  0.615680  1.0  -0.1272
  C  C480  1  0.177390  0.202550  0.750330  1.0  0.0439
  C  C481  1  0.794780  0.645930  0.698010  1.0  0.0521
  C  C482  1  0.930700  0.562290  0.690820  1.0  0.703
  C  C483  1  0.860220  0.607300  0.649430  1.0  -0.0535
  C  C484  1  0.819650  0.630050  0.741400  1.0  -0.1192
  C  C485  1  0.815780  0.634440  0.651980  1.0  -0.1238
  C  C486  1  0.863970  0.604230  0.738360  1.0  -0.0828
  C  C487  1  0.716770  0.670340  0.742040  1.0  -0.1334
  C  C488  1  0.884320  0.592680  0.692480  1.0  -0.1284
  C  C489  1  0.749670  0.677390  0.702550  1.0  0.0413
  C  C490  1  0.205220  0.354070  0.698010  1.0  0.0529
  C  C491  1  0.069300  0.437710  0.690820  1.0  0.7029
  C  C492  1  0.139780  0.392700  0.649430  1.0  -0.0537
  C  C493  1  0.180350  0.369950  0.741400  1.0  -0.1185
  C  C494  1  0.184220  0.365560  0.651980  1.0  -0.1256
  C  C495  1  0.136030  0.395770  0.738360  1.0  -0.0811
  C  C496  1  0.283230  0.329660  0.742040  1.0  -0.1326
  C  C497  1  0.115680  0.407320  0.692480  1.0  -0.127
  C  C498  1  0.250330  0.322610  0.702550  1.0  0.0439
  C  C499  1  0.205220  0.645930  0.301990  1.0  0.0529
  C  C500  1  0.069300  0.562290  0.309180  1.0  0.703
  C  C501  1  0.139780  0.607300  0.350570  1.0  -0.0562
  C  C502  1  0.180350  0.630050  0.258600  1.0  -0.1177
  C  C503  1  0.184220  0.634440  0.348020  1.0  -0.1267
  C  C504  1  0.136030  0.604230  0.261640  1.0  -0.0816
  C  C505  1  0.283230  0.670340  0.257960  1.0  -0.1349
  C  C506  1  0.115680  0.592680  0.307520  1.0  -0.128
  C  C507  1  0.250330  0.677390  0.297450  1.0  0.0428
  C  C508  1  0.794780  0.354070  0.301990  1.0  0.0541
  C  C509  1  0.930700  0.437710  0.309180  1.0  0.7031
  C  C510  1  0.860220  0.392700  0.350570  1.0  -0.0554
  C  C511  1  0.819650  0.369950  0.258600  1.0  -0.1194
  C  C512  1  0.815780  0.365560  0.348020  1.0  -0.1248
  C  C513  1  0.863970  0.395770  0.261640  1.0  -0.0816
  C  C514  1  0.716770  0.329660  0.257960  1.0  -0.1328
  C  C515  1  0.884320  0.407320  0.307520  1.0  -0.1281
  C  C516  1  0.749670  0.322610  0.297450  1.0  0.042
  C  C517  1  0.698010  0.794780  0.645930  1.0  0.0516
  C  C518  1  0.690820  0.930700  0.562290  1.0  0.7042
  C  C519  1  0.649430  0.860220  0.607300  1.0  -0.0491
  C  C520  1  0.741400  0.819650  0.630050  1.0  -0.1169
  C  C521  1  0.651980  0.815780  0.634440  1.0  -0.1212
  C  C522  1  0.738360  0.863970  0.604230  1.0  -0.0794
  C  C523  1  0.742040  0.716770  0.670340  1.0  -0.1388
  C  C524  1  0.692480  0.884320  0.592680  1.0  -0.1258
  C  C525  1  0.702550  0.749670  0.677390  1.0  0.0402
  C  C526  1  0.698010  0.205220  0.354070  1.0  0.0535
  C  C527  1  0.690820  0.069300  0.437710  1.0  0.7038
  C  C528  1  0.649430  0.139780  0.392700  1.0  -0.0482
  C  C529  1  0.741400  0.180350  0.369950  1.0  -0.1177
  C  C530  1  0.651980  0.184220  0.365560  1.0  -0.1227
  C  C531  1  0.738360  0.136030  0.395770  1.0  -0.08
  C  C532  1  0.742040  0.283230  0.329660  1.0  -0.1368
  C  C533  1  0.692480  0.115680  0.407320  1.0  -0.1261
  C  C534  1  0.702550  0.250330  0.322610  1.0  0.0421
  C  C535  1  0.301990  0.205220  0.645930  1.0  0.0531
  C  C536  1  0.309180  0.069300  0.562290  1.0  0.7041
  C  C537  1  0.350570  0.139780  0.607300  1.0  -0.048
  C  C538  1  0.258600  0.180350  0.630050  1.0  -0.1163
  C  C539  1  0.348020  0.184220  0.634440  1.0  -0.1213
  C  C540  1  0.261640  0.136030  0.604230  1.0  -0.0778
  C  C541  1  0.257960  0.283230  0.670340  1.0  -0.1371
  C  C542  1  0.307520  0.115680  0.592680  1.0  -0.127
  C  C543  1  0.297450  0.250330  0.677390  1.0  0.0399
  C  C544  1  0.301990  0.794780  0.354070  1.0  0.0535
  C  C545  1  0.309180  0.930700  0.437710  1.0  0.7038
  C  C546  1  0.350570  0.860220  0.392700  1.0  -0.0464
  C  C547  1  0.258600  0.819650  0.369950  1.0  -0.1177
  C  C548  1  0.348020  0.815780  0.365560  1.0  -0.1222
  C  C549  1  0.261640  0.863970  0.395770  1.0  -0.0793
  C  C550  1  0.257960  0.716770  0.329660  1.0  -0.1357
  C  C551  1  0.307520  0.884320  0.407320  1.0  -0.1262
  C  C552  1  0.297450  0.749670  0.322610  1.0  0.0439
  C  C553  1  0.645930  0.698010  0.794780  1.0  0.0533
  C  C554  1  0.562290  0.690820  0.930700  1.0  0.7044
  C  C555  1  0.607300  0.649430  0.860220  1.0  -0.0505
  C  C556  1  0.630050  0.741400  0.819650  1.0  -0.1179
  C  C557  1  0.634440  0.651980  0.815780  1.0  -0.1188
  C  C558  1  0.604230  0.738360  0.863970  1.0  -0.0774
  C  C559  1  0.670340  0.742040  0.716770  1.0  -0.1413
  C  C560  1  0.592680  0.692480  0.884320  1.0  -0.128
  C  C561  1  0.677390  0.702550  0.749670  1.0  0.0427
  C  C562  1  0.354070  0.698010  0.205220  1.0  0.0536
  C  C563  1  0.437710  0.690820  0.069300  1.0  0.7039
  C  C564  1  0.392700  0.649430  0.139780  1.0  -0.0502
  C  C565  1  0.369950  0.741400  0.180350  1.0  -0.117
  C  C566  1  0.365560  0.651980  0.184220  1.0  -0.119
  C  C567  1  0.395770  0.738360  0.136030  1.0  -0.0782
  C  C568  1  0.329660  0.742040  0.283230  1.0  -0.1383
  C  C569  1  0.407320  0.692480  0.115680  1.0  -0.1278
  C  C570  1  0.322610  0.702550  0.250330  1.0  0.0461
  C  C571  1  0.645930  0.301990  0.205220  1.0  0.0539
  C  C572  1  0.562290  0.309180  0.069300  1.0  0.7044
  C  C573  1  0.607300  0.350570  0.139780  1.0  -0.0495
  C  C574  1  0.630050  0.258600  0.180350  1.0  -0.1175
  C  C575  1  0.634440  0.348020  0.184220  1.0  -0.1193
  C  C576  1  0.604230  0.261640  0.136030  1.0  -0.0768
  C  C577  1  0.670340  0.257960  0.283230  1.0  -0.1409
  C  C578  1  0.592680  0.307520  0.115680  1.0  -0.127
  C  C579  1  0.677390  0.297450  0.250330  1.0  0.0431
  C  C580  1  0.354070  0.301990  0.794780  1.0  0.0531
  C  C581  1  0.437710  0.309180  0.930700  1.0  0.7042
  C  C582  1  0.392700  0.350570  0.860220  1.0  -0.0489
  C  C583  1  0.369950  0.258600  0.819650  1.0  -0.1171
  C  C584  1  0.365560  0.348020  0.815780  1.0  -0.1216
  C  C585  1  0.395770  0.261640  0.863970  1.0  -0.0785
  C  C586  1  0.329660  0.257960  0.716770  1.0  -0.1376
  C  C587  1  0.407320  0.307520  0.884320  1.0  -0.1296
  C  C588  1  0.322610  0.297450  0.749670  1.0  0.045
  C  C589  1  0.205220  0.354070  0.301990  1.0  0.0533
  C  C590  1  0.069300  0.437710  0.309180  1.0  0.7031
  C  C591  1  0.139780  0.392700  0.350570  1.0  -0.0562
  C  C592  1  0.180350  0.369950  0.258600  1.0  -0.1189
  C  C593  1  0.184220  0.365560  0.348020  1.0  -0.1247
  C  C594  1  0.136030  0.395770  0.261640  1.0  -0.0802
  C  C595  1  0.283230  0.329660  0.257960  1.0  -0.1327
  C  C596  1  0.115680  0.407320  0.307520  1.0  -0.1271
  C  C597  1  0.250330  0.322610  0.297450  1.0  0.043
  C  C598  1  0.794780  0.645930  0.301990  1.0  0.0533
  C  C599  1  0.930700  0.562290  0.309180  1.0  0.703
  C  C600  1  0.860220  0.607300  0.350570  1.0  -0.0556
  C  C601  1  0.819650  0.630050  0.258600  1.0  -0.1183
  C  C602  1  0.815780  0.634440  0.348020  1.0  -0.1252
  C  C603  1  0.863970  0.604230  0.261640  1.0  -0.0827
  C  C604  1  0.716770  0.670340  0.257960  1.0  -0.1347
  C  C605  1  0.884320  0.592680  0.307520  1.0  -0.1287
  C  C606  1  0.749670  0.677390  0.297450  1.0  0.0426
  C  C607  1  0.794780  0.354070  0.698010  1.0  0.053
  C  C608  1  0.930700  0.437710  0.690820  1.0  0.7029
  C  C609  1  0.860220  0.392700  0.649430  1.0  -0.0545
  C  C610  1  0.819650  0.369950  0.741400  1.0  -0.1193
  C  C611  1  0.815780  0.365560  0.651980  1.0  -0.1238
  C  C612  1  0.863970  0.395770  0.738360  1.0  -0.0817
  C  C613  1  0.716770  0.329660  0.742040  1.0  -0.1326
  C  C614  1  0.884320  0.407320  0.692480  1.0  -0.1279
  C  C615  1  0.749670  0.322610  0.702550  1.0  0.0437
  C  C616  1  0.205220  0.645930  0.698010  1.0  0.052
  C  C617  1  0.069300  0.562290  0.690820  1.0  0.7031
  C  C618  1  0.139780  0.607300  0.649430  1.0  -0.0527
  C  C619  1  0.180350  0.630050  0.741400  1.0  -0.118
  C  C620  1  0.184220  0.634440  0.651980  1.0  -0.1265
  C  C621  1  0.136030  0.604230  0.738360  1.0  -0.082
  C  C622  1  0.283230  0.670340  0.742040  1.0  -0.1333
  C  C623  1  0.115680  0.592680  0.692480  1.0  -0.1279
  C  C624  1  0.250330  0.677390  0.702550  1.0  0.0419
  C  C625  1  0.301990  0.205220  0.354070  1.0  0.0539
  C  C626  1  0.309180  0.069300  0.437710  1.0  0.7038
  C  C627  1  0.350570  0.139780  0.392700  1.0  -0.0468
  C  C628  1  0.258600  0.180350  0.369950  1.0  -0.1176
  C  C629  1  0.348020  0.184220  0.365560  1.0  -0.1217
  C  C630  1  0.261640  0.136030  0.395770  1.0  -0.0784
  C  C631  1  0.257960  0.283230  0.329660  1.0  -0.1357
  C  C632  1  0.307520  0.115680  0.407320  1.0  -0.1264
  C  C633  1  0.297450  0.250330  0.322610  1.0  0.0419
  C  C634  1  0.301990  0.794780  0.645930  1.0  0.0505
  C  C635  1  0.309180  0.930700  0.562290  1.0  0.704
  C  C636  1  0.350570  0.860220  0.607300  1.0  -0.0477
  C  C637  1  0.258600  0.819650  0.630050  1.0  -0.1162
  C  C638  1  0.348020  0.815780  0.634440  1.0  -0.1221
  C  C639  1  0.261640  0.863970  0.604230  1.0  -0.0775
  C  C640  1  0.257960  0.716770  0.670340  1.0  -0.1379
  C  C641  1  0.307520  0.884320  0.592680  1.0  -0.126
  C  C642  1  0.297450  0.749670  0.677390  1.0  0.0401
  C  C643  1  0.698010  0.794780  0.354070  1.0  0.0536
  C  C644  1  0.690820  0.930700  0.437710  1.0  0.7039
  C  C645  1  0.649430  0.860220  0.392700  1.0  -0.0486
  C  C646  1  0.741400  0.819650  0.369950  1.0  -0.1177
  C  C647  1  0.651980  0.815780  0.365560  1.0  -0.1217
  C  C648  1  0.738360  0.863970  0.395770  1.0  -0.0804
  C  C649  1  0.742040  0.716770  0.329660  1.0  -0.1371
  C  C650  1  0.692480  0.884320  0.407320  1.0  -0.1257
  C  C651  1  0.702550  0.749670  0.322610  1.0  0.0437
  C  C652  1  0.698010  0.205220  0.645930  1.0  0.0552
  C  C653  1  0.690820  0.069300  0.562290  1.0  0.7042
  C  C654  1  0.649430  0.139780  0.607300  1.0  -0.0486
  C  C655  1  0.741400  0.180350  0.630050  1.0  -0.1169
  C  C656  1  0.651980  0.184220  0.634440  1.0  -0.1217
  C  C657  1  0.738360  0.136030  0.604230  1.0  -0.0795
  C  C658  1  0.742040  0.283230  0.670340  1.0  -0.137
  C  C659  1  0.692480  0.115680  0.592680  1.0  -0.1268
  C  C660  1  0.702550  0.250330  0.677390  1.0  0.0402
  C  C661  1  0.354070  0.301990  0.205220  1.0  0.053
  C  C662  1  0.437710  0.309180  0.069300  1.0  0.7041
  C  C663  1  0.392700  0.350570  0.139780  1.0  -0.0491
  C  C664  1  0.369950  0.258600  0.180350  1.0  -0.1166
  C  C665  1  0.365560  0.348020  0.184220  1.0  -0.1204
  C  C666  1  0.395770  0.261640  0.136030  1.0  -0.0786
  C  C667  1  0.329660  0.257960  0.283230  1.0  -0.1379
  C  C668  1  0.407320  0.307520  0.115680  1.0  -0.1277
  C  C669  1  0.322610  0.297450  0.250330  1.0  0.0459
  C  C670  1  0.645930  0.301990  0.794780  1.0  0.0537
  C  C671  1  0.562290  0.309180  0.930700  1.0  0.7045
  C  C672  1  0.607300  0.350570  0.860220  1.0  -0.0492
  C  C673  1  0.630050  0.258600  0.819650  1.0  -0.1174
  C  C674  1  0.634440  0.348020  0.815780  1.0  -0.12
  C  C675  1  0.604230  0.261640  0.863970  1.0  -0.0773
  C  C676  1  0.670340  0.257960  0.716770  1.0  -0.1403
  C  C677  1  0.592680  0.307520  0.884320  1.0  -0.128
  C  C678  1  0.677390  0.297450  0.749670  1.0  0.0431
  C  C679  1  0.354070  0.698010  0.794780  1.0  0.0531
  C  C680  1  0.437710  0.690820  0.930700  1.0  0.704
  C  C681  1  0.392700  0.649430  0.860220  1.0  -0.0503
  C  C682  1  0.369950  0.741400  0.819650  1.0  -0.1173
  C  C683  1  0.365560  0.651980  0.815780  1.0  -0.1193
  C  C684  1  0.395770  0.738360  0.863970  1.0  -0.079
  C  C685  1  0.329660  0.742040  0.716770  1.0  -0.1381
  C  C686  1  0.407320  0.692480  0.884320  1.0  -0.1295
  C  C687  1  0.322610  0.702550  0.749670  1.0  0.0444
  C  C688  1  0.645930  0.698010  0.205220  1.0  0.0538
  C  C689  1  0.562290  0.690820  0.069300  1.0  0.7042
  C  C690  1  0.607300  0.649430  0.139780  1.0  -0.0506
  C  C691  1  0.630050  0.741400  0.180350  1.0  -0.118
  C  C692  1  0.634440  0.651980  0.184220  1.0  -0.1185
  C  C693  1  0.604230  0.738360  0.136030  1.0  -0.0758
  C  C694  1  0.670340  0.742040  0.283230  1.0  -0.1423
  C  C695  1  0.592680  0.692480  0.115680  1.0  -0.1272
  C  C696  1  0.677390  0.702550  0.250330  1.0  0.0439
  O  O697  1  0.447670  0.050040  0.148880  1.0  -0.5784
  O  O698  1  0.448380  0.049420  0.231570  1.0  -0.5797
  O  O699  1  0.552330  0.949960  0.148880  1.0  -0.5781
  O  O700  1  0.551620  0.950580  0.231570  1.0  -0.5793
  O  O701  1  0.552330  0.050040  0.851120  1.0  -0.578
  O  O702  1  0.551620  0.049420  0.768430  1.0  -0.579
  O  O703  1  0.447670  0.949960  0.851120  1.0  -0.5774
  O  O704  1  0.448380  0.950580  0.768430  1.0  -0.5798
  O  O705  1  0.148880  0.447670  0.050040  1.0  -0.5788
  O  O706  1  0.231570  0.448380  0.049420  1.0  -0.5784
  O  O707  1  0.148880  0.552330  0.949960  1.0  -0.579
  O  O708  1  0.231570  0.551620  0.950580  1.0  -0.5782
  O  O709  1  0.851120  0.552330  0.050040  1.0  -0.5791
  O  O710  1  0.768430  0.551620  0.049420  1.0  -0.5769
  O  O711  1  0.851120  0.447670  0.949960  1.0  -0.5797
  O  O712  1  0.768430  0.448380  0.950580  1.0  -0.5771
  O  O713  1  0.050040  0.148880  0.447670  1.0  -0.5808
  O  O714  1  0.049420  0.231570  0.448380  1.0  -0.5788
  O  O715  1  0.949960  0.148880  0.552330  1.0  -0.5803
  O  O716  1  0.950580  0.231570  0.551620  1.0  -0.5795
  O  O717  1  0.050040  0.851120  0.552330  1.0  -0.58
  O  O718  1  0.049420  0.768430  0.551620  1.0  -0.5796
  O  O719  1  0.949960  0.851120  0.447670  1.0  -0.5808
  O  O720  1  0.950580  0.768430  0.448380  1.0  -0.5791
  O  O721  1  0.552330  0.949960  0.851120  1.0  -0.5779
  O  O722  1  0.551620  0.950580  0.768430  1.0  -0.5785
  O  O723  1  0.447670  0.050040  0.851120  1.0  -0.5777
  O  O724  1  0.448380  0.049420  0.768430  1.0  -0.5804
  O  O725  1  0.447670  0.949960  0.148880  1.0  -0.5785
  O  O726  1  0.448380  0.950580  0.231570  1.0  -0.5795
  O  O727  1  0.552330  0.050040  0.148880  1.0  -0.5782
  O  O728  1  0.551620  0.049420  0.231570  1.0  -0.5796
  O  O729  1  0.851120  0.552330  0.949960  1.0  -0.5797
  O  O730  1  0.768430  0.551620  0.950580  1.0  -0.5772
  O  O731  1  0.851120  0.447670  0.050040  1.0  -0.5793
  O  O732  1  0.768430  0.448380  0.049420  1.0  -0.577
  O  O733  1  0.148880  0.447670  0.949960  1.0  -0.5789
  O  O734  1  0.231570  0.448380  0.950580  1.0  -0.5787
  O  O735  1  0.148880  0.552330  0.050040  1.0  -0.5789
  O  O736  1  0.231570  0.551620  0.049420  1.0  -0.5781
  O  O737  1  0.949960  0.851120  0.552330  1.0  -0.5806
  O  O738  1  0.950580  0.768430  0.551620  1.0  -0.5795
  O  O739  1  0.050040  0.851120  0.447670  1.0  -0.5804
  O  O740  1  0.049420  0.768430  0.448380  1.0  -0.5793
  O  O741  1  0.949960  0.148880  0.447670  1.0  -0.5805
  O  O742  1  0.950580  0.231570  0.448380  1.0  -0.5796
  O  O743  1  0.050040  0.148880  0.552330  1.0  -0.5808
  O  O744  1  0.049420  0.231570  0.551620  1.0  -0.5789
  O  O745  1  0.947670  0.550040  0.648880  1.0  -0.5784
  O  O746  1  0.948380  0.549420  0.731570  1.0  -0.5797
  O  O747  1  0.052330  0.449960  0.648880  1.0  -0.5781
  O  O748  1  0.051620  0.450580  0.731570  1.0  -0.5793
  O  O749  1  0.052330  0.550040  0.351120  1.0  -0.578
  O  O750  1  0.051620  0.549420  0.268430  1.0  -0.579
  O  O751  1  0.947670  0.449960  0.351120  1.0  -0.5774
  O  O752  1  0.948380  0.450580  0.268430  1.0  -0.5798
  O  O753  1  0.648880  0.947670  0.550040  1.0  -0.5788
  O  O754  1  0.731570  0.948380  0.549420  1.0  -0.5784
  O  O755  1  0.648880  0.052330  0.449960  1.0  -0.579
  O  O756  1  0.731570  0.051620  0.450580  1.0  -0.5782
  O  O757  1  0.351120  0.052330  0.550040  1.0  -0.5791
  O  O758  1  0.268430  0.051620  0.549420  1.0  -0.5769
  O  O759  1  0.351120  0.947670  0.449960  1.0  -0.5797
  O  O760  1  0.268430  0.948380  0.450580  1.0  -0.5771
  O  O761  1  0.550040  0.648880  0.947670  1.0  -0.5808
  O  O762  1  0.549420  0.731570  0.948380  1.0  -0.5788
  O  O763  1  0.449960  0.648880  0.052330  1.0  -0.5803
  O  O764  1  0.450580  0.731570  0.051620  1.0  -0.5797
  O  O765  1  0.550040  0.351120  0.052330  1.0  -0.58
  O  O766  1  0.549420  0.268430  0.051620  1.0  -0.5796
  O  O767  1  0.449960  0.351120  0.947670  1.0  -0.5808
  O  O768  1  0.450580  0.268430  0.948380  1.0  -0.5791
  O  O769  1  0.052330  0.449960  0.351120  1.0  -0.5779
  O  O770  1  0.051620  0.450580  0.268430  1.0  -0.5785
  O  O771  1  0.947670  0.550040  0.351120  1.0  -0.5777
  O  O772  1  0.948380  0.549420  0.268430  1.0  -0.5804
  O  O773  1  0.947670  0.449960  0.648880  1.0  -0.5785
  O  O774  1  0.948380  0.450580  0.731570  1.0  -0.5795
  O  O775  1  0.052330  0.550040  0.648880  1.0  -0.5782
  O  O776  1  0.051620  0.549420  0.731570  1.0  -0.5796
  O  O777  1  0.351120  0.052330  0.449960  1.0  -0.5797
  O  O778  1  0.268430  0.051620  0.450580  1.0  -0.5772
  O  O779  1  0.351120  0.947670  0.550040  1.0  -0.5793
  O  O780  1  0.268430  0.948380  0.549420  1.0  -0.5769
  O  O781  1  0.648880  0.947670  0.449960  1.0  -0.5789
  O  O782  1  0.731570  0.948380  0.450580  1.0  -0.5787
  O  O783  1  0.648880  0.052330  0.550040  1.0  -0.5789
  O  O784  1  0.731570  0.051620  0.549420  1.0  -0.5781
  O  O785  1  0.449960  0.351120  0.052330  1.0  -0.5807
  O  O786  1  0.450580  0.268430  0.051620  1.0  -0.5795
  O  O787  1  0.550040  0.351120  0.947670  1.0  -0.5804
  O  O788  1  0.549420  0.268430  0.948380  1.0  -0.5793
  O  O789  1  0.449960  0.648880  0.947670  1.0  -0.5805
  O  O790  1  0.450580  0.731570  0.948380  1.0  -0.5796
  O  O791  1  0.550040  0.648880  0.052330  1.0  -0.5808
  O  O792  1  0.549420  0.731570  0.051620  1.0  -0.5789
