# generated using pymatgen
data_CuH10(C9O2)2
_symmetry_space_group_name_H-M   'P 1'
_cell_length_a   26.97300000
_cell_length_b   26.97300000
_cell_length_c   26.97300000
_cell_angle_alpha   90.00000000
_cell_angle_beta   90.00000000
_cell_angle_gamma   90.00000000
_symmetry_Int_Tables_number   1
_chemical_formula_structural   CuH10(C9O2)2
_chemical_formula_sum   'Cu24 H240 C432 O96'
_cell_volume   19624.01002932
_cell_formula_units_Z   24
loop_
 _symmetry_equiv_pos_site_id
 _symmetry_equiv_pos_as_xyz
  1  'x, y, z'
loop_
 _atom_site_type_symbol
 _atom_site_label
 _atom_site_symmetry_multiplicity
 _atom_site_fract_x
 _atom_site_fract_y
 _atom_site_fract_z
 _atom_site_occupancy
 _atom_site_charge
  Cu  Cu1  1  0.500000  0.000000  0.144120  1.0  0.8729
  Cu  Cu2  1  0.500000  0.000000  0.240110  1.0  0.9059
  Cu  Cu3  1  0.500000  0.000000  0.855880  1.0  0.8733
  Cu  Cu4  1  0.500000  0.000000  0.759890  1.0  0.9092
  Cu  Cu5  1  0.144120  0.500000  0.000000  1.0  0.8727
  Cu  Cu6  1  0.240110  0.500000  0.000000  1.0  0.9109
  Cu  Cu7  1  0.855880  0.500000  0.000000  1.0  0.8738
  Cu  Cu8  1  0.759890  0.500000  0.000000  1.0  0.9101
  Cu  Cu9  1  0.000000  0.144120  0.500000  1.0  0.874
  Cu  Cu10  1  0.000000  0.240110  0.500000  1.0  0.9114
  Cu  Cu11  1  0.000000  0.855880  0.500000  1.0  0.8734
  Cu  Cu12  1  0.000000  0.759890  0.500000  1.0  0.912
  Cu  Cu13  1  0.000000  0.500000  0.644120  1.0  0.8729
  Cu  Cu14  1  0.000000  0.500000  0.740110  1.0  0.9059
  Cu  Cu15  1  0.000000  0.500000  0.355880  1.0  0.8733
  Cu  Cu16  1  0.000000  0.500000  0.259890  1.0  0.9092
  Cu  Cu17  1  0.644120  0.000000  0.500000  1.0  0.8727
  Cu  Cu18  1  0.740110  0.000000  0.500000  1.0  0.9109
  Cu  Cu19  1  0.355880  0.000000  0.500000  1.0  0.8738
  Cu  Cu20  1  0.259890  0.000000  0.500000  1.0  0.9101
  Cu  Cu21  1  0.500000  0.644120  0.000000  1.0  0.874
  Cu  Cu22  1  0.500000  0.740110  0.000000  1.0  0.9114
  Cu  Cu23  1  0.500000  0.355880  0.000000  1.0  0.8734
  Cu  Cu24  1  0.500000  0.259890  0.000000  1.0  0.912
  H  H25  1  0.373000  0.098100  0.118100  1.0  0.1024
  H  H26  1  0.305900  0.136800  0.272500  1.0  0.0984
  H  H27  1  0.299500  0.144100  0.122500  1.0  0.1132
  H  H28  1  0.380700  0.094700  0.267000  1.0  0.108
  H  H29  1  0.221000  0.142800  0.263200  1.0  0.1091
  H  H30  1  0.627000  0.901900  0.118100  1.0  0.1032
  H  H31  1  0.694100  0.863200  0.272500  1.0  0.0986
  H  H32  1  0.700500  0.855900  0.122500  1.0  0.1133
  H  H33  1  0.619300  0.905300  0.267000  1.0  0.1083
  H  H34  1  0.779000  0.857200  0.263200  1.0  0.1082
  H  H35  1  0.627000  0.098100  0.881900  1.0  0.1025
  H  H36  1  0.694100  0.136800  0.727500  1.0  0.0988
  H  H37  1  0.700500  0.144100  0.877500  1.0  0.1139
  H  H38  1  0.619300  0.094700  0.733000  1.0  0.1085
  H  H39  1  0.779000  0.142800  0.736800  1.0  0.1097
  H  H40  1  0.373000  0.901900  0.881900  1.0  0.1022
  H  H41  1  0.305900  0.863200  0.727500  1.0  0.0992
  H  H42  1  0.299500  0.855900  0.877500  1.0  0.114
  H  H43  1  0.380700  0.905300  0.733000  1.0  0.1082
  H  H44  1  0.221000  0.857200  0.736800  1.0  0.1083
  H  H45  1  0.118100  0.373000  0.098100  1.0  0.1027
  H  H46  1  0.272500  0.305900  0.136800  1.0  0.1015
  H  H47  1  0.122500  0.299500  0.144100  1.0  0.1144
  H  H48  1  0.267000  0.380700  0.094700  1.0  0.1075
  H  H49  1  0.263200  0.221000  0.142800  1.0  0.1113
  H  H50  1  0.118100  0.627000  0.901900  1.0  0.1032
  H  H51  1  0.272500  0.694100  0.863200  1.0  0.1011
  H  H52  1  0.122500  0.700500  0.855900  1.0  0.1149
  H  H53  1  0.267000  0.619300  0.905300  1.0  0.1077
  H  H54  1  0.263200  0.779000  0.857200  1.0  0.1112
  H  H55  1  0.881900  0.627000  0.098100  1.0  0.1029
  H  H56  1  0.727500  0.694100  0.136800  1.0  0.1006
  H  H57  1  0.877500  0.700500  0.144100  1.0  0.1149
  H  H58  1  0.733000  0.619300  0.094700  1.0  0.1074
  H  H59  1  0.736800  0.779000  0.142800  1.0  0.1121
  H  H60  1  0.881900  0.373000  0.901900  1.0  0.1031
  H  H61  1  0.727500  0.305900  0.863200  1.0  0.1011
  H  H62  1  0.877500  0.299500  0.855900  1.0  0.1143
  H  H63  1  0.733000  0.380700  0.905300  1.0  0.1076
  H  H64  1  0.736800  0.221000  0.857200  1.0  0.1117
  H  H65  1  0.098100  0.118100  0.373000  1.0  0.1029
  H  H66  1  0.136800  0.272500  0.305900  1.0  0.0991
  H  H67  1  0.144100  0.122500  0.299500  1.0  0.1122
  H  H68  1  0.094700  0.267000  0.380700  1.0  0.1079
  H  H69  1  0.142800  0.263200  0.221000  1.0  0.1104
  H  H70  1  0.901900  0.118100  0.627000  1.0  0.1029
  H  H71  1  0.863200  0.272500  0.694100  1.0  0.0995
  H  H72  1  0.855900  0.122500  0.700500  1.0  0.113
  H  H73  1  0.905300  0.267000  0.619300  1.0  0.1077
  H  H74  1  0.857200  0.263200  0.779000  1.0  0.1092
  H  H75  1  0.098100  0.881900  0.627000  1.0  0.1033
  H  H76  1  0.136800  0.727500  0.694100  1.0  0.0984
  H  H77  1  0.144100  0.877500  0.700500  1.0  0.1121
  H  H78  1  0.094700  0.733000  0.619300  1.0  0.1074
  H  H79  1  0.142800  0.736800  0.779000  1.0  0.1105
  H  H80  1  0.901900  0.881900  0.373000  1.0  0.1029
  H  H81  1  0.863200  0.727500  0.305900  1.0  0.0994
  H  H82  1  0.855900  0.877500  0.299500  1.0  0.1127
  H  H83  1  0.905300  0.733000  0.380700  1.0  0.1079
  H  H84  1  0.857200  0.736800  0.221000  1.0  0.1102
  H  H85  1  0.627000  0.901900  0.881900  1.0  0.1025
  H  H86  1  0.694100  0.863200  0.727500  1.0  0.0991
  H  H87  1  0.700500  0.855900  0.877500  1.0  0.1139
  H  H88  1  0.619300  0.905300  0.733000  1.0  0.1083
  H  H89  1  0.779000  0.857200  0.736800  1.0  0.1085
  H  H90  1  0.373000  0.098100  0.881900  1.0  0.1022
  H  H91  1  0.305900  0.136800  0.727500  1.0  0.0988
  H  H92  1  0.299500  0.144100  0.877500  1.0  0.1138
  H  H93  1  0.380700  0.094700  0.733000  1.0  0.1083
  H  H94  1  0.221000  0.142800  0.736800  1.0  0.1092
  H  H95  1  0.373000  0.901900  0.118100  1.0  0.1029
  H  H96  1  0.305900  0.863200  0.272500  1.0  0.0985
  H  H97  1  0.299500  0.855900  0.122500  1.0  0.1133
  H  H98  1  0.380700  0.905300  0.267000  1.0  0.108
  H  H99  1  0.221000  0.857200  0.263200  1.0  0.1081
  H  H100  1  0.627000  0.098100  0.118100  1.0  0.1026
  H  H101  1  0.694100  0.136800  0.272500  1.0  0.0985
  H  H102  1  0.700500  0.144100  0.122500  1.0  0.1135
  H  H103  1  0.619300  0.094700  0.267000  1.0  0.1083
  H  H104  1  0.779000  0.142800  0.263200  1.0  0.1095
  H  H105  1  0.881900  0.627000  0.901900  1.0  0.103
  H  H106  1  0.727500  0.694100  0.863200  1.0  0.1008
  H  H107  1  0.877500  0.700500  0.855900  1.0  0.1146
  H  H108  1  0.733000  0.619300  0.905300  1.0  0.1077
  H  H109  1  0.736800  0.779000  0.857200  1.0  0.1118
  H  H110  1  0.881900  0.373000  0.098100  1.0  0.1032
  H  H111  1  0.727500  0.305900  0.136800  1.0  0.1009
  H  H112  1  0.877500  0.299500  0.144100  1.0  0.1145
  H  H113  1  0.733000  0.380700  0.094700  1.0  0.1075
  H  H114  1  0.736800  0.221000  0.142800  1.0  0.1117
  H  H115  1  0.118100  0.373000  0.901900  1.0  0.1031
  H  H116  1  0.272500  0.305900  0.863200  1.0  0.1015
  H  H117  1  0.122500  0.299500  0.855900  1.0  0.1148
  H  H118  1  0.267000  0.380700  0.905300  1.0  0.1075
  H  H119  1  0.263200  0.221000  0.857200  1.0  0.1111
  H  H120  1  0.118100  0.627000  0.098100  1.0  0.1028
  H  H121  1  0.272500  0.694100  0.136800  1.0  0.1012
  H  H122  1  0.122500  0.700500  0.144100  1.0  0.1145
  H  H123  1  0.267000  0.619300  0.094700  1.0  0.1072
  H  H124  1  0.263200  0.779000  0.142800  1.0  0.1113
  H  H125  1  0.901900  0.881900  0.627000  1.0  0.1032
  H  H126  1  0.863200  0.727500  0.694100  1.0  0.0995
  H  H127  1  0.855900  0.877500  0.700500  1.0  0.1122
  H  H128  1  0.905300  0.733000  0.619300  1.0  0.1075
  H  H129  1  0.857200  0.736800  0.779000  1.0  0.1094
  H  H130  1  0.098100  0.881900  0.373000  1.0  0.103
  H  H131  1  0.136800  0.727500  0.305900  1.0  0.0983
  H  H132  1  0.144100  0.877500  0.299500  1.0  0.1127
  H  H133  1  0.094700  0.733000  0.380700  1.0  0.1077
  H  H134  1  0.142800  0.736800  0.221000  1.0  0.1106
  H  H135  1  0.901900  0.118100  0.373000  1.0  0.1027
  H  H136  1  0.863200  0.272500  0.305900  1.0  0.0998
  H  H137  1  0.855900  0.122500  0.299500  1.0  0.1125
  H  H138  1  0.905300  0.267000  0.380700  1.0  0.1079
  H  H139  1  0.857200  0.263200  0.221000  1.0  0.1099
  H  H140  1  0.098100  0.118100  0.627000  1.0  0.1028
  H  H141  1  0.136800  0.272500  0.694100  1.0  0.0991
  H  H142  1  0.144100  0.122500  0.700500  1.0  0.1127
  H  H143  1  0.094700  0.267000  0.619300  1.0  0.1076
  H  H144  1  0.142800  0.263200  0.779000  1.0  0.1101
  H  H145  1  0.873000  0.598100  0.618100  1.0  0.1024
  H  H146  1  0.805900  0.636800  0.772500  1.0  0.0989
  H  H147  1  0.799500  0.644100  0.622500  1.0  0.1132
  H  H148  1  0.880700  0.594700  0.767000  1.0  0.108
  H  H149  1  0.721000  0.642800  0.763200  1.0  0.1091
  H  H150  1  0.127000  0.401900  0.618100  1.0  0.1032
  H  H151  1  0.194100  0.363200  0.772500  1.0  0.0991
  H  H152  1  0.200500  0.355900  0.622500  1.0  0.1133
  H  H153  1  0.119300  0.405300  0.767000  1.0  0.1083
  H  H154  1  0.279000  0.357200  0.763200  1.0  0.1082
  H  H155  1  0.127000  0.598100  0.381900  1.0  0.1025
  H  H156  1  0.194100  0.636800  0.227500  1.0  0.0992
  H  H157  1  0.200500  0.644100  0.377500  1.0  0.1139
  H  H158  1  0.119300  0.594700  0.233000  1.0  0.1085
  H  H159  1  0.279000  0.642800  0.236800  1.0  0.1097
  H  H160  1  0.873000  0.401900  0.381900  1.0  0.1022
  H  H161  1  0.805900  0.363200  0.227500  1.0  0.0996
  H  H162  1  0.799500  0.355900  0.377500  1.0  0.114
  H  H163  1  0.880700  0.405300  0.233000  1.0  0.1082
  H  H164  1  0.721000  0.357200  0.236800  1.0  0.1083
  H  H165  1  0.618100  0.873000  0.598100  1.0  0.1027
  H  H166  1  0.772500  0.805900  0.636800  1.0  0.1018
  H  H167  1  0.622500  0.799500  0.644100  1.0  0.1144
  H  H168  1  0.767000  0.880700  0.594700  1.0  0.1075
  H  H169  1  0.763200  0.721000  0.642800  1.0  0.1113
  H  H170  1  0.618100  0.127000  0.401900  1.0  0.1032
  H  H171  1  0.772500  0.194100  0.363200  1.0  0.1015
  H  H172  1  0.622500  0.200500  0.355900  1.0  0.1149
  H  H173  1  0.767000  0.119300  0.405300  1.0  0.1077
  H  H174  1  0.763200  0.279000  0.357200  1.0  0.1112
  H  H175  1  0.381900  0.127000  0.598100  1.0  0.1029
  H  H176  1  0.227500  0.194100  0.636800  1.0  0.1009
  H  H177  1  0.377500  0.200500  0.644100  1.0  0.1149
  H  H178  1  0.233000  0.119300  0.594700  1.0  0.1074
  H  H179  1  0.236800  0.279000  0.642800  1.0  0.1121
  H  H180  1  0.381900  0.873000  0.401900  1.0  0.1031
  H  H181  1  0.227500  0.805900  0.363200  1.0  0.1015
  H  H182  1  0.377500  0.799500  0.355900  1.0  0.1143
  H  H183  1  0.233000  0.880700  0.405300  1.0  0.1076
  H  H184  1  0.236800  0.721000  0.357200  1.0  0.1117
  H  H185  1  0.598100  0.618100  0.873000  1.0  0.1029
  H  H186  1  0.636800  0.772500  0.805900  1.0  0.0995
  H  H187  1  0.644100  0.622500  0.799500  1.0  0.1122
  H  H188  1  0.594700  0.767000  0.880700  1.0  0.1079
  H  H189  1  0.642800  0.763200  0.721000  1.0  0.1104
  H  H190  1  0.401900  0.618100  0.127000  1.0  0.1029
  H  H191  1  0.363200  0.772500  0.194100  1.0  0.0998
  H  H192  1  0.355900  0.622500  0.200500  1.0  0.113
  H  H193  1  0.405300  0.767000  0.119300  1.0  0.1077
  H  H194  1  0.357200  0.763200  0.279000  1.0  0.1092
  H  H195  1  0.598100  0.381900  0.127000  1.0  0.1033
  H  H196  1  0.636800  0.227500  0.194100  1.0  0.0987
  H  H197  1  0.644100  0.377500  0.200500  1.0  0.1121
  H  H198  1  0.594700  0.233000  0.119300  1.0  0.1074
  H  H199  1  0.642800  0.236800  0.279000  1.0  0.1105
  H  H200  1  0.401900  0.381900  0.873000  1.0  0.1029
  H  H201  1  0.363200  0.227500  0.805900  1.0  0.0998
  H  H202  1  0.355900  0.377500  0.799500  1.0  0.1127
  H  H203  1  0.405300  0.233000  0.880700  1.0  0.1079
  H  H204  1  0.357200  0.236800  0.721000  1.0  0.1102
  H  H205  1  0.127000  0.401900  0.381900  1.0  0.1025
  H  H206  1  0.194100  0.363200  0.227500  1.0  0.0995
  H  H207  1  0.200500  0.355900  0.377500  1.0  0.1139
  H  H208  1  0.119300  0.405300  0.233000  1.0  0.1083
  H  H209  1  0.279000  0.357200  0.236800  1.0  0.1085
  H  H210  1  0.873000  0.598100  0.381900  1.0  0.1022
  H  H211  1  0.805900  0.636800  0.227500  1.0  0.0993
  H  H212  1  0.799500  0.644100  0.377500  1.0  0.1138
  H  H213  1  0.880700  0.594700  0.233000  1.0  0.1083
  H  H214  1  0.721000  0.642800  0.236800  1.0  0.1092
  H  H215  1  0.873000  0.401900  0.618100  1.0  0.1029
  H  H216  1  0.805900  0.363200  0.772500  1.0  0.099
  H  H217  1  0.799500  0.355900  0.622500  1.0  0.1133
  H  H218  1  0.880700  0.405300  0.767000  1.0  0.108
  H  H219  1  0.721000  0.357200  0.763200  1.0  0.1081
  H  H220  1  0.127000  0.598100  0.618100  1.0  0.1026
  H  H221  1  0.194100  0.636800  0.772500  1.0  0.0991
  H  H222  1  0.200500  0.644100  0.622500  1.0  0.1135
  H  H223  1  0.119300  0.594700  0.767000  1.0  0.1083
  H  H224  1  0.279000  0.642800  0.763200  1.0  0.1095
  H  H225  1  0.381900  0.127000  0.401900  1.0  0.103
  H  H226  1  0.227500  0.194100  0.363200  1.0  0.1012
  H  H227  1  0.377500  0.200500  0.355900  1.0  0.1146
  H  H228  1  0.233000  0.119300  0.405300  1.0  0.1077
  H  H229  1  0.236800  0.279000  0.357200  1.0  0.1118
  H  H230  1  0.381900  0.873000  0.598100  1.0  0.1032
  H  H231  1  0.227500  0.805900  0.636800  1.0  0.1012
  H  H232  1  0.377500  0.799500  0.644100  1.0  0.1145
  H  H233  1  0.233000  0.880700  0.594700  1.0  0.1075
  H  H234  1  0.236800  0.721000  0.642800  1.0  0.1117
  H  H235  1  0.618100  0.873000  0.401900  1.0  0.1031
  H  H236  1  0.772500  0.805900  0.363200  1.0  0.1019
  H  H237  1  0.622500  0.799500  0.355900  1.0  0.1148
  H  H238  1  0.767000  0.880700  0.405300  1.0  0.1075
  H  H239  1  0.763200  0.721000  0.357200  1.0  0.1111
  H  H240  1  0.618100  0.127000  0.598100  1.0  0.1028
  H  H241  1  0.772500  0.194100  0.636800  1.0  0.1014
  H  H242  1  0.622500  0.200500  0.644100  1.0  0.1145
  H  H243  1  0.767000  0.119300  0.594700  1.0  0.1072
  H  H244  1  0.763200  0.279000  0.642800  1.0  0.1113
  H  H245  1  0.401900  0.381900  0.127000  1.0  0.1032
  H  H246  1  0.363200  0.227500  0.194100  1.0  0.0998
  H  H247  1  0.355900  0.377500  0.200500  1.0  0.1122
  H  H248  1  0.405300  0.233000  0.119300  1.0  0.1075
  H  H249  1  0.357200  0.236800  0.279000  1.0  0.1094
  H  H250  1  0.598100  0.381900  0.873000  1.0  0.103
  H  H251  1  0.636800  0.227500  0.805900  1.0  0.0987
  H  H252  1  0.644100  0.377500  0.799500  1.0  0.1127
  H  H253  1  0.594700  0.233000  0.880700  1.0  0.1077
  H  H254  1  0.642800  0.236800  0.721000  1.0  0.1106
  H  H255  1  0.401900  0.618100  0.873000  1.0  0.1027
  H  H256  1  0.363200  0.772500  0.805900  1.0  0.1001
  H  H257  1  0.355900  0.622500  0.799500  1.0  0.1125
  H  H258  1  0.405300  0.767000  0.880700  1.0  0.1079
  H  H259  1  0.357200  0.763200  0.721000  1.0  0.1099
  H  H260  1  0.598100  0.618100  0.127000  1.0  0.1028
  H  H261  1  0.636800  0.772500  0.194100  1.0  0.0995
  H  H262  1  0.644100  0.622500  0.200500  1.0  0.1127
  H  H263  1  0.594700  0.767000  0.119300  1.0  0.1076
  H  H264  1  0.642800  0.763200  0.279000  1.0  0.1101
  C  C265  1  0.294500  0.145590  0.197500  1.0  0.0636
  C  C266  1  0.430470  0.062060  0.190400  1.0  0.6935
  C  C267  1  0.359800  0.106700  0.149200  1.0  -0.0521
  C  C268  1  0.319600  0.129800  0.241200  1.0  -0.114
  C  C269  1  0.315300  0.133900  0.151800  1.0  -0.1091
  C  C270  1  0.364100  0.104200  0.237900  1.0  -0.0828
  C  C271  1  0.216550  0.169900  0.241700  1.0  -0.1309
  C  C272  1  0.384380  0.092510  0.192280  1.0  -0.1214
  C  C273  1  0.249600  0.177100  0.202330  1.0  0.0223
  C  C274  1  0.705500  0.854410  0.197500  1.0  0.0673
  C  C275  1  0.569530  0.937940  0.190400  1.0  0.693
  C  C276  1  0.640200  0.893300  0.149200  1.0  -0.0525
  C  C277  1  0.680400  0.870200  0.241200  1.0  -0.1154
  C  C278  1  0.684700  0.866100  0.151800  1.0  -0.1117
  C  C279  1  0.635900  0.895800  0.237900  1.0  -0.0824
  C  C280  1  0.783450  0.830100  0.241700  1.0  -0.1314
  C  C281  1  0.615620  0.907490  0.192280  1.0  -0.1189
  C  C282  1  0.750400  0.822900  0.202330  1.0  0.0202
  C  C283  1  0.705500  0.145590  0.802500  1.0  0.064
  C  C284  1  0.569530  0.062060  0.809600  1.0  0.693
  C  C285  1  0.640200  0.106700  0.850800  1.0  -0.0533
  C  C286  1  0.680400  0.129800  0.758800  1.0  -0.1126
  C  C287  1  0.684700  0.133900  0.848200  1.0  -0.1113
  C  C288  1  0.635900  0.104200  0.762100  1.0  -0.0823
  C  C289  1  0.783450  0.169900  0.758300  1.0  -0.1347
  C  C290  1  0.615620  0.092510  0.807720  1.0  -0.12
  C  C291  1  0.750400  0.177100  0.797670  1.0  0.0222
  C  C292  1  0.294500  0.854410  0.802500  1.0  0.0672
  C  C293  1  0.430470  0.937940  0.809600  1.0  0.6935
  C  C294  1  0.359800  0.893300  0.850800  1.0  -0.0519
  C  C295  1  0.319600  0.870200  0.758800  1.0  -0.1148
  C  C296  1  0.315300  0.866100  0.848200  1.0  -0.1125
  C  C297  1  0.364100  0.895800  0.762100  1.0  -0.0838
  C  C298  1  0.216550  0.830100  0.758300  1.0  -0.1315
  C  C299  1  0.384380  0.907490  0.807720  1.0  -0.1208
  C  C300  1  0.249600  0.822900  0.797670  1.0  0.0211
  C  C301  1  0.197500  0.294500  0.145590  1.0  0.0652
  C  C302  1  0.190400  0.430470  0.062060  1.0  0.6948
  C  C303  1  0.149200  0.359800  0.106700  1.0  -0.0489
  C  C304  1  0.241200  0.319600  0.129800  1.0  -0.1111
  C  C305  1  0.151800  0.315300  0.133900  1.0  -0.1083
  C  C306  1  0.237900  0.364100  0.104200  1.0  -0.0803
  C  C307  1  0.241700  0.216550  0.169900  1.0  -0.1342
  C  C308  1  0.192280  0.384380  0.092510  1.0  -0.118
  C  C309  1  0.202330  0.249600  0.177100  1.0  0.0212
  C  C310  1  0.197500  0.705500  0.854410  1.0  0.0658
  C  C311  1  0.190400  0.569530  0.937940  1.0  0.6948
  C  C312  1  0.149200  0.640200  0.893300  1.0  -0.0484
  C  C313  1  0.241200  0.680400  0.870200  1.0  -0.112
  C  C314  1  0.151800  0.684700  0.866100  1.0  -0.1107
  C  C315  1  0.237900  0.635900  0.895800  1.0  -0.0803
  C  C316  1  0.241700  0.783450  0.830100  1.0  -0.1352
  C  C317  1  0.192280  0.615620  0.907490  1.0  -0.1189
  C  C318  1  0.202330  0.750400  0.822900  1.0  0.0235
  C  C319  1  0.802500  0.705500  0.145590  1.0  0.067
  C  C320  1  0.809600  0.569530  0.062060  1.0  0.6942
  C  C321  1  0.850800  0.640200  0.106700  1.0  -0.0482
  C  C322  1  0.758800  0.680400  0.129800  1.0  -0.1106
  C  C323  1  0.848200  0.684700  0.133900  1.0  -0.1072
  C  C324  1  0.762100  0.635900  0.104200  1.0  -0.0789
  C  C325  1  0.758300  0.783450  0.169900  1.0  -0.1349
  C  C326  1  0.807720  0.615620  0.092510  1.0  -0.1201
  C  C327  1  0.797670  0.750400  0.177100  1.0  0.0194
  C  C328  1  0.802500  0.294500  0.854410  1.0  0.066
  C  C329  1  0.809600  0.430470  0.937940  1.0  0.6947
  C  C330  1  0.850800  0.359800  0.893300  1.0  -0.0478
  C  C331  1  0.758800  0.319600  0.870200  1.0  -0.113
  C  C332  1  0.848200  0.315300  0.866100  1.0  -0.1077
  C  C333  1  0.762100  0.364100  0.895800  1.0  -0.0799
  C  C334  1  0.758300  0.216550  0.830100  1.0  -0.1361
  C  C335  1  0.807720  0.384380  0.907490  1.0  -0.1193
  C  C336  1  0.797670  0.249600  0.822900  1.0  0.0225
  C  C337  1  0.145590  0.197500  0.294500  1.0  0.0645
  C  C338  1  0.062060  0.190400  0.430470  1.0  0.695
  C  C339  1  0.106700  0.149200  0.359800  1.0  -0.0484
  C  C340  1  0.129800  0.241200  0.319600  1.0  -0.1122
  C  C341  1  0.133900  0.151800  0.315300  1.0  -0.1071
  C  C342  1  0.104200  0.237900  0.364100  1.0  -0.0787
  C  C343  1  0.169900  0.241700  0.216550  1.0  -0.1369
  C  C344  1  0.092510  0.192280  0.384380  1.0  -0.1202
  C  C345  1  0.177100  0.202330  0.249600  1.0  0.0228
  C  C346  1  0.854410  0.197500  0.705500  1.0  0.0628
  C  C347  1  0.937940  0.190400  0.569530  1.0  0.694
  C  C348  1  0.893300  0.149200  0.640200  1.0  -0.0478
  C  C349  1  0.870200  0.241200  0.680400  1.0  -0.1105
  C  C350  1  0.866100  0.151800  0.684700  1.0  -0.1067
  C  C351  1  0.895800  0.237900  0.635900  1.0  -0.0803
  C  C352  1  0.830100  0.241700  0.783450  1.0  -0.137
  C  C353  1  0.907490  0.192280  0.615620  1.0  -0.1208
  C  C354  1  0.822900  0.202330  0.750400  1.0  0.0255
  C  C355  1  0.145590  0.802500  0.705500  1.0  0.0632
  C  C356  1  0.062060  0.809600  0.569530  1.0  0.6947
  C  C357  1  0.106700  0.850800  0.640200  1.0  -0.0489
  C  C358  1  0.129800  0.758800  0.680400  1.0  -0.1123
  C  C359  1  0.133900  0.848200  0.684700  1.0  -0.1087
  C  C360  1  0.104200  0.762100  0.635900  1.0  -0.078
  C  C361  1  0.169900  0.758300  0.783450  1.0  -0.1367
  C  C362  1  0.092510  0.807720  0.615620  1.0  -0.1197
  C  C363  1  0.177100  0.797670  0.750400  1.0  0.0239
  C  C364  1  0.854410  0.802500  0.294500  1.0  0.0642
  C  C365  1  0.937940  0.809600  0.430470  1.0  0.695
  C  C366  1  0.893300  0.850800  0.359800  1.0  -0.0474
  C  C367  1  0.870200  0.758800  0.319600  1.0  -0.1114
  C  C368  1  0.866100  0.848200  0.315300  1.0  -0.1077
  C  C369  1  0.895800  0.762100  0.364100  1.0  -0.0792
  C  C370  1  0.830100  0.758300  0.216550  1.0  -0.1357
  C  C371  1  0.907490  0.807720  0.384380  1.0  -0.122
  C  C372  1  0.822900  0.797670  0.249600  1.0  0.023
  C  C373  1  0.705500  0.854410  0.802500  1.0  0.0673
  C  C374  1  0.569530  0.937940  0.809600  1.0  0.6931
  C  C375  1  0.640200  0.893300  0.850800  1.0  -0.0533
  C  C376  1  0.680400  0.870200  0.758800  1.0  -0.115
  C  C377  1  0.684700  0.866100  0.848200  1.0  -0.1109
  C  C378  1  0.635900  0.895800  0.762100  1.0  -0.0823
  C  C379  1  0.783450  0.830100  0.758300  1.0  -0.133
  C  C380  1  0.615620  0.907490  0.807720  1.0  -0.119
  C  C381  1  0.750400  0.822900  0.797670  1.0  0.0202
  C  C382  1  0.294500  0.145590  0.802500  1.0  0.0644
  C  C383  1  0.430470  0.062060  0.809600  1.0  0.6933
  C  C384  1  0.359800  0.106700  0.850800  1.0  -0.0521
  C  C385  1  0.319600  0.129800  0.758800  1.0  -0.1128
  C  C386  1  0.315300  0.133900  0.848200  1.0  -0.1122
  C  C387  1  0.364100  0.104200  0.762100  1.0  -0.0835
  C  C388  1  0.216550  0.169900  0.758300  1.0  -0.1326
  C  C389  1  0.384380  0.092510  0.807720  1.0  -0.1215
  C  C390  1  0.249600  0.177100  0.797670  1.0  0.0228
  C  C391  1  0.294500  0.854410  0.197500  1.0  0.0661
  C  C392  1  0.430470  0.937940  0.190400  1.0  0.6935
  C  C393  1  0.359800  0.893300  0.149200  1.0  -0.0525
  C  C394  1  0.319600  0.870200  0.241200  1.0  -0.1152
  C  C395  1  0.315300  0.866100  0.151800  1.0  -0.1105
  C  C396  1  0.364100  0.895800  0.237900  1.0  -0.0831
  C  C397  1  0.216550  0.830100  0.241700  1.0  -0.1301
  C  C398  1  0.384380  0.907490  0.192280  1.0  -0.1207
  C  C399  1  0.249600  0.822900  0.202330  1.0  0.0223
  C  C400  1  0.705500  0.145590  0.197500  1.0  0.0638
  C  C401  1  0.569530  0.062060  0.190400  1.0  0.6932
  C  C402  1  0.640200  0.106700  0.149200  1.0  -0.0521
  C  C403  1  0.680400  0.129800  0.241200  1.0  -0.1136
  C  C404  1  0.684700  0.133900  0.151800  1.0  -0.1112
  C  C405  1  0.635900  0.104200  0.237900  1.0  -0.082
  C  C406  1  0.783450  0.169900  0.241700  1.0  -0.1325
  C  C407  1  0.615620  0.092510  0.192280  1.0  -0.12
  C  C408  1  0.750400  0.177100  0.202330  1.0  0.0219
  C  C409  1  0.802500  0.705500  0.854410  1.0  0.0671
  C  C410  1  0.809600  0.569530  0.937940  1.0  0.6945
  C  C411  1  0.850800  0.640200  0.893300  1.0  -0.0478
  C  C412  1  0.758800  0.680400  0.870200  1.0  -0.1125
  C  C413  1  0.848200  0.684700  0.866100  1.0  -0.1074
  C  C414  1  0.762100  0.635900  0.895800  1.0  -0.079
  C  C415  1  0.758300  0.783450  0.830100  1.0  -0.1359
  C  C416  1  0.807720  0.615620  0.907490  1.0  -0.1196
  C  C417  1  0.797670  0.750400  0.822900  1.0  0.0215
  C  C418  1  0.802500  0.294500  0.145590  1.0  0.0646
  C  C419  1  0.809600  0.430470  0.062060  1.0  0.6943
  C  C420  1  0.850800  0.359800  0.106700  1.0  -0.048
  C  C421  1  0.758800  0.319600  0.129800  1.0  -0.1112
  C  C422  1  0.848200  0.315300  0.133900  1.0  -0.1074
  C  C423  1  0.762100  0.364100  0.104200  1.0  -0.079
  C  C424  1  0.758300  0.216550  0.169900  1.0  -0.1358
  C  C425  1  0.807720  0.384380  0.092510  1.0  -0.119
  C  C426  1  0.797670  0.249600  0.177100  1.0  0.0199
  C  C427  1  0.197500  0.294500  0.854410  1.0  0.0655
  C  C428  1  0.190400  0.430470  0.937940  1.0  0.6951
  C  C429  1  0.149200  0.359800  0.893300  1.0  -0.0489
  C  C430  1  0.241200  0.319600  0.870200  1.0  -0.1125
  C  C431  1  0.151800  0.315300  0.866100  1.0  -0.1089
  C  C432  1  0.237900  0.364100  0.895800  1.0  -0.0806
  C  C433  1  0.241700  0.216550  0.830100  1.0  -0.135
  C  C434  1  0.192280  0.384380  0.907490  1.0  -0.1182
  C  C435  1  0.202330  0.249600  0.822900  1.0  0.0241
  C  C436  1  0.197500  0.705500  0.145590  1.0  0.0678
  C  C437  1  0.190400  0.569530  0.062060  1.0  0.6947
  C  C438  1  0.149200  0.640200  0.106700  1.0  -0.0485
  C  C439  1  0.241200  0.680400  0.129800  1.0  -0.1107
  C  C440  1  0.151800  0.684700  0.133900  1.0  -0.1099
  C  C441  1  0.237900  0.635900  0.104200  1.0  -0.0802
  C  C442  1  0.241700  0.783450  0.169900  1.0  -0.1331
  C  C443  1  0.192280  0.615620  0.092510  1.0  -0.1195
  C  C444  1  0.202330  0.750400  0.177100  1.0  0.0206
  C  C445  1  0.854410  0.802500  0.705500  1.0  0.0626
  C  C446  1  0.937940  0.809600  0.569530  1.0  0.6943
  C  C447  1  0.893300  0.850800  0.640200  1.0  -0.0475
  C  C448  1  0.870200  0.758800  0.680400  1.0  -0.1113
  C  C449  1  0.866100  0.848200  0.684700  1.0  -0.1081
  C  C450  1  0.895800  0.762100  0.635900  1.0  -0.0794
  C  C451  1  0.830100  0.758300  0.783450  1.0  -0.1365
  C  C452  1  0.907490  0.807720  0.615620  1.0  -0.1204
  C  C453  1  0.822900  0.797670  0.750400  1.0  0.0246
  C  C454  1  0.145590  0.802500  0.294500  1.0  0.0646
  C  C455  1  0.062060  0.809600  0.430470  1.0  0.6952
  C  C456  1  0.106700  0.850800  0.359800  1.0  -0.0484
  C  C457  1  0.129800  0.758800  0.319600  1.0  -0.1119
  C  C458  1  0.133900  0.848200  0.315300  1.0  -0.109
  C  C459  1  0.104200  0.762100  0.364100  1.0  -0.0782
  C  C460  1  0.169900  0.758300  0.216550  1.0  -0.1355
  C  C461  1  0.092510  0.807720  0.384380  1.0  -0.1204
  C  C462  1  0.177100  0.797670  0.249600  1.0  0.0223
  C  C463  1  0.854410  0.197500  0.294500  1.0  0.0639
  C  C464  1  0.937940  0.190400  0.430470  1.0  0.6947
  C  C465  1  0.893300  0.149200  0.359800  1.0  -0.0478
  C  C466  1  0.870200  0.241200  0.319600  1.0  -0.1108
  C  C467  1  0.866100  0.151800  0.315300  1.0  -0.1063
  C  C468  1  0.895800  0.237900  0.364100  1.0  -0.0805
  C  C469  1  0.830100  0.241700  0.216550  1.0  -0.1361
  C  C470  1  0.907490  0.192280  0.384380  1.0  -0.1219
  C  C471  1  0.822900  0.202330  0.249600  1.0  0.0234
  C  C472  1  0.145590  0.197500  0.705500  1.0  0.0631
  C  C473  1  0.062060  0.190400  0.569530  1.0  0.6944
  C  C474  1  0.106700  0.149200  0.640200  1.0  -0.0488
  C  C475  1  0.129800  0.241200  0.680400  1.0  -0.1121
  C  C476  1  0.133900  0.151800  0.684700  1.0  -0.1066
  C  C477  1  0.104200  0.237900  0.635900  1.0  -0.078
  C  C478  1  0.169900  0.241700  0.783450  1.0  -0.1381
  C  C479  1  0.092510  0.192280  0.615620  1.0  -0.12
  C  C480  1  0.177100  0.202330  0.750400  1.0  0.0246
  C  C481  1  0.794500  0.645590  0.697500  1.0  0.0636
  C  C482  1  0.930470  0.562060  0.690400  1.0  0.6935
  C  C483  1  0.859800  0.606700  0.649200  1.0  -0.0521
  C  C484  1  0.819600  0.629800  0.741200  1.0  -0.114
  C  C485  1  0.815300  0.633900  0.651800  1.0  -0.1091
  C  C486  1  0.864100  0.604200  0.737900  1.0  -0.0828
  C  C487  1  0.716550  0.669900  0.741700  1.0  -0.1309
  C  C488  1  0.884380  0.592510  0.692280  1.0  -0.1214
  C  C489  1  0.749600  0.677100  0.702330  1.0  0.0223
  C  C490  1  0.205500  0.354410  0.697500  1.0  0.0673
  C  C491  1  0.069530  0.437940  0.690400  1.0  0.693
  C  C492  1  0.140200  0.393300  0.649200  1.0  -0.0525
  C  C493  1  0.180400  0.370200  0.741200  1.0  -0.1154
  C  C494  1  0.184700  0.366100  0.651800  1.0  -0.1117
  C  C495  1  0.135900  0.395800  0.737900  1.0  -0.0824
  C  C496  1  0.283450  0.330100  0.741700  1.0  -0.1314
  C  C497  1  0.115620  0.407490  0.692280  1.0  -0.1189
  C  C498  1  0.250400  0.322900  0.702330  1.0  0.0202
  C  C499  1  0.205500  0.645590  0.302500  1.0  0.064
  C  C500  1  0.069530  0.562060  0.309600  1.0  0.693
  C  C501  1  0.140200  0.606700  0.350800  1.0  -0.0533
  C  C502  1  0.180400  0.629800  0.258800  1.0  -0.1126
  C  C503  1  0.184700  0.633900  0.348200  1.0  -0.1113
  C  C504  1  0.135900  0.604200  0.262100  1.0  -0.0823
  C  C505  1  0.283450  0.669900  0.258300  1.0  -0.1347
  C  C506  1  0.115620  0.592510  0.307720  1.0  -0.12
  C  C507  1  0.250400  0.677100  0.297670  1.0  0.0222
  C  C508  1  0.794500  0.354410  0.302500  1.0  0.0672
  C  C509  1  0.930470  0.437940  0.309600  1.0  0.6935
  C  C510  1  0.859800  0.393300  0.350800  1.0  -0.0519
  C  C511  1  0.819600  0.370200  0.258800  1.0  -0.1148
  C  C512  1  0.815300  0.366100  0.348200  1.0  -0.1125
  C  C513  1  0.864100  0.395800  0.262100  1.0  -0.0838
  C  C514  1  0.716550  0.330100  0.258300  1.0  -0.1315
  C  C515  1  0.884380  0.407490  0.307720  1.0  -0.1208
  C  C516  1  0.749600  0.322900  0.297670  1.0  0.0211
  C  C517  1  0.697500  0.794500  0.645590  1.0  0.0652
  C  C518  1  0.690400  0.930470  0.562060  1.0  0.6948
  C  C519  1  0.649200  0.859800  0.606700  1.0  -0.0489
  C  C520  1  0.741200  0.819600  0.629800  1.0  -0.1111
  C  C521  1  0.651800  0.815300  0.633900  1.0  -0.1083
  C  C522  1  0.737900  0.864100  0.604200  1.0  -0.0803
  C  C523  1  0.741700  0.716550  0.669900  1.0  -0.1342
  C  C524  1  0.692280  0.884380  0.592510  1.0  -0.118
  C  C525  1  0.702330  0.749600  0.677100  1.0  0.0212
  C  C526  1  0.697500  0.205500  0.354410  1.0  0.0658
  C  C527  1  0.690400  0.069530  0.437940  1.0  0.6948
  C  C528  1  0.649200  0.140200  0.393300  1.0  -0.0484
  C  C529  1  0.741200  0.180400  0.370200  1.0  -0.112
  C  C530  1  0.651800  0.184700  0.366100  1.0  -0.1107
  C  C531  1  0.737900  0.135900  0.395800  1.0  -0.0803
  C  C532  1  0.741700  0.283450  0.330100  1.0  -0.1352
  C  C533  1  0.692280  0.115620  0.407490  1.0  -0.1189
  C  C534  1  0.702330  0.250400  0.322900  1.0  0.0235
  C  C535  1  0.302500  0.205500  0.645590  1.0  0.067
  C  C536  1  0.309600  0.069530  0.562060  1.0  0.6942
  C  C537  1  0.350800  0.140200  0.606700  1.0  -0.0482
  C  C538  1  0.258800  0.180400  0.629800  1.0  -0.1106
  C  C539  1  0.348200  0.184700  0.633900  1.0  -0.1072
  C  C540  1  0.262100  0.135900  0.604200  1.0  -0.0789
  C  C541  1  0.258300  0.283450  0.669900  1.0  -0.1349
  C  C542  1  0.307720  0.115620  0.592510  1.0  -0.1201
  C  C543  1  0.297670  0.250400  0.677100  1.0  0.0194
  C  C544  1  0.302500  0.794500  0.354410  1.0  0.066
  C  C545  1  0.309600  0.930470  0.437940  1.0  0.6947
  C  C546  1  0.350800  0.859800  0.393300  1.0  -0.0478
  C  C547  1  0.258800  0.819600  0.370200  1.0  -0.113
  C  C548  1  0.348200  0.815300  0.366100  1.0  -0.1077
  C  C549  1  0.262100  0.864100  0.395800  1.0  -0.0799
  C  C550  1  0.258300  0.716550  0.330100  1.0  -0.1361
  C  C551  1  0.307720  0.884380  0.407490  1.0  -0.1193
  C  C552  1  0.297670  0.749600  0.322900  1.0  0.0225
  C  C553  1  0.645590  0.697500  0.794500  1.0  0.0645
  C  C554  1  0.562060  0.690400  0.930470  1.0  0.695
  C  C555  1  0.606700  0.649200  0.859800  1.0  -0.0484
  C  C556  1  0.629800  0.741200  0.819600  1.0  -0.1122
  C  C557  1  0.633900  0.651800  0.815300  1.0  -0.1071
  C  C558  1  0.604200  0.737900  0.864100  1.0  -0.0787
  C  C559  1  0.669900  0.741700  0.716550  1.0  -0.1369
  C  C560  1  0.592510  0.692280  0.884380  1.0  -0.1202
  C  C561  1  0.677100  0.702330  0.749600  1.0  0.0228
  C  C562  1  0.354410  0.697500  0.205500  1.0  0.0628
  C  C563  1  0.437940  0.690400  0.069530  1.0  0.694
  C  C564  1  0.393300  0.649200  0.140200  1.0  -0.0478
  C  C565  1  0.370200  0.741200  0.180400  1.0  -0.1105
  C  C566  1  0.366100  0.651800  0.184700  1.0  -0.1067
  C  C567  1  0.395800  0.737900  0.135900  1.0  -0.0803
  C  C568  1  0.330100  0.741700  0.283450  1.0  -0.137
  C  C569  1  0.407490  0.692280  0.115620  1.0  -0.1208
  C  C570  1  0.322900  0.702330  0.250400  1.0  0.0255
  C  C571  1  0.645590  0.302500  0.205500  1.0  0.0632
  C  C572  1  0.562060  0.309600  0.069530  1.0  0.6947
  C  C573  1  0.606700  0.350800  0.140200  1.0  -0.0489
  C  C574  1  0.629800  0.258800  0.180400  1.0  -0.1123
  C  C575  1  0.633900  0.348200  0.184700  1.0  -0.1087
  C  C576  1  0.604200  0.262100  0.135900  1.0  -0.078
  C  C577  1  0.669900  0.258300  0.283450  1.0  -0.1367
  C  C578  1  0.592510  0.307720  0.115620  1.0  -0.1197
  C  C579  1  0.677100  0.297670  0.250400  1.0  0.0239
  C  C580  1  0.354410  0.302500  0.794500  1.0  0.0642
  C  C581  1  0.437940  0.309600  0.930470  1.0  0.695
  C  C582  1  0.393300  0.350800  0.859800  1.0  -0.0474
  C  C583  1  0.370200  0.258800  0.819600  1.0  -0.1114
  C  C584  1  0.366100  0.348200  0.815300  1.0  -0.1077
  C  C585  1  0.395800  0.262100  0.864100  1.0  -0.0792
  C  C586  1  0.330100  0.258300  0.716550  1.0  -0.1357
  C  C587  1  0.407490  0.307720  0.884380  1.0  -0.122
  C  C588  1  0.322900  0.297670  0.749600  1.0  0.023
  C  C589  1  0.205500  0.354410  0.302500  1.0  0.0673
  C  C590  1  0.069530  0.437940  0.309600  1.0  0.6931
  C  C591  1  0.140200  0.393300  0.350800  1.0  -0.0533
  C  C592  1  0.180400  0.370200  0.258800  1.0  -0.115
  C  C593  1  0.184700  0.366100  0.348200  1.0  -0.1109
  C  C594  1  0.135900  0.395800  0.262100  1.0  -0.0823
  C  C595  1  0.283450  0.330100  0.258300  1.0  -0.133
  C  C596  1  0.115620  0.407490  0.307720  1.0  -0.119
  C  C597  1  0.250400  0.322900  0.297670  1.0  0.0202
  C  C598  1  0.794500  0.645590  0.302500  1.0  0.0644
  C  C599  1  0.930470  0.562060  0.309600  1.0  0.6933
  C  C600  1  0.859800  0.606700  0.350800  1.0  -0.0521
  C  C601  1  0.819600  0.629800  0.258800  1.0  -0.1128
  C  C602  1  0.815300  0.633900  0.348200  1.0  -0.1122
  C  C603  1  0.864100  0.604200  0.262100  1.0  -0.0835
  C  C604  1  0.716550  0.669900  0.258300  1.0  -0.1326
  C  C605  1  0.884380  0.592510  0.307720  1.0  -0.1215
  C  C606  1  0.749600  0.677100  0.297670  1.0  0.0228
  C  C607  1  0.794500  0.354410  0.697500  1.0  0.0661
  C  C608  1  0.930470  0.437940  0.690400  1.0  0.6935
  C  C609  1  0.859800  0.393300  0.649200  1.0  -0.0525
  C  C610  1  0.819600  0.370200  0.741200  1.0  -0.1152
  C  C611  1  0.815300  0.366100  0.651800  1.0  -0.1105
  C  C612  1  0.864100  0.395800  0.737900  1.0  -0.0831
  C  C613  1  0.716550  0.330100  0.741700  1.0  -0.1301
  C  C614  1  0.884380  0.407490  0.692280  1.0  -0.1207
  C  C615  1  0.749600  0.322900  0.702330  1.0  0.0223
  C  C616  1  0.205500  0.645590  0.697500  1.0  0.0638
  C  C617  1  0.069530  0.562060  0.690400  1.0  0.6932
  C  C618  1  0.140200  0.606700  0.649200  1.0  -0.0521
  C  C619  1  0.180400  0.629800  0.741200  1.0  -0.1136
  C  C620  1  0.184700  0.633900  0.651800  1.0  -0.1112
  C  C621  1  0.135900  0.604200  0.737900  1.0  -0.082
  C  C622  1  0.283450  0.669900  0.741700  1.0  -0.1325
  C  C623  1  0.115620  0.592510  0.692280  1.0  -0.12
  C  C624  1  0.250400  0.677100  0.702330  1.0  0.0219
  C  C625  1  0.302500  0.205500  0.354410  1.0  0.0671
  C  C626  1  0.309600  0.069530  0.437940  1.0  0.6945
  C  C627  1  0.350800  0.140200  0.393300  1.0  -0.0478
  C  C628  1  0.258800  0.180400  0.370200  1.0  -0.1125
  C  C629  1  0.348200  0.184700  0.366100  1.0  -0.1074
  C  C630  1  0.262100  0.135900  0.395800  1.0  -0.079
  C  C631  1  0.258300  0.283450  0.330100  1.0  -0.1359
  C  C632  1  0.307720  0.115620  0.407490  1.0  -0.1196
  C  C633  1  0.297670  0.250400  0.322900  1.0  0.0215
  C  C634  1  0.302500  0.794500  0.645590  1.0  0.0646
  C  C635  1  0.309600  0.930470  0.562060  1.0  0.6943
  C  C636  1  0.350800  0.859800  0.606700  1.0  -0.048
  C  C637  1  0.258800  0.819600  0.629800  1.0  -0.1112
  C  C638  1  0.348200  0.815300  0.633900  1.0  -0.1074
  C  C639  1  0.262100  0.864100  0.604200  1.0  -0.079
  C  C640  1  0.258300  0.716550  0.669900  1.0  -0.1358
  C  C641  1  0.307720  0.884380  0.592510  1.0  -0.119
  C  C642  1  0.297670  0.749600  0.677100  1.0  0.0199
  C  C643  1  0.697500  0.794500  0.354410  1.0  0.0655
  C  C644  1  0.690400  0.930470  0.437940  1.0  0.6951
  C  C645  1  0.649200  0.859800  0.393300  1.0  -0.0489
  C  C646  1  0.741200  0.819600  0.370200  1.0  -0.1125
  C  C647  1  0.651800  0.815300  0.366100  1.0  -0.1089
  C  C648  1  0.737900  0.864100  0.395800  1.0  -0.0806
  C  C649  1  0.741700  0.716550  0.330100  1.0  -0.135
  C  C650  1  0.692280  0.884380  0.407490  1.0  -0.1182
  C  C651  1  0.702330  0.749600  0.322900  1.0  0.0241
  C  C652  1  0.697500  0.205500  0.645590  1.0  0.0678
  C  C653  1  0.690400  0.069530  0.562060  1.0  0.6947
  C  C654  1  0.649200  0.140200  0.606700  1.0  -0.0485
  C  C655  1  0.741200  0.180400  0.629800  1.0  -0.1107
  C  C656  1  0.651800  0.184700  0.633900  1.0  -0.1099
  C  C657  1  0.737900  0.135900  0.604200  1.0  -0.0802
  C  C658  1  0.741700  0.283450  0.669900  1.0  -0.1331
  C  C659  1  0.692280  0.115620  0.592510  1.0  -0.1195
  C  C660  1  0.702330  0.250400  0.677100  1.0  0.0206
  C  C661  1  0.354410  0.302500  0.205500  1.0  0.0626
  C  C662  1  0.437940  0.309600  0.069530  1.0  0.6943
  C  C663  1  0.393300  0.350800  0.140200  1.0  -0.0475
  C  C664  1  0.370200  0.258800  0.180400  1.0  -0.1113
  C  C665  1  0.366100  0.348200  0.184700  1.0  -0.1081
  C  C666  1  0.395800  0.262100  0.135900  1.0  -0.0794
  C  C667  1  0.330100  0.258300  0.283450  1.0  -0.1365
  C  C668  1  0.407490  0.307720  0.115620  1.0  -0.1204
  C  C669  1  0.322900  0.297670  0.250400  1.0  0.0246
  C  C670  1  0.645590  0.302500  0.794500  1.0  0.0646
  C  C671  1  0.562060  0.309600  0.930470  1.0  0.6952
  C  C672  1  0.606700  0.350800  0.859800  1.0  -0.0484
  C  C673  1  0.629800  0.258800  0.819600  1.0  -0.1119
  C  C674  1  0.633900  0.348200  0.815300  1.0  -0.109
  C  C675  1  0.604200  0.262100  0.864100  1.0  -0.0782
  C  C676  1  0.669900  0.258300  0.716550  1.0  -0.1355
  C  C677  1  0.592510  0.307720  0.884380  1.0  -0.1204
  C  C678  1  0.677100  0.297670  0.749600  1.0  0.0223
  C  C679  1  0.354410  0.697500  0.794500  1.0  0.0639
  C  C680  1  0.437940  0.690400  0.930470  1.0  0.6947
  C  C681  1  0.393300  0.649200  0.859800  1.0  -0.0478
  C  C682  1  0.370200  0.741200  0.819600  1.0  -0.1108
  C  C683  1  0.366100  0.651800  0.815300  1.0  -0.1063
  C  C684  1  0.395800  0.737900  0.864100  1.0  -0.0805
  C  C685  1  0.330100  0.741700  0.716550  1.0  -0.1361
  C  C686  1  0.407490  0.692280  0.884380  1.0  -0.1219
  C  C687  1  0.322900  0.702330  0.749600  1.0  0.0234
  C  C688  1  0.645590  0.697500  0.205500  1.0  0.0631
  C  C689  1  0.562060  0.690400  0.069530  1.0  0.6944
  C  C690  1  0.606700  0.649200  0.140200  1.0  -0.0488
  C  C691  1  0.629800  0.741200  0.180400  1.0  -0.1121
  C  C692  1  0.633900  0.651800  0.184700  1.0  -0.1066
  C  C693  1  0.604200  0.737900  0.135900  1.0  -0.078
  C  C694  1  0.669900  0.741700  0.283450  1.0  -0.1381
  C  C695  1  0.592510  0.692280  0.115620  1.0  -0.12
  C  C696  1  0.677100  0.702330  0.250400  1.0  0.0246
  O  O697  1  0.447610  0.050330  0.148770  1.0  -0.5727
  O  O698  1  0.448350  0.049100  0.231180  1.0  -0.5809
  O  O699  1  0.552390  0.949670  0.148770  1.0  -0.5727
  O  O700  1  0.551650  0.950900  0.231180  1.0  -0.5818
  O  O701  1  0.552390  0.050330  0.851230  1.0  -0.573
  O  O702  1  0.551650  0.049100  0.768820  1.0  -0.5813
  O  O703  1  0.447610  0.949670  0.851230  1.0  -0.5726
  O  O704  1  0.448350  0.950900  0.768820  1.0  -0.5814
  O  O705  1  0.148770  0.447610  0.050330  1.0  -0.5749
  O  O706  1  0.231180  0.448350  0.049100  1.0  -0.5802
  O  O707  1  0.148770  0.552390  0.949670  1.0  -0.5751
  O  O708  1  0.231180  0.551650  0.950900  1.0  -0.5801
  O  O709  1  0.851230  0.552390  0.050330  1.0  -0.5737
  O  O710  1  0.768820  0.551650  0.049100  1.0  -0.5805
  O  O711  1  0.851230  0.447610  0.949670  1.0  -0.5742
  O  O712  1  0.768820  0.448350  0.950900  1.0  -0.5806
  O  O713  1  0.050330  0.148770  0.447610  1.0  -0.576
  O  O714  1  0.049100  0.231180  0.448350  1.0  -0.5805
  O  O715  1  0.949670  0.148770  0.552390  1.0  -0.5757
  O  O716  1  0.950900  0.231180  0.551650  1.0  -0.5816
  O  O717  1  0.050330  0.851230  0.552390  1.0  -0.5757
  O  O718  1  0.049100  0.768820  0.551650  1.0  -0.5816
  O  O719  1  0.949670  0.851230  0.447610  1.0  -0.5759
  O  O720  1  0.950900  0.768820  0.448350  1.0  -0.5813
  O  O721  1  0.552390  0.949670  0.851230  1.0  -0.5728
  O  O722  1  0.551650  0.950900  0.768820  1.0  -0.5809
  O  O723  1  0.447610  0.050330  0.851230  1.0  -0.5729
  O  O724  1  0.448350  0.049100  0.768820  1.0  -0.5819
  O  O725  1  0.447610  0.949670  0.148770  1.0  -0.5727
  O  O726  1  0.448350  0.950900  0.231180  1.0  -0.5809
  O  O727  1  0.552390  0.050330  0.148770  1.0  -0.573
  O  O728  1  0.551650  0.049100  0.231180  1.0  -0.5818
  O  O729  1  0.851230  0.552390  0.949670  1.0  -0.5742
  O  O730  1  0.768820  0.551650  0.950900  1.0  -0.5805
  O  O731  1  0.851230  0.447610  0.050330  1.0  -0.5737
  O  O732  1  0.768820  0.448350  0.049100  1.0  -0.5806
  O  O733  1  0.148770  0.447610  0.949670  1.0  -0.5749
  O  O734  1  0.231180  0.448350  0.950900  1.0  -0.5803
  O  O735  1  0.148770  0.552390  0.050330  1.0  -0.575
  O  O736  1  0.231180  0.551650  0.049100  1.0  -0.58
  O  O737  1  0.949670  0.851230  0.552390  1.0  -0.5762
  O  O738  1  0.950900  0.768820  0.551650  1.0  -0.5815
  O  O739  1  0.050330  0.851230  0.447610  1.0  -0.5757
  O  O740  1  0.049100  0.768820  0.448350  1.0  -0.5814
  O  O741  1  0.949670  0.148770  0.447610  1.0  -0.5757
  O  O742  1  0.950900  0.231180  0.448350  1.0  -0.5814
  O  O743  1  0.050330  0.148770  0.552390  1.0  -0.5759
  O  O744  1  0.049100  0.231180  0.551650  1.0  -0.581
  O  O745  1  0.947610  0.550330  0.648770  1.0  -0.5727
  O  O746  1  0.948350  0.549100  0.731180  1.0  -0.5809
  O  O747  1  0.052390  0.449670  0.648770  1.0  -0.5727
  O  O748  1  0.051650  0.450900  0.731180  1.0  -0.5818
  O  O749  1  0.052390  0.550330  0.351230  1.0  -0.573
  O  O750  1  0.051650  0.549100  0.268820  1.0  -0.5813
  O  O751  1  0.947610  0.449670  0.351230  1.0  -0.5726
  O  O752  1  0.948350  0.450900  0.268820  1.0  -0.5814
  O  O753  1  0.648770  0.947610  0.550330  1.0  -0.5749
  O  O754  1  0.731180  0.948350  0.549100  1.0  -0.5802
  O  O755  1  0.648770  0.052390  0.449670  1.0  -0.5751
  O  O756  1  0.731180  0.051650  0.450900  1.0  -0.5801
  O  O757  1  0.351230  0.052390  0.550330  1.0  -0.5737
  O  O758  1  0.268820  0.051650  0.549100  1.0  -0.5805
  O  O759  1  0.351230  0.947610  0.449670  1.0  -0.5742
  O  O760  1  0.268820  0.948350  0.450900  1.0  -0.5806
  O  O761  1  0.550330  0.648770  0.947610  1.0  -0.576
  O  O762  1  0.549100  0.731180  0.948350  1.0  -0.5805
  O  O763  1  0.449670  0.648770  0.052390  1.0  -0.5757
  O  O764  1  0.450900  0.731180  0.051650  1.0  -0.5817
  O  O765  1  0.550330  0.351230  0.052390  1.0  -0.5757
  O  O766  1  0.549100  0.268820  0.051650  1.0  -0.5816
  O  O767  1  0.449670  0.351230  0.947610  1.0  -0.5759
  O  O768  1  0.450900  0.268820  0.948350  1.0  -0.5813
  O  O769  1  0.052390  0.449670  0.351230  1.0  -0.5728
  O  O770  1  0.051650  0.450900  0.268820  1.0  -0.5809
  O  O771  1  0.947610  0.550330  0.351230  1.0  -0.5729
  O  O772  1  0.948350  0.549100  0.268820  1.0  -0.5819
  O  O773  1  0.947610  0.449670  0.648770  1.0  -0.5727
  O  O774  1  0.948350  0.450900  0.731180  1.0  -0.5809
  O  O775  1  0.052390  0.550330  0.648770  1.0  -0.573
  O  O776  1  0.051650  0.549100  0.731180  1.0  -0.5818
  O  O777  1  0.351230  0.052390  0.449670  1.0  -0.5742
  O  O778  1  0.268820  0.051650  0.450900  1.0  -0.5805
  O  O779  1  0.351230  0.947610  0.550330  1.0  -0.5737
  O  O780  1  0.268820  0.948350  0.549100  1.0  -0.5807
  O  O781  1  0.648770  0.947610  0.449670  1.0  -0.5749
  O  O782  1  0.731180  0.948350  0.450900  1.0  -0.5803
  O  O783  1  0.648770  0.052390  0.550330  1.0  -0.575
  O  O784  1  0.731180  0.051650  0.549100  1.0  -0.58
  O  O785  1  0.449670  0.351230  0.052390  1.0  -0.5763
  O  O786  1  0.450900  0.268820  0.051650  1.0  -0.5815
  O  O787  1  0.550330  0.351230  0.947610  1.0  -0.5757
  O  O788  1  0.549100  0.268820  0.948350  1.0  -0.5814
  O  O789  1  0.449670  0.648770  0.947610  1.0  -0.5757
  O  O790  1  0.450900  0.731180  0.948350  1.0  -0.5814
  O  O791  1  0.550330  0.648770  0.052390  1.0  -0.5759
  O  O792  1  0.549100  0.731180  0.051650  1.0  -0.581
