# generated using pymatgen
data_CuH10(C9O2)2
_symmetry_space_group_name_H-M   'P 1'
_cell_length_a   26.97700000
_cell_length_b   26.97700000
_cell_length_c   26.97700000
_cell_angle_alpha   90.00000000
_cell_angle_beta   90.00000000
_cell_angle_gamma   90.00000000
_symmetry_Int_Tables_number   1
_chemical_formula_structural   CuH10(C9O2)2
_chemical_formula_sum   'Cu24 H240 C432 O96'
_cell_volume   19632.74183683
_cell_formula_units_Z   24
loop_
 _symmetry_equiv_pos_site_id
 _symmetry_equiv_pos_as_xyz
  1  'x, y, z'
loop_
 _atom_site_type_symbol
 _atom_site_label
 _atom_site_symmetry_multiplicity
 _atom_site_fract_x
 _atom_site_fract_y
 _atom_site_fract_z
 _atom_site_occupancy
 _atom_site_charge
  Cu  Cu1  1  0.500000  0.000000  0.144250  1.0  0.8781
  Cu  Cu2  1  0.500000  0.000000  0.240140  1.0  0.9055
  Cu  Cu3  1  0.500000  0.000000  0.855750  1.0  0.8786
  Cu  Cu4  1  0.500000  0.000000  0.759860  1.0  0.9086
  Cu  Cu5  1  0.144250  0.500000  0.000000  1.0  0.8781
  Cu  Cu6  1  0.240140  0.500000  0.000000  1.0  0.9105
  Cu  Cu7  1  0.855750  0.500000  0.000000  1.0  0.879
  Cu  Cu8  1  0.759860  0.500000  0.000000  1.0  0.9096
  Cu  Cu9  1  0.000000  0.144250  0.500000  1.0  0.8797
  Cu  Cu10  1  0.000000  0.240140  0.500000  1.0  0.9109
  Cu  Cu11  1  0.000000  0.855750  0.500000  1.0  0.8786
  Cu  Cu12  1  0.000000  0.759860  0.500000  1.0  0.9127
  Cu  Cu13  1  0.000000  0.500000  0.644250  1.0  0.8781
  Cu  Cu14  1  0.000000  0.500000  0.740140  1.0  0.9055
  Cu  Cu15  1  0.000000  0.500000  0.355750  1.0  0.8786
  Cu  Cu16  1  0.000000  0.500000  0.259860  1.0  0.9086
  Cu  Cu17  1  0.644250  0.000000  0.500000  1.0  0.8781
  Cu  Cu18  1  0.740140  0.000000  0.500000  1.0  0.9105
  Cu  Cu19  1  0.355750  0.000000  0.500000  1.0  0.879
  Cu  Cu20  1  0.259860  0.000000  0.500000  1.0  0.9096
  Cu  Cu21  1  0.500000  0.644250  0.000000  1.0  0.8797
  Cu  Cu22  1  0.500000  0.740140  0.000000  1.0  0.9109
  Cu  Cu23  1  0.500000  0.355750  0.000000  1.0  0.8786
  Cu  Cu24  1  0.500000  0.259860  0.000000  1.0  0.9127
  H  H25  1  0.373300  0.098400  0.118300  1.0  0.1019
  H  H26  1  0.306000  0.137100  0.272500  1.0  0.0976
  H  H27  1  0.299800  0.144600  0.122500  1.0  0.1153
  H  H28  1  0.380500  0.094700  0.267200  1.0  0.1084
  H  H29  1  0.221300  0.143000  0.263300  1.0  0.1092
  H  H30  1  0.626700  0.901600  0.118300  1.0  0.1022
  H  H31  1  0.694000  0.862900  0.272500  1.0  0.0976
  H  H32  1  0.700200  0.855400  0.122500  1.0  0.1155
  H  H33  1  0.619500  0.905300  0.267200  1.0  0.1088
  H  H34  1  0.778700  0.857000  0.263300  1.0  0.1077
  H  H35  1  0.626700  0.098400  0.881700  1.0  0.102
  H  H36  1  0.694000  0.137100  0.727500  1.0  0.0979
  H  H37  1  0.700200  0.144600  0.877500  1.0  0.1158
  H  H38  1  0.619500  0.094700  0.732800  1.0  0.1088
  H  H39  1  0.778700  0.143000  0.736700  1.0  0.1096
  H  H40  1  0.373300  0.901600  0.881700  1.0  0.1019
  H  H41  1  0.306000  0.862900  0.727500  1.0  0.0981
  H  H42  1  0.299800  0.855400  0.877500  1.0  0.1158
  H  H43  1  0.380500  0.905300  0.732800  1.0  0.109
  H  H44  1  0.221300  0.857000  0.736700  1.0  0.1084
  H  H45  1  0.118300  0.373300  0.098400  1.0  0.1026
  H  H46  1  0.272500  0.306000  0.137100  1.0  0.1007
  H  H47  1  0.122500  0.299800  0.144600  1.0  0.1158
  H  H48  1  0.267200  0.380500  0.094700  1.0  0.1083
  H  H49  1  0.263300  0.221300  0.143000  1.0  0.1115
  H  H50  1  0.118300  0.626700  0.901600  1.0  0.1028
  H  H51  1  0.272500  0.694000  0.862900  1.0  0.1004
  H  H52  1  0.122500  0.700200  0.855400  1.0  0.1162
  H  H53  1  0.267200  0.619500  0.905300  1.0  0.1079
  H  H54  1  0.263300  0.778700  0.857000  1.0  0.1111
  H  H55  1  0.881700  0.626700  0.098400  1.0  0.1028
  H  H56  1  0.727500  0.694000  0.137100  1.0  0.0998
  H  H57  1  0.877500  0.700200  0.144600  1.0  0.116
  H  H58  1  0.732800  0.619500  0.094700  1.0  0.1078
  H  H59  1  0.736700  0.778700  0.143000  1.0  0.1121
  H  H60  1  0.881700  0.373300  0.901600  1.0  0.1031
  H  H61  1  0.727500  0.306000  0.862900  1.0  0.1002
  H  H62  1  0.877500  0.299800  0.855400  1.0  0.1158
  H  H63  1  0.732800  0.380500  0.905300  1.0  0.108
  H  H64  1  0.736700  0.221300  0.857000  1.0  0.1114
  H  H65  1  0.098400  0.118300  0.373300  1.0  0.1022
  H  H66  1  0.137100  0.272500  0.306000  1.0  0.0978
  H  H67  1  0.144600  0.122500  0.299800  1.0  0.1142
  H  H68  1  0.094700  0.267200  0.380500  1.0  0.1083
  H  H69  1  0.143000  0.263300  0.221300  1.0  0.1102
  H  H70  1  0.901600  0.118300  0.626700  1.0  0.1023
  H  H71  1  0.862900  0.272500  0.694000  1.0  0.0983
  H  H72  1  0.855400  0.122500  0.700200  1.0  0.1152
  H  H73  1  0.905300  0.267200  0.619500  1.0  0.1084
  H  H74  1  0.857000  0.263300  0.778700  1.0  0.1094
  H  H75  1  0.098400  0.881700  0.626700  1.0  0.103
  H  H76  1  0.137100  0.727500  0.694000  1.0  0.0973
  H  H77  1  0.144600  0.877500  0.700200  1.0  0.1145
  H  H78  1  0.094700  0.732800  0.619500  1.0  0.1077
  H  H79  1  0.143000  0.736700  0.778700  1.0  0.1102
  H  H80  1  0.901600  0.881700  0.373300  1.0  0.1028
  H  H81  1  0.862900  0.727500  0.306000  1.0  0.0984
  H  H82  1  0.855400  0.877500  0.299800  1.0  0.115
  H  H83  1  0.905300  0.732800  0.380500  1.0  0.1083
  H  H84  1  0.857000  0.736700  0.221300  1.0  0.1104
  H  H85  1  0.626700  0.901600  0.881700  1.0  0.102
  H  H86  1  0.694000  0.862900  0.727500  1.0  0.098
  H  H87  1  0.700200  0.855400  0.877500  1.0  0.1159
  H  H88  1  0.619500  0.905300  0.732800  1.0  0.1088
  H  H89  1  0.778700  0.857000  0.736700  1.0  0.1083
  H  H90  1  0.373300  0.098400  0.881700  1.0  0.102
  H  H91  1  0.306000  0.137100  0.727500  1.0  0.098
  H  H92  1  0.299800  0.144600  0.877500  1.0  0.1156
  H  H93  1  0.380500  0.094700  0.732800  1.0  0.1088
  H  H94  1  0.221300  0.143000  0.736700  1.0  0.1094
  H  H95  1  0.373300  0.901600  0.118300  1.0  0.1023
  H  H96  1  0.306000  0.862900  0.272500  1.0  0.0976
  H  H97  1  0.299800  0.855400  0.122500  1.0  0.1152
  H  H98  1  0.380500  0.905300  0.267200  1.0  0.1087
  H  H99  1  0.221300  0.857000  0.263300  1.0  0.1079
  H  H100  1  0.626700  0.098400  0.118300  1.0  0.1017
  H  H101  1  0.694000  0.137100  0.272500  1.0  0.0977
  H  H102  1  0.700200  0.144600  0.122500  1.0  0.1157
  H  H103  1  0.619500  0.094700  0.267200  1.0  0.1086
  H  H104  1  0.778700  0.143000  0.263300  1.0  0.1092
  H  H105  1  0.881700  0.626700  0.901600  1.0  0.103
  H  H106  1  0.727500  0.694000  0.862900  1.0  0.1001
  H  H107  1  0.877500  0.700200  0.855400  1.0  0.116
  H  H108  1  0.732800  0.619500  0.905300  1.0  0.108
  H  H109  1  0.736700  0.778700  0.857000  1.0  0.1116
  H  H110  1  0.881700  0.373300  0.098400  1.0  0.1032
  H  H111  1  0.727500  0.306000  0.137100  1.0  0.0999
  H  H112  1  0.877500  0.299800  0.144600  1.0  0.116
  H  H113  1  0.732800  0.380500  0.094700  1.0  0.1079
  H  H114  1  0.736700  0.221300  0.143000  1.0  0.1117
  H  H115  1  0.118300  0.373300  0.901600  1.0  0.1029
  H  H116  1  0.272500  0.306000  0.862900  1.0  0.1006
  H  H117  1  0.122500  0.299800  0.855400  1.0  0.1162
  H  H118  1  0.267200  0.380500  0.905300  1.0  0.1082
  H  H119  1  0.263300  0.221300  0.857000  1.0  0.1111
  H  H120  1  0.118300  0.626700  0.098400  1.0  0.1025
  H  H121  1  0.272500  0.694000  0.137100  1.0  0.1005
  H  H122  1  0.122500  0.700200  0.144600  1.0  0.1157
  H  H123  1  0.267200  0.619500  0.094700  1.0  0.1077
  H  H124  1  0.263300  0.778700  0.143000  1.0  0.1115
  H  H125  1  0.901600  0.881700  0.626700  1.0  0.103
  H  H126  1  0.862900  0.727500  0.694000  1.0  0.0985
  H  H127  1  0.855400  0.877500  0.700200  1.0  0.1147
  H  H128  1  0.905300  0.732800  0.619500  1.0  0.1081
  H  H129  1  0.857000  0.736700  0.778700  1.0  0.1097
  H  H130  1  0.098400  0.881700  0.373300  1.0  0.1026
  H  H131  1  0.137100  0.727500  0.306000  1.0  0.0971
  H  H132  1  0.144600  0.877500  0.299800  1.0  0.1147
  H  H133  1  0.094700  0.732800  0.380500  1.0  0.108
  H  H134  1  0.143000  0.736700  0.221300  1.0  0.1103
  H  H135  1  0.901600  0.118300  0.373300  1.0  0.1021
  H  H136  1  0.862900  0.272500  0.306000  1.0  0.0985
  H  H137  1  0.855400  0.122500  0.299800  1.0  0.1145
  H  H138  1  0.905300  0.267200  0.380500  1.0  0.1084
  H  H139  1  0.857000  0.263300  0.221300  1.0  0.11
  H  H140  1  0.098400  0.118300  0.626700  1.0  0.1022
  H  H141  1  0.137100  0.272500  0.694000  1.0  0.0978
  H  H142  1  0.144600  0.122500  0.700200  1.0  0.1149
  H  H143  1  0.094700  0.267200  0.619500  1.0  0.1081
  H  H144  1  0.143000  0.263300  0.778700  1.0  0.1099
  H  H145  1  0.873300  0.598400  0.618300  1.0  0.1019
  H  H146  1  0.806000  0.637100  0.772500  1.0  0.0981
  H  H147  1  0.799800  0.644600  0.622500  1.0  0.1153
  H  H148  1  0.880500  0.594700  0.767200  1.0  0.1084
  H  H149  1  0.721300  0.643000  0.763300  1.0  0.1092
  H  H150  1  0.126700  0.401600  0.618300  1.0  0.1022
  H  H151  1  0.194000  0.362900  0.772500  1.0  0.0981
  H  H152  1  0.200200  0.355400  0.622500  1.0  0.1155
  H  H153  1  0.119500  0.405300  0.767200  1.0  0.1088
  H  H154  1  0.278700  0.357000  0.763300  1.0  0.1077
  H  H155  1  0.126700  0.598400  0.381700  1.0  0.102
  H  H156  1  0.194000  0.637100  0.227500  1.0  0.0983
  H  H157  1  0.200200  0.644600  0.377500  1.0  0.1158
  H  H158  1  0.119500  0.594700  0.232800  1.0  0.1088
  H  H159  1  0.278700  0.643000  0.236700  1.0  0.1096
  H  H160  1  0.873300  0.401600  0.381700  1.0  0.1019
  H  H161  1  0.806000  0.362900  0.227500  1.0  0.0985
  H  H162  1  0.799800  0.355400  0.377500  1.0  0.1158
  H  H163  1  0.880500  0.405300  0.232800  1.0  0.109
  H  H164  1  0.721300  0.357000  0.236700  1.0  0.1084
  H  H165  1  0.618300  0.873300  0.598400  1.0  0.1026
  H  H166  1  0.772500  0.806000  0.637100  1.0  0.101
  H  H167  1  0.622500  0.799800  0.644600  1.0  0.1158
  H  H168  1  0.767200  0.880500  0.594700  1.0  0.1083
  H  H169  1  0.763300  0.721300  0.643000  1.0  0.1115
  H  H170  1  0.618300  0.126700  0.401600  1.0  0.1028
  H  H171  1  0.772500  0.194000  0.362900  1.0  0.1008
  H  H172  1  0.622500  0.200200  0.355400  1.0  0.1162
  H  H173  1  0.767200  0.119500  0.405300  1.0  0.1079
  H  H174  1  0.763300  0.278700  0.357000  1.0  0.1111
  H  H175  1  0.381700  0.126700  0.598400  1.0  0.1028
  H  H176  1  0.227500  0.194000  0.637100  1.0  0.1001
  H  H177  1  0.377500  0.200200  0.644600  1.0  0.116
  H  H178  1  0.232800  0.119500  0.594700  1.0  0.1078
  H  H179  1  0.236700  0.278700  0.643000  1.0  0.1121
  H  H180  1  0.381700  0.873300  0.401600  1.0  0.1031
  H  H181  1  0.227500  0.806000  0.362900  1.0  0.1006
  H  H182  1  0.377500  0.799800  0.355400  1.0  0.1158
  H  H183  1  0.232800  0.880500  0.405300  1.0  0.108
  H  H184  1  0.236700  0.721300  0.357000  1.0  0.1114
  H  H185  1  0.598400  0.618300  0.873300  1.0  0.1022
  H  H186  1  0.637100  0.772500  0.806000  1.0  0.0982
  H  H187  1  0.644600  0.622500  0.799800  1.0  0.1142
  H  H188  1  0.594700  0.767200  0.880500  1.0  0.1083
  H  H189  1  0.643000  0.763300  0.721300  1.0  0.1102
  H  H190  1  0.401600  0.618300  0.126700  1.0  0.1023
  H  H191  1  0.362900  0.772500  0.194000  1.0  0.0986
  H  H192  1  0.355400  0.622500  0.200200  1.0  0.1152
  H  H193  1  0.405300  0.767200  0.119500  1.0  0.1084
  H  H194  1  0.357000  0.763300  0.278700  1.0  0.1094
  H  H195  1  0.598400  0.381700  0.126700  1.0  0.103
  H  H196  1  0.637100  0.227500  0.194000  1.0  0.0976
  H  H197  1  0.644600  0.377500  0.200200  1.0  0.1145
  H  H198  1  0.594700  0.232800  0.119500  1.0  0.1077
  H  H199  1  0.643000  0.236700  0.278700  1.0  0.1102
  H  H200  1  0.401600  0.381700  0.873300  1.0  0.1028
  H  H201  1  0.362900  0.227500  0.806000  1.0  0.0987
  H  H202  1  0.355400  0.377500  0.799800  1.0  0.115
  H  H203  1  0.405300  0.232800  0.880500  1.0  0.1083
  H  H204  1  0.357000  0.236700  0.721300  1.0  0.1104
  H  H205  1  0.126700  0.401600  0.381700  1.0  0.102
  H  H206  1  0.194000  0.362900  0.227500  1.0  0.0984
  H  H207  1  0.200200  0.355400  0.377500  1.0  0.1159
  H  H208  1  0.119500  0.405300  0.232800  1.0  0.1088
  H  H209  1  0.278700  0.357000  0.236700  1.0  0.1083
  H  H210  1  0.873300  0.598400  0.381700  1.0  0.102
  H  H211  1  0.806000  0.637100  0.227500  1.0  0.0984
  H  H212  1  0.799800  0.644600  0.377500  1.0  0.1156
  H  H213  1  0.880500  0.594700  0.232800  1.0  0.1088
  H  H214  1  0.721300  0.643000  0.236700  1.0  0.1094
  H  H215  1  0.873300  0.401600  0.618300  1.0  0.1023
  H  H216  1  0.806000  0.362900  0.772500  1.0  0.098
  H  H217  1  0.799800  0.355400  0.622500  1.0  0.1152
  H  H218  1  0.880500  0.405300  0.767200  1.0  0.1087
  H  H219  1  0.721300  0.357000  0.763300  1.0  0.1079
  H  H220  1  0.126700  0.598400  0.618300  1.0  0.1017
  H  H221  1  0.194000  0.637100  0.772500  1.0  0.0982
  H  H222  1  0.200200  0.644600  0.622500  1.0  0.1157
  H  H223  1  0.119500  0.594700  0.767200  1.0  0.1086
  H  H224  1  0.278700  0.643000  0.763300  1.0  0.1092
  H  H225  1  0.381700  0.126700  0.401600  1.0  0.103
  H  H226  1  0.227500  0.194000  0.362900  1.0  0.1005
  H  H227  1  0.377500  0.200200  0.355400  1.0  0.116
  H  H228  1  0.232800  0.119500  0.405300  1.0  0.108
  H  H229  1  0.236700  0.278700  0.357000  1.0  0.1116
  H  H230  1  0.381700  0.873300  0.598400  1.0  0.1032
  H  H231  1  0.227500  0.806000  0.637100  1.0  0.1002
  H  H232  1  0.377500  0.799800  0.644600  1.0  0.116
  H  H233  1  0.232800  0.880500  0.594700  1.0  0.1079
  H  H234  1  0.236700  0.721300  0.643000  1.0  0.1117
  H  H235  1  0.618300  0.873300  0.401600  1.0  0.1029
  H  H236  1  0.772500  0.806000  0.362900  1.0  0.1009
  H  H237  1  0.622500  0.799800  0.355400  1.0  0.1162
  H  H238  1  0.767200  0.880500  0.405300  1.0  0.1082
  H  H239  1  0.763300  0.721300  0.357000  1.0  0.1111
  H  H240  1  0.618300  0.126700  0.598400  1.0  0.1025
  H  H241  1  0.772500  0.194000  0.637100  1.0  0.1007
  H  H242  1  0.622500  0.200200  0.644600  1.0  0.1157
  H  H243  1  0.767200  0.119500  0.594700  1.0  0.1077
  H  H244  1  0.763300  0.278700  0.643000  1.0  0.1115
  H  H245  1  0.401600  0.381700  0.126700  1.0  0.103
  H  H246  1  0.362900  0.227500  0.194000  1.0  0.0987
  H  H247  1  0.355400  0.377500  0.200200  1.0  0.1147
  H  H248  1  0.405300  0.232800  0.119500  1.0  0.1081
  H  H249  1  0.357000  0.236700  0.278700  1.0  0.1097
  H  H250  1  0.598400  0.381700  0.873300  1.0  0.1026
  H  H251  1  0.637100  0.227500  0.806000  1.0  0.0975
  H  H252  1  0.644600  0.377500  0.799800  1.0  0.1147
  H  H253  1  0.594700  0.232800  0.880500  1.0  0.108
  H  H254  1  0.643000  0.236700  0.721300  1.0  0.1103
  H  H255  1  0.401600  0.618300  0.873300  1.0  0.1021
  H  H256  1  0.362900  0.772500  0.806000  1.0  0.0988
  H  H257  1  0.355400  0.622500  0.799800  1.0  0.1145
  H  H258  1  0.405300  0.767200  0.880500  1.0  0.1084
  H  H259  1  0.357000  0.763300  0.721300  1.0  0.11
  H  H260  1  0.598400  0.618300  0.126700  1.0  0.1022
  H  H261  1  0.637100  0.772500  0.194000  1.0  0.0981
  H  H262  1  0.644600  0.622500  0.200200  1.0  0.1149
  H  H263  1  0.594700  0.767200  0.119500  1.0  0.1081
  H  H264  1  0.643000  0.763300  0.278700  1.0  0.1099
  C  C265  1  0.294600  0.145510  0.197800  1.0  0.0473
  C  C266  1  0.430570  0.062030  0.190500  1.0  0.6941
  C  C267  1  0.360000  0.106900  0.149300  1.0  -0.0473
  C  C268  1  0.319600  0.129900  0.241200  1.0  -0.1141
  C  C269  1  0.315400  0.134100  0.151800  1.0  -0.1031
  C  C270  1  0.364000  0.104300  0.238000  1.0  -0.0815
  C  C271  1  0.216680  0.169900  0.241760  1.0  -0.1293
  C  C272  1  0.384250  0.092680  0.192250  1.0  -0.1281
  C  C273  1  0.249510  0.177050  0.202340  1.0  0.0311
  C  C274  1  0.705400  0.854490  0.197800  1.0  0.0468
  C  C275  1  0.569430  0.937970  0.190500  1.0  0.6936
  C  C276  1  0.640000  0.893100  0.149300  1.0  -0.0474
  C  C277  1  0.680400  0.870100  0.241200  1.0  -0.1148
  C  C278  1  0.684600  0.865900  0.151800  1.0  -0.1045
  C  C279  1  0.636000  0.895700  0.238000  1.0  -0.0807
  C  C280  1  0.783320  0.830100  0.241760  1.0  -0.1307
  C  C281  1  0.615750  0.907320  0.192250  1.0  -0.1254
  C  C282  1  0.750490  0.822950  0.202340  1.0  0.0298
  C  C283  1  0.705400  0.145510  0.802200  1.0  0.0463
  C  C284  1  0.569430  0.062030  0.809500  1.0  0.6936
  C  C285  1  0.640000  0.106900  0.850700  1.0  -0.048
  C  C286  1  0.680400  0.129900  0.758800  1.0  -0.1131
  C  C287  1  0.684600  0.134100  0.848200  1.0  -0.1057
  C  C288  1  0.636000  0.104300  0.762000  1.0  -0.0814
  C  C289  1  0.783320  0.169900  0.758240  1.0  -0.1331
  C  C290  1  0.615750  0.092680  0.807750  1.0  -0.1263
  C  C291  1  0.750490  0.177050  0.797660  1.0  0.0305
  C  C292  1  0.294600  0.854490  0.802200  1.0  0.0474
  C  C293  1  0.430570  0.937970  0.809500  1.0  0.6943
  C  C294  1  0.360000  0.893100  0.850700  1.0  -0.0469
  C  C295  1  0.319600  0.870100  0.758800  1.0  -0.1146
  C  C296  1  0.315400  0.865900  0.848200  1.0  -0.1038
  C  C297  1  0.364000  0.895700  0.762000  1.0  -0.0821
  C  C298  1  0.216680  0.830100  0.758240  1.0  -0.1317
  C  C299  1  0.384250  0.907320  0.807750  1.0  -0.1272
  C  C300  1  0.249510  0.822950  0.797660  1.0  0.0291
  C  C301  1  0.197800  0.294600  0.145510  1.0  0.0465
  C  C302  1  0.190500  0.430570  0.062030  1.0  0.6955
  C  C303  1  0.149300  0.360000  0.106900  1.0  -0.0436
  C  C304  1  0.241200  0.319600  0.129900  1.0  -0.1113
  C  C305  1  0.151800  0.315400  0.134100  1.0  -0.1017
  C  C306  1  0.238000  0.364000  0.104300  1.0  -0.078
  C  C307  1  0.241760  0.216680  0.169900  1.0  -0.133
  C  C308  1  0.192250  0.384250  0.092680  1.0  -0.1246
  C  C309  1  0.202340  0.249510  0.177050  1.0  0.031
  C  C310  1  0.197800  0.705400  0.854490  1.0  0.0471
  C  C311  1  0.190500  0.569430  0.937970  1.0  0.6951
  C  C312  1  0.149300  0.640000  0.893100  1.0  -0.0427
  C  C313  1  0.241200  0.680400  0.870100  1.0  -0.1123
  C  C314  1  0.151800  0.684600  0.865900  1.0  -0.1029
  C  C315  1  0.238000  0.636000  0.895700  1.0  -0.0785
  C  C316  1  0.241760  0.783320  0.830100  1.0  -0.1348
  C  C317  1  0.192250  0.615750  0.907320  1.0  -0.1248
  C  C318  1  0.202340  0.750490  0.822950  1.0  0.031
  C  C319  1  0.802200  0.705400  0.145510  1.0  0.0467
  C  C320  1  0.809500  0.569430  0.062030  1.0  0.6948
  C  C321  1  0.850700  0.640000  0.106900  1.0  -0.0431
  C  C322  1  0.758800  0.680400  0.129900  1.0  -0.1099
  C  C323  1  0.848200  0.684600  0.134100  1.0  -0.1009
  C  C324  1  0.762000  0.636000  0.104300  1.0  -0.0768
  C  C325  1  0.758240  0.783320  0.169900  1.0  -0.1337
  C  C326  1  0.807750  0.615750  0.092680  1.0  -0.126
  C  C327  1  0.797660  0.750490  0.177050  1.0  0.0287
  C  C328  1  0.802200  0.294600  0.854490  1.0  0.0476
  C  C329  1  0.809500  0.430570  0.937970  1.0  0.6954
  C  C330  1  0.850700  0.360000  0.893100  1.0  -0.0425
  C  C331  1  0.758800  0.319600  0.870100  1.0  -0.1126
  C  C332  1  0.848200  0.315400  0.865900  1.0  -0.1012
  C  C333  1  0.762000  0.364000  0.895700  1.0  -0.0784
  C  C334  1  0.758240  0.216680  0.830100  1.0  -0.1348
  C  C335  1  0.807750  0.384250  0.907320  1.0  -0.125
  C  C336  1  0.797660  0.249510  0.822950  1.0  0.0297
  C  C337  1  0.145510  0.197800  0.294600  1.0  0.0479
  C  C338  1  0.062030  0.190500  0.430570  1.0  0.6957
  C  C339  1  0.106900  0.149300  0.360000  1.0  -0.0455
  C  C340  1  0.129900  0.241200  0.319600  1.0  -0.1122
  C  C341  1  0.134100  0.151800  0.315400  1.0  -0.0988
  C  C342  1  0.104300  0.238000  0.364000  1.0  -0.0771
  C  C343  1  0.169900  0.241760  0.216680  1.0  -0.1353
  C  C344  1  0.092680  0.192250  0.384250  1.0  -0.1257
  C  C345  1  0.177050  0.202340  0.249510  1.0  0.0322
  C  C346  1  0.854490  0.197800  0.705400  1.0  0.0465
  C  C347  1  0.937970  0.190500  0.569430  1.0  0.6947
  C  C348  1  0.893100  0.149300  0.640000  1.0  -0.0448
  C  C349  1  0.870100  0.241200  0.680400  1.0  -0.111
  C  C350  1  0.865900  0.151800  0.684600  1.0  -0.1002
  C  C351  1  0.895700  0.238000  0.636000  1.0  -0.0781
  C  C352  1  0.830100  0.241760  0.783320  1.0  -0.1352
  C  C353  1  0.907320  0.192250  0.615750  1.0  -0.1268
  C  C354  1  0.822950  0.202340  0.750490  1.0  0.0341
  C  C355  1  0.145510  0.802200  0.705400  1.0  0.0473
  C  C356  1  0.062030  0.809500  0.569430  1.0  0.6952
  C  C357  1  0.106900  0.850700  0.640000  1.0  -0.0452
  C  C358  1  0.129900  0.758800  0.680400  1.0  -0.112
  C  C359  1  0.134100  0.848200  0.684600  1.0  -0.0995
  C  C360  1  0.104300  0.762000  0.636000  1.0  -0.0764
  C  C361  1  0.169900  0.758240  0.783320  1.0  -0.1356
  C  C362  1  0.092680  0.807750  0.615750  1.0  -0.1264
  C  C363  1  0.177050  0.797660  0.750490  1.0  0.0334
  C  C364  1  0.854490  0.802200  0.294600  1.0  0.0459
  C  C365  1  0.937970  0.809500  0.430570  1.0  0.6957
  C  C366  1  0.893100  0.850700  0.360000  1.0  -0.0442
  C  C367  1  0.870100  0.758800  0.319600  1.0  -0.1117
  C  C368  1  0.865900  0.848200  0.315400  1.0  -0.1022
  C  C369  1  0.895700  0.762000  0.364000  1.0  -0.0773
  C  C370  1  0.830100  0.758240  0.216680  1.0  -0.1341
  C  C371  1  0.907320  0.807750  0.384250  1.0  -0.1273
  C  C372  1  0.822950  0.797660  0.249510  1.0  0.032
  C  C373  1  0.705400  0.854490  0.802200  1.0  0.0464
  C  C374  1  0.569430  0.937970  0.809500  1.0  0.6936
  C  C375  1  0.640000  0.893100  0.850700  1.0  -0.0483
  C  C376  1  0.680400  0.870100  0.758800  1.0  -0.1149
  C  C377  1  0.684600  0.865900  0.848200  1.0  -0.1035
  C  C378  1  0.636000  0.895700  0.762000  1.0  -0.0809
  C  C379  1  0.783320  0.830100  0.758240  1.0  -0.1328
  C  C380  1  0.615750  0.907320  0.807750  1.0  -0.1254
  C  C381  1  0.750490  0.822950  0.797660  1.0  0.0284
  C  C382  1  0.294600  0.145510  0.802200  1.0  0.0471
  C  C383  1  0.430570  0.062030  0.809500  1.0  0.6939
  C  C384  1  0.360000  0.106900  0.850700  1.0  -0.0467
  C  C385  1  0.319600  0.129900  0.758800  1.0  -0.1135
  C  C386  1  0.315400  0.134100  0.848200  1.0  -0.1051
  C  C387  1  0.364000  0.104300  0.762000  1.0  -0.0825
  C  C388  1  0.216680  0.169900  0.758240  1.0  -0.1315
  C  C389  1  0.384250  0.092680  0.807750  1.0  -0.128
  C  C390  1  0.249510  0.177050  0.797660  1.0  0.0306
  C  C391  1  0.294600  0.854490  0.197800  1.0  0.0471
  C  C392  1  0.430570  0.937970  0.190500  1.0  0.6942
  C  C393  1  0.360000  0.893100  0.149300  1.0  -0.0476
  C  C394  1  0.319600  0.870100  0.241200  1.0  -0.1145
  C  C395  1  0.315400  0.865900  0.151800  1.0  -0.1028
  C  C396  1  0.364000  0.895700  0.238000  1.0  -0.0812
  C  C397  1  0.216680  0.830100  0.241760  1.0  -0.13
  C  C398  1  0.384250  0.907320  0.192250  1.0  -0.1273
  C  C399  1  0.249510  0.822950  0.202340  1.0  0.0315
  C  C400  1  0.705400  0.145510  0.197800  1.0  0.0465
  C  C401  1  0.569430  0.062030  0.190500  1.0  0.6937
  C  C402  1  0.640000  0.106900  0.149300  1.0  -0.0471
  C  C403  1  0.680400  0.129900  0.241200  1.0  -0.1137
  C  C404  1  0.684600  0.134100  0.151800  1.0  -0.1055
  C  C405  1  0.636000  0.104300  0.238000  1.0  -0.0808
  C  C406  1  0.783320  0.169900  0.241760  1.0  -0.1304
  C  C407  1  0.615750  0.092680  0.192250  1.0  -0.1263
  C  C408  1  0.750490  0.177050  0.202340  1.0  0.0311
  C  C409  1  0.802200  0.705400  0.854490  1.0  0.0475
  C  C410  1  0.809500  0.569430  0.937970  1.0  0.695
  C  C411  1  0.850700  0.640000  0.893100  1.0  -0.0427
  C  C412  1  0.758800  0.680400  0.870100  1.0  -0.1124
  C  C413  1  0.848200  0.684600  0.865900  1.0  -0.1005
  C  C414  1  0.762000  0.636000  0.895700  1.0  -0.0774
  C  C415  1  0.758240  0.783320  0.830100  1.0  -0.1349
  C  C416  1  0.807750  0.615750  0.907320  1.0  -0.1253
  C  C417  1  0.797660  0.750490  0.822950  1.0  0.0289
  C  C418  1  0.802200  0.294600  0.145510  1.0  0.0449
  C  C419  1  0.809500  0.430570  0.062030  1.0  0.6952
  C  C420  1  0.850700  0.360000  0.106900  1.0  -0.0428
  C  C421  1  0.758800  0.319600  0.129900  1.0  -0.1105
  C  C422  1  0.848200  0.315400  0.134100  1.0  -0.1013
  C  C423  1  0.762000  0.364000  0.104300  1.0  -0.077
  C  C424  1  0.758240  0.216680  0.169900  1.0  -0.1337
  C  C425  1  0.807750  0.384250  0.092680  1.0  -0.125
  C  C426  1  0.797660  0.249510  0.177050  1.0  0.029
  C  C427  1  0.197800  0.294600  0.854490  1.0  0.0479
  C  C428  1  0.190500  0.430570  0.937970  1.0  0.6957
  C  C429  1  0.149300  0.360000  0.893100  1.0  -0.0432
  C  C430  1  0.241200  0.319600  0.870100  1.0  -0.1127
  C  C431  1  0.151800  0.315400  0.865900  1.0  -0.1022
  C  C432  1  0.238000  0.364000  0.895700  1.0  -0.0787
  C  C433  1  0.241760  0.216680  0.830100  1.0  -0.1345
  C  C434  1  0.192250  0.384250  0.907320  1.0  -0.1243
  C  C435  1  0.202340  0.249510  0.822950  1.0  0.0318
  C  C436  1  0.197800  0.705400  0.145510  1.0  0.049
  C  C437  1  0.190500  0.569430  0.062030  1.0  0.695
  C  C438  1  0.149300  0.640000  0.106900  1.0  -0.0432
  C  C439  1  0.241200  0.680400  0.129900  1.0  -0.1107
  C  C440  1  0.151800  0.684600  0.134100  1.0  -0.1026
  C  C441  1  0.238000  0.636000  0.104300  1.0  -0.0782
  C  C442  1  0.241760  0.783320  0.169900  1.0  -0.1323
  C  C443  1  0.192250  0.615750  0.092680  1.0  -0.1257
  C  C444  1  0.202340  0.750490  0.177050  1.0  0.0303
  C  C445  1  0.854490  0.802200  0.705400  1.0  0.0453
  C  C446  1  0.937970  0.809500  0.569430  1.0  0.6949
  C  C447  1  0.893100  0.850700  0.640000  1.0  -0.0442
  C  C448  1  0.870100  0.758800  0.680400  1.0  -0.1113
  C  C449  1  0.865900  0.848200  0.684600  1.0  -0.1019
  C  C450  1  0.895700  0.762000  0.636000  1.0  -0.0775
  C  C451  1  0.830100  0.758240  0.783320  1.0  -0.135
  C  C452  1  0.907320  0.807750  0.615750  1.0  -0.1266
  C  C453  1  0.822950  0.797660  0.750490  1.0  0.0333
  C  C454  1  0.145510  0.802200  0.294600  1.0  0.0477
  C  C455  1  0.062030  0.809500  0.430570  1.0  0.6959
  C  C456  1  0.106900  0.850700  0.360000  1.0  -0.0449
  C  C457  1  0.129900  0.758800  0.319600  1.0  -0.1118
  C  C458  1  0.134100  0.848200  0.315400  1.0  -0.1007
  C  C459  1  0.104300  0.762000  0.364000  1.0  -0.0766
  C  C460  1  0.169900  0.758240  0.216680  1.0  -0.134
  C  C461  1  0.092680  0.807750  0.384250  1.0  -0.1258
  C  C462  1  0.177050  0.797660  0.249510  1.0  0.0319
  C  C463  1  0.854490  0.197800  0.294600  1.0  0.0464
  C  C464  1  0.937970  0.190500  0.430570  1.0  0.6955
  C  C465  1  0.893100  0.149300  0.360000  1.0  -0.0449
  C  C466  1  0.870100  0.241200  0.319600  1.0  -0.1115
  C  C467  1  0.865900  0.151800  0.315400  1.0  -0.0999
  C  C468  1  0.895700  0.238000  0.364000  1.0  -0.0786
  C  C469  1  0.830100  0.241760  0.216680  1.0  -0.1343
  C  C470  1  0.907320  0.192250  0.384250  1.0  -0.1272
  C  C471  1  0.822950  0.202340  0.249510  1.0  0.0322
  C  C472  1  0.145510  0.197800  0.705400  1.0  0.0477
  C  C473  1  0.062030  0.190500  0.569430  1.0  0.6949
  C  C474  1  0.106900  0.149300  0.640000  1.0  -0.0457
  C  C475  1  0.129900  0.241200  0.680400  1.0  -0.112
  C  C476  1  0.134100  0.151800  0.684600  1.0  -0.0982
  C  C477  1  0.104300  0.238000  0.636000  1.0  -0.0763
  C  C478  1  0.169900  0.241760  0.783320  1.0  -0.1368
  C  C479  1  0.092680  0.192250  0.615750  1.0  -0.1265
  C  C480  1  0.177050  0.202340  0.750490  1.0  0.0339
  C  C481  1  0.794600  0.645510  0.697800  1.0  0.0473
  C  C482  1  0.930570  0.562030  0.690500  1.0  0.6941
  C  C483  1  0.860000  0.606900  0.649300  1.0  -0.0473
  C  C484  1  0.819600  0.629900  0.741200  1.0  -0.1141
  C  C485  1  0.815400  0.634100  0.651800  1.0  -0.1031
  C  C486  1  0.864000  0.604300  0.738000  1.0  -0.0815
  C  C487  1  0.716680  0.669900  0.741760  1.0  -0.1293
  C  C488  1  0.884250  0.592680  0.692250  1.0  -0.1281
  C  C489  1  0.749510  0.677050  0.702340  1.0  0.0311
  C  C490  1  0.205400  0.354490  0.697800  1.0  0.0468
  C  C491  1  0.069430  0.437970  0.690500  1.0  0.6936
  C  C492  1  0.140000  0.393100  0.649300  1.0  -0.0474
  C  C493  1  0.180400  0.370100  0.741200  1.0  -0.1148
  C  C494  1  0.184600  0.365900  0.651800  1.0  -0.1045
  C  C495  1  0.136000  0.395700  0.738000  1.0  -0.0807
  C  C496  1  0.283320  0.330100  0.741760  1.0  -0.1307
  C  C497  1  0.115750  0.407320  0.692250  1.0  -0.1254
  C  C498  1  0.250490  0.322950  0.702340  1.0  0.0298
  C  C499  1  0.205400  0.645510  0.302200  1.0  0.0463
  C  C500  1  0.069430  0.562030  0.309500  1.0  0.6936
  C  C501  1  0.140000  0.606900  0.350700  1.0  -0.048
  C  C502  1  0.180400  0.629900  0.258800  1.0  -0.1131
  C  C503  1  0.184600  0.634100  0.348200  1.0  -0.1057
  C  C504  1  0.136000  0.604300  0.262000  1.0  -0.0814
  C  C505  1  0.283320  0.669900  0.258240  1.0  -0.1331
  C  C506  1  0.115750  0.592680  0.307750  1.0  -0.1263
  C  C507  1  0.250490  0.677050  0.297660  1.0  0.0305
  C  C508  1  0.794600  0.354490  0.302200  1.0  0.0474
  C  C509  1  0.930570  0.437970  0.309500  1.0  0.6943
  C  C510  1  0.860000  0.393100  0.350700  1.0  -0.0469
  C  C511  1  0.819600  0.370100  0.258800  1.0  -0.1146
  C  C512  1  0.815400  0.365900  0.348200  1.0  -0.1038
  C  C513  1  0.864000  0.395700  0.262000  1.0  -0.0821
  C  C514  1  0.716680  0.330100  0.258240  1.0  -0.1317
  C  C515  1  0.884250  0.407320  0.307750  1.0  -0.1272
  C  C516  1  0.749510  0.322950  0.297660  1.0  0.0291
  C  C517  1  0.697800  0.794600  0.645510  1.0  0.0465
  C  C518  1  0.690500  0.930570  0.562030  1.0  0.6955
  C  C519  1  0.649300  0.860000  0.606900  1.0  -0.0436
  C  C520  1  0.741200  0.819600  0.629900  1.0  -0.1113
  C  C521  1  0.651800  0.815400  0.634100  1.0  -0.1017
  C  C522  1  0.738000  0.864000  0.604300  1.0  -0.078
  C  C523  1  0.741760  0.716680  0.669900  1.0  -0.133
  C  C524  1  0.692250  0.884250  0.592680  1.0  -0.1246
  C  C525  1  0.702340  0.749510  0.677050  1.0  0.031
  C  C526  1  0.697800  0.205400  0.354490  1.0  0.0471
  C  C527  1  0.690500  0.069430  0.437970  1.0  0.6951
  C  C528  1  0.649300  0.140000  0.393100  1.0  -0.0427
  C  C529  1  0.741200  0.180400  0.370100  1.0  -0.1123
  C  C530  1  0.651800  0.184600  0.365900  1.0  -0.1029
  C  C531  1  0.738000  0.136000  0.395700  1.0  -0.0785
  C  C532  1  0.741760  0.283320  0.330100  1.0  -0.1348
  C  C533  1  0.692250  0.115750  0.407320  1.0  -0.1248
  C  C534  1  0.702340  0.250490  0.322950  1.0  0.031
  C  C535  1  0.302200  0.205400  0.645510  1.0  0.0467
  C  C536  1  0.309500  0.069430  0.562030  1.0  0.6948
  C  C537  1  0.350700  0.140000  0.606900  1.0  -0.0431
  C  C538  1  0.258800  0.180400  0.629900  1.0  -0.1099
  C  C539  1  0.348200  0.184600  0.634100  1.0  -0.1009
  C  C540  1  0.262000  0.136000  0.604300  1.0  -0.0768
  C  C541  1  0.258240  0.283320  0.669900  1.0  -0.1337
  C  C542  1  0.307750  0.115750  0.592680  1.0  -0.126
  C  C543  1  0.297660  0.250490  0.677050  1.0  0.0287
  C  C544  1  0.302200  0.794600  0.354490  1.0  0.0476
  C  C545  1  0.309500  0.930570  0.437970  1.0  0.6954
  C  C546  1  0.350700  0.860000  0.393100  1.0  -0.0425
  C  C547  1  0.258800  0.819600  0.370100  1.0  -0.1126
  C  C548  1  0.348200  0.815400  0.365900  1.0  -0.1012
  C  C549  1  0.262000  0.864000  0.395700  1.0  -0.0784
  C  C550  1  0.258240  0.716680  0.330100  1.0  -0.1348
  C  C551  1  0.307750  0.884250  0.407320  1.0  -0.125
  C  C552  1  0.297660  0.749510  0.322950  1.0  0.0297
  C  C553  1  0.645510  0.697800  0.794600  1.0  0.0479
  C  C554  1  0.562030  0.690500  0.930570  1.0  0.6957
  C  C555  1  0.606900  0.649300  0.860000  1.0  -0.0455
  C  C556  1  0.629900  0.741200  0.819600  1.0  -0.1122
  C  C557  1  0.634100  0.651800  0.815400  1.0  -0.0988
  C  C558  1  0.604300  0.738000  0.864000  1.0  -0.0771
  C  C559  1  0.669900  0.741760  0.716680  1.0  -0.1353
  C  C560  1  0.592680  0.692250  0.884250  1.0  -0.1257
  C  C561  1  0.677050  0.702340  0.749510  1.0  0.0322
  C  C562  1  0.354490  0.697800  0.205400  1.0  0.0465
  C  C563  1  0.437970  0.690500  0.069430  1.0  0.6947
  C  C564  1  0.393100  0.649300  0.140000  1.0  -0.0448
  C  C565  1  0.370100  0.741200  0.180400  1.0  -0.111
  C  C566  1  0.365900  0.651800  0.184600  1.0  -0.1002
  C  C567  1  0.395700  0.738000  0.136000  1.0  -0.0781
  C  C568  1  0.330100  0.741760  0.283320  1.0  -0.1352
  C  C569  1  0.407320  0.692250  0.115750  1.0  -0.1268
  C  C570  1  0.322950  0.702340  0.250490  1.0  0.0341
  C  C571  1  0.645510  0.302200  0.205400  1.0  0.0473
  C  C572  1  0.562030  0.309500  0.069430  1.0  0.6952
  C  C573  1  0.606900  0.350700  0.140000  1.0  -0.0452
  C  C574  1  0.629900  0.258800  0.180400  1.0  -0.112
  C  C575  1  0.634100  0.348200  0.184600  1.0  -0.0995
  C  C576  1  0.604300  0.262000  0.136000  1.0  -0.0764
  C  C577  1  0.669900  0.258240  0.283320  1.0  -0.1356
  C  C578  1  0.592680  0.307750  0.115750  1.0  -0.1264
  C  C579  1  0.677050  0.297660  0.250490  1.0  0.0334
  C  C580  1  0.354490  0.302200  0.794600  1.0  0.0459
  C  C581  1  0.437970  0.309500  0.930570  1.0  0.6957
  C  C582  1  0.393100  0.350700  0.860000  1.0  -0.0442
  C  C583  1  0.370100  0.258800  0.819600  1.0  -0.1117
  C  C584  1  0.365900  0.348200  0.815400  1.0  -0.1022
  C  C585  1  0.395700  0.262000  0.864000  1.0  -0.0773
  C  C586  1  0.330100  0.258240  0.716680  1.0  -0.1341
  C  C587  1  0.407320  0.307750  0.884250  1.0  -0.1273
  C  C588  1  0.322950  0.297660  0.749510  1.0  0.032
  C  C589  1  0.205400  0.354490  0.302200  1.0  0.0464
  C  C590  1  0.069430  0.437970  0.309500  1.0  0.6936
  C  C591  1  0.140000  0.393100  0.350700  1.0  -0.0483
  C  C592  1  0.180400  0.370100  0.258800  1.0  -0.1149
  C  C593  1  0.184600  0.365900  0.348200  1.0  -0.1035
  C  C594  1  0.136000  0.395700  0.262000  1.0  -0.0809
  C  C595  1  0.283320  0.330100  0.258240  1.0  -0.1328
  C  C596  1  0.115750  0.407320  0.307750  1.0  -0.1254
  C  C597  1  0.250490  0.322950  0.297660  1.0  0.0284
  C  C598  1  0.794600  0.645510  0.302200  1.0  0.0471
  C  C599  1  0.930570  0.562030  0.309500  1.0  0.6939
  C  C600  1  0.860000  0.606900  0.350700  1.0  -0.0467
  C  C601  1  0.819600  0.629900  0.258800  1.0  -0.1135
  C  C602  1  0.815400  0.634100  0.348200  1.0  -0.1051
  C  C603  1  0.864000  0.604300  0.262000  1.0  -0.0825
  C  C604  1  0.716680  0.669900  0.258240  1.0  -0.1315
  C  C605  1  0.884250  0.592680  0.307750  1.0  -0.128
  C  C606  1  0.749510  0.677050  0.297660  1.0  0.0306
  C  C607  1  0.794600  0.354490  0.697800  1.0  0.0471
  C  C608  1  0.930570  0.437970  0.690500  1.0  0.6942
  C  C609  1  0.860000  0.393100  0.649300  1.0  -0.0476
  C  C610  1  0.819600  0.370100  0.741200  1.0  -0.1145
  C  C611  1  0.815400  0.365900  0.651800  1.0  -0.1028
  C  C612  1  0.864000  0.395700  0.738000  1.0  -0.0812
  C  C613  1  0.716680  0.330100  0.741760  1.0  -0.13
  C  C614  1  0.884250  0.407320  0.692250  1.0  -0.1273
  C  C615  1  0.749510  0.322950  0.702340  1.0  0.0315
  C  C616  1  0.205400  0.645510  0.697800  1.0  0.0465
  C  C617  1  0.069430  0.562030  0.690500  1.0  0.6937
  C  C618  1  0.140000  0.606900  0.649300  1.0  -0.0471
  C  C619  1  0.180400  0.629900  0.741200  1.0  -0.1137
  C  C620  1  0.184600  0.634100  0.651800  1.0  -0.1055
  C  C621  1  0.136000  0.604300  0.738000  1.0  -0.0808
  C  C622  1  0.283320  0.669900  0.741760  1.0  -0.1304
  C  C623  1  0.115750  0.592680  0.692250  1.0  -0.1263
  C  C624  1  0.250490  0.677050  0.702340  1.0  0.0311
  C  C625  1  0.302200  0.205400  0.354490  1.0  0.0475
  C  C626  1  0.309500  0.069430  0.437970  1.0  0.695
  C  C627  1  0.350700  0.140000  0.393100  1.0  -0.0427
  C  C628  1  0.258800  0.180400  0.370100  1.0  -0.1124
  C  C629  1  0.348200  0.184600  0.365900  1.0  -0.1005
  C  C630  1  0.262000  0.136000  0.395700  1.0  -0.0774
  C  C631  1  0.258240  0.283320  0.330100  1.0  -0.1349
  C  C632  1  0.307750  0.115750  0.407320  1.0  -0.1253
  C  C633  1  0.297660  0.250490  0.322950  1.0  0.0289
  C  C634  1  0.302200  0.794600  0.645510  1.0  0.0449
  C  C635  1  0.309500  0.930570  0.562030  1.0  0.6952
  C  C636  1  0.350700  0.860000  0.606900  1.0  -0.0428
  C  C637  1  0.258800  0.819600  0.629900  1.0  -0.1105
  C  C638  1  0.348200  0.815400  0.634100  1.0  -0.1013
  C  C639  1  0.262000  0.864000  0.604300  1.0  -0.077
  C  C640  1  0.258240  0.716680  0.669900  1.0  -0.1337
  C  C641  1  0.307750  0.884250  0.592680  1.0  -0.125
  C  C642  1  0.297660  0.749510  0.677050  1.0  0.029
  C  C643  1  0.697800  0.794600  0.354490  1.0  0.0479
  C  C644  1  0.690500  0.930570  0.437970  1.0  0.6957
  C  C645  1  0.649300  0.860000  0.393100  1.0  -0.0432
  C  C646  1  0.741200  0.819600  0.370100  1.0  -0.1127
  C  C647  1  0.651800  0.815400  0.365900  1.0  -0.1022
  C  C648  1  0.738000  0.864000  0.395700  1.0  -0.0787
  C  C649  1  0.741760  0.716680  0.330100  1.0  -0.1345
  C  C650  1  0.692250  0.884250  0.407320  1.0  -0.1243
  C  C651  1  0.702340  0.749510  0.322950  1.0  0.0318
  C  C652  1  0.697800  0.205400  0.645510  1.0  0.049
  C  C653  1  0.690500  0.069430  0.562030  1.0  0.695
  C  C654  1  0.649300  0.140000  0.606900  1.0  -0.0432
  C  C655  1  0.741200  0.180400  0.629900  1.0  -0.1107
  C  C656  1  0.651800  0.184600  0.634100  1.0  -0.1026
  C  C657  1  0.738000  0.136000  0.604300  1.0  -0.0782
  C  C658  1  0.741760  0.283320  0.669900  1.0  -0.1323
  C  C659  1  0.692250  0.115750  0.592680  1.0  -0.1257
  C  C660  1  0.702340  0.250490  0.677050  1.0  0.0303
  C  C661  1  0.354490  0.302200  0.205400  1.0  0.0453
  C  C662  1  0.437970  0.309500  0.069430  1.0  0.6949
  C  C663  1  0.393100  0.350700  0.140000  1.0  -0.0442
  C  C664  1  0.370100  0.258800  0.180400  1.0  -0.1113
  C  C665  1  0.365900  0.348200  0.184600  1.0  -0.1019
  C  C666  1  0.395700  0.262000  0.136000  1.0  -0.0775
  C  C667  1  0.330100  0.258240  0.283320  1.0  -0.135
  C  C668  1  0.407320  0.307750  0.115750  1.0  -0.1266
  C  C669  1  0.322950  0.297660  0.250490  1.0  0.0333
  C  C670  1  0.645510  0.302200  0.794600  1.0  0.0477
  C  C671  1  0.562030  0.309500  0.930570  1.0  0.6959
  C  C672  1  0.606900  0.350700  0.860000  1.0  -0.0449
  C  C673  1  0.629900  0.258800  0.819600  1.0  -0.1118
  C  C674  1  0.634100  0.348200  0.815400  1.0  -0.1007
  C  C675  1  0.604300  0.262000  0.864000  1.0  -0.0766
  C  C676  1  0.669900  0.258240  0.716680  1.0  -0.134
  C  C677  1  0.592680  0.307750  0.884250  1.0  -0.1258
  C  C678  1  0.677050  0.297660  0.749510  1.0  0.0319
  C  C679  1  0.354490  0.697800  0.794600  1.0  0.0464
  C  C680  1  0.437970  0.690500  0.930570  1.0  0.6955
  C  C681  1  0.393100  0.649300  0.860000  1.0  -0.0449
  C  C682  1  0.370100  0.741200  0.819600  1.0  -0.1115
  C  C683  1  0.365900  0.651800  0.815400  1.0  -0.0999
  C  C684  1  0.395700  0.738000  0.864000  1.0  -0.0786
  C  C685  1  0.330100  0.741760  0.716680  1.0  -0.1343
  C  C686  1  0.407320  0.692250  0.884250  1.0  -0.1272
  C  C687  1  0.322950  0.702340  0.749510  1.0  0.0322
  C  C688  1  0.645510  0.697800  0.205400  1.0  0.0477
  C  C689  1  0.562030  0.690500  0.069430  1.0  0.6949
  C  C690  1  0.606900  0.649300  0.140000  1.0  -0.0457
  C  C691  1  0.629900  0.741200  0.180400  1.0  -0.112
  C  C692  1  0.634100  0.651800  0.184600  1.0  -0.0982
  C  C693  1  0.604300  0.738000  0.136000  1.0  -0.0763
  C  C694  1  0.669900  0.741760  0.283320  1.0  -0.1368
  C  C695  1  0.592680  0.692250  0.115750  1.0  -0.1265
  C  C696  1  0.677050  0.702340  0.250490  1.0  0.0339
  O  O697  1  0.447630  0.050230  0.148860  1.0  -0.5731
  O  O698  1  0.448450  0.049260  0.231160  1.0  -0.5829
  O  O699  1  0.552370  0.949770  0.148860  1.0  -0.5733
  O  O700  1  0.551550  0.950740  0.231160  1.0  -0.5827
  O  O701  1  0.552370  0.050230  0.851140  1.0  -0.573
  O  O702  1  0.551550  0.049260  0.768840  1.0  -0.5822
  O  O703  1  0.447630  0.949770  0.851140  1.0  -0.5726
  O  O704  1  0.448450  0.950740  0.768840  1.0  -0.5828
  O  O705  1  0.148860  0.447630  0.050230  1.0  -0.5753
  O  O706  1  0.231160  0.448450  0.049260  1.0  -0.5819
  O  O707  1  0.148860  0.552370  0.949770  1.0  -0.5753
  O  O708  1  0.231160  0.551550  0.950740  1.0  -0.5817
  O  O709  1  0.851140  0.552370  0.050230  1.0  -0.5739
  O  O710  1  0.768840  0.551550  0.049260  1.0  -0.5814
  O  O711  1  0.851140  0.447630  0.949770  1.0  -0.5744
  O  O712  1  0.768840  0.448450  0.950740  1.0  -0.5815
  O  O713  1  0.050230  0.148860  0.447630  1.0  -0.5762
  O  O714  1  0.049260  0.231160  0.448450  1.0  -0.5825
  O  O715  1  0.949770  0.148860  0.552370  1.0  -0.5761
  O  O716  1  0.950740  0.231160  0.551550  1.0  -0.5832
  O  O717  1  0.050230  0.851140  0.552370  1.0  -0.576
  O  O718  1  0.049260  0.768840  0.551550  1.0  -0.5834
  O  O719  1  0.949770  0.851140  0.447630  1.0  -0.5762
  O  O720  1  0.950740  0.768840  0.448450  1.0  -0.5826
  O  O721  1  0.552370  0.949770  0.851140  1.0  -0.5729
  O  O722  1  0.551550  0.950740  0.768840  1.0  -0.5817
  O  O723  1  0.447630  0.050230  0.851140  1.0  -0.5729
  O  O724  1  0.448450  0.049260  0.768840  1.0  -0.5832
  O  O725  1  0.447630  0.949770  0.148860  1.0  -0.5733
  O  O726  1  0.448450  0.950740  0.231160  1.0  -0.5828
  O  O727  1  0.552370  0.050230  0.148860  1.0  -0.5733
  O  O728  1  0.551550  0.049260  0.231160  1.0  -0.5829
  O  O729  1  0.851140  0.552370  0.949770  1.0  -0.5744
  O  O730  1  0.768840  0.551550  0.950740  1.0  -0.5815
  O  O731  1  0.851140  0.447630  0.050230  1.0  -0.5741
  O  O732  1  0.768840  0.448450  0.049260  1.0  -0.5813
  O  O733  1  0.148860  0.447630  0.949770  1.0  -0.5753
  O  O734  1  0.231160  0.448450  0.950740  1.0  -0.5819
  O  O735  1  0.148860  0.552370  0.050230  1.0  -0.5752
  O  O736  1  0.231160  0.551550  0.049260  1.0  -0.5816
  O  O737  1  0.949770  0.851140  0.552370  1.0  -0.5765
  O  O738  1  0.950740  0.768840  0.551550  1.0  -0.5831
  O  O739  1  0.050230  0.851140  0.447630  1.0  -0.576
  O  O740  1  0.049260  0.768840  0.448450  1.0  -0.5828
  O  O741  1  0.949770  0.148860  0.447630  1.0  -0.5761
  O  O742  1  0.950740  0.231160  0.448450  1.0  -0.583
  O  O743  1  0.050230  0.148860  0.552370  1.0  -0.5762
  O  O744  1  0.049260  0.231160  0.551550  1.0  -0.5827
  O  O745  1  0.947630  0.550230  0.648860  1.0  -0.5731
  O  O746  1  0.948450  0.549260  0.731160  1.0  -0.5829
  O  O747  1  0.052370  0.449770  0.648860  1.0  -0.5733
  O  O748  1  0.051550  0.450740  0.731160  1.0  -0.5827
  O  O749  1  0.052370  0.550230  0.351140  1.0  -0.573
  O  O750  1  0.051550  0.549260  0.268840  1.0  -0.5822
  O  O751  1  0.947630  0.449770  0.351140  1.0  -0.5726
  O  O752  1  0.948450  0.450740  0.268840  1.0  -0.5828
  O  O753  1  0.648860  0.947630  0.550230  1.0  -0.5753
  O  O754  1  0.731160  0.948450  0.549260  1.0  -0.5819
  O  O755  1  0.648860  0.052370  0.449770  1.0  -0.5753
  O  O756  1  0.731160  0.051550  0.450740  1.0  -0.5817
  O  O757  1  0.351140  0.052370  0.550230  1.0  -0.5739
  O  O758  1  0.268840  0.051550  0.549260  1.0  -0.5814
  O  O759  1  0.351140  0.947630  0.449770  1.0  -0.5744
  O  O760  1  0.268840  0.948450  0.450740  1.0  -0.5815
  O  O761  1  0.550230  0.648860  0.947630  1.0  -0.5762
  O  O762  1  0.549260  0.731160  0.948450  1.0  -0.5825
  O  O763  1  0.449770  0.648860  0.052370  1.0  -0.5761
  O  O764  1  0.450740  0.731160  0.051550  1.0  -0.5832
  O  O765  1  0.550230  0.351140  0.052370  1.0  -0.576
  O  O766  1  0.549260  0.268840  0.051550  1.0  -0.5834
  O  O767  1  0.449770  0.351140  0.947630  1.0  -0.5762
  O  O768  1  0.450740  0.268840  0.948450  1.0  -0.5826
  O  O769  1  0.052370  0.449770  0.351140  1.0  -0.5729
  O  O770  1  0.051550  0.450740  0.268840  1.0  -0.5817
  O  O771  1  0.947630  0.550230  0.351140  1.0  -0.5729
  O  O772  1  0.948450  0.549260  0.268840  1.0  -0.5832
  O  O773  1  0.947630  0.449770  0.648860  1.0  -0.5733
  O  O774  1  0.948450  0.450740  0.731160  1.0  -0.5828
  O  O775  1  0.052370  0.550230  0.648860  1.0  -0.5733
  O  O776  1  0.051550  0.549260  0.731160  1.0  -0.5829
  O  O777  1  0.351140  0.052370  0.449770  1.0  -0.5744
  O  O778  1  0.268840  0.051550  0.450740  1.0  -0.5815
  O  O779  1  0.351140  0.947630  0.550230  1.0  -0.5741
  O  O780  1  0.268840  0.948450  0.549260  1.0  -0.5813
  O  O781  1  0.648860  0.947630  0.449770  1.0  -0.5753
  O  O782  1  0.731160  0.948450  0.450740  1.0  -0.5819
  O  O783  1  0.648860  0.052370  0.550230  1.0  -0.5752
  O  O784  1  0.731160  0.051550  0.549260  1.0  -0.5816
  O  O785  1  0.449770  0.351140  0.052370  1.0  -0.5765
  O  O786  1  0.450740  0.268840  0.051550  1.0  -0.5831
  O  O787  1  0.550230  0.351140  0.947630  1.0  -0.576
  O  O788  1  0.549260  0.268840  0.948450  1.0  -0.5828
  O  O789  1  0.449770  0.648860  0.947630  1.0  -0.5761
  O  O790  1  0.450740  0.731160  0.948450  1.0  -0.583
  O  O791  1  0.550230  0.648860  0.052370  1.0  -0.5762
  O  O792  1  0.549260  0.731160  0.051550  1.0  -0.5827
