# generated using pymatgen
data_CuH10(C9O2)2
_symmetry_space_group_name_H-M   'P 1'
_cell_length_a   26.96800000
_cell_length_b   26.96800000
_cell_length_c   26.96800000
_cell_angle_alpha   90.00000000
_cell_angle_beta   90.00000000
_cell_angle_gamma   90.00000000
_symmetry_Int_Tables_number   1
_chemical_formula_structural   CuH10(C9O2)2
_chemical_formula_sum   'Cu24 H240 C432 O96'
_cell_volume   19613.09891123
_cell_formula_units_Z   24
loop_
 _symmetry_equiv_pos_site_id
 _symmetry_equiv_pos_as_xyz
  1  'x, y, z'
loop_
 _atom_site_type_symbol
 _atom_site_label
 _atom_site_symmetry_multiplicity
 _atom_site_fract_x
 _atom_site_fract_y
 _atom_site_fract_z
 _atom_site_occupancy
 _atom_site_charge
  Cu  Cu1  1  0.500000  0.000000  0.143970  1.0  0.8743
  Cu  Cu2  1  0.500000  0.000000  0.240100  1.0  0.9095
  Cu  Cu3  1  0.500000  0.000000  0.856030  1.0  0.8745
  Cu  Cu4  1  0.500000  0.000000  0.759900  1.0  0.9128
  Cu  Cu5  1  0.143970  0.500000  0.000000  1.0  0.8733
  Cu  Cu6  1  0.240100  0.500000  0.000000  1.0  0.9143
  Cu  Cu7  1  0.856030  0.500000  0.000000  1.0  0.8748
  Cu  Cu8  1  0.759900  0.500000  0.000000  1.0  0.9137
  Cu  Cu9  1  0.000000  0.143970  0.500000  1.0  0.8753
  Cu  Cu10  1  0.000000  0.240100  0.500000  1.0  0.9148
  Cu  Cu11  1  0.000000  0.856030  0.500000  1.0  0.8744
  Cu  Cu12  1  0.000000  0.759900  0.500000  1.0  0.9168
  Cu  Cu13  1  0.000000  0.500000  0.643970  1.0  0.8743
  Cu  Cu14  1  0.000000  0.500000  0.740100  1.0  0.9095
  Cu  Cu15  1  0.000000  0.500000  0.356030  1.0  0.8745
  Cu  Cu16  1  0.000000  0.500000  0.259900  1.0  0.9128
  Cu  Cu17  1  0.643970  0.000000  0.500000  1.0  0.8733
  Cu  Cu18  1  0.740100  0.000000  0.500000  1.0  0.9143
  Cu  Cu19  1  0.356030  0.000000  0.500000  1.0  0.8748
  Cu  Cu20  1  0.259900  0.000000  0.500000  1.0  0.9137
  Cu  Cu21  1  0.500000  0.643970  0.000000  1.0  0.8753
  Cu  Cu22  1  0.500000  0.740100  0.000000  1.0  0.9148
  Cu  Cu23  1  0.500000  0.356030  0.000000  1.0  0.8744
  Cu  Cu24  1  0.500000  0.259900  0.000000  1.0  0.9168
  H  H25  1  0.373000  0.098200  0.118500  1.0  0.1053
  H  H26  1  0.306400  0.136900  0.272200  1.0  0.0975
  H  H27  1  0.299600  0.144000  0.122500  1.0  0.1165
  H  H28  1  0.380600  0.094900  0.266500  1.0  0.1065
  H  H29  1  0.220900  0.142600  0.262500  1.0  0.1091
  H  H30  1  0.627000  0.901800  0.118500  1.0  0.1054
  H  H31  1  0.693600  0.863100  0.272200  1.0  0.0983
  H  H32  1  0.700400  0.856000  0.122500  1.0  0.1167
  H  H33  1  0.619400  0.905100  0.266500  1.0  0.1067
  H  H34  1  0.779100  0.857400  0.262500  1.0  0.1085
  H  H35  1  0.627000  0.098200  0.881500  1.0  0.1055
  H  H36  1  0.693600  0.136900  0.727800  1.0  0.0985
  H  H37  1  0.700400  0.144000  0.877500  1.0  0.1171
  H  H38  1  0.619400  0.094900  0.733500  1.0  0.1065
  H  H39  1  0.779100  0.142600  0.737500  1.0  0.1099
  H  H40  1  0.373000  0.901800  0.881500  1.0  0.1055
  H  H41  1  0.306400  0.863100  0.727800  1.0  0.0991
  H  H42  1  0.299600  0.856000  0.877500  1.0  0.117
  H  H43  1  0.380600  0.905100  0.733500  1.0  0.1066
  H  H44  1  0.220900  0.857400  0.737500  1.0  0.1088
  H  H45  1  0.118500  0.373000  0.098200  1.0  0.1058
  H  H46  1  0.272200  0.306400  0.136900  1.0  0.1014
  H  H47  1  0.122500  0.299600  0.144000  1.0  0.1172
  H  H48  1  0.266500  0.380600  0.094900  1.0  0.1063
  H  H49  1  0.262500  0.220900  0.142600  1.0  0.1114
  H  H50  1  0.118500  0.627000  0.901800  1.0  0.1061
  H  H51  1  0.272200  0.693600  0.863100  1.0  0.1008
  H  H52  1  0.122500  0.700400  0.856000  1.0  0.1174
  H  H53  1  0.266500  0.619400  0.905100  1.0  0.1061
  H  H54  1  0.262500  0.779100  0.857400  1.0  0.1118
  H  H55  1  0.881500  0.627000  0.098200  1.0  0.1066
  H  H56  1  0.727800  0.693600  0.136900  1.0  0.1005
  H  H57  1  0.877500  0.700400  0.144000  1.0  0.1174
  H  H58  1  0.733500  0.619400  0.094900  1.0  0.1054
  H  H59  1  0.737500  0.779100  0.142600  1.0  0.1122
  H  H60  1  0.881500  0.373000  0.901800  1.0  0.1068
  H  H61  1  0.727800  0.306400  0.863100  1.0  0.1007
  H  H62  1  0.877500  0.299600  0.856000  1.0  0.1172
  H  H63  1  0.733500  0.380600  0.905100  1.0  0.1059
  H  H64  1  0.737500  0.220900  0.857400  1.0  0.112
  H  H65  1  0.098200  0.118500  0.373000  1.0  0.1061
  H  H66  1  0.136900  0.272200  0.306400  1.0  0.099
  H  H67  1  0.144000  0.122500  0.299600  1.0  0.1152
  H  H68  1  0.094900  0.266500  0.380600  1.0  0.1063
  H  H69  1  0.142600  0.262500  0.220900  1.0  0.1102
  H  H70  1  0.901800  0.118500  0.627000  1.0  0.1064
  H  H71  1  0.863100  0.272200  0.693600  1.0  0.0989
  H  H72  1  0.856000  0.122500  0.700400  1.0  0.1163
  H  H73  1  0.905100  0.266500  0.619400  1.0  0.1064
  H  H74  1  0.857400  0.262500  0.779100  1.0  0.1097
  H  H75  1  0.098200  0.881500  0.627000  1.0  0.1063
  H  H76  1  0.136900  0.727800  0.693600  1.0  0.0982
  H  H77  1  0.144000  0.877500  0.700400  1.0  0.1157
  H  H78  1  0.094900  0.733500  0.619400  1.0  0.1055
  H  H79  1  0.142600  0.737500  0.779100  1.0  0.1102
  H  H80  1  0.901800  0.881500  0.373000  1.0  0.1061
  H  H81  1  0.863100  0.727800  0.306400  1.0  0.0986
  H  H82  1  0.856000  0.877500  0.299600  1.0  0.1163
  H  H83  1  0.905100  0.733500  0.380600  1.0  0.1062
  H  H84  1  0.857400  0.737500  0.220900  1.0  0.1102
  H  H85  1  0.627000  0.901800  0.881500  1.0  0.1054
  H  H86  1  0.693600  0.863100  0.727800  1.0  0.0991
  H  H87  1  0.700400  0.856000  0.877500  1.0  0.1171
  H  H88  1  0.619400  0.905100  0.733500  1.0  0.1064
  H  H89  1  0.779100  0.857400  0.737500  1.0  0.1088
  H  H90  1  0.373000  0.098200  0.881500  1.0  0.1056
  H  H91  1  0.306400  0.136900  0.727800  1.0  0.0986
  H  H92  1  0.299600  0.144000  0.877500  1.0  0.1169
  H  H93  1  0.380600  0.094900  0.733500  1.0  0.1066
  H  H94  1  0.220900  0.142600  0.737500  1.0  0.1093
  H  H95  1  0.373000  0.901800  0.118500  1.0  0.1056
  H  H96  1  0.306400  0.863100  0.272200  1.0  0.0982
  H  H97  1  0.299600  0.856000  0.122500  1.0  0.1165
  H  H98  1  0.380600  0.905100  0.266500  1.0  0.1067
  H  H99  1  0.220900  0.857400  0.262500  1.0  0.1085
  H  H100  1  0.627000  0.098200  0.118500  1.0  0.105
  H  H101  1  0.693600  0.136900  0.272200  1.0  0.0976
  H  H102  1  0.700400  0.144000  0.122500  1.0  0.1169
  H  H103  1  0.619400  0.094900  0.266500  1.0  0.1066
  H  H104  1  0.779100  0.142600  0.262500  1.0  0.1096
  H  H105  1  0.881500  0.627000  0.901800  1.0  0.1066
  H  H106  1  0.727800  0.693600  0.863100  1.0  0.1005
  H  H107  1  0.877500  0.700400  0.856000  1.0  0.1173
  H  H108  1  0.733500  0.619400  0.905100  1.0  0.106
  H  H109  1  0.737500  0.779100  0.857400  1.0  0.1121
  H  H110  1  0.881500  0.373000  0.098200  1.0  0.107
  H  H111  1  0.727800  0.306400  0.136900  1.0  0.1008
  H  H112  1  0.877500  0.299600  0.144000  1.0  0.1174
  H  H113  1  0.733500  0.380600  0.094900  1.0  0.1056
  H  H114  1  0.737500  0.220900  0.142600  1.0  0.1119
  H  H115  1  0.118500  0.373000  0.901800  1.0  0.1061
  H  H116  1  0.272200  0.306400  0.863100  1.0  0.1012
  H  H117  1  0.122500  0.299600  0.856000  1.0  0.1176
  H  H118  1  0.266500  0.380600  0.905100  1.0  0.1063
  H  H119  1  0.262500  0.220900  0.857400  1.0  0.1117
  H  H120  1  0.118500  0.627000  0.098200  1.0  0.1058
  H  H121  1  0.272200  0.693600  0.136900  1.0  0.1011
  H  H122  1  0.122500  0.700400  0.144000  1.0  0.117
  H  H123  1  0.266500  0.619400  0.094900  1.0  0.1058
  H  H124  1  0.262500  0.779100  0.142600  1.0  0.1114
  H  H125  1  0.901800  0.881500  0.627000  1.0  0.1063
  H  H126  1  0.863100  0.727800  0.693600  1.0  0.0987
  H  H127  1  0.856000  0.877500  0.700400  1.0  0.1159
  H  H128  1  0.905100  0.733500  0.619400  1.0  0.106
  H  H129  1  0.857400  0.737500  0.779100  1.0  0.1099
  H  H130  1  0.098200  0.881500  0.373000  1.0  0.1059
  H  H131  1  0.136900  0.727800  0.306400  1.0  0.0981
  H  H132  1  0.144000  0.877500  0.299600  1.0  0.1159
  H  H133  1  0.094900  0.733500  0.380600  1.0  0.1059
  H  H134  1  0.142600  0.737500  0.220900  1.0  0.1103
  H  H135  1  0.901800  0.118500  0.373000  1.0  0.1062
  H  H136  1  0.863100  0.272200  0.306400  1.0  0.0992
  H  H137  1  0.856000  0.122500  0.299600  1.0  0.1156
  H  H138  1  0.905100  0.266500  0.380600  1.0  0.1066
  H  H139  1  0.857400  0.262500  0.220900  1.0  0.1101
  H  H140  1  0.098200  0.118500  0.627000  1.0  0.1062
  H  H141  1  0.136900  0.272200  0.693600  1.0  0.0989
  H  H142  1  0.144000  0.122500  0.700400  1.0  0.1159
  H  H143  1  0.094900  0.266500  0.619400  1.0  0.1061
  H  H144  1  0.142600  0.262500  0.779100  1.0  0.11
  H  H145  1  0.873000  0.598200  0.618500  1.0  0.1053
  H  H146  1  0.806400  0.636900  0.772200  1.0  0.0981
  H  H147  1  0.799600  0.644000  0.622500  1.0  0.1165
  H  H148  1  0.880600  0.594900  0.766500  1.0  0.1065
  H  H149  1  0.720900  0.642600  0.762500  1.0  0.1091
  H  H150  1  0.127000  0.401800  0.618500  1.0  0.1054
  H  H151  1  0.193600  0.363100  0.772200  1.0  0.0988
  H  H152  1  0.200400  0.356000  0.622500  1.0  0.1167
  H  H153  1  0.119400  0.405100  0.766500  1.0  0.1067
  H  H154  1  0.279100  0.357400  0.762500  1.0  0.1085
  H  H155  1  0.127000  0.598200  0.381500  1.0  0.1055
  H  H156  1  0.193600  0.636900  0.227800  1.0  0.099
  H  H157  1  0.200400  0.644000  0.377500  1.0  0.1171
  H  H158  1  0.119400  0.594900  0.233500  1.0  0.1065
  H  H159  1  0.279100  0.642600  0.237500  1.0  0.1099
  H  H160  1  0.873000  0.401800  0.381500  1.0  0.1055
  H  H161  1  0.806400  0.363100  0.227800  1.0  0.0995
  H  H162  1  0.799600  0.356000  0.377500  1.0  0.117
  H  H163  1  0.880600  0.405100  0.233500  1.0  0.1066
  H  H164  1  0.720900  0.357400  0.237500  1.0  0.1088
  H  H165  1  0.618500  0.873000  0.598200  1.0  0.1058
  H  H166  1  0.772200  0.806400  0.636900  1.0  0.1018
  H  H167  1  0.622500  0.799600  0.644000  1.0  0.1172
  H  H168  1  0.766500  0.880600  0.594900  1.0  0.1063
  H  H169  1  0.762500  0.720900  0.642600  1.0  0.1114
  H  H170  1  0.618500  0.127000  0.401800  1.0  0.1061
  H  H171  1  0.772200  0.193600  0.363100  1.0  0.1013
  H  H172  1  0.622500  0.200400  0.356000  1.0  0.1174
  H  H173  1  0.766500  0.119400  0.405100  1.0  0.1061
  H  H174  1  0.762500  0.279100  0.357400  1.0  0.1118
  H  H175  1  0.381500  0.127000  0.598200  1.0  0.1066
  H  H176  1  0.227800  0.193600  0.636900  1.0  0.1009
  H  H177  1  0.377500  0.200400  0.644000  1.0  0.1174
  H  H178  1  0.233500  0.119400  0.594900  1.0  0.1054
  H  H179  1  0.237500  0.279100  0.642600  1.0  0.1122
  H  H180  1  0.381500  0.873000  0.401800  1.0  0.1068
  H  H181  1  0.227800  0.806400  0.363100  1.0  0.1011
  H  H182  1  0.377500  0.799600  0.356000  1.0  0.1172
  H  H183  1  0.233500  0.880600  0.405100  1.0  0.1059
  H  H184  1  0.237500  0.720900  0.357400  1.0  0.112
  H  H185  1  0.598200  0.618500  0.873000  1.0  0.1061
  H  H186  1  0.636900  0.772200  0.806400  1.0  0.0994
  H  H187  1  0.644000  0.622500  0.799600  1.0  0.1152
  H  H188  1  0.594900  0.766500  0.880600  1.0  0.1063
  H  H189  1  0.642600  0.762500  0.720900  1.0  0.1102
  H  H190  1  0.401800  0.618500  0.127000  1.0  0.1064
  H  H191  1  0.363100  0.772200  0.193600  1.0  0.0994
  H  H192  1  0.356000  0.622500  0.200400  1.0  0.1163
  H  H193  1  0.405100  0.766500  0.119400  1.0  0.1064
  H  H194  1  0.357400  0.762500  0.279100  1.0  0.1097
  H  H195  1  0.598200  0.381500  0.127000  1.0  0.1063
  H  H196  1  0.636900  0.227800  0.193600  1.0  0.0986
  H  H197  1  0.644000  0.377500  0.200400  1.0  0.1157
  H  H198  1  0.594900  0.233500  0.119400  1.0  0.1055
  H  H199  1  0.642600  0.237500  0.279100  1.0  0.1102
  H  H200  1  0.401800  0.381500  0.873000  1.0  0.1061
  H  H201  1  0.363100  0.227800  0.806400  1.0  0.0991
  H  H202  1  0.356000  0.377500  0.799600  1.0  0.1163
  H  H203  1  0.405100  0.233500  0.880600  1.0  0.1062
  H  H204  1  0.357400  0.237500  0.720900  1.0  0.1102
  H  H205  1  0.127000  0.401800  0.381500  1.0  0.1054
  H  H206  1  0.193600  0.363100  0.227800  1.0  0.0995
  H  H207  1  0.200400  0.356000  0.377500  1.0  0.1171
  H  H208  1  0.119400  0.405100  0.233500  1.0  0.1064
  H  H209  1  0.279100  0.357400  0.237500  1.0  0.1088
  H  H210  1  0.873000  0.598200  0.381500  1.0  0.1056
  H  H211  1  0.806400  0.636900  0.227800  1.0  0.0991
  H  H212  1  0.799600  0.644000  0.377500  1.0  0.1169
  H  H213  1  0.880600  0.594900  0.233500  1.0  0.1066
  H  H214  1  0.720900  0.642600  0.237500  1.0  0.1093
  H  H215  1  0.873000  0.401800  0.618500  1.0  0.1056
  H  H216  1  0.806400  0.363100  0.772200  1.0  0.0987
  H  H217  1  0.799600  0.356000  0.622500  1.0  0.1165
  H  H218  1  0.880600  0.405100  0.766500  1.0  0.1067
  H  H219  1  0.720900  0.357400  0.762500  1.0  0.1085
  H  H220  1  0.127000  0.598200  0.618500  1.0  0.105
  H  H221  1  0.193600  0.636900  0.772200  1.0  0.0982
  H  H222  1  0.200400  0.644000  0.622500  1.0  0.1169
  H  H223  1  0.119400  0.594900  0.766500  1.0  0.1066
  H  H224  1  0.279100  0.642600  0.762500  1.0  0.1096
  H  H225  1  0.381500  0.127000  0.401800  1.0  0.1066
  H  H226  1  0.227800  0.193600  0.363100  1.0  0.101
  H  H227  1  0.377500  0.200400  0.356000  1.0  0.1173
  H  H228  1  0.233500  0.119400  0.405100  1.0  0.106
  H  H229  1  0.237500  0.279100  0.357400  1.0  0.1121
  H  H230  1  0.381500  0.873000  0.598200  1.0  0.107
  H  H231  1  0.227800  0.806400  0.636900  1.0  0.1012
  H  H232  1  0.377500  0.799600  0.644000  1.0  0.1174
  H  H233  1  0.233500  0.880600  0.594900  1.0  0.1056
  H  H234  1  0.237500  0.720900  0.642600  1.0  0.1119
  H  H235  1  0.618500  0.873000  0.401800  1.0  0.1061
  H  H236  1  0.772200  0.806400  0.363100  1.0  0.1017
  H  H237  1  0.622500  0.799600  0.356000  1.0  0.1176
  H  H238  1  0.766500  0.880600  0.405100  1.0  0.1063
  H  H239  1  0.762500  0.720900  0.357400  1.0  0.1117
  H  H240  1  0.618500  0.127000  0.598200  1.0  0.1058
  H  H241  1  0.772200  0.193600  0.636900  1.0  0.1015
  H  H242  1  0.622500  0.200400  0.644000  1.0  0.117
  H  H243  1  0.766500  0.119400  0.594900  1.0  0.1058
  H  H244  1  0.762500  0.279100  0.642600  1.0  0.1114
  H  H245  1  0.401800  0.381500  0.127000  1.0  0.1063
  H  H246  1  0.363100  0.227800  0.193600  1.0  0.0991
  H  H247  1  0.356000  0.377500  0.200400  1.0  0.1159
  H  H248  1  0.405100  0.233500  0.119400  1.0  0.106
  H  H249  1  0.357400  0.237500  0.279100  1.0  0.1099
  H  H250  1  0.598200  0.381500  0.873000  1.0  0.1059
  H  H251  1  0.636900  0.227800  0.806400  1.0  0.0985
  H  H252  1  0.644000  0.377500  0.799600  1.0  0.1159
  H  H253  1  0.594900  0.233500  0.880600  1.0  0.1059
  H  H254  1  0.642600  0.237500  0.720900  1.0  0.1103
  H  H255  1  0.401800  0.618500  0.873000  1.0  0.1062
  H  H256  1  0.363100  0.772200  0.806400  1.0  0.0997
  H  H257  1  0.356000  0.622500  0.799600  1.0  0.1156
  H  H258  1  0.405100  0.766500  0.880600  1.0  0.1066
  H  H259  1  0.357400  0.762500  0.720900  1.0  0.1101
  H  H260  1  0.598200  0.618500  0.127000  1.0  0.1062
  H  H261  1  0.636900  0.772200  0.193600  1.0  0.0993
  H  H262  1  0.644000  0.622500  0.200400  1.0  0.1159
  H  H263  1  0.594900  0.766500  0.119400  1.0  0.1061
  H  H264  1  0.642600  0.762500  0.279100  1.0  0.11
  C  C265  1  0.294400  0.145400  0.197500  1.0  0.0632
  C  C266  1  0.430500  0.062000  0.190300  1.0  0.6953
  C  C267  1  0.359800  0.106700  0.149200  1.0  -0.0434
  C  C268  1  0.319700  0.129800  0.241200  1.0  -0.1378
  C  C269  1  0.315200  0.133800  0.151600  1.0  -0.112
  C  C270  1  0.364100  0.104200  0.237600  1.0  -0.0442
  C  C271  1  0.216600  0.169600  0.241500  1.0  -0.1323
  C  C272  1  0.384400  0.092400  0.192300  1.0  -0.133
  C  C273  1  0.249500  0.177100  0.202300  1.0  0.0147
  C  C274  1  0.705600  0.854600  0.197500  1.0  0.065
  C  C275  1  0.569500  0.938000  0.190300  1.0  0.6948
  C  C276  1  0.640200  0.893300  0.149200  1.0  -0.0441
  C  C277  1  0.680300  0.870200  0.241200  1.0  -0.1372
  C  C278  1  0.684800  0.866200  0.151600  1.0  -0.1138
  C  C279  1  0.635900  0.895800  0.237600  1.0  -0.0441
  C  C280  1  0.783400  0.830400  0.241500  1.0  -0.1332
  C  C281  1  0.615600  0.907600  0.192300  1.0  -0.131
  C  C282  1  0.750500  0.822900  0.202300  1.0  0.0125
  C  C283  1  0.705600  0.145400  0.802500  1.0  0.0635
  C  C284  1  0.569500  0.062000  0.809700  1.0  0.695
  C  C285  1  0.640200  0.106700  0.850800  1.0  -0.0466
  C  C286  1  0.680300  0.129800  0.758800  1.0  -0.1366
  C  C287  1  0.684800  0.133800  0.848400  1.0  -0.1164
  C  C288  1  0.635900  0.104200  0.762400  1.0  -0.0447
  C  C289  1  0.783400  0.169600  0.758500  1.0  -0.1355
  C  C290  1  0.615600  0.092400  0.807700  1.0  -0.1322
  C  C291  1  0.750500  0.177100  0.797700  1.0  0.0148
  C  C292  1  0.294400  0.854600  0.802500  1.0  0.065
  C  C293  1  0.430500  0.938000  0.809700  1.0  0.6954
  C  C294  1  0.359800  0.893300  0.850800  1.0  -0.0456
  C  C295  1  0.319700  0.870200  0.758800  1.0  -0.1383
  C  C296  1  0.315200  0.866200  0.848400  1.0  -0.1161
  C  C297  1  0.364100  0.895800  0.762400  1.0  -0.0468
  C  C298  1  0.216600  0.830400  0.758500  1.0  -0.1329
  C  C299  1  0.384400  0.907600  0.807700  1.0  -0.1316
  C  C300  1  0.249500  0.822900  0.797700  1.0  0.0125
  C  C301  1  0.197500  0.294400  0.145400  1.0  0.0635
  C  C302  1  0.190300  0.430500  0.062000  1.0  0.6964
  C  C303  1  0.149200  0.359800  0.106700  1.0  -0.0419
  C  C304  1  0.241200  0.319700  0.129800  1.0  -0.1334
  C  C305  1  0.151600  0.315200  0.133800  1.0  -0.1123
  C  C306  1  0.237600  0.364100  0.104200  1.0  -0.0424
  C  C307  1  0.241500  0.216600  0.169600  1.0  -0.1344
  C  C308  1  0.192300  0.384400  0.092400  1.0  -0.1305
  C  C309  1  0.202300  0.249500  0.177100  1.0  0.0143
  C  C310  1  0.197500  0.705600  0.854600  1.0  0.0636
  C  C311  1  0.190300  0.569500  0.938000  1.0  0.6962
  C  C312  1  0.149200  0.640200  0.893300  1.0  -0.0409
  C  C313  1  0.241200  0.680300  0.870200  1.0  -0.1349
  C  C314  1  0.151600  0.684800  0.866200  1.0  -0.1147
  C  C315  1  0.237600  0.635900  0.895800  1.0  -0.0422
  C  C316  1  0.241500  0.783400  0.830400  1.0  -0.1359
  C  C317  1  0.192300  0.615600  0.907600  1.0  -0.1303
  C  C318  1  0.202300  0.750500  0.822900  1.0  0.0152
  C  C319  1  0.802500  0.705600  0.145400  1.0  0.0643
  C  C320  1  0.809700  0.569500  0.062000  1.0  0.696
  C  C321  1  0.850800  0.640200  0.106700  1.0  -0.0396
  C  C322  1  0.758800  0.680300  0.129800  1.0  -0.1339
  C  C323  1  0.848400  0.684800  0.133800  1.0  -0.1105
  C  C324  1  0.762400  0.635900  0.104200  1.0  -0.0417
  C  C325  1  0.758500  0.783400  0.169600  1.0  -0.1349
  C  C326  1  0.807700  0.615600  0.092400  1.0  -0.1316
  C  C327  1  0.797700  0.750500  0.177100  1.0  0.0111
  C  C328  1  0.802500  0.294400  0.854600  1.0  0.0652
  C  C329  1  0.809700  0.430500  0.938000  1.0  0.6964
  C  C330  1  0.850800  0.359800  0.893300  1.0  -0.0394
  C  C331  1  0.758800  0.319700  0.870200  1.0  -0.1363
  C  C332  1  0.848400  0.315200  0.866200  1.0  -0.1116
  C  C333  1  0.762400  0.364100  0.895800  1.0  -0.042
  C  C334  1  0.758500  0.216600  0.830400  1.0  -0.1364
  C  C335  1  0.807700  0.384400  0.907600  1.0  -0.1301
  C  C336  1  0.797700  0.249500  0.822900  1.0  0.0142
  C  C337  1  0.145400  0.197500  0.294400  1.0  0.0641
  C  C338  1  0.062000  0.190300  0.430500  1.0  0.6969
  C  C339  1  0.106700  0.149200  0.359800  1.0  -0.0456
  C  C340  1  0.129800  0.241200  0.319700  1.0  -0.1355
  C  C341  1  0.133800  0.151600  0.315200  1.0  -0.1108
  C  C342  1  0.104200  0.237600  0.364100  1.0  -0.0414
  C  C343  1  0.169600  0.241500  0.216600  1.0  -0.1367
  C  C344  1  0.092400  0.192300  0.384400  1.0  -0.1311
  C  C345  1  0.177100  0.202300  0.249500  1.0  0.0156
  C  C346  1  0.854600  0.197500  0.705600  1.0  0.0646
  C  C347  1  0.938000  0.190300  0.569500  1.0  0.6959
  C  C348  1  0.893300  0.149200  0.640200  1.0  -0.0444
  C  C349  1  0.870200  0.241200  0.680300  1.0  -0.134
  C  C350  1  0.866200  0.151600  0.684800  1.0  -0.1119
  C  C351  1  0.895800  0.237600  0.635900  1.0  -0.0426
  C  C352  1  0.830400  0.241500  0.783400  1.0  -0.1371
  C  C353  1  0.907600  0.192300  0.615600  1.0  -0.1318
  C  C354  1  0.822900  0.202300  0.750500  1.0  0.0171
  C  C355  1  0.145400  0.802500  0.705600  1.0  0.0639
  C  C356  1  0.062000  0.809700  0.569500  1.0  0.6963
  C  C357  1  0.106700  0.850800  0.640200  1.0  -0.0465
  C  C358  1  0.129800  0.758800  0.680300  1.0  -0.1351
  C  C359  1  0.133800  0.848400  0.684800  1.0  -0.1116
  C  C360  1  0.104200  0.762400  0.635900  1.0  -0.0405
  C  C361  1  0.169600  0.758500  0.783400  1.0  -0.1358
  C  C362  1  0.092400  0.807700  0.615600  1.0  -0.1313
  C  C363  1  0.177100  0.797700  0.750500  1.0  0.0162
  C  C364  1  0.854600  0.802500  0.294400  1.0  0.0641
  C  C365  1  0.938000  0.809700  0.430500  1.0  0.6967
  C  C366  1  0.893300  0.850800  0.359800  1.0  -0.0451
  C  C367  1  0.870200  0.758800  0.319700  1.0  -0.134
  C  C368  1  0.866200  0.848400  0.315200  1.0  -0.1132
  C  C369  1  0.895800  0.762400  0.364100  1.0  -0.0415
  C  C370  1  0.830400  0.758500  0.216600  1.0  -0.1369
  C  C371  1  0.907600  0.807700  0.384400  1.0  -0.1322
  C  C372  1  0.822900  0.797700  0.249500  1.0  0.0146
  C  C373  1  0.705600  0.854600  0.802500  1.0  0.0649
  C  C374  1  0.569500  0.938000  0.809700  1.0  0.695
  C  C375  1  0.640200  0.893300  0.850800  1.0  -0.0471
  C  C376  1  0.680300  0.870200  0.758800  1.0  -0.138
  C  C377  1  0.684800  0.866200  0.848400  1.0  -0.1147
  C  C378  1  0.635900  0.895800  0.762400  1.0  -0.0452
  C  C379  1  0.783400  0.830400  0.758500  1.0  -0.1343
  C  C380  1  0.615600  0.907600  0.807700  1.0  -0.1305
  C  C381  1  0.750500  0.822900  0.797700  1.0  0.012
  C  C382  1  0.294400  0.145400  0.802500  1.0  0.0636
  C  C383  1  0.430500  0.062000  0.809700  1.0  0.6953
  C  C384  1  0.359800  0.106700  0.850800  1.0  -0.0455
  C  C385  1  0.319700  0.129800  0.758800  1.0  -0.1375
  C  C386  1  0.315200  0.133800  0.848400  1.0  -0.1169
  C  C387  1  0.364100  0.104200  0.762400  1.0  -0.0463
  C  C388  1  0.216600  0.169600  0.758500  1.0  -0.1343
  C  C389  1  0.384400  0.092400  0.807700  1.0  -0.1328
  C  C390  1  0.249500  0.177100  0.797700  1.0  0.0148
  C  C391  1  0.294400  0.854600  0.197500  1.0  0.0641
  C  C392  1  0.430500  0.938000  0.190300  1.0  0.6953
  C  C393  1  0.359800  0.893300  0.149200  1.0  -0.0445
  C  C394  1  0.319700  0.870200  0.241200  1.0  -0.137
  C  C395  1  0.315200  0.866200  0.151600  1.0  -0.1129
  C  C396  1  0.364100  0.895800  0.237600  1.0  -0.0444
  C  C397  1  0.216600  0.830400  0.241500  1.0  -0.1318
  C  C398  1  0.384400  0.907600  0.192300  1.0  -0.1318
  C  C399  1  0.249500  0.822900  0.202300  1.0  0.0142
  C  C400  1  0.705600  0.145400  0.197500  1.0  0.0637
  C  C401  1  0.569500  0.062000  0.190300  1.0  0.6951
  C  C402  1  0.640200  0.106700  0.149200  1.0  -0.0433
  C  C403  1  0.680300  0.129800  0.241200  1.0  -0.1372
  C  C404  1  0.684800  0.133800  0.151600  1.0  -0.1137
  C  C405  1  0.635900  0.104200  0.237600  1.0  -0.0437
  C  C406  1  0.783400  0.169600  0.241500  1.0  -0.1338
  C  C407  1  0.615600  0.092400  0.192300  1.0  -0.1327
  C  C408  1  0.750500  0.177100  0.202300  1.0  0.0145
  C  C409  1  0.802500  0.705600  0.854600  1.0  0.0652
  C  C410  1  0.809700  0.569500  0.938000  1.0  0.6961
  C  C411  1  0.850800  0.640200  0.893300  1.0  -0.0391
  C  C412  1  0.758800  0.680300  0.870200  1.0  -0.1364
  C  C413  1  0.848400  0.684800  0.866200  1.0  -0.1111
  C  C414  1  0.762400  0.635900  0.895800  1.0  -0.0411
  C  C415  1  0.758500  0.783400  0.830400  1.0  -0.1358
  C  C416  1  0.807700  0.615600  0.907600  1.0  -0.1306
  C  C417  1  0.797700  0.750500  0.822900  1.0  0.0123
  C  C418  1  0.802500  0.294400  0.145400  1.0  0.0626
  C  C419  1  0.809700  0.430500  0.062000  1.0  0.6961
  C  C420  1  0.850800  0.359800  0.106700  1.0  -0.04
  C  C421  1  0.758800  0.319700  0.129800  1.0  -0.1342
  C  C422  1  0.848400  0.315200  0.133800  1.0  -0.111
  C  C423  1  0.762400  0.364100  0.104200  1.0  -0.0418
  C  C424  1  0.758500  0.216600  0.169600  1.0  -0.1349
  C  C425  1  0.807700  0.384400  0.092400  1.0  -0.1308
  C  C426  1  0.797700  0.249500  0.177100  1.0  0.0119
  C  C427  1  0.197500  0.294400  0.854600  1.0  0.0642
  C  C428  1  0.190300  0.430500  0.938000  1.0  0.6966
  C  C429  1  0.149200  0.359800  0.893300  1.0  -0.0416
  C  C430  1  0.241200  0.319700  0.870200  1.0  -0.1349
  C  C431  1  0.151600  0.315200  0.866200  1.0  -0.1132
  C  C432  1  0.237600  0.364100  0.895800  1.0  -0.0424
  C  C433  1  0.241500  0.216600  0.830400  1.0  -0.1362
  C  C434  1  0.192300  0.384400  0.907600  1.0  -0.1294
  C  C435  1  0.202300  0.249500  0.822900  1.0  0.0158
  C  C436  1  0.197500  0.705600  0.145400  1.0  0.0659
  C  C437  1  0.190300  0.569500  0.062000  1.0  0.6963
  C  C438  1  0.149200  0.640200  0.106700  1.0  -0.0411
  C  C439  1  0.241200  0.680300  0.129800  1.0  -0.1331
  C  C440  1  0.151600  0.684800  0.133800  1.0  -0.1137
  C  C441  1  0.237600  0.635900  0.104200  1.0  -0.0426
  C  C442  1  0.241500  0.783400  0.169600  1.0  -0.1338
  C  C443  1  0.192300  0.615600  0.092400  1.0  -0.1316
  C  C444  1  0.202300  0.750500  0.177100  1.0  0.014
  C  C445  1  0.854600  0.802500  0.705600  1.0  0.0639
  C  C446  1  0.938000  0.809700  0.569500  1.0  0.696
  C  C447  1  0.893300  0.850800  0.640200  1.0  -0.0455
  C  C448  1  0.870200  0.758800  0.680300  1.0  -0.1337
  C  C449  1  0.866200  0.848400  0.684800  1.0  -0.1133
  C  C450  1  0.895800  0.762400  0.635900  1.0  -0.0419
  C  C451  1  0.830400  0.758500  0.783400  1.0  -0.1367
  C  C452  1  0.907600  0.807700  0.615600  1.0  -0.1314
  C  C453  1  0.822900  0.797700  0.750500  1.0  0.0156
  C  C454  1  0.145400  0.802500  0.294400  1.0  0.0641
  C  C455  1  0.062000  0.809700  0.430500  1.0  0.6969
  C  C456  1  0.106700  0.850800  0.359800  1.0  -0.0457
  C  C457  1  0.129800  0.758800  0.319700  1.0  -0.1348
  C  C458  1  0.133800  0.848400  0.315200  1.0  -0.1123
  C  C459  1  0.104200  0.762400  0.364100  1.0  -0.0406
  C  C460  1  0.169600  0.758500  0.216600  1.0  -0.1358
  C  C461  1  0.092400  0.807700  0.384400  1.0  -0.1309
  C  C462  1  0.177100  0.797700  0.249500  1.0  0.0155
  C  C463  1  0.854600  0.197500  0.294400  1.0  0.0641
  C  C464  1  0.938000  0.190300  0.430500  1.0  0.6966
  C  C465  1  0.893300  0.149200  0.359800  1.0  -0.0447
  C  C466  1  0.870200  0.241200  0.319700  1.0  -0.1341
  C  C467  1  0.866200  0.151600  0.315200  1.0  -0.1119
  C  C468  1  0.895800  0.237600  0.364100  1.0  -0.0428
  C  C469  1  0.830400  0.241500  0.216600  1.0  -0.1368
  C  C470  1  0.907600  0.192300  0.384400  1.0  -0.1324
  C  C471  1  0.822900  0.202300  0.249500  1.0  0.015
  C  C472  1  0.145400  0.197500  0.705600  1.0  0.0642
  C  C473  1  0.062000  0.190300  0.569500  1.0  0.6962
  C  C474  1  0.106700  0.149200  0.640200  1.0  -0.0456
  C  C475  1  0.129800  0.241200  0.680300  1.0  -0.136
  C  C476  1  0.133800  0.151600  0.684800  1.0  -0.1097
  C  C477  1  0.104200  0.237600  0.635900  1.0  -0.0409
  C  C478  1  0.169600  0.241500  0.783400  1.0  -0.1366
  C  C479  1  0.092400  0.192300  0.615600  1.0  -0.132
  C  C480  1  0.177100  0.202300  0.750500  1.0  0.0172
  C  C481  1  0.794400  0.645400  0.697500  1.0  0.0632
  C  C482  1  0.930500  0.562000  0.690300  1.0  0.6953
  C  C483  1  0.859800  0.606700  0.649200  1.0  -0.0434
  C  C484  1  0.819700  0.629800  0.741200  1.0  -0.1378
  C  C485  1  0.815200  0.633800  0.651600  1.0  -0.112
  C  C486  1  0.864100  0.604200  0.737600  1.0  -0.0442
  C  C487  1  0.716600  0.669600  0.741500  1.0  -0.1323
  C  C488  1  0.884400  0.592400  0.692300  1.0  -0.133
  C  C489  1  0.749500  0.677100  0.702300  1.0  0.0147
  C  C490  1  0.205600  0.354600  0.697500  1.0  0.065
  C  C491  1  0.069500  0.438000  0.690300  1.0  0.6948
  C  C492  1  0.140200  0.393300  0.649200  1.0  -0.0441
  C  C493  1  0.180300  0.370200  0.741200  1.0  -0.1372
  C  C494  1  0.184800  0.366200  0.651600  1.0  -0.1138
  C  C495  1  0.135900  0.395800  0.737600  1.0  -0.0441
  C  C496  1  0.283400  0.330400  0.741500  1.0  -0.1332
  C  C497  1  0.115600  0.407600  0.692300  1.0  -0.131
  C  C498  1  0.250500  0.322900  0.702300  1.0  0.0125
  C  C499  1  0.205600  0.645400  0.302500  1.0  0.0635
  C  C500  1  0.069500  0.562000  0.309700  1.0  0.695
  C  C501  1  0.140200  0.606700  0.350800  1.0  -0.0466
  C  C502  1  0.180300  0.629800  0.258800  1.0  -0.1366
  C  C503  1  0.184800  0.633800  0.348400  1.0  -0.1164
  C  C504  1  0.135900  0.604200  0.262400  1.0  -0.0447
  C  C505  1  0.283400  0.669600  0.258500  1.0  -0.1355
  C  C506  1  0.115600  0.592400  0.307700  1.0  -0.1322
  C  C507  1  0.250500  0.677100  0.297700  1.0  0.0148
  C  C508  1  0.794400  0.354600  0.302500  1.0  0.065
  C  C509  1  0.930500  0.438000  0.309700  1.0  0.6954
  C  C510  1  0.859800  0.393300  0.350800  1.0  -0.0456
  C  C511  1  0.819700  0.370200  0.258800  1.0  -0.1383
  C  C512  1  0.815200  0.366200  0.348400  1.0  -0.1161
  C  C513  1  0.864100  0.395800  0.262400  1.0  -0.0468
  C  C514  1  0.716600  0.330400  0.258500  1.0  -0.1329
  C  C515  1  0.884400  0.407600  0.307700  1.0  -0.1316
  C  C516  1  0.749500  0.322900  0.297700  1.0  0.0125
  C  C517  1  0.697500  0.794400  0.645400  1.0  0.0635
  C  C518  1  0.690300  0.930500  0.562000  1.0  0.6964
  C  C519  1  0.649200  0.859800  0.606700  1.0  -0.0419
  C  C520  1  0.741200  0.819700  0.629800  1.0  -0.1334
  C  C521  1  0.651600  0.815200  0.633800  1.0  -0.1123
  C  C522  1  0.737600  0.864100  0.604200  1.0  -0.0424
  C  C523  1  0.741500  0.716600  0.669600  1.0  -0.1344
  C  C524  1  0.692300  0.884400  0.592400  1.0  -0.1305
  C  C525  1  0.702300  0.749500  0.677100  1.0  0.0143
  C  C526  1  0.697500  0.205600  0.354600  1.0  0.0636
  C  C527  1  0.690300  0.069500  0.438000  1.0  0.6962
  C  C528  1  0.649200  0.140200  0.393300  1.0  -0.0409
  C  C529  1  0.741200  0.180300  0.370200  1.0  -0.1349
  C  C530  1  0.651600  0.184800  0.366200  1.0  -0.1147
  C  C531  1  0.737600  0.135900  0.395800  1.0  -0.0422
  C  C532  1  0.741500  0.283400  0.330400  1.0  -0.1359
  C  C533  1  0.692300  0.115600  0.407600  1.0  -0.1303
  C  C534  1  0.702300  0.250500  0.322900  1.0  0.0152
  C  C535  1  0.302500  0.205600  0.645400  1.0  0.0643
  C  C536  1  0.309700  0.069500  0.562000  1.0  0.696
  C  C537  1  0.350800  0.140200  0.606700  1.0  -0.0396
  C  C538  1  0.258800  0.180300  0.629800  1.0  -0.1339
  C  C539  1  0.348400  0.184800  0.633800  1.0  -0.1105
  C  C540  1  0.262400  0.135900  0.604200  1.0  -0.0417
  C  C541  1  0.258500  0.283400  0.669600  1.0  -0.1349
  C  C542  1  0.307700  0.115600  0.592400  1.0  -0.1316
  C  C543  1  0.297700  0.250500  0.677100  1.0  0.0111
  C  C544  1  0.302500  0.794400  0.354600  1.0  0.0652
  C  C545  1  0.309700  0.930500  0.438000  1.0  0.6964
  C  C546  1  0.350800  0.859800  0.393300  1.0  -0.0394
  C  C547  1  0.258800  0.819700  0.370200  1.0  -0.1363
  C  C548  1  0.348400  0.815200  0.366200  1.0  -0.1116
  C  C549  1  0.262400  0.864100  0.395800  1.0  -0.042
  C  C550  1  0.258500  0.716600  0.330400  1.0  -0.1364
  C  C551  1  0.307700  0.884400  0.407600  1.0  -0.1301
  C  C552  1  0.297700  0.749500  0.322900  1.0  0.0142
  C  C553  1  0.645400  0.697500  0.794400  1.0  0.0641
  C  C554  1  0.562000  0.690300  0.930500  1.0  0.6969
  C  C555  1  0.606700  0.649200  0.859800  1.0  -0.0456
  C  C556  1  0.629800  0.741200  0.819700  1.0  -0.1355
  C  C557  1  0.633800  0.651600  0.815200  1.0  -0.1108
  C  C558  1  0.604200  0.737600  0.864100  1.0  -0.0414
  C  C559  1  0.669600  0.741500  0.716600  1.0  -0.1367
  C  C560  1  0.592400  0.692300  0.884400  1.0  -0.1311
  C  C561  1  0.677100  0.702300  0.749500  1.0  0.0156
  C  C562  1  0.354600  0.697500  0.205600  1.0  0.0646
  C  C563  1  0.438000  0.690300  0.069500  1.0  0.6959
  C  C564  1  0.393300  0.649200  0.140200  1.0  -0.0444
  C  C565  1  0.370200  0.741200  0.180300  1.0  -0.134
  C  C566  1  0.366200  0.651600  0.184800  1.0  -0.1119
  C  C567  1  0.395800  0.737600  0.135900  1.0  -0.0426
  C  C568  1  0.330400  0.741500  0.283400  1.0  -0.1371
  C  C569  1  0.407600  0.692300  0.115600  1.0  -0.1318
  C  C570  1  0.322900  0.702300  0.250500  1.0  0.0171
  C  C571  1  0.645400  0.302500  0.205600  1.0  0.0639
  C  C572  1  0.562000  0.309700  0.069500  1.0  0.6963
  C  C573  1  0.606700  0.350800  0.140200  1.0  -0.0465
  C  C574  1  0.629800  0.258800  0.180300  1.0  -0.1351
  C  C575  1  0.633800  0.348400  0.184800  1.0  -0.1116
  C  C576  1  0.604200  0.262400  0.135900  1.0  -0.0405
  C  C577  1  0.669600  0.258500  0.283400  1.0  -0.1358
  C  C578  1  0.592400  0.307700  0.115600  1.0  -0.1313
  C  C579  1  0.677100  0.297700  0.250500  1.0  0.0162
  C  C580  1  0.354600  0.302500  0.794400  1.0  0.0641
  C  C581  1  0.438000  0.309700  0.930500  1.0  0.6967
  C  C582  1  0.393300  0.350800  0.859800  1.0  -0.0451
  C  C583  1  0.370200  0.258800  0.819700  1.0  -0.134
  C  C584  1  0.366200  0.348400  0.815200  1.0  -0.1132
  C  C585  1  0.395800  0.262400  0.864100  1.0  -0.0415
  C  C586  1  0.330400  0.258500  0.716600  1.0  -0.1369
  C  C587  1  0.407600  0.307700  0.884400  1.0  -0.1322
  C  C588  1  0.322900  0.297700  0.749500  1.0  0.0146
  C  C589  1  0.205600  0.354600  0.302500  1.0  0.0649
  C  C590  1  0.069500  0.438000  0.309700  1.0  0.695
  C  C591  1  0.140200  0.393300  0.350800  1.0  -0.0471
  C  C592  1  0.180300  0.370200  0.258800  1.0  -0.138
  C  C593  1  0.184800  0.366200  0.348400  1.0  -0.1147
  C  C594  1  0.135900  0.395800  0.262400  1.0  -0.0452
  C  C595  1  0.283400  0.330400  0.258500  1.0  -0.1343
  C  C596  1  0.115600  0.407600  0.307700  1.0  -0.1305
  C  C597  1  0.250500  0.322900  0.297700  1.0  0.012
  C  C598  1  0.794400  0.645400  0.302500  1.0  0.0636
  C  C599  1  0.930500  0.562000  0.309700  1.0  0.6953
  C  C600  1  0.859800  0.606700  0.350800  1.0  -0.0455
  C  C601  1  0.819700  0.629800  0.258800  1.0  -0.1375
  C  C602  1  0.815200  0.633800  0.348400  1.0  -0.1169
  C  C603  1  0.864100  0.604200  0.262400  1.0  -0.0463
  C  C604  1  0.716600  0.669600  0.258500  1.0  -0.1343
  C  C605  1  0.884400  0.592400  0.307700  1.0  -0.1328
  C  C606  1  0.749500  0.677100  0.297700  1.0  0.0148
  C  C607  1  0.794400  0.354600  0.697500  1.0  0.0641
  C  C608  1  0.930500  0.438000  0.690300  1.0  0.6953
  C  C609  1  0.859800  0.393300  0.649200  1.0  -0.0445
  C  C610  1  0.819700  0.370200  0.741200  1.0  -0.137
  C  C611  1  0.815200  0.366200  0.651600  1.0  -0.1129
  C  C612  1  0.864100  0.395800  0.737600  1.0  -0.0444
  C  C613  1  0.716600  0.330400  0.741500  1.0  -0.1318
  C  C614  1  0.884400  0.407600  0.692300  1.0  -0.1318
  C  C615  1  0.749500  0.322900  0.702300  1.0  0.0142
  C  C616  1  0.205600  0.645400  0.697500  1.0  0.0637
  C  C617  1  0.069500  0.562000  0.690300  1.0  0.6951
  C  C618  1  0.140200  0.606700  0.649200  1.0  -0.0433
  C  C619  1  0.180300  0.629800  0.741200  1.0  -0.1372
  C  C620  1  0.184800  0.633800  0.651600  1.0  -0.1137
  C  C621  1  0.135900  0.604200  0.737600  1.0  -0.0437
  C  C622  1  0.283400  0.669600  0.741500  1.0  -0.1338
  C  C623  1  0.115600  0.592400  0.692300  1.0  -0.1327
  C  C624  1  0.250500  0.677100  0.702300  1.0  0.0145
  C  C625  1  0.302500  0.205600  0.354600  1.0  0.0652
  C  C626  1  0.309700  0.069500  0.438000  1.0  0.6961
  C  C627  1  0.350800  0.140200  0.393300  1.0  -0.0391
  C  C628  1  0.258800  0.180300  0.370200  1.0  -0.1364
  C  C629  1  0.348400  0.184800  0.366200  1.0  -0.1111
  C  C630  1  0.262400  0.135900  0.395800  1.0  -0.0411
  C  C631  1  0.258500  0.283400  0.330400  1.0  -0.1358
  C  C632  1  0.307700  0.115600  0.407600  1.0  -0.1306
  C  C633  1  0.297700  0.250500  0.322900  1.0  0.0123
  C  C634  1  0.302500  0.794400  0.645400  1.0  0.0626
  C  C635  1  0.309700  0.930500  0.562000  1.0  0.6961
  C  C636  1  0.350800  0.859800  0.606700  1.0  -0.04
  C  C637  1  0.258800  0.819700  0.629800  1.0  -0.1342
  C  C638  1  0.348400  0.815200  0.633800  1.0  -0.111
  C  C639  1  0.262400  0.864100  0.604200  1.0  -0.0418
  C  C640  1  0.258500  0.716600  0.669600  1.0  -0.1349
  C  C641  1  0.307700  0.884400  0.592400  1.0  -0.1308
  C  C642  1  0.297700  0.749500  0.677100  1.0  0.0119
  C  C643  1  0.697500  0.794400  0.354600  1.0  0.0642
  C  C644  1  0.690300  0.930500  0.438000  1.0  0.6966
  C  C645  1  0.649200  0.859800  0.393300  1.0  -0.0416
  C  C646  1  0.741200  0.819700  0.370200  1.0  -0.1349
  C  C647  1  0.651600  0.815200  0.366200  1.0  -0.1132
  C  C648  1  0.737600  0.864100  0.395800  1.0  -0.0424
  C  C649  1  0.741500  0.716600  0.330400  1.0  -0.1362
  C  C650  1  0.692300  0.884400  0.407600  1.0  -0.1294
  C  C651  1  0.702300  0.749500  0.322900  1.0  0.0158
  C  C652  1  0.697500  0.205600  0.645400  1.0  0.0659
  C  C653  1  0.690300  0.069500  0.562000  1.0  0.6963
  C  C654  1  0.649200  0.140200  0.606700  1.0  -0.0411
  C  C655  1  0.741200  0.180300  0.629800  1.0  -0.1331
  C  C656  1  0.651600  0.184800  0.633800  1.0  -0.1137
  C  C657  1  0.737600  0.135900  0.604200  1.0  -0.0426
  C  C658  1  0.741500  0.283400  0.669600  1.0  -0.1338
  C  C659  1  0.692300  0.115600  0.592400  1.0  -0.1316
  C  C660  1  0.702300  0.250500  0.677100  1.0  0.014
  C  C661  1  0.354600  0.302500  0.205600  1.0  0.0639
  C  C662  1  0.438000  0.309700  0.069500  1.0  0.696
  C  C663  1  0.393300  0.350800  0.140200  1.0  -0.0455
  C  C664  1  0.370200  0.258800  0.180300  1.0  -0.1337
  C  C665  1  0.366200  0.348400  0.184800  1.0  -0.1133
  C  C666  1  0.395800  0.262400  0.135900  1.0  -0.0419
  C  C667  1  0.330400  0.258500  0.283400  1.0  -0.1367
  C  C668  1  0.407600  0.307700  0.115600  1.0  -0.1314
  C  C669  1  0.322900  0.297700  0.250500  1.0  0.0156
  C  C670  1  0.645400  0.302500  0.794400  1.0  0.0641
  C  C671  1  0.562000  0.309700  0.930500  1.0  0.6969
  C  C672  1  0.606700  0.350800  0.859800  1.0  -0.0457
  C  C673  1  0.629800  0.258800  0.819700  1.0  -0.1348
  C  C674  1  0.633800  0.348400  0.815200  1.0  -0.1123
  C  C675  1  0.604200  0.262400  0.864100  1.0  -0.0406
  C  C676  1  0.669600  0.258500  0.716600  1.0  -0.1358
  C  C677  1  0.592400  0.307700  0.884400  1.0  -0.1309
  C  C678  1  0.677100  0.297700  0.749500  1.0  0.0155
  C  C679  1  0.354600  0.697500  0.794400  1.0  0.0641
  C  C680  1  0.438000  0.690300  0.930500  1.0  0.6966
  C  C681  1  0.393300  0.649200  0.859800  1.0  -0.0447
  C  C682  1  0.370200  0.741200  0.819700  1.0  -0.1341
  C  C683  1  0.366200  0.651600  0.815200  1.0  -0.1119
  C  C684  1  0.395800  0.737600  0.864100  1.0  -0.0428
  C  C685  1  0.330400  0.741500  0.716600  1.0  -0.1368
  C  C686  1  0.407600  0.692300  0.884400  1.0  -0.1324
  C  C687  1  0.322900  0.702300  0.749500  1.0  0.015
  C  C688  1  0.645400  0.697500  0.205600  1.0  0.0642
  C  C689  1  0.562000  0.690300  0.069500  1.0  0.6962
  C  C690  1  0.606700  0.649200  0.140200  1.0  -0.0456
  C  C691  1  0.629800  0.741200  0.180300  1.0  -0.136
  C  C692  1  0.633800  0.651600  0.184800  1.0  -0.1097
  C  C693  1  0.604200  0.737600  0.135900  1.0  -0.0409
  C  C694  1  0.669600  0.741500  0.283400  1.0  -0.1366
  C  C695  1  0.592400  0.692300  0.115600  1.0  -0.132
  C  C696  1  0.677100  0.702300  0.250500  1.0  0.0172
  O  O697  1  0.447500  0.050350  0.148820  1.0  -0.5747
  O  O698  1  0.448480  0.049070  0.231060  1.0  -0.5834
  O  O699  1  0.552500  0.949650  0.148820  1.0  -0.5751
  O  O700  1  0.551520  0.950930  0.231060  1.0  -0.5831
  O  O701  1  0.552500  0.050350  0.851180  1.0  -0.575
  O  O702  1  0.551520  0.049070  0.768940  1.0  -0.5825
  O  O703  1  0.447500  0.949650  0.851180  1.0  -0.574
  O  O704  1  0.448480  0.950930  0.768940  1.0  -0.5832
  O  O705  1  0.148820  0.447500  0.050350  1.0  -0.5759
  O  O706  1  0.231060  0.448480  0.049070  1.0  -0.5823
  O  O707  1  0.148820  0.552500  0.949650  1.0  -0.576
  O  O708  1  0.231060  0.551520  0.950930  1.0  -0.5819
  O  O709  1  0.851180  0.552500  0.050350  1.0  -0.5759
  O  O710  1  0.768940  0.551520  0.049070  1.0  -0.5812
  O  O711  1  0.851180  0.447500  0.949650  1.0  -0.577
  O  O712  1  0.768940  0.448480  0.950930  1.0  -0.5811
  O  O713  1  0.050350  0.148820  0.447500  1.0  -0.5782
  O  O714  1  0.049070  0.231060  0.448480  1.0  -0.5828
  O  O715  1  0.949650  0.148820  0.552500  1.0  -0.5775
  O  O716  1  0.950930  0.231060  0.551520  1.0  -0.5835
  O  O717  1  0.050350  0.851180  0.552500  1.0  -0.5775
  O  O718  1  0.049070  0.768940  0.551520  1.0  -0.5835
  O  O719  1  0.949650  0.851180  0.447500  1.0  -0.5778
  O  O720  1  0.950930  0.768940  0.448480  1.0  -0.5827
  O  O721  1  0.552500  0.949650  0.851180  1.0  -0.5749
  O  O722  1  0.551520  0.950930  0.768940  1.0  -0.582
  O  O723  1  0.447500  0.050350  0.851180  1.0  -0.5742
  O  O724  1  0.448480  0.049070  0.768940  1.0  -0.5837
  O  O725  1  0.447500  0.949650  0.148820  1.0  -0.5746
  O  O726  1  0.448480  0.950930  0.231060  1.0  -0.5833
  O  O727  1  0.552500  0.050350  0.148820  1.0  -0.5751
  O  O728  1  0.551520  0.049070  0.231060  1.0  -0.5834
  O  O729  1  0.851180  0.552500  0.949650  1.0  -0.5767
  O  O730  1  0.768940  0.551520  0.950930  1.0  -0.5812
  O  O731  1  0.851180  0.447500  0.050350  1.0  -0.5761
  O  O732  1  0.768940  0.448480  0.049070  1.0  -0.5816
  O  O733  1  0.148820  0.447500  0.949650  1.0  -0.5762
  O  O734  1  0.231060  0.448480  0.950930  1.0  -0.5821
  O  O735  1  0.148820  0.552500  0.050350  1.0  -0.5757
  O  O736  1  0.231060  0.551520  0.049070  1.0  -0.5819
  O  O737  1  0.949650  0.851180  0.552500  1.0  -0.5782
  O  O738  1  0.950930  0.768940  0.551520  1.0  -0.5833
  O  O739  1  0.050350  0.851180  0.447500  1.0  -0.5773
  O  O740  1  0.049070  0.768940  0.448480  1.0  -0.5831
  O  O741  1  0.949650  0.148820  0.447500  1.0  -0.5776
  O  O742  1  0.950930  0.231060  0.448480  1.0  -0.5833
  O  O743  1  0.050350  0.148820  0.552500  1.0  -0.578
  O  O744  1  0.049070  0.231060  0.551520  1.0  -0.5832
  O  O745  1  0.947500  0.550350  0.648820  1.0  -0.5747
  O  O746  1  0.948480  0.549070  0.731060  1.0  -0.5834
  O  O747  1  0.052500  0.449650  0.648820  1.0  -0.5751
  O  O748  1  0.051520  0.450930  0.731060  1.0  -0.5831
  O  O749  1  0.052500  0.550350  0.351180  1.0  -0.575
  O  O750  1  0.051520  0.549070  0.268940  1.0  -0.5825
  O  O751  1  0.947500  0.449650  0.351180  1.0  -0.574
  O  O752  1  0.948480  0.450930  0.268940  1.0  -0.5832
  O  O753  1  0.648820  0.947500  0.550350  1.0  -0.5759
  O  O754  1  0.731060  0.948480  0.549070  1.0  -0.5822
  O  O755  1  0.648820  0.052500  0.449650  1.0  -0.576
  O  O756  1  0.731060  0.051520  0.450930  1.0  -0.5819
  O  O757  1  0.351180  0.052500  0.550350  1.0  -0.5759
  O  O758  1  0.268940  0.051520  0.549070  1.0  -0.5812
  O  O759  1  0.351180  0.947500  0.449650  1.0  -0.577
  O  O760  1  0.268940  0.948480  0.450930  1.0  -0.5811
  O  O761  1  0.550350  0.648820  0.947500  1.0  -0.5782
  O  O762  1  0.549070  0.731060  0.948480  1.0  -0.5828
  O  O763  1  0.449650  0.648820  0.052500  1.0  -0.5776
  O  O764  1  0.450930  0.731060  0.051520  1.0  -0.5835
  O  O765  1  0.550350  0.351180  0.052500  1.0  -0.5775
  O  O766  1  0.549070  0.268940  0.051520  1.0  -0.5835
  O  O767  1  0.449650  0.351180  0.947500  1.0  -0.5778
  O  O768  1  0.450930  0.268940  0.948480  1.0  -0.5827
  O  O769  1  0.052500  0.449650  0.351180  1.0  -0.5749
  O  O770  1  0.051520  0.450930  0.268940  1.0  -0.582
  O  O771  1  0.947500  0.550350  0.351180  1.0  -0.5742
  O  O772  1  0.948480  0.549070  0.268940  1.0  -0.5837
  O  O773  1  0.947500  0.449650  0.648820  1.0  -0.5746
  O  O774  1  0.948480  0.450930  0.731060  1.0  -0.5833
  O  O775  1  0.052500  0.550350  0.648820  1.0  -0.5751
  O  O776  1  0.051520  0.549070  0.731060  1.0  -0.5834
  O  O777  1  0.351180  0.052500  0.449650  1.0  -0.5767
  O  O778  1  0.268940  0.051520  0.450930  1.0  -0.5812
  O  O779  1  0.351180  0.947500  0.550350  1.0  -0.5761
  O  O780  1  0.268940  0.948480  0.549070  1.0  -0.5812
  O  O781  1  0.648820  0.947500  0.449650  1.0  -0.5762
  O  O782  1  0.731060  0.948480  0.450930  1.0  -0.5821
  O  O783  1  0.648820  0.052500  0.550350  1.0  -0.5757
  O  O784  1  0.731060  0.051520  0.549070  1.0  -0.5819
  O  O785  1  0.449650  0.351180  0.052500  1.0  -0.5782
  O  O786  1  0.450930  0.268940  0.051520  1.0  -0.5832
  O  O787  1  0.550350  0.351180  0.947500  1.0  -0.5773
  O  O788  1  0.549070  0.268940  0.948480  1.0  -0.5831
  O  O789  1  0.449650  0.648820  0.947500  1.0  -0.5776
  O  O790  1  0.450930  0.731060  0.948480  1.0  -0.5833
  O  O791  1  0.550350  0.648820  0.052500  1.0  -0.578
  O  O792  1  0.549070  0.731060  0.051520  1.0  -0.5832
