# generated using pymatgen
data_CuH10(C9O2)2
_symmetry_space_group_name_H-M   'P 1'
_cell_length_a   26.92500000
_cell_length_b   26.92500000
_cell_length_c   26.92500000
_cell_angle_alpha   90.00000000
_cell_angle_beta   90.00000000
_cell_angle_gamma   90.00000000
_symmetry_Int_Tables_number   1
_chemical_formula_structural   CuH10(C9O2)2
_chemical_formula_sum   'Cu24 H240 C432 O96'
_cell_volume   19519.43020313
_cell_formula_units_Z   24
loop_
 _symmetry_equiv_pos_site_id
 _symmetry_equiv_pos_as_xyz
  1  'x, y, z'
loop_
 _atom_site_type_symbol
 _atom_site_label
 _atom_site_symmetry_multiplicity
 _atom_site_fract_x
 _atom_site_fract_y
 _atom_site_fract_z
 _atom_site_occupancy
 _atom_site_charge
  Cu  Cu1  1  0.500000  0.000000  0.144130  1.0  0.8781
  Cu  Cu2  1  0.500000  0.000000  0.240700  1.0  0.9093
  Cu  Cu3  1  0.500000  0.000000  0.855870  1.0  0.8779
  Cu  Cu4  1  0.500000  0.000000  0.759300  1.0  0.9118
  Cu  Cu5  1  0.144130  0.500000  0.000000  1.0  0.8764
  Cu  Cu6  1  0.240700  0.500000  0.000000  1.0  0.9135
  Cu  Cu7  1  0.855870  0.500000  0.000000  1.0  0.8786
  Cu  Cu8  1  0.759300  0.500000  0.000000  1.0  0.913
  Cu  Cu9  1  0.000000  0.144130  0.500000  1.0  0.879
  Cu  Cu10  1  0.000000  0.240700  0.500000  1.0  0.9142
  Cu  Cu11  1  0.000000  0.855870  0.500000  1.0  0.8786
  Cu  Cu12  1  0.000000  0.759300  0.500000  1.0  0.9166
  Cu  Cu13  1  0.000000  0.500000  0.644130  1.0  0.8781
  Cu  Cu14  1  0.000000  0.500000  0.740700  1.0  0.9093
  Cu  Cu15  1  0.000000  0.500000  0.355870  1.0  0.8779
  Cu  Cu16  1  0.000000  0.500000  0.259300  1.0  0.9118
  Cu  Cu17  1  0.644130  0.000000  0.500000  1.0  0.8764
  Cu  Cu18  1  0.740700  0.000000  0.500000  1.0  0.9135
  Cu  Cu19  1  0.355870  0.000000  0.500000  1.0  0.8786
  Cu  Cu20  1  0.259300  0.000000  0.500000  1.0  0.913
  Cu  Cu21  1  0.500000  0.644130  0.000000  1.0  0.879
  Cu  Cu22  1  0.500000  0.740700  0.000000  1.0  0.9142
  Cu  Cu23  1  0.500000  0.355870  0.000000  1.0  0.8786
  Cu  Cu24  1  0.500000  0.259300  0.000000  1.0  0.9166
  H  H25  1  0.373600  0.098000  0.118500  1.0  0.1038
  H  H26  1  0.305900  0.136000  0.271900  1.0  0.0969
  H  H27  1  0.299700  0.144100  0.121700  1.0  0.1182
  H  H28  1  0.380300  0.094700  0.266400  1.0  0.1074
  H  H29  1  0.221100  0.142600  0.262500  1.0  0.1077
  H  H30  1  0.626400  0.902000  0.118500  1.0  0.1042
  H  H31  1  0.694100  0.864000  0.271900  1.0  0.0975
  H  H32  1  0.700300  0.855900  0.121700  1.0  0.1184
  H  H33  1  0.619700  0.905300  0.266400  1.0  0.1078
  H  H34  1  0.778900  0.857400  0.262500  1.0  0.1069
  H  H35  1  0.626400  0.098000  0.881500  1.0  0.1036
  H  H36  1  0.694100  0.136000  0.728100  1.0  0.0979
  H  H37  1  0.700300  0.144100  0.878300  1.0  0.1184
  H  H38  1  0.619700  0.094700  0.733600  1.0  0.1077
  H  H39  1  0.778900  0.142600  0.737500  1.0  0.1077
  H  H40  1  0.373600  0.902000  0.881500  1.0  0.1034
  H  H41  1  0.305900  0.864000  0.728100  1.0  0.0986
  H  H42  1  0.299700  0.855900  0.878300  1.0  0.1187
  H  H43  1  0.380300  0.905300  0.733600  1.0  0.1075
  H  H44  1  0.221100  0.857400  0.737500  1.0  0.107
  H  H45  1  0.118500  0.373600  0.098000  1.0  0.104
  H  H46  1  0.271900  0.305900  0.136000  1.0  0.1001
  H  H47  1  0.121700  0.299700  0.144100  1.0  0.1189
  H  H48  1  0.266400  0.380300  0.094700  1.0  0.1071
  H  H49  1  0.262500  0.221100  0.142600  1.0  0.1099
  H  H50  1  0.118500  0.626400  0.902000  1.0  0.1043
  H  H51  1  0.271900  0.694100  0.864000  1.0  0.0991
  H  H52  1  0.121700  0.700300  0.855900  1.0  0.1192
  H  H53  1  0.266400  0.619700  0.905300  1.0  0.107
  H  H54  1  0.262500  0.778900  0.857400  1.0  0.1099
  H  H55  1  0.881500  0.626400  0.098000  1.0  0.1046
  H  H56  1  0.728100  0.694100  0.136000  1.0  0.0992
  H  H57  1  0.878300  0.700300  0.144100  1.0  0.1191
  H  H58  1  0.733600  0.619700  0.094700  1.0  0.1066
  H  H59  1  0.737500  0.778900  0.142600  1.0  0.1108
  H  H60  1  0.881500  0.373600  0.902000  1.0  0.1045
  H  H61  1  0.728100  0.305900  0.864000  1.0  0.0993
  H  H62  1  0.878300  0.299700  0.855900  1.0  0.1188
  H  H63  1  0.733600  0.380300  0.905300  1.0  0.1069
  H  H64  1  0.737500  0.221100  0.857400  1.0  0.1102
  H  H65  1  0.098000  0.118500  0.373600  1.0  0.1037
  H  H66  1  0.136000  0.271900  0.305900  1.0  0.0973
  H  H67  1  0.144100  0.121700  0.299700  1.0  0.1169
  H  H68  1  0.094700  0.266400  0.380300  1.0  0.1076
  H  H69  1  0.142600  0.262500  0.221100  1.0  0.1082
  H  H70  1  0.902000  0.118500  0.626400  1.0  0.1038
  H  H71  1  0.864000  0.271900  0.694100  1.0  0.0983
  H  H72  1  0.855900  0.121700  0.700300  1.0  0.1181
  H  H73  1  0.905300  0.266400  0.619700  1.0  0.1076
  H  H74  1  0.857400  0.262500  0.778900  1.0  0.1076
  H  H75  1  0.098000  0.881500  0.626400  1.0  0.1043
  H  H76  1  0.136000  0.728100  0.694100  1.0  0.0974
  H  H77  1  0.144100  0.878300  0.700300  1.0  0.1177
  H  H78  1  0.094700  0.733600  0.619700  1.0  0.1068
  H  H79  1  0.142600  0.737500  0.778900  1.0  0.1084
  H  H80  1  0.902000  0.881500  0.373600  1.0  0.104
  H  H81  1  0.864000  0.728100  0.305900  1.0  0.0977
  H  H82  1  0.855900  0.878300  0.299700  1.0  0.1186
  H  H83  1  0.905300  0.733600  0.380300  1.0  0.1074
  H  H84  1  0.857400  0.737500  0.221100  1.0  0.1086
  H  H85  1  0.626400  0.902000  0.881500  1.0  0.1035
  H  H86  1  0.694100  0.864000  0.728100  1.0  0.0985
  H  H87  1  0.700300  0.855900  0.878300  1.0  0.1187
  H  H88  1  0.619700  0.905300  0.733600  1.0  0.1077
  H  H89  1  0.778900  0.857400  0.737500  1.0  0.1068
  H  H90  1  0.373600  0.098000  0.881500  1.0  0.1035
  H  H91  1  0.305900  0.136000  0.728100  1.0  0.098
  H  H92  1  0.299700  0.144100  0.878300  1.0  0.1184
  H  H93  1  0.380300  0.094700  0.733600  1.0  0.1076
  H  H94  1  0.221100  0.142600  0.737500  1.0  0.1074
  H  H95  1  0.373600  0.902000  0.118500  1.0  0.1041
  H  H96  1  0.305900  0.864000  0.271900  1.0  0.0976
  H  H97  1  0.299700  0.855900  0.121700  1.0  0.1183
  H  H98  1  0.380300  0.905300  0.266400  1.0  0.1075
  H  H99  1  0.221100  0.857400  0.262500  1.0  0.107
  H  H100  1  0.626400  0.098000  0.118500  1.0  0.1038
  H  H101  1  0.694100  0.136000  0.271900  1.0  0.097
  H  H102  1  0.700300  0.144100  0.121700  1.0  0.1185
  H  H103  1  0.619700  0.094700  0.266400  1.0  0.1077
  H  H104  1  0.778900  0.142600  0.262500  1.0  0.1079
  H  H105  1  0.881500  0.626400  0.902000  1.0  0.1044
  H  H106  1  0.728100  0.694100  0.864000  1.0  0.099
  H  H107  1  0.878300  0.700300  0.855900  1.0  0.119
  H  H108  1  0.733600  0.619700  0.905300  1.0  0.107
  H  H109  1  0.737500  0.778900  0.857400  1.0  0.1103
  H  H110  1  0.881500  0.373600  0.098000  1.0  0.1049
  H  H111  1  0.728100  0.305900  0.136000  1.0  0.0996
  H  H112  1  0.878300  0.299700  0.144100  1.0  0.119
  H  H113  1  0.733600  0.380300  0.094700  1.0  0.1068
  H  H114  1  0.737500  0.221100  0.142600  1.0  0.1103
  H  H115  1  0.118500  0.373600  0.902000  1.0  0.1042
  H  H116  1  0.271900  0.305900  0.864000  1.0  0.0996
  H  H117  1  0.121700  0.299700  0.855900  1.0  0.1192
  H  H118  1  0.266400  0.380300  0.905300  1.0  0.107
  H  H119  1  0.262500  0.221100  0.857400  1.0  0.1101
  H  H120  1  0.118500  0.626400  0.098000  1.0  0.104
  H  H121  1  0.271900  0.694100  0.136000  1.0  0.0997
  H  H122  1  0.121700  0.700300  0.144100  1.0  0.1188
  H  H123  1  0.266400  0.619700  0.094700  1.0  0.1067
  H  H124  1  0.262500  0.778900  0.142600  1.0  0.1098
  H  H125  1  0.902000  0.881500  0.626400  1.0  0.1041
  H  H126  1  0.864000  0.728100  0.694100  1.0  0.0982
  H  H127  1  0.855900  0.878300  0.700300  1.0  0.1182
  H  H128  1  0.905300  0.733600  0.619700  1.0  0.1071
  H  H129  1  0.857400  0.737500  0.778900  1.0  0.1079
  H  H130  1  0.098000  0.881500  0.373600  1.0  0.1042
  H  H131  1  0.136000  0.728100  0.305900  1.0  0.0967
  H  H132  1  0.144100  0.878300  0.299700  1.0  0.1179
  H  H133  1  0.094700  0.733600  0.380300  1.0  0.1072
  H  H134  1  0.142600  0.737500  0.221100  1.0  0.1084
  H  H135  1  0.902000  0.118500  0.373600  1.0  0.1037
  H  H136  1  0.864000  0.271900  0.305900  1.0  0.0981
  H  H137  1  0.855900  0.121700  0.299700  1.0  0.1173
  H  H138  1  0.905300  0.266400  0.380300  1.0  0.1077
  H  H139  1  0.857400  0.262500  0.221100  1.0  0.1082
  H  H140  1  0.098000  0.118500  0.626400  1.0  0.1037
  H  H141  1  0.136000  0.271900  0.694100  1.0  0.0978
  H  H142  1  0.144100  0.121700  0.700300  1.0  0.1177
  H  H143  1  0.094700  0.266400  0.619700  1.0  0.1074
  H  H144  1  0.142600  0.262500  0.778900  1.0  0.1081
  H  H145  1  0.873600  0.598000  0.618500  1.0  0.1038
  H  H146  1  0.805900  0.636000  0.771900  1.0  0.0974
  H  H147  1  0.799700  0.644100  0.621700  1.0  0.1182
  H  H148  1  0.880300  0.594700  0.766400  1.0  0.1074
  H  H149  1  0.721100  0.642600  0.762500  1.0  0.1077
  H  H150  1  0.126400  0.402000  0.618500  1.0  0.1042
  H  H151  1  0.194100  0.364000  0.771900  1.0  0.0977
  H  H152  1  0.200300  0.355900  0.621700  1.0  0.1184
  H  H153  1  0.119700  0.405300  0.766400  1.0  0.1078
  H  H154  1  0.278900  0.357400  0.762500  1.0  0.1069
  H  H155  1  0.126400  0.598000  0.381500  1.0  0.1036
  H  H156  1  0.194100  0.636000  0.228100  1.0  0.0984
  H  H157  1  0.200300  0.644100  0.378300  1.0  0.1184
  H  H158  1  0.119700  0.594700  0.233600  1.0  0.1077
  H  H159  1  0.278900  0.642600  0.237500  1.0  0.1077
  H  H160  1  0.873600  0.402000  0.381500  1.0  0.1034
  H  H161  1  0.805900  0.364000  0.228100  1.0  0.0986
  H  H162  1  0.799700  0.355900  0.378300  1.0  0.1187
  H  H163  1  0.880300  0.405300  0.233600  1.0  0.1075
  H  H164  1  0.721100  0.357400  0.237500  1.0  0.107
  H  H165  1  0.618500  0.873600  0.598000  1.0  0.104
  H  H166  1  0.771900  0.805900  0.636000  1.0  0.1006
  H  H167  1  0.621700  0.799700  0.644100  1.0  0.1189
  H  H168  1  0.766400  0.880300  0.594700  1.0  0.1071
  H  H169  1  0.762500  0.721100  0.642600  1.0  0.1099
  H  H170  1  0.618500  0.126400  0.402000  1.0  0.1043
  H  H171  1  0.771900  0.194100  0.364000  1.0  0.0995
  H  H172  1  0.621700  0.200300  0.355900  1.0  0.1192
  H  H173  1  0.766400  0.119700  0.405300  1.0  0.107
  H  H174  1  0.762500  0.278900  0.357400  1.0  0.1099
  H  H175  1  0.381500  0.126400  0.598000  1.0  0.1046
  H  H176  1  0.228100  0.194100  0.636000  1.0  0.0996
  H  H177  1  0.378300  0.200300  0.644100  1.0  0.1191
  H  H178  1  0.233600  0.119700  0.594700  1.0  0.1066
  H  H179  1  0.237500  0.278900  0.642600  1.0  0.1108
  H  H180  1  0.381500  0.873600  0.402000  1.0  0.1045
  H  H181  1  0.228100  0.805900  0.364000  1.0  0.0997
  H  H182  1  0.378300  0.799700  0.355900  1.0  0.1188
  H  H183  1  0.233600  0.880300  0.405300  1.0  0.1069
  H  H184  1  0.237500  0.721100  0.357400  1.0  0.1102
  H  H185  1  0.598000  0.618500  0.873600  1.0  0.1037
  H  H186  1  0.636000  0.771900  0.805900  1.0  0.0977
  H  H187  1  0.644100  0.621700  0.799700  1.0  0.1169
  H  H188  1  0.594700  0.766400  0.880300  1.0  0.1076
  H  H189  1  0.642600  0.762500  0.721100  1.0  0.1082
  H  H190  1  0.402000  0.618500  0.126400  1.0  0.1038
  H  H191  1  0.364000  0.771900  0.194100  1.0  0.0986
  H  H192  1  0.355900  0.621700  0.200300  1.0  0.1181
  H  H193  1  0.405300  0.766400  0.119700  1.0  0.1076
  H  H194  1  0.357400  0.762500  0.278900  1.0  0.1076
  H  H195  1  0.598000  0.381500  0.126400  1.0  0.1043
  H  H196  1  0.636000  0.228100  0.194100  1.0  0.0977
  H  H197  1  0.644100  0.378300  0.200300  1.0  0.1177
  H  H198  1  0.594700  0.233600  0.119700  1.0  0.1068
  H  H199  1  0.642600  0.237500  0.278900  1.0  0.1084
  H  H200  1  0.402000  0.381500  0.873600  1.0  0.104
  H  H201  1  0.364000  0.228100  0.805900  1.0  0.0981
  H  H202  1  0.355900  0.378300  0.799700  1.0  0.1186
  H  H203  1  0.405300  0.233600  0.880300  1.0  0.1074
  H  H204  1  0.357400  0.237500  0.721100  1.0  0.1086
  H  H205  1  0.126400  0.402000  0.381500  1.0  0.1035
  H  H206  1  0.194100  0.364000  0.228100  1.0  0.0987
  H  H207  1  0.200300  0.355900  0.378300  1.0  0.1187
  H  H208  1  0.119700  0.405300  0.233600  1.0  0.1077
  H  H209  1  0.278900  0.357400  0.237500  1.0  0.1068
  H  H210  1  0.873600  0.598000  0.381500  1.0  0.1035
  H  H211  1  0.805900  0.636000  0.228100  1.0  0.0984
  H  H212  1  0.799700  0.644100  0.378300  1.0  0.1184
  H  H213  1  0.880300  0.594700  0.233600  1.0  0.1076
  H  H214  1  0.721100  0.642600  0.237500  1.0  0.1074
  H  H215  1  0.873600  0.402000  0.618500  1.0  0.1041
  H  H216  1  0.805900  0.364000  0.771900  1.0  0.0977
  H  H217  1  0.799700  0.355900  0.621700  1.0  0.1183
  H  H218  1  0.880300  0.405300  0.766400  1.0  0.1075
  H  H219  1  0.721100  0.357400  0.762500  1.0  0.107
  H  H220  1  0.126400  0.598000  0.618500  1.0  0.1038
  H  H221  1  0.194100  0.636000  0.771900  1.0  0.0975
  H  H222  1  0.200300  0.644100  0.621700  1.0  0.1185
  H  H223  1  0.119700  0.594700  0.766400  1.0  0.1077
  H  H224  1  0.278900  0.642600  0.762500  1.0  0.1079
  H  H225  1  0.381500  0.126400  0.402000  1.0  0.1044
  H  H226  1  0.228100  0.194100  0.364000  1.0  0.0993
  H  H227  1  0.378300  0.200300  0.355900  1.0  0.119
  H  H228  1  0.233600  0.119700  0.405300  1.0  0.107
  H  H229  1  0.237500  0.278900  0.357400  1.0  0.1103
  H  H230  1  0.381500  0.873600  0.598000  1.0  0.1049
  H  H231  1  0.228100  0.805900  0.636000  1.0  0.0999
  H  H232  1  0.378300  0.799700  0.644100  1.0  0.119
  H  H233  1  0.233600  0.880300  0.594700  1.0  0.1068
  H  H234  1  0.237500  0.721100  0.642600  1.0  0.1103
  H  H235  1  0.618500  0.873600  0.402000  1.0  0.1042
  H  H236  1  0.771900  0.805900  0.364000  1.0  0.0999
  H  H237  1  0.621700  0.799700  0.355900  1.0  0.1192
  H  H238  1  0.766400  0.880300  0.405300  1.0  0.107
  H  H239  1  0.762500  0.721100  0.357400  1.0  0.1101
  H  H240  1  0.618500  0.126400  0.598000  1.0  0.104
  H  H241  1  0.771900  0.194100  0.636000  1.0  0.1001
  H  H242  1  0.621700  0.200300  0.644100  1.0  0.1188
  H  H243  1  0.766400  0.119700  0.594700  1.0  0.1067
  H  H244  1  0.762500  0.278900  0.642600  1.0  0.1098
  H  H245  1  0.402000  0.381500  0.126400  1.0  0.1041
  H  H246  1  0.364000  0.228100  0.194100  1.0  0.0986
  H  H247  1  0.355900  0.378300  0.200300  1.0  0.1182
  H  H248  1  0.405300  0.233600  0.119700  1.0  0.1071
  H  H249  1  0.357400  0.237500  0.278900  1.0  0.1079
  H  H250  1  0.598000  0.381500  0.873600  1.0  0.1042
  H  H251  1  0.636000  0.228100  0.805900  1.0  0.097
  H  H252  1  0.644100  0.378300  0.799700  1.0  0.1179
  H  H253  1  0.594700  0.233600  0.880300  1.0  0.1072
  H  H254  1  0.642600  0.237500  0.721100  1.0  0.1084
  H  H255  1  0.402000  0.618500  0.873600  1.0  0.1037
  H  H256  1  0.364000  0.771900  0.805900  1.0  0.0984
  H  H257  1  0.355900  0.621700  0.799700  1.0  0.1173
  H  H258  1  0.405300  0.766400  0.880300  1.0  0.1077
  H  H259  1  0.357400  0.762500  0.721100  1.0  0.1082
  H  H260  1  0.598000  0.618500  0.126400  1.0  0.1037
  H  H261  1  0.636000  0.771900  0.194100  1.0  0.0981
  H  H262  1  0.644100  0.621700  0.200300  1.0  0.1177
  H  H263  1  0.594700  0.766400  0.119700  1.0  0.1074
  H  H264  1  0.642600  0.762500  0.278900  1.0  0.1081
  C  C265  1  0.294000  0.144700  0.197000  1.0  0.0504
  C  C266  1  0.430600  0.062000  0.190000  1.0  0.6993
  C  C267  1  0.360000  0.106400  0.149100  1.0  -0.0434
  C  C268  1  0.319400  0.129100  0.240900  1.0  -0.129
  C  C269  1  0.315000  0.133700  0.150900  1.0  -0.1038
  C  C270  1  0.363700  0.103900  0.237500  1.0  -0.0401
  C  C271  1  0.216400  0.169400  0.241200  1.0  -0.1358
  C  C272  1  0.384000  0.092000  0.192100  1.0  -0.1516
  C  C273  1  0.249100  0.176700  0.201900  1.0  0.0285
  C  C274  1  0.706000  0.855300  0.197000  1.0  0.0516
  C  C275  1  0.569400  0.938000  0.190000  1.0  0.699
  C  C276  1  0.640000  0.893600  0.149100  1.0  -0.0435
  C  C277  1  0.680600  0.870900  0.240900  1.0  -0.1275
  C  C278  1  0.685000  0.866300  0.150900  1.0  -0.1053
  C  C279  1  0.636300  0.896100  0.237500  1.0  -0.0407
  C  C280  1  0.783600  0.830600  0.241200  1.0  -0.1365
  C  C281  1  0.616000  0.908000  0.192100  1.0  -0.1506
  C  C282  1  0.750900  0.823300  0.201900  1.0  0.0275
  C  C283  1  0.706000  0.144700  0.803000  1.0  0.0507
  C  C284  1  0.569400  0.062000  0.810000  1.0  0.6992
  C  C285  1  0.640000  0.106400  0.850900  1.0  -0.046
  C  C286  1  0.680600  0.129100  0.759100  1.0  -0.1277
  C  C287  1  0.685000  0.133700  0.849100  1.0  -0.1065
  C  C288  1  0.636300  0.103900  0.762500  1.0  -0.0415
  C  C289  1  0.783600  0.169400  0.758800  1.0  -0.1397
  C  C290  1  0.616000  0.092000  0.807900  1.0  -0.1516
  C  C291  1  0.750900  0.176700  0.798100  1.0  0.0283
  C  C292  1  0.294000  0.855300  0.803000  1.0  0.0522
  C  C293  1  0.430600  0.938000  0.810000  1.0  0.6995
  C  C294  1  0.360000  0.893600  0.850900  1.0  -0.0449
  C  C295  1  0.319400  0.870900  0.759100  1.0  -0.1281
  C  C296  1  0.315000  0.866300  0.849100  1.0  -0.1058
  C  C297  1  0.363700  0.896100  0.762500  1.0  -0.0423
  C  C298  1  0.216400  0.830600  0.758800  1.0  -0.1371
  C  C299  1  0.384000  0.908000  0.807900  1.0  -0.1515
  C  C300  1  0.249100  0.823300  0.798100  1.0  0.0257
  C  C301  1  0.197000  0.294000  0.144700  1.0  0.0506
  C  C302  1  0.190000  0.430600  0.062000  1.0  0.6996
  C  C303  1  0.149100  0.360000  0.106400  1.0  -0.0413
  C  C304  1  0.240900  0.319400  0.129100  1.0  -0.1244
  C  C305  1  0.150900  0.315000  0.133700  1.0  -0.1047
  C  C306  1  0.237500  0.363700  0.103900  1.0  -0.037
  C  C307  1  0.241200  0.216400  0.169400  1.0  -0.1391
  C  C308  1  0.192100  0.384000  0.092000  1.0  -0.1487
  C  C309  1  0.201900  0.249100  0.176700  1.0  0.0258
  C  C310  1  0.197000  0.706000  0.855300  1.0  0.0514
  C  C311  1  0.190000  0.569400  0.938000  1.0  0.6999
  C  C312  1  0.149100  0.640000  0.893600  1.0  -0.0399
  C  C313  1  0.240900  0.680600  0.870900  1.0  -0.1265
  C  C314  1  0.150900  0.685000  0.866300  1.0  -0.1066
  C  C315  1  0.237500  0.636300  0.896100  1.0  -0.0369
  C  C316  1  0.241200  0.783600  0.830600  1.0  -0.1406
  C  C317  1  0.192100  0.616000  0.908000  1.0  -0.15
  C  C318  1  0.201900  0.750900  0.823300  1.0  0.0276
  C  C319  1  0.803000  0.706000  0.144700  1.0  0.0519
  C  C320  1  0.810000  0.569400  0.062000  1.0  0.6995
  C  C321  1  0.850900  0.640000  0.106400  1.0  -0.0405
  C  C322  1  0.759100  0.680600  0.129100  1.0  -0.1256
  C  C323  1  0.849100  0.685000  0.133700  1.0  -0.1036
  C  C324  1  0.762500  0.636300  0.103900  1.0  -0.0369
  C  C325  1  0.758800  0.783600  0.169400  1.0  -0.14
  C  C326  1  0.807900  0.616000  0.092000  1.0  -0.1499
  C  C327  1  0.798100  0.750900  0.176700  1.0  0.0248
  C  C328  1  0.803000  0.294000  0.855300  1.0  0.053
  C  C329  1  0.810000  0.430600  0.938000  1.0  0.7
  C  C330  1  0.850900  0.360000  0.893600  1.0  -0.0406
  C  C331  1  0.759100  0.319400  0.870900  1.0  -0.1278
  C  C332  1  0.849100  0.315000  0.866300  1.0  -0.1034
  C  C333  1  0.762500  0.363700  0.896100  1.0  -0.0379
  C  C334  1  0.758800  0.216400  0.830600  1.0  -0.1423
  C  C335  1  0.807900  0.384000  0.908000  1.0  -0.1494
  C  C336  1  0.798100  0.249100  0.823300  1.0  0.0285
  C  C337  1  0.144700  0.197000  0.294000  1.0  0.0511
  C  C338  1  0.062000  0.190000  0.430600  1.0  0.7005
  C  C339  1  0.106400  0.149100  0.360000  1.0  -0.0449
  C  C340  1  0.129100  0.240900  0.319400  1.0  -0.1251
  C  C341  1  0.133700  0.150900  0.315000  1.0  -0.101
  C  C342  1  0.103900  0.237500  0.363700  1.0  -0.0375
  C  C343  1  0.169400  0.241200  0.216400  1.0  -0.1404
  C  C344  1  0.092000  0.192100  0.384000  1.0  -0.1494
  C  C345  1  0.176700  0.201900  0.249100  1.0  0.0301
  C  C346  1  0.855300  0.197000  0.706000  1.0  0.052
  C  C347  1  0.938000  0.190000  0.569400  1.0  0.6994
  C  C348  1  0.893600  0.149100  0.640000  1.0  -0.0441
  C  C349  1  0.870900  0.240900  0.680600  1.0  -0.1233
  C  C350  1  0.866300  0.150900  0.685000  1.0  -0.1021
  C  C351  1  0.896100  0.237500  0.636300  1.0  -0.0383
  C  C352  1  0.830600  0.241200  0.783600  1.0  -0.141
  C  C353  1  0.908000  0.192100  0.616000  1.0  -0.1493
  C  C354  1  0.823300  0.201900  0.750900  1.0  0.0318
  C  C355  1  0.144700  0.803000  0.706000  1.0  0.0507
  C  C356  1  0.062000  0.810000  0.569400  1.0  0.6999
  C  C357  1  0.106400  0.850900  0.640000  1.0  -0.045
  C  C358  1  0.129100  0.759100  0.680600  1.0  -0.1244
  C  C359  1  0.133700  0.849100  0.685000  1.0  -0.1013
  C  C360  1  0.103900  0.762500  0.636300  1.0  -0.0372
  C  C361  1  0.169400  0.758800  0.783600  1.0  -0.1412
  C  C362  1  0.092000  0.807900  0.616000  1.0  -0.1497
  C  C363  1  0.176700  0.798100  0.750900  1.0  0.0291
  C  C364  1  0.855300  0.803000  0.294000  1.0  0.0514
  C  C365  1  0.938000  0.810000  0.430600  1.0  0.7003
  C  C366  1  0.893600  0.850900  0.360000  1.0  -0.0441
  C  C367  1  0.870900  0.759100  0.319400  1.0  -0.1241
  C  C368  1  0.866300  0.849100  0.315000  1.0  -0.1037
  C  C369  1  0.896100  0.762500  0.363700  1.0  -0.037
  C  C370  1  0.830600  0.758800  0.216400  1.0  -0.1405
  C  C371  1  0.908000  0.807900  0.384000  1.0  -0.1503
  C  C372  1  0.823300  0.798100  0.249100  1.0  0.0298
  C  C373  1  0.706000  0.855300  0.803000  1.0  0.052
  C  C374  1  0.569400  0.938000  0.810000  1.0  0.6992
  C  C375  1  0.640000  0.893600  0.850900  1.0  -0.0462
  C  C376  1  0.680600  0.870900  0.759100  1.0  -0.1283
  C  C377  1  0.685000  0.866300  0.849100  1.0  -0.1051
  C  C378  1  0.636300  0.896100  0.762500  1.0  -0.0417
  C  C379  1  0.783600  0.830600  0.758800  1.0  -0.1384
  C  C380  1  0.616000  0.908000  0.807900  1.0  -0.1508
  C  C381  1  0.750900  0.823300  0.798100  1.0  0.026
  C  C382  1  0.294000  0.144700  0.803000  1.0  0.0508
  C  C383  1  0.430600  0.062000  0.810000  1.0  0.6993
  C  C384  1  0.360000  0.106400  0.850900  1.0  -0.0449
  C  C385  1  0.319400  0.129100  0.759100  1.0  -0.1282
  C  C386  1  0.315000  0.133700  0.849100  1.0  -0.1065
  C  C387  1  0.363700  0.103900  0.762500  1.0  -0.042
  C  C388  1  0.216400  0.169400  0.758800  1.0  -0.1382
  C  C389  1  0.384000  0.092000  0.807900  1.0  -0.1517
  C  C390  1  0.249100  0.176700  0.798100  1.0  0.0285
  C  C391  1  0.294000  0.855300  0.197000  1.0  0.0509
  C  C392  1  0.430600  0.938000  0.190000  1.0  0.6993
  C  C393  1  0.360000  0.893600  0.149100  1.0  -0.0435
  C  C394  1  0.319400  0.870900  0.240900  1.0  -0.1271
  C  C395  1  0.315000  0.866300  0.150900  1.0  -0.104
  C  C396  1  0.363700  0.896100  0.237500  1.0  -0.0406
  C  C397  1  0.216400  0.830600  0.241200  1.0  -0.1352
  C  C398  1  0.384000  0.908000  0.192100  1.0  -0.1511
  C  C399  1  0.249100  0.823300  0.201900  1.0  0.0283
  C  C400  1  0.706000  0.144700  0.197000  1.0  0.0506
  C  C401  1  0.569400  0.062000  0.190000  1.0  0.6992
  C  C402  1  0.640000  0.106400  0.149100  1.0  -0.0435
  C  C403  1  0.680600  0.129100  0.240900  1.0  -0.1285
  C  C404  1  0.685000  0.133700  0.150900  1.0  -0.1059
  C  C405  1  0.636300  0.103900  0.237500  1.0  -0.0398
  C  C406  1  0.783600  0.169400  0.241200  1.0  -0.1373
  C  C407  1  0.616000  0.092000  0.192100  1.0  -0.1516
  C  C408  1  0.750900  0.176700  0.201900  1.0  0.0284
  C  C409  1  0.803000  0.706000  0.855300  1.0  0.0526
  C  C410  1  0.810000  0.569400  0.938000  1.0  0.6999
  C  C411  1  0.850900  0.640000  0.893600  1.0  -0.0405
  C  C412  1  0.759100  0.680600  0.870900  1.0  -0.1283
  C  C413  1  0.849100  0.685000  0.866300  1.0  -0.1031
  C  C414  1  0.762500  0.636300  0.896100  1.0  -0.0373
  C  C415  1  0.758800  0.783600  0.830600  1.0  -0.1411
  C  C416  1  0.807900  0.616000  0.908000  1.0  -0.1495
  C  C417  1  0.798100  0.750900  0.823300  1.0  0.0266
  C  C418  1  0.803000  0.294000  0.144700  1.0  0.0501
  C  C419  1  0.810000  0.430600  0.062000  1.0  0.6995
  C  C420  1  0.850900  0.360000  0.106400  1.0  -0.0405
  C  C421  1  0.759100  0.319400  0.129100  1.0  -0.1252
  C  C422  1  0.849100  0.315000  0.133700  1.0  -0.1039
  C  C423  1  0.762500  0.363700  0.103900  1.0  -0.0367
  C  C424  1  0.758800  0.216400  0.169400  1.0  -0.1399
  C  C425  1  0.807900  0.384000  0.092000  1.0  -0.1488
  C  C426  1  0.798100  0.249100  0.176700  1.0  0.025
  C  C427  1  0.197000  0.294000  0.855300  1.0  0.0523
  C  C428  1  0.190000  0.430600  0.938000  1.0  0.7
  C  C429  1  0.149100  0.360000  0.893600  1.0  -0.0406
  C  C430  1  0.240900  0.319400  0.870900  1.0  -0.1264
  C  C431  1  0.150900  0.315000  0.866300  1.0  -0.1046
  C  C432  1  0.237500  0.363700  0.896100  1.0  -0.0371
  C  C433  1  0.241200  0.216400  0.830600  1.0  -0.1413
  C  C434  1  0.192100  0.384000  0.908000  1.0  -0.1493
  C  C435  1  0.201900  0.249100  0.823300  1.0  0.029
  C  C436  1  0.197000  0.706000  0.144700  1.0  0.0532
  C  C437  1  0.190000  0.569400  0.062000  1.0  0.6996
  C  C438  1  0.149100  0.640000  0.106400  1.0  -0.0407
  C  C439  1  0.240900  0.680600  0.129100  1.0  -0.1247
  C  C440  1  0.150900  0.685000  0.133700  1.0  -0.1066
  C  C441  1  0.237500  0.636300  0.103900  1.0  -0.0374
  C  C442  1  0.241200  0.783600  0.169400  1.0  -0.1385
  C  C443  1  0.192100  0.616000  0.092000  1.0  -0.1502
  C  C444  1  0.201900  0.750900  0.176700  1.0  0.0257
  C  C445  1  0.855300  0.803000  0.706000  1.0  0.0511
  C  C446  1  0.938000  0.810000  0.569400  1.0  0.6996
  C  C447  1  0.893600  0.850900  0.640000  1.0  -0.0441
  C  C448  1  0.870900  0.759100  0.680600  1.0  -0.1235
  C  C449  1  0.866300  0.849100  0.685000  1.0  -0.104
  C  C450  1  0.896100  0.762500  0.636300  1.0  -0.038
  C  C451  1  0.830600  0.758800  0.783600  1.0  -0.1406
  C  C452  1  0.908000  0.807900  0.616000  1.0  -0.149
  C  C453  1  0.823300  0.798100  0.750900  1.0  0.0306
  C  C454  1  0.144700  0.803000  0.294000  1.0  0.0511
  C  C455  1  0.062000  0.810000  0.430600  1.0  0.7007
  C  C456  1  0.106400  0.850900  0.360000  1.0  -0.0448
  C  C457  1  0.129100  0.759100  0.319400  1.0  -0.1247
  C  C458  1  0.133700  0.849100  0.315000  1.0  -0.1024
  C  C459  1  0.103900  0.762500  0.363700  1.0  -0.0366
  C  C460  1  0.169400  0.758800  0.216400  1.0  -0.1396
  C  C461  1  0.092000  0.807900  0.384000  1.0  -0.1497
  C  C462  1  0.176700  0.798100  0.249100  1.0  0.0292
  C  C463  1  0.855300  0.197000  0.294000  1.0  0.0513
  C  C464  1  0.938000  0.190000  0.430600  1.0  0.7002
  C  C465  1  0.893600  0.149100  0.360000  1.0  -0.0444
  C  C466  1  0.870900  0.240900  0.319400  1.0  -0.124
  C  C467  1  0.866300  0.150900  0.315000  1.0  -0.1019
  C  C468  1  0.896100  0.237500  0.363700  1.0  -0.0381
  C  C469  1  0.830600  0.241200  0.216400  1.0  -0.1403
  C  C470  1  0.908000  0.192100  0.384000  1.0  -0.1502
  C  C471  1  0.823300  0.201900  0.249100  1.0  0.0304
  C  C472  1  0.144700  0.197000  0.706000  1.0  0.051
  C  C473  1  0.062000  0.190000  0.569400  1.0  0.6997
  C  C474  1  0.106400  0.149100  0.640000  1.0  -0.0449
  C  C475  1  0.129100  0.240900  0.680600  1.0  -0.1248
  C  C476  1  0.133700  0.150900  0.685000  1.0  -0.0999
  C  C477  1  0.103900  0.237500  0.636300  1.0  -0.0374
  C  C478  1  0.169400  0.241200  0.783600  1.0  -0.1419
  C  C479  1  0.092000  0.192100  0.616000  1.0  -0.15
  C  C480  1  0.176700  0.201900  0.750900  1.0  0.0309
  C  C481  1  0.794000  0.644700  0.697000  1.0  0.0504
  C  C482  1  0.930600  0.562000  0.690000  1.0  0.6993
  C  C483  1  0.860000  0.606400  0.649100  1.0  -0.0434
  C  C484  1  0.819400  0.629100  0.740900  1.0  -0.129
  C  C485  1  0.815000  0.633700  0.650900  1.0  -0.1038
  C  C486  1  0.863700  0.603900  0.737500  1.0  -0.0401
  C  C487  1  0.716400  0.669400  0.741200  1.0  -0.1358
  C  C488  1  0.884000  0.592000  0.692100  1.0  -0.1516
  C  C489  1  0.749100  0.676700  0.701900  1.0  0.0285
  C  C490  1  0.206000  0.355300  0.697000  1.0  0.0516
  C  C491  1  0.069400  0.438000  0.690000  1.0  0.699
  C  C492  1  0.140000  0.393600  0.649100  1.0  -0.0435
  C  C493  1  0.180600  0.370900  0.740900  1.0  -0.1275
  C  C494  1  0.185000  0.366300  0.650900  1.0  -0.1053
  C  C495  1  0.136300  0.396100  0.737500  1.0  -0.0407
  C  C496  1  0.283600  0.330600  0.741200  1.0  -0.1365
  C  C497  1  0.116000  0.408000  0.692100  1.0  -0.1506
  C  C498  1  0.250900  0.323300  0.701900  1.0  0.0275
  C  C499  1  0.206000  0.644700  0.303000  1.0  0.0507
  C  C500  1  0.069400  0.562000  0.310000  1.0  0.6992
  C  C501  1  0.140000  0.606400  0.350900  1.0  -0.046
  C  C502  1  0.180600  0.629100  0.259100  1.0  -0.1277
  C  C503  1  0.185000  0.633700  0.349100  1.0  -0.1065
  C  C504  1  0.136300  0.603900  0.262500  1.0  -0.0415
  C  C505  1  0.283600  0.669400  0.258800  1.0  -0.1397
  C  C506  1  0.116000  0.592000  0.307900  1.0  -0.1516
  C  C507  1  0.250900  0.676700  0.298100  1.0  0.0283
  C  C508  1  0.794000  0.355300  0.303000  1.0  0.0522
  C  C509  1  0.930600  0.438000  0.310000  1.0  0.6995
  C  C510  1  0.860000  0.393600  0.350900  1.0  -0.0449
  C  C511  1  0.819400  0.370900  0.259100  1.0  -0.1281
  C  C512  1  0.815000  0.366300  0.349100  1.0  -0.1058
  C  C513  1  0.863700  0.396100  0.262500  1.0  -0.0423
  C  C514  1  0.716400  0.330600  0.258800  1.0  -0.1371
  C  C515  1  0.884000  0.408000  0.307900  1.0  -0.1515
  C  C516  1  0.749100  0.323300  0.298100  1.0  0.0257
  C  C517  1  0.697000  0.794000  0.644700  1.0  0.0506
  C  C518  1  0.690000  0.930600  0.562000  1.0  0.6996
  C  C519  1  0.649100  0.860000  0.606400  1.0  -0.0413
  C  C520  1  0.740900  0.819400  0.629100  1.0  -0.1244
  C  C521  1  0.650900  0.815000  0.633700  1.0  -0.1047
  C  C522  1  0.737500  0.863700  0.603900  1.0  -0.037
  C  C523  1  0.741200  0.716400  0.669400  1.0  -0.1391
  C  C524  1  0.692100  0.884000  0.592000  1.0  -0.1487
  C  C525  1  0.701900  0.749100  0.676700  1.0  0.0258
  C  C526  1  0.697000  0.206000  0.355300  1.0  0.0514
  C  C527  1  0.690000  0.069400  0.438000  1.0  0.6999
  C  C528  1  0.649100  0.140000  0.393600  1.0  -0.0399
  C  C529  1  0.740900  0.180600  0.370900  1.0  -0.1265
  C  C530  1  0.650900  0.185000  0.366300  1.0  -0.1066
  C  C531  1  0.737500  0.136300  0.396100  1.0  -0.0369
  C  C532  1  0.741200  0.283600  0.330600  1.0  -0.1406
  C  C533  1  0.692100  0.116000  0.408000  1.0  -0.15
  C  C534  1  0.701900  0.250900  0.323300  1.0  0.0276
  C  C535  1  0.303000  0.206000  0.644700  1.0  0.0519
  C  C536  1  0.310000  0.069400  0.562000  1.0  0.6995
  C  C537  1  0.350900  0.140000  0.606400  1.0  -0.0405
  C  C538  1  0.259100  0.180600  0.629100  1.0  -0.1256
  C  C539  1  0.349100  0.185000  0.633700  1.0  -0.1036
  C  C540  1  0.262500  0.136300  0.603900  1.0  -0.0369
  C  C541  1  0.258800  0.283600  0.669400  1.0  -0.14
  C  C542  1  0.307900  0.116000  0.592000  1.0  -0.1499
  C  C543  1  0.298100  0.250900  0.676700  1.0  0.0248
  C  C544  1  0.303000  0.794000  0.355300  1.0  0.053
  C  C545  1  0.310000  0.930600  0.438000  1.0  0.7
  C  C546  1  0.350900  0.860000  0.393600  1.0  -0.0406
  C  C547  1  0.259100  0.819400  0.370900  1.0  -0.1278
  C  C548  1  0.349100  0.815000  0.366300  1.0  -0.1034
  C  C549  1  0.262500  0.863700  0.396100  1.0  -0.0379
  C  C550  1  0.258800  0.716400  0.330600  1.0  -0.1423
  C  C551  1  0.307900  0.884000  0.408000  1.0  -0.1494
  C  C552  1  0.298100  0.749100  0.323300  1.0  0.0285
  C  C553  1  0.644700  0.697000  0.794000  1.0  0.0511
  C  C554  1  0.562000  0.690000  0.930600  1.0  0.7005
  C  C555  1  0.606400  0.649100  0.860000  1.0  -0.0449
  C  C556  1  0.629100  0.740900  0.819400  1.0  -0.1251
  C  C557  1  0.633700  0.650900  0.815000  1.0  -0.101
  C  C558  1  0.603900  0.737500  0.863700  1.0  -0.0375
  C  C559  1  0.669400  0.741200  0.716400  1.0  -0.1404
  C  C560  1  0.592000  0.692100  0.884000  1.0  -0.1494
  C  C561  1  0.676700  0.701900  0.749100  1.0  0.0301
  C  C562  1  0.355300  0.697000  0.206000  1.0  0.052
  C  C563  1  0.438000  0.690000  0.069400  1.0  0.6994
  C  C564  1  0.393600  0.649100  0.140000  1.0  -0.0441
  C  C565  1  0.370900  0.740900  0.180600  1.0  -0.1233
  C  C566  1  0.366300  0.650900  0.185000  1.0  -0.1021
  C  C567  1  0.396100  0.737500  0.136300  1.0  -0.0383
  C  C568  1  0.330600  0.741200  0.283600  1.0  -0.141
  C  C569  1  0.408000  0.692100  0.116000  1.0  -0.1493
  C  C570  1  0.323300  0.701900  0.250900  1.0  0.0318
  C  C571  1  0.644700  0.303000  0.206000  1.0  0.0507
  C  C572  1  0.562000  0.310000  0.069400  1.0  0.6999
  C  C573  1  0.606400  0.350900  0.140000  1.0  -0.045
  C  C574  1  0.629100  0.259100  0.180600  1.0  -0.1244
  C  C575  1  0.633700  0.349100  0.185000  1.0  -0.1013
  C  C576  1  0.603900  0.262500  0.136300  1.0  -0.0372
  C  C577  1  0.669400  0.258800  0.283600  1.0  -0.1412
  C  C578  1  0.592000  0.307900  0.116000  1.0  -0.1497
  C  C579  1  0.676700  0.298100  0.250900  1.0  0.0291
  C  C580  1  0.355300  0.303000  0.794000  1.0  0.0514
  C  C581  1  0.438000  0.310000  0.930600  1.0  0.7003
  C  C582  1  0.393600  0.350900  0.860000  1.0  -0.0441
  C  C583  1  0.370900  0.259100  0.819400  1.0  -0.1241
  C  C584  1  0.366300  0.349100  0.815000  1.0  -0.1037
  C  C585  1  0.396100  0.262500  0.863700  1.0  -0.037
  C  C586  1  0.330600  0.258800  0.716400  1.0  -0.1405
  C  C587  1  0.408000  0.307900  0.884000  1.0  -0.1503
  C  C588  1  0.323300  0.298100  0.749100  1.0  0.0298
  C  C589  1  0.206000  0.355300  0.303000  1.0  0.052
  C  C590  1  0.069400  0.438000  0.310000  1.0  0.6992
  C  C591  1  0.140000  0.393600  0.350900  1.0  -0.0462
  C  C592  1  0.180600  0.370900  0.259100  1.0  -0.1283
  C  C593  1  0.185000  0.366300  0.349100  1.0  -0.1051
  C  C594  1  0.136300  0.396100  0.262500  1.0  -0.0417
  C  C595  1  0.283600  0.330600  0.258800  1.0  -0.1384
  C  C596  1  0.116000  0.408000  0.307900  1.0  -0.1508
  C  C597  1  0.250900  0.323300  0.298100  1.0  0.026
  C  C598  1  0.794000  0.644700  0.303000  1.0  0.0508
  C  C599  1  0.930600  0.562000  0.310000  1.0  0.6993
  C  C600  1  0.860000  0.606400  0.350900  1.0  -0.0449
  C  C601  1  0.819400  0.629100  0.259100  1.0  -0.1282
  C  C602  1  0.815000  0.633700  0.349100  1.0  -0.1065
  C  C603  1  0.863700  0.603900  0.262500  1.0  -0.042
  C  C604  1  0.716400  0.669400  0.258800  1.0  -0.1382
  C  C605  1  0.884000  0.592000  0.307900  1.0  -0.1517
  C  C606  1  0.749100  0.676700  0.298100  1.0  0.0285
  C  C607  1  0.794000  0.355300  0.697000  1.0  0.0509
  C  C608  1  0.930600  0.438000  0.690000  1.0  0.6993
  C  C609  1  0.860000  0.393600  0.649100  1.0  -0.0435
  C  C610  1  0.819400  0.370900  0.740900  1.0  -0.1271
  C  C611  1  0.815000  0.366300  0.650900  1.0  -0.104
  C  C612  1  0.863700  0.396100  0.737500  1.0  -0.0406
  C  C613  1  0.716400  0.330600  0.741200  1.0  -0.1352
  C  C614  1  0.884000  0.408000  0.692100  1.0  -0.1511
  C  C615  1  0.749100  0.323300  0.701900  1.0  0.0283
  C  C616  1  0.206000  0.644700  0.697000  1.0  0.0506
  C  C617  1  0.069400  0.562000  0.690000  1.0  0.6992
  C  C618  1  0.140000  0.606400  0.649100  1.0  -0.0435
  C  C619  1  0.180600  0.629100  0.740900  1.0  -0.1285
  C  C620  1  0.185000  0.633700  0.650900  1.0  -0.1059
  C  C621  1  0.136300  0.603900  0.737500  1.0  -0.0398
  C  C622  1  0.283600  0.669400  0.741200  1.0  -0.1373
  C  C623  1  0.116000  0.592000  0.692100  1.0  -0.1516
  C  C624  1  0.250900  0.676700  0.701900  1.0  0.0284
  C  C625  1  0.303000  0.206000  0.355300  1.0  0.0526
  C  C626  1  0.310000  0.069400  0.438000  1.0  0.6999
  C  C627  1  0.350900  0.140000  0.393600  1.0  -0.0405
  C  C628  1  0.259100  0.180600  0.370900  1.0  -0.1283
  C  C629  1  0.349100  0.185000  0.366300  1.0  -0.1031
  C  C630  1  0.262500  0.136300  0.396100  1.0  -0.0373
  C  C631  1  0.258800  0.283600  0.330600  1.0  -0.1411
  C  C632  1  0.307900  0.116000  0.408000  1.0  -0.1495
  C  C633  1  0.298100  0.250900  0.323300  1.0  0.0266
  C  C634  1  0.303000  0.794000  0.644700  1.0  0.0501
  C  C635  1  0.310000  0.930600  0.562000  1.0  0.6995
  C  C636  1  0.350900  0.860000  0.606400  1.0  -0.0405
  C  C637  1  0.259100  0.819400  0.629100  1.0  -0.1252
  C  C638  1  0.349100  0.815000  0.633700  1.0  -0.1039
  C  C639  1  0.262500  0.863700  0.603900  1.0  -0.0367
  C  C640  1  0.258800  0.716400  0.669400  1.0  -0.1399
  C  C641  1  0.307900  0.884000  0.592000  1.0  -0.1488
  C  C642  1  0.298100  0.749100  0.676700  1.0  0.025
  C  C643  1  0.697000  0.794000  0.355300  1.0  0.0523
  C  C644  1  0.690000  0.930600  0.438000  1.0  0.7
  C  C645  1  0.649100  0.860000  0.393600  1.0  -0.0406
  C  C646  1  0.740900  0.819400  0.370900  1.0  -0.1264
  C  C647  1  0.650900  0.815000  0.366300  1.0  -0.1046
  C  C648  1  0.737500  0.863700  0.396100  1.0  -0.0371
  C  C649  1  0.741200  0.716400  0.330600  1.0  -0.1413
  C  C650  1  0.692100  0.884000  0.408000  1.0  -0.1493
  C  C651  1  0.701900  0.749100  0.323300  1.0  0.029
  C  C652  1  0.697000  0.206000  0.644700  1.0  0.0532
  C  C653  1  0.690000  0.069400  0.562000  1.0  0.6996
  C  C654  1  0.649100  0.140000  0.606400  1.0  -0.0407
  C  C655  1  0.740900  0.180600  0.629100  1.0  -0.1247
  C  C656  1  0.650900  0.185000  0.633700  1.0  -0.1066
  C  C657  1  0.737500  0.136300  0.603900  1.0  -0.0374
  C  C658  1  0.741200  0.283600  0.669400  1.0  -0.1385
  C  C659  1  0.692100  0.116000  0.592000  1.0  -0.1502
  C  C660  1  0.701900  0.250900  0.676700  1.0  0.0257
  C  C661  1  0.355300  0.303000  0.206000  1.0  0.0511
  C  C662  1  0.438000  0.310000  0.069400  1.0  0.6996
  C  C663  1  0.393600  0.350900  0.140000  1.0  -0.0441
  C  C664  1  0.370900  0.259100  0.180600  1.0  -0.1235
  C  C665  1  0.366300  0.349100  0.185000  1.0  -0.104
  C  C666  1  0.396100  0.262500  0.136300  1.0  -0.038
  C  C667  1  0.330600  0.258800  0.283600  1.0  -0.1406
  C  C668  1  0.408000  0.307900  0.116000  1.0  -0.149
  C  C669  1  0.323300  0.298100  0.250900  1.0  0.0306
  C  C670  1  0.644700  0.303000  0.794000  1.0  0.0511
  C  C671  1  0.562000  0.310000  0.930600  1.0  0.7007
  C  C672  1  0.606400  0.350900  0.860000  1.0  -0.0448
  C  C673  1  0.629100  0.259100  0.819400  1.0  -0.1247
  C  C674  1  0.633700  0.349100  0.815000  1.0  -0.1024
  C  C675  1  0.603900  0.262500  0.863700  1.0  -0.0366
  C  C676  1  0.669400  0.258800  0.716400  1.0  -0.1396
  C  C677  1  0.592000  0.307900  0.884000  1.0  -0.1497
  C  C678  1  0.676700  0.298100  0.749100  1.0  0.0292
  C  C679  1  0.355300  0.697000  0.794000  1.0  0.0513
  C  C680  1  0.438000  0.690000  0.930600  1.0  0.7002
  C  C681  1  0.393600  0.649100  0.860000  1.0  -0.0444
  C  C682  1  0.370900  0.740900  0.819400  1.0  -0.124
  C  C683  1  0.366300  0.650900  0.815000  1.0  -0.1019
  C  C684  1  0.396100  0.737500  0.863700  1.0  -0.0381
  C  C685  1  0.330600  0.741200  0.716400  1.0  -0.1403
  C  C686  1  0.408000  0.692100  0.884000  1.0  -0.1502
  C  C687  1  0.323300  0.701900  0.749100  1.0  0.0304
  C  C688  1  0.644700  0.697000  0.206000  1.0  0.051
  C  C689  1  0.562000  0.690000  0.069400  1.0  0.6997
  C  C690  1  0.606400  0.649100  0.140000  1.0  -0.0449
  C  C691  1  0.629100  0.740900  0.180600  1.0  -0.1248
  C  C692  1  0.633700  0.650900  0.185000  1.0  -0.0999
  C  C693  1  0.603900  0.737500  0.136300  1.0  -0.0374
  C  C694  1  0.669400  0.741200  0.283600  1.0  -0.1419
  C  C695  1  0.592000  0.692100  0.116000  1.0  -0.15
  C  C696  1  0.676700  0.701900  0.250900  1.0  0.0309
  O  O697  1  0.447460  0.050350  0.148800  1.0  -0.5753
  O  O698  1  0.448600  0.048800  0.231100  1.0  -0.5877
  O  O699  1  0.552540  0.949650  0.148800  1.0  -0.5753
  O  O700  1  0.551400  0.951200  0.231100  1.0  -0.5873
  O  O701  1  0.552540  0.050350  0.851200  1.0  -0.5747
  O  O702  1  0.551400  0.048800  0.768900  1.0  -0.5883
  O  O703  1  0.447460  0.949650  0.851200  1.0  -0.5744
  O  O704  1  0.448600  0.951200  0.768900  1.0  -0.5873
  O  O705  1  0.148800  0.447460  0.050350  1.0  -0.5755
  O  O706  1  0.231100  0.448600  0.048800  1.0  -0.5857
  O  O707  1  0.148800  0.552540  0.949650  1.0  -0.5756
  O  O708  1  0.231100  0.551400  0.951200  1.0  -0.5855
  O  O709  1  0.851200  0.552540  0.050350  1.0  -0.5758
  O  O710  1  0.768900  0.551400  0.048800  1.0  -0.5843
  O  O711  1  0.851200  0.447460  0.949650  1.0  -0.5767
  O  O712  1  0.768900  0.448600  0.951200  1.0  -0.5846
  O  O713  1  0.050350  0.148800  0.447460  1.0  -0.5784
  O  O714  1  0.048800  0.231100  0.448600  1.0  -0.585
  O  O715  1  0.949650  0.148800  0.552540  1.0  -0.5781
  O  O716  1  0.951200  0.231100  0.551400  1.0  -0.5856
  O  O717  1  0.050350  0.851200  0.552540  1.0  -0.5772
  O  O718  1  0.048800  0.768900  0.551400  1.0  -0.586
  O  O719  1  0.949650  0.851200  0.447460  1.0  -0.5781
  O  O720  1  0.951200  0.768900  0.448600  1.0  -0.5848
  O  O721  1  0.552540  0.949650  0.851200  1.0  -0.5747
  O  O722  1  0.551400  0.951200  0.768900  1.0  -0.5874
  O  O723  1  0.447460  0.050350  0.851200  1.0  -0.5744
  O  O724  1  0.448600  0.048800  0.768900  1.0  -0.5884
  O  O725  1  0.447460  0.949650  0.148800  1.0  -0.5752
  O  O726  1  0.448600  0.951200  0.231100  1.0  -0.587
  O  O727  1  0.552540  0.050350  0.148800  1.0  -0.5754
  O  O728  1  0.551400  0.048800  0.231100  1.0  -0.588
  O  O729  1  0.851200  0.552540  0.949650  1.0  -0.5764
  O  O730  1  0.768900  0.551400  0.951200  1.0  -0.5845
  O  O731  1  0.851200  0.447460  0.050350  1.0  -0.5761
  O  O732  1  0.768900  0.448600  0.048800  1.0  -0.5847
  O  O733  1  0.148800  0.447460  0.949650  1.0  -0.5755
  O  O734  1  0.231100  0.448600  0.951200  1.0  -0.5858
  O  O735  1  0.148800  0.552540  0.050350  1.0  -0.5754
  O  O736  1  0.231100  0.551400  0.048800  1.0  -0.5854
  O  O737  1  0.949650  0.851200  0.552540  1.0  -0.5784
  O  O738  1  0.951200  0.768900  0.551400  1.0  -0.5856
  O  O739  1  0.050350  0.851200  0.447460  1.0  -0.577
  O  O740  1  0.048800  0.768900  0.448600  1.0  -0.5852
  O  O741  1  0.949650  0.148800  0.447460  1.0  -0.5781
  O  O742  1  0.951200  0.231100  0.448600  1.0  -0.5852
  O  O743  1  0.050350  0.148800  0.552540  1.0  -0.5783
  O  O744  1  0.048800  0.231100  0.551400  1.0  -0.5855
  O  O745  1  0.947460  0.550350  0.648800  1.0  -0.5753
  O  O746  1  0.948600  0.548800  0.731100  1.0  -0.5877
  O  O747  1  0.052540  0.449650  0.648800  1.0  -0.5753
  O  O748  1  0.051400  0.451200  0.731100  1.0  -0.5873
  O  O749  1  0.052540  0.550350  0.351200  1.0  -0.5747
  O  O750  1  0.051400  0.548800  0.268900  1.0  -0.5883
  O  O751  1  0.947460  0.449650  0.351200  1.0  -0.5744
  O  O752  1  0.948600  0.451200  0.268900  1.0  -0.5873
  O  O753  1  0.648800  0.947460  0.550350  1.0  -0.5755
  O  O754  1  0.731100  0.948600  0.548800  1.0  -0.5857
  O  O755  1  0.648800  0.052540  0.449650  1.0  -0.5756
  O  O756  1  0.731100  0.051400  0.451200  1.0  -0.5855
  O  O757  1  0.351200  0.052540  0.550350  1.0  -0.5758
  O  O758  1  0.268900  0.051400  0.548800  1.0  -0.5843
  O  O759  1  0.351200  0.947460  0.449650  1.0  -0.5767
  O  O760  1  0.268900  0.948600  0.451200  1.0  -0.5846
  O  O761  1  0.550350  0.648800  0.947460  1.0  -0.5784
  O  O762  1  0.548800  0.731100  0.948600  1.0  -0.585
  O  O763  1  0.449650  0.648800  0.052540  1.0  -0.5781
  O  O764  1  0.451200  0.731100  0.051400  1.0  -0.5857
  O  O765  1  0.550350  0.351200  0.052540  1.0  -0.5772
  O  O766  1  0.548800  0.268900  0.051400  1.0  -0.586
  O  O767  1  0.449650  0.351200  0.947460  1.0  -0.5781
  O  O768  1  0.451200  0.268900  0.948600  1.0  -0.5848
  O  O769  1  0.052540  0.449650  0.351200  1.0  -0.5747
  O  O770  1  0.051400  0.451200  0.268900  1.0  -0.5874
  O  O771  1  0.947460  0.550350  0.351200  1.0  -0.5744
  O  O772  1  0.948600  0.548800  0.268900  1.0  -0.5884
  O  O773  1  0.947460  0.449650  0.648800  1.0  -0.5752
  O  O774  1  0.948600  0.451200  0.731100  1.0  -0.587
  O  O775  1  0.052540  0.550350  0.648800  1.0  -0.5754
  O  O776  1  0.051400  0.548800  0.731100  1.0  -0.588
  O  O777  1  0.351200  0.052540  0.449650  1.0  -0.5764
  O  O778  1  0.268900  0.051400  0.451200  1.0  -0.5845
  O  O779  1  0.351200  0.947460  0.550350  1.0  -0.5761
  O  O780  1  0.268900  0.948600  0.548800  1.0  -0.5846
  O  O781  1  0.648800  0.947460  0.449650  1.0  -0.5755
  O  O782  1  0.731100  0.948600  0.451200  1.0  -0.5858
  O  O783  1  0.648800  0.052540  0.550350  1.0  -0.5754
  O  O784  1  0.731100  0.051400  0.548800  1.0  -0.5854
  O  O785  1  0.449650  0.351200  0.052540  1.0  -0.5785
  O  O786  1  0.451200  0.268900  0.051400  1.0  -0.5856
  O  O787  1  0.550350  0.351200  0.947460  1.0  -0.577
  O  O788  1  0.548800  0.268900  0.948600  1.0  -0.5852
  O  O789  1  0.449650  0.648800  0.947460  1.0  -0.5781
  O  O790  1  0.451200  0.731100  0.948600  1.0  -0.5852
  O  O791  1  0.550350  0.648800  0.052540  1.0  -0.5783
  O  O792  1  0.548800  0.731100  0.051400  1.0  -0.5855
