# generated using pymatgen
data_CuH10(C9O2)2
_symmetry_space_group_name_H-M   'P 1'
_cell_length_a   26.98500000
_cell_length_b   26.98500000
_cell_length_c   26.98500000
_cell_angle_alpha   90.00000000
_cell_angle_beta   90.00000000
_cell_angle_gamma   90.00000000
_symmetry_Int_Tables_number   1
_chemical_formula_structural   CuH10(C9O2)2
_chemical_formula_sum   'Cu24 H240 C432 O96'
_cell_volume   19650.21322162
_cell_formula_units_Z   24
loop_
 _symmetry_equiv_pos_site_id
 _symmetry_equiv_pos_as_xyz
  1  'x, y, z'
loop_
 _atom_site_type_symbol
 _atom_site_label
 _atom_site_symmetry_multiplicity
 _atom_site_fract_x
 _atom_site_fract_y
 _atom_site_fract_z
 _atom_site_occupancy
 _atom_site_charge
  Cu  Cu1  1  0.500000  0.000000  0.144400  1.0  0.8829
  Cu  Cu2  1  0.500000  0.000000  0.240260  1.0  0.9072
  Cu  Cu3  1  0.500000  0.000000  0.855600  1.0  0.8834
  Cu  Cu4  1  0.500000  0.000000  0.759740  1.0  0.9085
  Cu  Cu5  1  0.144400  0.500000  0.000000  1.0  0.883
  Cu  Cu6  1  0.240260  0.500000  0.000000  1.0  0.9098
  Cu  Cu7  1  0.855600  0.500000  0.000000  1.0  0.8838
  Cu  Cu8  1  0.759740  0.500000  0.000000  1.0  0.9093
  Cu  Cu9  1  0.000000  0.144400  0.500000  1.0  0.8845
  Cu  Cu10  1  0.000000  0.240260  0.500000  1.0  0.9102
  Cu  Cu11  1  0.000000  0.855600  0.500000  1.0  0.8834
  Cu  Cu12  1  0.000000  0.759740  0.500000  1.0  0.911
  Cu  Cu13  1  0.000000  0.500000  0.644400  1.0  0.8829
  Cu  Cu14  1  0.000000  0.500000  0.740260  1.0  0.9072
  Cu  Cu15  1  0.000000  0.500000  0.355600  1.0  0.8834
  Cu  Cu16  1  0.000000  0.500000  0.259740  1.0  0.9085
  Cu  Cu17  1  0.644400  0.000000  0.500000  1.0  0.883
  Cu  Cu18  1  0.740260  0.000000  0.500000  1.0  0.9098
  Cu  Cu19  1  0.355600  0.000000  0.500000  1.0  0.8838
  Cu  Cu20  1  0.259740  0.000000  0.500000  1.0  0.9093
  Cu  Cu21  1  0.500000  0.644400  0.000000  1.0  0.8845
  Cu  Cu22  1  0.500000  0.740260  0.000000  1.0  0.9102
  Cu  Cu23  1  0.500000  0.355600  0.000000  1.0  0.8834
  Cu  Cu24  1  0.500000  0.259740  0.000000  1.0  0.911
  H  H25  1  0.373900  0.098700  0.118100  1.0  0.1028
  H  H26  1  0.305700  0.137300  0.272900  1.0  0.0975
  H  H27  1  0.299700  0.144800  0.122400  1.0  0.1148
  H  H28  1  0.380600  0.094400  0.267700  1.0  0.1094
  H  H29  1  0.221400  0.143000  0.263900  1.0  0.1079
  H  H30  1  0.626100  0.901300  0.118100  1.0  0.1033
  H  H31  1  0.694300  0.862700  0.272900  1.0  0.0982
  H  H32  1  0.700300  0.855200  0.122400  1.0  0.115
  H  H33  1  0.619400  0.905600  0.267700  1.0  0.1099
  H  H34  1  0.778600  0.857000  0.263900  1.0  0.1068
  H  H35  1  0.626100  0.098700  0.881900  1.0  0.1027
  H  H36  1  0.694300  0.137300  0.727100  1.0  0.0982
  H  H37  1  0.700300  0.144800  0.877600  1.0  0.115
  H  H38  1  0.619400  0.094400  0.732300  1.0  0.1101
  H  H39  1  0.778600  0.143000  0.736100  1.0  0.1081
  H  H40  1  0.373900  0.901300  0.881900  1.0  0.1024
  H  H41  1  0.305700  0.862700  0.727100  1.0  0.0987
  H  H42  1  0.299700  0.855200  0.877600  1.0  0.1147
  H  H43  1  0.380600  0.905600  0.732300  1.0  0.11
  H  H44  1  0.221400  0.857000  0.736100  1.0  0.1072
  H  H45  1  0.118100  0.373900  0.098700  1.0  0.1035
  H  H46  1  0.272900  0.305700  0.137300  1.0  0.1007
  H  H47  1  0.122400  0.299700  0.144800  1.0  0.1147
  H  H48  1  0.267700  0.380600  0.094400  1.0  0.1093
  H  H49  1  0.263900  0.221400  0.143000  1.0  0.1101
  H  H50  1  0.118100  0.626100  0.901300  1.0  0.1036
  H  H51  1  0.272900  0.694300  0.862700  1.0  0.1005
  H  H52  1  0.122400  0.700300  0.855200  1.0  0.1152
  H  H53  1  0.267700  0.619400  0.905600  1.0  0.1091
  H  H54  1  0.263900  0.778600  0.857000  1.0  0.1099
  H  H55  1  0.881900  0.626100  0.098700  1.0  0.1041
  H  H56  1  0.727100  0.694300  0.137300  1.0  0.1011
  H  H57  1  0.877600  0.700300  0.144800  1.0  0.1148
  H  H58  1  0.732300  0.619400  0.094400  1.0  0.1091
  H  H59  1  0.736100  0.778600  0.143000  1.0  0.111
  H  H60  1  0.881900  0.373900  0.901300  1.0  0.1042
  H  H61  1  0.727100  0.305700  0.862700  1.0  0.1004
  H  H62  1  0.877600  0.299700  0.855200  1.0  0.1145
  H  H63  1  0.732300  0.380600  0.905600  1.0  0.1092
  H  H64  1  0.736100  0.221400  0.857000  1.0  0.11
  H  H65  1  0.098700  0.118100  0.373900  1.0  0.1033
  H  H66  1  0.137300  0.272900  0.305700  1.0  0.0985
  H  H67  1  0.144800  0.122400  0.299700  1.0  0.1131
  H  H68  1  0.094400  0.267700  0.380600  1.0  0.1098
  H  H69  1  0.143000  0.263900  0.221400  1.0  0.1093
  H  H70  1  0.901300  0.118100  0.626100  1.0  0.1037
  H  H71  1  0.862700  0.272900  0.694300  1.0  0.0982
  H  H72  1  0.855200  0.122400  0.700300  1.0  0.1141
  H  H73  1  0.905600  0.267700  0.619400  1.0  0.1097
  H  H74  1  0.857000  0.263900  0.778600  1.0  0.1083
  H  H75  1  0.098700  0.881900  0.626100  1.0  0.1039
  H  H76  1  0.137300  0.727100  0.694300  1.0  0.0982
  H  H77  1  0.144800  0.877600  0.700300  1.0  0.1131
  H  H78  1  0.094400  0.732300  0.619400  1.0  0.1092
  H  H79  1  0.143000  0.736100  0.778600  1.0  0.1095
  H  H80  1  0.901300  0.881900  0.373900  1.0  0.1035
  H  H81  1  0.862700  0.727100  0.305700  1.0  0.0983
  H  H82  1  0.855200  0.877600  0.299700  1.0  0.1138
  H  H83  1  0.905600  0.732300  0.380600  1.0  0.1094
  H  H84  1  0.857000  0.736100  0.221400  1.0  0.1093
  H  H85  1  0.626100  0.901300  0.881900  1.0  0.1024
  H  H86  1  0.694300  0.862700  0.727100  1.0  0.0988
  H  H87  1  0.700300  0.855200  0.877600  1.0  0.1149
  H  H88  1  0.619400  0.905600  0.732300  1.0  0.1102
  H  H89  1  0.778600  0.857000  0.736100  1.0  0.107
  H  H90  1  0.373900  0.098700  0.881900  1.0  0.1026
  H  H91  1  0.305700  0.137300  0.727100  1.0  0.098
  H  H92  1  0.299700  0.144800  0.877600  1.0  0.1148
  H  H93  1  0.380600  0.094400  0.732300  1.0  0.11
  H  H94  1  0.221400  0.143000  0.736100  1.0  0.1078
  H  H95  1  0.373900  0.901300  0.118100  1.0  0.1031
  H  H96  1  0.305700  0.862700  0.272900  1.0  0.0981
  H  H97  1  0.299700  0.855200  0.122400  1.0  0.1149
  H  H98  1  0.380600  0.905600  0.267700  1.0  0.1096
  H  H99  1  0.221400  0.857000  0.263900  1.0  0.107
  H  H100  1  0.626100  0.098700  0.118100  1.0  0.1028
  H  H101  1  0.694300  0.137300  0.272900  1.0  0.0978
  H  H102  1  0.700300  0.144800  0.122400  1.0  0.115
  H  H103  1  0.619400  0.094400  0.267700  1.0  0.1098
  H  H104  1  0.778600  0.143000  0.263900  1.0  0.108
  H  H105  1  0.881900  0.626100  0.901300  1.0  0.1041
  H  H106  1  0.727100  0.694300  0.862700  1.0  0.1013
  H  H107  1  0.877600  0.700300  0.855200  1.0  0.1147
  H  H108  1  0.732300  0.619400  0.905600  1.0  0.1092
  H  H109  1  0.736100  0.778600  0.857000  1.0  0.1104
  H  H110  1  0.881900  0.373900  0.098700  1.0  0.1044
  H  H111  1  0.727100  0.305700  0.137300  1.0  0.1001
  H  H112  1  0.877600  0.299700  0.144800  1.0  0.1147
  H  H113  1  0.732300  0.380600  0.094400  1.0  0.1094
  H  H114  1  0.736100  0.221400  0.143000  1.0  0.1104
  H  H115  1  0.118100  0.373900  0.901300  1.0  0.1038
  H  H116  1  0.272900  0.305700  0.862700  1.0  0.1011
  H  H117  1  0.122400  0.299700  0.855200  1.0  0.1151
  H  H118  1  0.267700  0.380600  0.905600  1.0  0.1091
  H  H119  1  0.263900  0.221400  0.857000  1.0  0.1099
  H  H120  1  0.118100  0.626100  0.098700  1.0  0.1032
  H  H121  1  0.272900  0.694300  0.137300  1.0  0.1002
  H  H122  1  0.122400  0.700300  0.144800  1.0  0.1147
  H  H123  1  0.267700  0.619400  0.094400  1.0  0.109
  H  H124  1  0.263900  0.778600  0.143000  1.0  0.1102
  H  H125  1  0.901300  0.881900  0.626100  1.0  0.1037
  H  H126  1  0.862700  0.727100  0.694300  1.0  0.0981
  H  H127  1  0.855200  0.877600  0.700300  1.0  0.1131
  H  H128  1  0.905600  0.732300  0.619400  1.0  0.1094
  H  H129  1  0.857000  0.736100  0.778600  1.0  0.1087
  H  H130  1  0.098700  0.881900  0.373900  1.0  0.1036
  H  H131  1  0.137300  0.727100  0.305700  1.0  0.0981
  H  H132  1  0.144800  0.877600  0.299700  1.0  0.1134
  H  H133  1  0.094400  0.732300  0.380600  1.0  0.1095
  H  H134  1  0.143000  0.736100  0.221400  1.0  0.1096
  H  H135  1  0.901300  0.118100  0.373900  1.0  0.1035
  H  H136  1  0.862700  0.272900  0.305700  1.0  0.0986
  H  H137  1  0.855200  0.122400  0.299700  1.0  0.1133
  H  H138  1  0.905600  0.267700  0.380600  1.0  0.1096
  H  H139  1  0.857000  0.263900  0.221400  1.0  0.1089
  H  H140  1  0.098700  0.118100  0.626100  1.0  0.1033
  H  H141  1  0.137300  0.272900  0.694300  1.0  0.0984
  H  H142  1  0.144800  0.122400  0.700300  1.0  0.1139
  H  H143  1  0.094400  0.267700  0.619400  1.0  0.1097
  H  H144  1  0.143000  0.263900  0.778600  1.0  0.1089
  H  H145  1  0.873900  0.598700  0.618100  1.0  0.1028
  H  H146  1  0.805700  0.637300  0.772900  1.0  0.0975
  H  H147  1  0.799700  0.644800  0.622400  1.0  0.1148
  H  H148  1  0.880600  0.594400  0.767700  1.0  0.1094
  H  H149  1  0.721400  0.643000  0.763900  1.0  0.1079
  H  H150  1  0.126100  0.401300  0.618100  1.0  0.1033
  H  H151  1  0.194300  0.362700  0.772900  1.0  0.0982
  H  H152  1  0.200300  0.355200  0.622400  1.0  0.115
  H  H153  1  0.119400  0.405600  0.767700  1.0  0.1099
  H  H154  1  0.278600  0.357000  0.763900  1.0  0.1068
  H  H155  1  0.126100  0.598700  0.381900  1.0  0.1027
  H  H156  1  0.194300  0.637300  0.227100  1.0  0.0982
  H  H157  1  0.200300  0.644800  0.377600  1.0  0.115
  H  H158  1  0.119400  0.594400  0.232300  1.0  0.1101
  H  H159  1  0.278600  0.643000  0.236100  1.0  0.1081
  H  H160  1  0.873900  0.401300  0.381900  1.0  0.1024
  H  H161  1  0.805700  0.362700  0.227100  1.0  0.0987
  H  H162  1  0.799700  0.355200  0.377600  1.0  0.1147
  H  H163  1  0.880600  0.405600  0.232300  1.0  0.11
  H  H164  1  0.721400  0.357000  0.236100  1.0  0.1072
  H  H165  1  0.618100  0.873900  0.598700  1.0  0.1035
  H  H166  1  0.772900  0.805700  0.637300  1.0  0.1007
  H  H167  1  0.622400  0.799700  0.644800  1.0  0.1147
  H  H168  1  0.767700  0.880600  0.594400  1.0  0.1093
  H  H169  1  0.763900  0.721400  0.643000  1.0  0.1101
  H  H170  1  0.618100  0.126100  0.401300  1.0  0.1036
  H  H171  1  0.772900  0.194300  0.362700  1.0  0.1005
  H  H172  1  0.622400  0.200300  0.355200  1.0  0.1152
  H  H173  1  0.767700  0.119400  0.405600  1.0  0.1091
  H  H174  1  0.763900  0.278600  0.357000  1.0  0.1099
  H  H175  1  0.381900  0.126100  0.598700  1.0  0.1041
  H  H176  1  0.227100  0.194300  0.637300  1.0  0.1011
  H  H177  1  0.377600  0.200300  0.644800  1.0  0.1148
  H  H178  1  0.232300  0.119400  0.594400  1.0  0.1091
  H  H179  1  0.236100  0.278600  0.643000  1.0  0.111
  H  H180  1  0.381900  0.873900  0.401300  1.0  0.1042
  H  H181  1  0.227100  0.805700  0.362700  1.0  0.1004
  H  H182  1  0.377600  0.799700  0.355200  1.0  0.1145
  H  H183  1  0.232300  0.880600  0.405600  1.0  0.1092
  H  H184  1  0.236100  0.721400  0.357000  1.0  0.11
  H  H185  1  0.598700  0.618100  0.873900  1.0  0.1033
  H  H186  1  0.637300  0.772900  0.805700  1.0  0.0985
  H  H187  1  0.644800  0.622400  0.799700  1.0  0.1131
  H  H188  1  0.594400  0.767700  0.880600  1.0  0.1098
  H  H189  1  0.643000  0.763900  0.721400  1.0  0.1093
  H  H190  1  0.401300  0.618100  0.126100  1.0  0.1037
  H  H191  1  0.362700  0.772900  0.194300  1.0  0.0982
  H  H192  1  0.355200  0.622400  0.200300  1.0  0.1141
  H  H193  1  0.405600  0.767700  0.119400  1.0  0.1097
  H  H194  1  0.357000  0.763900  0.278600  1.0  0.1083
  H  H195  1  0.598700  0.381900  0.126100  1.0  0.1039
  H  H196  1  0.637300  0.227100  0.194300  1.0  0.0982
  H  H197  1  0.644800  0.377600  0.200300  1.0  0.1131
  H  H198  1  0.594400  0.232300  0.119400  1.0  0.1092
  H  H199  1  0.643000  0.236100  0.278600  1.0  0.1095
  H  H200  1  0.401300  0.381900  0.873900  1.0  0.1035
  H  H201  1  0.362700  0.227100  0.805700  1.0  0.0983
  H  H202  1  0.355200  0.377600  0.799700  1.0  0.1138
  H  H203  1  0.405600  0.232300  0.880600  1.0  0.1094
  H  H204  1  0.357000  0.236100  0.721400  1.0  0.1093
  H  H205  1  0.126100  0.401300  0.381900  1.0  0.1024
  H  H206  1  0.194300  0.362700  0.227100  1.0  0.0988
  H  H207  1  0.200300  0.355200  0.377600  1.0  0.1149
  H  H208  1  0.119400  0.405600  0.232300  1.0  0.1102
  H  H209  1  0.278600  0.357000  0.236100  1.0  0.107
  H  H210  1  0.873900  0.598700  0.381900  1.0  0.1026
  H  H211  1  0.805700  0.637300  0.227100  1.0  0.098
  H  H212  1  0.799700  0.644800  0.377600  1.0  0.1148
  H  H213  1  0.880600  0.594400  0.232300  1.0  0.11
  H  H214  1  0.721400  0.643000  0.236100  1.0  0.1078
  H  H215  1  0.873900  0.401300  0.618100  1.0  0.1031
  H  H216  1  0.805700  0.362700  0.772900  1.0  0.0981
  H  H217  1  0.799700  0.355200  0.622400  1.0  0.1149
  H  H218  1  0.880600  0.405600  0.767700  1.0  0.1096
  H  H219  1  0.721400  0.357000  0.763900  1.0  0.107
  H  H220  1  0.126100  0.598700  0.618100  1.0  0.1028
  H  H221  1  0.194300  0.637300  0.772900  1.0  0.0978
  H  H222  1  0.200300  0.644800  0.622400  1.0  0.115
  H  H223  1  0.119400  0.594400  0.767700  1.0  0.1098
  H  H224  1  0.278600  0.643000  0.763900  1.0  0.108
  H  H225  1  0.381900  0.126100  0.401300  1.0  0.1041
  H  H226  1  0.227100  0.194300  0.362700  1.0  0.1013
  H  H227  1  0.377600  0.200300  0.355200  1.0  0.1147
  H  H228  1  0.232300  0.119400  0.405600  1.0  0.1092
  H  H229  1  0.236100  0.278600  0.357000  1.0  0.1104
  H  H230  1  0.381900  0.873900  0.598700  1.0  0.1044
  H  H231  1  0.227100  0.805700  0.637300  1.0  0.1001
  H  H232  1  0.377600  0.799700  0.644800  1.0  0.1147
  H  H233  1  0.232300  0.880600  0.594400  1.0  0.1094
  H  H234  1  0.236100  0.721400  0.643000  1.0  0.1104
  H  H235  1  0.618100  0.873900  0.401300  1.0  0.1038
  H  H236  1  0.772900  0.805700  0.362700  1.0  0.1011
  H  H237  1  0.622400  0.799700  0.355200  1.0  0.1151
  H  H238  1  0.767700  0.880600  0.405600  1.0  0.1091
  H  H239  1  0.763900  0.721400  0.357000  1.0  0.1099
  H  H240  1  0.618100  0.126100  0.598700  1.0  0.1032
  H  H241  1  0.772900  0.194300  0.637300  1.0  0.1002
  H  H242  1  0.622400  0.200300  0.644800  1.0  0.1147
  H  H243  1  0.767700  0.119400  0.594400  1.0  0.109
  H  H244  1  0.763900  0.278600  0.643000  1.0  0.1102
  H  H245  1  0.401300  0.381900  0.126100  1.0  0.1037
  H  H246  1  0.362700  0.227100  0.194300  1.0  0.0981
  H  H247  1  0.355200  0.377600  0.200300  1.0  0.1131
  H  H248  1  0.405600  0.232300  0.119400  1.0  0.1094
  H  H249  1  0.357000  0.236100  0.278600  1.0  0.1087
  H  H250  1  0.598700  0.381900  0.873900  1.0  0.1036
  H  H251  1  0.637300  0.227100  0.805700  1.0  0.0981
  H  H252  1  0.644800  0.377600  0.799700  1.0  0.1134
  H  H253  1  0.594400  0.232300  0.880600  1.0  0.1095
  H  H254  1  0.643000  0.236100  0.721400  1.0  0.1096
  H  H255  1  0.401300  0.618100  0.873900  1.0  0.1035
  H  H256  1  0.362700  0.772900  0.805700  1.0  0.0986
  H  H257  1  0.355200  0.622400  0.799700  1.0  0.1133
  H  H258  1  0.405600  0.767700  0.880600  1.0  0.1096
  H  H259  1  0.357000  0.763900  0.721400  1.0  0.1089
  H  H260  1  0.598700  0.618100  0.126100  1.0  0.1033
  H  H261  1  0.637300  0.772900  0.194300  1.0  0.0984
  H  H262  1  0.644800  0.622400  0.200300  1.0  0.1139
  H  H263  1  0.594400  0.767700  0.119400  1.0  0.1097
  H  H264  1  0.643000  0.763900  0.278600  1.0  0.1089
  C  C265  1  0.294700  0.145780  0.197930  1.0  0.0521
  C  C266  1  0.430650  0.062210  0.190810  1.0  0.7068
  C  C267  1  0.360240  0.107070  0.149470  1.0  -0.0477
  C  C268  1  0.319550  0.130060  0.241310  1.0  -0.1225
  C  C269  1  0.315580  0.134310  0.151980  1.0  -0.1156
  C  C270  1  0.363980  0.104180  0.238280  1.0  -0.0813
  C  C271  1  0.216690  0.170210  0.242020  1.0  -0.1372
  C  C272  1  0.384150  0.092590  0.192550  1.0  -0.1245
  C  C273  1  0.249630  0.177320  0.202450  1.0  0.0396
  C  C274  1  0.705300  0.854220  0.197930  1.0  0.0526
  C  C275  1  0.569350  0.937790  0.190810  1.0  0.7068
  C  C276  1  0.639760  0.892930  0.149470  1.0  -0.0473
  C  C277  1  0.680450  0.869940  0.241310  1.0  -0.1217
  C  C278  1  0.684420  0.865690  0.151980  1.0  -0.1168
  C  C279  1  0.636020  0.895820  0.238280  1.0  -0.0796
  C  C280  1  0.783310  0.829790  0.242020  1.0  -0.1363
  C  C281  1  0.615850  0.907410  0.192550  1.0  -0.1233
  C  C282  1  0.750370  0.822680  0.202450  1.0  0.042
  C  C283  1  0.705300  0.145780  0.802070  1.0  0.0521
  C  C284  1  0.569350  0.062210  0.809190  1.0  0.7067
  C  C285  1  0.639760  0.107070  0.850530  1.0  -0.0506
  C  C286  1  0.680450  0.130060  0.758690  1.0  -0.1203
  C  C287  1  0.684420  0.134310  0.848020  1.0  -0.1165
  C  C288  1  0.636020  0.104180  0.761720  1.0  -0.0811
  C  C289  1  0.783310  0.170210  0.757980  1.0  -0.1371
  C  C290  1  0.615850  0.092590  0.807450  1.0  -0.1238
  C  C291  1  0.750370  0.177320  0.797550  1.0  0.0409
  C  C292  1  0.294700  0.854220  0.802070  1.0  0.0533
  C  C293  1  0.430650  0.937790  0.809190  1.0  0.7071
  C  C294  1  0.360240  0.892930  0.850530  1.0  -0.0501
  C  C295  1  0.319550  0.869940  0.758690  1.0  -0.1217
  C  C296  1  0.315580  0.865690  0.848020  1.0  -0.1149
  C  C297  1  0.363980  0.895820  0.761720  1.0  -0.0815
  C  C298  1  0.216690  0.829790  0.757980  1.0  -0.136
  C  C299  1  0.384150  0.907410  0.807450  1.0  -0.1238
  C  C300  1  0.249630  0.822680  0.797550  1.0  0.0399
  C  C301  1  0.197930  0.294700  0.145780  1.0  0.0522
  C  C302  1  0.190810  0.430650  0.062210  1.0  0.7078
  C  C303  1  0.149470  0.360240  0.107070  1.0  -0.043
  C  C304  1  0.241310  0.319550  0.130060  1.0  -0.1183
  C  C305  1  0.151980  0.315580  0.134310  1.0  -0.112
  C  C306  1  0.238280  0.363980  0.104180  1.0  -0.0798
  C  C307  1  0.242020  0.216690  0.170210  1.0  -0.1424
  C  C308  1  0.192550  0.384150  0.092590  1.0  -0.1215
  C  C309  1  0.202450  0.249630  0.177320  1.0  0.0377
  C  C310  1  0.197930  0.705300  0.854220  1.0  0.0528
  C  C311  1  0.190810  0.569350  0.937790  1.0  0.7078
  C  C312  1  0.149470  0.639760  0.892930  1.0  -0.0422
  C  C313  1  0.241310  0.680450  0.869940  1.0  -0.1188
  C  C314  1  0.151980  0.684420  0.865690  1.0  -0.1143
  C  C315  1  0.238280  0.636020  0.895820  1.0  -0.0787
  C  C316  1  0.242020  0.783310  0.829790  1.0  -0.1398
  C  C317  1  0.192550  0.615850  0.907410  1.0  -0.1214
  C  C318  1  0.202450  0.750370  0.822680  1.0  0.0398
  C  C319  1  0.802070  0.705300  0.145780  1.0  0.0529
  C  C320  1  0.809190  0.569350  0.062210  1.0  0.7075
  C  C321  1  0.850530  0.639760  0.107070  1.0  -0.0416
  C  C322  1  0.758690  0.680450  0.130060  1.0  -0.1183
  C  C323  1  0.848020  0.684420  0.134310  1.0  -0.1126
  C  C324  1  0.761720  0.636020  0.104180  1.0  -0.0782
  C  C325  1  0.757980  0.783310  0.170210  1.0  -0.1412
  C  C326  1  0.807450  0.615850  0.092590  1.0  -0.1228
  C  C327  1  0.797550  0.750370  0.177320  1.0  0.0379
  C  C328  1  0.802070  0.294700  0.854220  1.0  0.0535
  C  C329  1  0.809190  0.430650  0.937790  1.0  0.7078
  C  C330  1  0.850530  0.360240  0.892930  1.0  -0.041
  C  C331  1  0.758690  0.319550  0.869940  1.0  -0.12
  C  C332  1  0.848020  0.315580  0.865690  1.0  -0.1142
  C  C333  1  0.761720  0.363980  0.895820  1.0  -0.0792
  C  C334  1  0.757980  0.216690  0.829790  1.0  -0.1386
  C  C335  1  0.807450  0.384150  0.907410  1.0  -0.1213
  C  C336  1  0.797550  0.249630  0.822680  1.0  0.0417
  C  C337  1  0.145780  0.197930  0.294700  1.0  0.0537
  C  C338  1  0.062210  0.190810  0.430650  1.0  0.708
  C  C339  1  0.107070  0.149470  0.360240  1.0  -0.0453
  C  C340  1  0.130060  0.241310  0.319550  1.0  -0.1198
  C  C341  1  0.134310  0.151980  0.315580  1.0  -0.1106
  C  C342  1  0.104180  0.238280  0.363980  1.0  -0.0766
  C  C343  1  0.170210  0.242020  0.216690  1.0  -0.1445
  C  C344  1  0.092590  0.192550  0.384150  1.0  -0.124
  C  C345  1  0.177320  0.202450  0.249630  1.0  0.0406
  C  C346  1  0.854220  0.197930  0.705300  1.0  0.0529
  C  C347  1  0.937790  0.190810  0.569350  1.0  0.7076
  C  C348  1  0.892930  0.149470  0.639760  1.0  -0.0452
  C  C349  1  0.869940  0.241310  0.680450  1.0  -0.1185
  C  C350  1  0.865690  0.151980  0.684420  1.0  -0.1115
  C  C351  1  0.895820  0.238280  0.636020  1.0  -0.0774
  C  C352  1  0.829790  0.242020  0.783310  1.0  -0.1425
  C  C353  1  0.907410  0.192550  0.615850  1.0  -0.1243
  C  C354  1  0.822680  0.202450  0.750370  1.0  0.0441
  C  C355  1  0.145780  0.802070  0.705300  1.0  0.0535
  C  C356  1  0.062210  0.809190  0.569350  1.0  0.7081
  C  C357  1  0.107070  0.850530  0.639760  1.0  -0.0437
  C  C358  1  0.130060  0.758690  0.680450  1.0  -0.1195
  C  C359  1  0.134310  0.848020  0.684420  1.0  -0.1101
  C  C360  1  0.104180  0.761720  0.636020  1.0  -0.077
  C  C361  1  0.170210  0.757980  0.783310  1.0  -0.1442
  C  C362  1  0.092590  0.807450  0.615850  1.0  -0.1238
  C  C363  1  0.177320  0.797550  0.750370  1.0  0.0411
  C  C364  1  0.854220  0.802070  0.294700  1.0  0.0527
  C  C365  1  0.937790  0.809190  0.430650  1.0  0.7079
  C  C366  1  0.892930  0.850530  0.360240  1.0  -0.0433
  C  C367  1  0.869940  0.758690  0.319550  1.0  -0.1188
  C  C368  1  0.865690  0.848020  0.315580  1.0  -0.1119
  C  C369  1  0.895820  0.761720  0.363980  1.0  -0.0785
  C  C370  1  0.829790  0.757980  0.216690  1.0  -0.1421
  C  C371  1  0.907410  0.807450  0.384150  1.0  -0.1251
  C  C372  1  0.822680  0.797550  0.249630  1.0  0.0431
  C  C373  1  0.705300  0.854220  0.802070  1.0  0.0524
  C  C374  1  0.569350  0.937790  0.809190  1.0  0.707
  C  C375  1  0.639760  0.892930  0.850530  1.0  -0.0511
  C  C376  1  0.680450  0.869940  0.758690  1.0  -0.1215
  C  C377  1  0.684420  0.865690  0.848020  1.0  -0.1144
  C  C378  1  0.636020  0.895820  0.761720  1.0  -0.0799
  C  C379  1  0.783310  0.829790  0.757980  1.0  -0.1354
  C  C380  1  0.615850  0.907410  0.807450  1.0  -0.1231
  C  C381  1  0.750370  0.822680  0.797550  1.0  0.0411
  C  C382  1  0.294700  0.145780  0.802070  1.0  0.0528
  C  C383  1  0.430650  0.062210  0.809190  1.0  0.7067
  C  C384  1  0.360240  0.107070  0.850530  1.0  -0.0498
  C  C385  1  0.319550  0.130060  0.758690  1.0  -0.1209
  C  C386  1  0.315580  0.134310  0.848020  1.0  -0.116
  C  C387  1  0.363980  0.104180  0.761720  1.0  -0.0824
  C  C388  1  0.216690  0.170210  0.757980  1.0  -0.1377
  C  C389  1  0.384150  0.092590  0.807450  1.0  -0.1243
  C  C390  1  0.249630  0.177320  0.797550  1.0  0.0407
  C  C391  1  0.294700  0.854220  0.197930  1.0  0.0528
  C  C392  1  0.430650  0.937790  0.190810  1.0  0.7069
  C  C393  1  0.360240  0.892930  0.149470  1.0  -0.0482
  C  C394  1  0.319550  0.869940  0.241310  1.0  -0.1222
  C  C395  1  0.315580  0.865690  0.151980  1.0  -0.1149
  C  C396  1  0.363980  0.895820  0.238280  1.0  -0.0803
  C  C397  1  0.216690  0.829790  0.242020  1.0  -0.1366
  C  C398  1  0.384150  0.907410  0.192550  1.0  -0.124
  C  C399  1  0.249630  0.822680  0.202450  1.0  0.0417
  C  C400  1  0.705300  0.145780  0.197930  1.0  0.0517
  C  C401  1  0.569350  0.062210  0.190810  1.0  0.7068
  C  C402  1  0.639760  0.107070  0.149470  1.0  -0.047
  C  C403  1  0.680450  0.130060  0.241310  1.0  -0.1213
  C  C404  1  0.684420  0.134310  0.151980  1.0  -0.1181
  C  C405  1  0.636020  0.104180  0.238280  1.0  -0.0804
  C  C406  1  0.783310  0.170210  0.242020  1.0  -0.1363
  C  C407  1  0.615850  0.092590  0.192550  1.0  -0.1241
  C  C408  1  0.750370  0.177320  0.202450  1.0  0.04
  C  C409  1  0.802070  0.705300  0.854220  1.0  0.0536
  C  C410  1  0.809190  0.569350  0.937790  1.0  0.7077
  C  C411  1  0.850530  0.639760  0.892930  1.0  -0.0409
  C  C412  1  0.758690  0.680450  0.869940  1.0  -0.1198
  C  C413  1  0.848020  0.684420  0.865690  1.0  -0.1135
  C  C414  1  0.761720  0.636020  0.895820  1.0  -0.0787
  C  C415  1  0.757980  0.783310  0.829790  1.0  -0.1382
  C  C416  1  0.807450  0.615850  0.907410  1.0  -0.1216
  C  C417  1  0.797550  0.750370  0.822680  1.0  0.0395
  C  C418  1  0.802070  0.294700  0.145780  1.0  0.0509
  C  C419  1  0.809190  0.430650  0.062210  1.0  0.7075
  C  C420  1  0.850530  0.360240  0.107070  1.0  -0.0417
  C  C421  1  0.758690  0.319550  0.130060  1.0  -0.1183
  C  C422  1  0.848020  0.315580  0.134310  1.0  -0.1132
  C  C423  1  0.761720  0.363980  0.104180  1.0  -0.0776
  C  C424  1  0.757980  0.216690  0.170210  1.0  -0.1418
  C  C425  1  0.807450  0.384150  0.092590  1.0  -0.1216
  C  C426  1  0.797550  0.249630  0.177320  1.0  0.0377
  C  C427  1  0.197930  0.294700  0.854220  1.0  0.0532
  C  C428  1  0.190810  0.430650  0.937790  1.0  0.708
  C  C429  1  0.149470  0.360240  0.892930  1.0  -0.0429
  C  C430  1  0.241310  0.319550  0.869940  1.0  -0.119
  C  C431  1  0.151980  0.315580  0.865690  1.0  -0.1135
  C  C432  1  0.238280  0.363980  0.895820  1.0  -0.0804
  C  C433  1  0.242020  0.216690  0.829790  1.0  -0.1406
  C  C434  1  0.192550  0.384150  0.907410  1.0  -0.121
  C  C435  1  0.202450  0.249630  0.822680  1.0  0.0416
  C  C436  1  0.197930  0.705300  0.145780  1.0  0.0553
  C  C437  1  0.190810  0.569350  0.062210  1.0  0.7077
  C  C438  1  0.149470  0.639760  0.107070  1.0  -0.0425
  C  C439  1  0.241310  0.680450  0.130060  1.0  -0.1182
  C  C440  1  0.151980  0.684420  0.134310  1.0  -0.1128
  C  C441  1  0.238280  0.636020  0.104180  1.0  -0.0783
  C  C442  1  0.242020  0.783310  0.170210  1.0  -0.1416
  C  C443  1  0.192550  0.615850  0.092590  1.0  -0.1227
  C  C444  1  0.202450  0.750370  0.177320  1.0  0.038
  C  C445  1  0.854220  0.802070  0.705300  1.0  0.0519
  C  C446  1  0.937790  0.809190  0.569350  1.0  0.7078
  C  C447  1  0.892930  0.850530  0.639760  1.0  -0.0435
  C  C448  1  0.869940  0.758690  0.680450  1.0  -0.1183
  C  C449  1  0.865690  0.848020  0.684420  1.0  -0.1112
  C  C450  1  0.895820  0.761720  0.636020  1.0  -0.0786
  C  C451  1  0.829790  0.757980  0.783310  1.0  -0.1416
  C  C452  1  0.907410  0.807450  0.615850  1.0  -0.124
  C  C453  1  0.822680  0.797550  0.750370  1.0  0.0439
  C  C454  1  0.145780  0.802070  0.294700  1.0  0.0538
  C  C455  1  0.062210  0.809190  0.430650  1.0  0.7081
  C  C456  1  0.107070  0.850530  0.360240  1.0  -0.0433
  C  C457  1  0.130060  0.758690  0.319550  1.0  -0.1196
  C  C458  1  0.134310  0.848020  0.315580  1.0  -0.1104
  C  C459  1  0.104180  0.761720  0.363980  1.0  -0.0772
  C  C460  1  0.170210  0.757980  0.216690  1.0  -0.1438
  C  C461  1  0.092590  0.807450  0.384150  1.0  -0.124
  C  C462  1  0.177320  0.797550  0.249630  1.0  0.0412
  C  C463  1  0.854220  0.197930  0.294700  1.0  0.0531
  C  C464  1  0.937790  0.190810  0.430650  1.0  0.7077
  C  C465  1  0.892930  0.149470  0.360240  1.0  -0.0452
  C  C466  1  0.869940  0.241310  0.319550  1.0  -0.119
  C  C467  1  0.865690  0.151980  0.315580  1.0  -0.1117
  C  C468  1  0.895820  0.238280  0.363980  1.0  -0.078
  C  C469  1  0.829790  0.242020  0.216690  1.0  -0.1418
  C  C470  1  0.907410  0.192550  0.384150  1.0  -0.1252
  C  C471  1  0.822680  0.202450  0.249630  1.0  0.0423
  C  C472  1  0.145780  0.197930  0.705300  1.0  0.0536
  C  C473  1  0.062210  0.190810  0.569350  1.0  0.7078
  C  C474  1  0.107070  0.149470  0.639760  1.0  -0.0456
  C  C475  1  0.130060  0.241310  0.680450  1.0  -0.1197
  C  C476  1  0.134310  0.151980  0.684420  1.0  -0.1105
  C  C477  1  0.104180  0.238280  0.636020  1.0  -0.0753
  C  C478  1  0.170210  0.242020  0.783310  1.0  -0.1459
  C  C479  1  0.092590  0.192550  0.615850  1.0  -0.1241
  C  C480  1  0.177320  0.202450  0.750370  1.0  0.0417
  C  C481  1  0.794700  0.645780  0.697930  1.0  0.0521
  C  C482  1  0.930650  0.562210  0.690810  1.0  0.7068
  C  C483  1  0.860240  0.607070  0.649470  1.0  -0.0477
  C  C484  1  0.819550  0.630060  0.741310  1.0  -0.1225
  C  C485  1  0.815580  0.634310  0.651980  1.0  -0.1156
  C  C486  1  0.863980  0.604180  0.738280  1.0  -0.0813
  C  C487  1  0.716690  0.670210  0.742020  1.0  -0.1372
  C  C488  1  0.884150  0.592590  0.692550  1.0  -0.1245
  C  C489  1  0.749630  0.677320  0.702450  1.0  0.0396
  C  C490  1  0.205300  0.354220  0.697930  1.0  0.0526
  C  C491  1  0.069350  0.437790  0.690810  1.0  0.7068
  C  C492  1  0.139760  0.392930  0.649470  1.0  -0.0473
  C  C493  1  0.180450  0.369940  0.741310  1.0  -0.1217
  C  C494  1  0.184420  0.365690  0.651980  1.0  -0.1168
  C  C495  1  0.136020  0.395820  0.738280  1.0  -0.0796
  C  C496  1  0.283310  0.329790  0.742020  1.0  -0.1363
  C  C497  1  0.115850  0.407410  0.692550  1.0  -0.1233
  C  C498  1  0.250370  0.322680  0.702450  1.0  0.042
  C  C499  1  0.205300  0.645780  0.302070  1.0  0.0521
  C  C500  1  0.069350  0.562210  0.309190  1.0  0.7067
  C  C501  1  0.139760  0.607070  0.350530  1.0  -0.0506
  C  C502  1  0.180450  0.630060  0.258690  1.0  -0.1203
  C  C503  1  0.184420  0.634310  0.348020  1.0  -0.1165
  C  C504  1  0.136020  0.604180  0.261720  1.0  -0.0811
  C  C505  1  0.283310  0.670210  0.257980  1.0  -0.1371
  C  C506  1  0.115850  0.592590  0.307450  1.0  -0.1238
  C  C507  1  0.250370  0.677320  0.297550  1.0  0.0409
  C  C508  1  0.794700  0.354220  0.302070  1.0  0.0533
  C  C509  1  0.930650  0.437790  0.309190  1.0  0.7071
  C  C510  1  0.860240  0.392930  0.350530  1.0  -0.0501
  C  C511  1  0.819550  0.369940  0.258690  1.0  -0.1217
  C  C512  1  0.815580  0.365690  0.348020  1.0  -0.1149
  C  C513  1  0.863980  0.395820  0.261720  1.0  -0.0815
  C  C514  1  0.716690  0.329790  0.257980  1.0  -0.136
  C  C515  1  0.884150  0.407410  0.307450  1.0  -0.1238
  C  C516  1  0.749630  0.322680  0.297550  1.0  0.0399
  C  C517  1  0.697930  0.794700  0.645780  1.0  0.0522
  C  C518  1  0.690810  0.930650  0.562210  1.0  0.7078
  C  C519  1  0.649470  0.860240  0.607070  1.0  -0.043
  C  C520  1  0.741310  0.819550  0.630060  1.0  -0.1183
  C  C521  1  0.651980  0.815580  0.634310  1.0  -0.112
  C  C522  1  0.738280  0.863980  0.604180  1.0  -0.0798
  C  C523  1  0.742020  0.716690  0.670210  1.0  -0.1424
  C  C524  1  0.692550  0.884150  0.592590  1.0  -0.1215
  C  C525  1  0.702450  0.749630  0.677320  1.0  0.0377
  C  C526  1  0.697930  0.205300  0.354220  1.0  0.0528
  C  C527  1  0.690810  0.069350  0.437790  1.0  0.7078
  C  C528  1  0.649470  0.139760  0.392930  1.0  -0.0422
  C  C529  1  0.741310  0.180450  0.369940  1.0  -0.1188
  C  C530  1  0.651980  0.184420  0.365690  1.0  -0.1143
  C  C531  1  0.738280  0.136020  0.395820  1.0  -0.0787
  C  C532  1  0.742020  0.283310  0.329790  1.0  -0.1398
  C  C533  1  0.692550  0.115850  0.407410  1.0  -0.1214
  C  C534  1  0.702450  0.250370  0.322680  1.0  0.0398
  C  C535  1  0.302070  0.205300  0.645780  1.0  0.0529
  C  C536  1  0.309190  0.069350  0.562210  1.0  0.7075
  C  C537  1  0.350530  0.139760  0.607070  1.0  -0.0416
  C  C538  1  0.258690  0.180450  0.630060  1.0  -0.1183
  C  C539  1  0.348020  0.184420  0.634310  1.0  -0.1126
  C  C540  1  0.261720  0.136020  0.604180  1.0  -0.0782
  C  C541  1  0.257980  0.283310  0.670210  1.0  -0.1412
  C  C542  1  0.307450  0.115850  0.592590  1.0  -0.1228
  C  C543  1  0.297550  0.250370  0.677320  1.0  0.0379
  C  C544  1  0.302070  0.794700  0.354220  1.0  0.0535
  C  C545  1  0.309190  0.930650  0.437790  1.0  0.7078
  C  C546  1  0.350530  0.860240  0.392930  1.0  -0.041
  C  C547  1  0.258690  0.819550  0.369940  1.0  -0.12
  C  C548  1  0.348020  0.815580  0.365690  1.0  -0.1142
  C  C549  1  0.261720  0.863980  0.395820  1.0  -0.0792
  C  C550  1  0.257980  0.716690  0.329790  1.0  -0.1386
  C  C551  1  0.307450  0.884150  0.407410  1.0  -0.1213
  C  C552  1  0.297550  0.749630  0.322680  1.0  0.0417
  C  C553  1  0.645780  0.697930  0.794700  1.0  0.0537
  C  C554  1  0.562210  0.690810  0.930650  1.0  0.708
  C  C555  1  0.607070  0.649470  0.860240  1.0  -0.0453
  C  C556  1  0.630060  0.741310  0.819550  1.0  -0.1198
  C  C557  1  0.634310  0.651980  0.815580  1.0  -0.1106
  C  C558  1  0.604180  0.738280  0.863980  1.0  -0.0766
  C  C559  1  0.670210  0.742020  0.716690  1.0  -0.1445
  C  C560  1  0.592590  0.692550  0.884150  1.0  -0.124
  C  C561  1  0.677320  0.702450  0.749630  1.0  0.0406
  C  C562  1  0.354220  0.697930  0.205300  1.0  0.0529
  C  C563  1  0.437790  0.690810  0.069350  1.0  0.7076
  C  C564  1  0.392930  0.649470  0.139760  1.0  -0.0452
  C  C565  1  0.369940  0.741310  0.180450  1.0  -0.1185
  C  C566  1  0.365690  0.651980  0.184420  1.0  -0.1115
  C  C567  1  0.395820  0.738280  0.136020  1.0  -0.0774
  C  C568  1  0.329790  0.742020  0.283310  1.0  -0.1425
  C  C569  1  0.407410  0.692550  0.115850  1.0  -0.1243
  C  C570  1  0.322680  0.702450  0.250370  1.0  0.0441
  C  C571  1  0.645780  0.302070  0.205300  1.0  0.0535
  C  C572  1  0.562210  0.309190  0.069350  1.0  0.7081
  C  C573  1  0.607070  0.350530  0.139760  1.0  -0.0437
  C  C574  1  0.630060  0.258690  0.180450  1.0  -0.1195
  C  C575  1  0.634310  0.348020  0.184420  1.0  -0.1101
  C  C576  1  0.604180  0.261720  0.136020  1.0  -0.077
  C  C577  1  0.670210  0.257980  0.283310  1.0  -0.1442
  C  C578  1  0.592590  0.307450  0.115850  1.0  -0.1238
  C  C579  1  0.677320  0.297550  0.250370  1.0  0.0411
  C  C580  1  0.354220  0.302070  0.794700  1.0  0.0527
  C  C581  1  0.437790  0.309190  0.930650  1.0  0.7079
  C  C582  1  0.392930  0.350530  0.860240  1.0  -0.0433
  C  C583  1  0.369940  0.258690  0.819550  1.0  -0.1188
  C  C584  1  0.365690  0.348020  0.815580  1.0  -0.1119
  C  C585  1  0.395820  0.261720  0.863980  1.0  -0.0785
  C  C586  1  0.329790  0.257980  0.716690  1.0  -0.1421
  C  C587  1  0.407410  0.307450  0.884150  1.0  -0.1251
  C  C588  1  0.322680  0.297550  0.749630  1.0  0.0431
  C  C589  1  0.205300  0.354220  0.302070  1.0  0.0524
  C  C590  1  0.069350  0.437790  0.309190  1.0  0.707
  C  C591  1  0.139760  0.392930  0.350530  1.0  -0.0511
  C  C592  1  0.180450  0.369940  0.258690  1.0  -0.1215
  C  C593  1  0.184420  0.365690  0.348020  1.0  -0.1144
  C  C594  1  0.136020  0.395820  0.261720  1.0  -0.0799
  C  C595  1  0.283310  0.329790  0.257980  1.0  -0.1354
  C  C596  1  0.115850  0.407410  0.307450  1.0  -0.1231
  C  C597  1  0.250370  0.322680  0.297550  1.0  0.0411
  C  C598  1  0.794700  0.645780  0.302070  1.0  0.0528
  C  C599  1  0.930650  0.562210  0.309190  1.0  0.7067
  C  C600  1  0.860240  0.607070  0.350530  1.0  -0.0498
  C  C601  1  0.819550  0.630060  0.258690  1.0  -0.1209
  C  C602  1  0.815580  0.634310  0.348020  1.0  -0.116
  C  C603  1  0.863980  0.604180  0.261720  1.0  -0.0824
  C  C604  1  0.716690  0.670210  0.257980  1.0  -0.1377
  C  C605  1  0.884150  0.592590  0.307450  1.0  -0.1243
  C  C606  1  0.749630  0.677320  0.297550  1.0  0.0407
  C  C607  1  0.794700  0.354220  0.697930  1.0  0.0528
  C  C608  1  0.930650  0.437790  0.690810  1.0  0.7069
  C  C609  1  0.860240  0.392930  0.649470  1.0  -0.0482
  C  C610  1  0.819550  0.369940  0.741310  1.0  -0.1222
  C  C611  1  0.815580  0.365690  0.651980  1.0  -0.1149
  C  C612  1  0.863980  0.395820  0.738280  1.0  -0.0803
  C  C613  1  0.716690  0.329790  0.742020  1.0  -0.1366
  C  C614  1  0.884150  0.407410  0.692550  1.0  -0.124
  C  C615  1  0.749630  0.322680  0.702450  1.0  0.0417
  C  C616  1  0.205300  0.645780  0.697930  1.0  0.0517
  C  C617  1  0.069350  0.562210  0.690810  1.0  0.7068
  C  C618  1  0.139760  0.607070  0.649470  1.0  -0.047
  C  C619  1  0.180450  0.630060  0.741310  1.0  -0.1213
  C  C620  1  0.184420  0.634310  0.651980  1.0  -0.1181
  C  C621  1  0.136020  0.604180  0.738280  1.0  -0.0804
  C  C622  1  0.283310  0.670210  0.742020  1.0  -0.1363
  C  C623  1  0.115850  0.592590  0.692550  1.0  -0.1241
  C  C624  1  0.250370  0.677320  0.702450  1.0  0.04
  C  C625  1  0.302070  0.205300  0.354220  1.0  0.0536
  C  C626  1  0.309190  0.069350  0.437790  1.0  0.7077
  C  C627  1  0.350530  0.139760  0.392930  1.0  -0.0409
  C  C628  1  0.258690  0.180450  0.369940  1.0  -0.1198
  C  C629  1  0.348020  0.184420  0.365690  1.0  -0.1135
  C  C630  1  0.261720  0.136020  0.395820  1.0  -0.0787
  C  C631  1  0.257980  0.283310  0.329790  1.0  -0.1382
  C  C632  1  0.307450  0.115850  0.407410  1.0  -0.1216
  C  C633  1  0.297550  0.250370  0.322680  1.0  0.0395
  C  C634  1  0.302070  0.794700  0.645780  1.0  0.0509
  C  C635  1  0.309190  0.930650  0.562210  1.0  0.7075
  C  C636  1  0.350530  0.860240  0.607070  1.0  -0.0417
  C  C637  1  0.258690  0.819550  0.630060  1.0  -0.1183
  C  C638  1  0.348020  0.815580  0.634310  1.0  -0.1132
  C  C639  1  0.261720  0.863980  0.604180  1.0  -0.0776
  C  C640  1  0.257980  0.716690  0.670210  1.0  -0.1418
  C  C641  1  0.307450  0.884150  0.592590  1.0  -0.1216
  C  C642  1  0.297550  0.749630  0.677320  1.0  0.0377
  C  C643  1  0.697930  0.794700  0.354220  1.0  0.0532
  C  C644  1  0.690810  0.930650  0.437790  1.0  0.708
  C  C645  1  0.649470  0.860240  0.392930  1.0  -0.0429
  C  C646  1  0.741310  0.819550  0.369940  1.0  -0.119
  C  C647  1  0.651980  0.815580  0.365690  1.0  -0.1135
  C  C648  1  0.738280  0.863980  0.395820  1.0  -0.0804
  C  C649  1  0.742020  0.716690  0.329790  1.0  -0.1406
  C  C650  1  0.692550  0.884150  0.407410  1.0  -0.121
  C  C651  1  0.702450  0.749630  0.322680  1.0  0.0416
  C  C652  1  0.697930  0.205300  0.645780  1.0  0.0553
  C  C653  1  0.690810  0.069350  0.562210  1.0  0.7077
  C  C654  1  0.649470  0.139760  0.607070  1.0  -0.0425
  C  C655  1  0.741310  0.180450  0.630060  1.0  -0.1182
  C  C656  1  0.651980  0.184420  0.634310  1.0  -0.1128
  C  C657  1  0.738280  0.136020  0.604180  1.0  -0.0783
  C  C658  1  0.742020  0.283310  0.670210  1.0  -0.1416
  C  C659  1  0.692550  0.115850  0.592590  1.0  -0.1227
  C  C660  1  0.702450  0.250370  0.677320  1.0  0.038
  C  C661  1  0.354220  0.302070  0.205300  1.0  0.0519
  C  C662  1  0.437790  0.309190  0.069350  1.0  0.7078
  C  C663  1  0.392930  0.350530  0.139760  1.0  -0.0435
  C  C664  1  0.369940  0.258690  0.180450  1.0  -0.1183
  C  C665  1  0.365690  0.348020  0.184420  1.0  -0.1112
  C  C666  1  0.395820  0.261720  0.136020  1.0  -0.0786
  C  C667  1  0.329790  0.257980  0.283310  1.0  -0.1416
  C  C668  1  0.407410  0.307450  0.115850  1.0  -0.124
  C  C669  1  0.322680  0.297550  0.250370  1.0  0.0439
  C  C670  1  0.645780  0.302070  0.794700  1.0  0.0538
  C  C671  1  0.562210  0.309190  0.930650  1.0  0.7081
  C  C672  1  0.607070  0.350530  0.860240  1.0  -0.0433
  C  C673  1  0.630060  0.258690  0.819550  1.0  -0.1196
  C  C674  1  0.634310  0.348020  0.815580  1.0  -0.1104
  C  C675  1  0.604180  0.261720  0.863980  1.0  -0.0772
  C  C676  1  0.670210  0.257980  0.716690  1.0  -0.1438
  C  C677  1  0.592590  0.307450  0.884150  1.0  -0.124
  C  C678  1  0.677320  0.297550  0.749630  1.0  0.0412
  C  C679  1  0.354220  0.697930  0.794700  1.0  0.0531
  C  C680  1  0.437790  0.690810  0.930650  1.0  0.7077
  C  C681  1  0.392930  0.649470  0.860240  1.0  -0.0452
  C  C682  1  0.369940  0.741310  0.819550  1.0  -0.119
  C  C683  1  0.365690  0.651980  0.815580  1.0  -0.1117
  C  C684  1  0.395820  0.738280  0.863980  1.0  -0.078
  C  C685  1  0.329790  0.742020  0.716690  1.0  -0.1418
  C  C686  1  0.407410  0.692550  0.884150  1.0  -0.1252
  C  C687  1  0.322680  0.702450  0.749630  1.0  0.0423
  C  C688  1  0.645780  0.697930  0.205300  1.0  0.0536
  C  C689  1  0.562210  0.690810  0.069350  1.0  0.7078
  C  C690  1  0.607070  0.649470  0.139760  1.0  -0.0456
  C  C691  1  0.630060  0.741310  0.180450  1.0  -0.1197
  C  C692  1  0.634310  0.651980  0.184420  1.0  -0.1105
  C  C693  1  0.604180  0.738280  0.136020  1.0  -0.0753
  C  C694  1  0.670210  0.742020  0.283310  1.0  -0.1459
  C  C695  1  0.592590  0.692550  0.115850  1.0  -0.1241
  C  C696  1  0.677320  0.702450  0.250370  1.0  0.0417
  O  O697  1  0.447640  0.050130  0.148940  1.0  -0.5807
  O  O698  1  0.448410  0.049320  0.231460  1.0  -0.5825
  O  O699  1  0.552360  0.949870  0.148940  1.0  -0.5806
  O  O700  1  0.551590  0.950680  0.231460  1.0  -0.5822
  O  O701  1  0.552360  0.050130  0.851060  1.0  -0.5794
  O  O702  1  0.551590  0.049320  0.768540  1.0  -0.5822
  O  O703  1  0.447640  0.949870  0.851060  1.0  -0.5798
  O  O704  1  0.448410  0.950680  0.768540  1.0  -0.5827
  O  O705  1  0.148940  0.447640  0.050130  1.0  -0.5813
  O  O706  1  0.231460  0.448410  0.049320  1.0  -0.5818
  O  O707  1  0.148940  0.552360  0.949870  1.0  -0.5813
  O  O708  1  0.231460  0.551590  0.950680  1.0  -0.5816
  O  O709  1  0.851060  0.552360  0.050130  1.0  -0.5816
  O  O710  1  0.768540  0.551590  0.049320  1.0  -0.5807
  O  O711  1  0.851060  0.447640  0.949870  1.0  -0.5824
  O  O712  1  0.768540  0.448410  0.950680  1.0  -0.5807
  O  O713  1  0.050130  0.148940  0.447640  1.0  -0.5843
  O  O714  1  0.049320  0.231460  0.448410  1.0  -0.5819
  O  O715  1  0.949870  0.148940  0.552360  1.0  -0.5836
  O  O716  1  0.950680  0.231460  0.551590  1.0  -0.583
  O  O717  1  0.050130  0.851060  0.552360  1.0  -0.5828
  O  O718  1  0.049320  0.768540  0.551590  1.0  -0.583
  O  O719  1  0.949870  0.851060  0.447640  1.0  -0.5833
  O  O720  1  0.950680  0.768540  0.448410  1.0  -0.5825
  O  O721  1  0.552360  0.949870  0.851060  1.0  -0.5804
  O  O722  1  0.551590  0.950680  0.768540  1.0  -0.5815
  O  O723  1  0.447640  0.050130  0.851060  1.0  -0.5801
  O  O724  1  0.448410  0.049320  0.768540  1.0  -0.5835
  O  O725  1  0.447640  0.949870  0.148940  1.0  -0.5806
  O  O726  1  0.448410  0.950680  0.231460  1.0  -0.5822
  O  O727  1  0.552360  0.050130  0.148940  1.0  -0.5793
  O  O728  1  0.551590  0.049320  0.231460  1.0  -0.5826
  O  O729  1  0.851060  0.552360  0.949870  1.0  -0.582
  O  O730  1  0.768540  0.551590  0.950680  1.0  -0.5808
  O  O731  1  0.851060  0.447640  0.050130  1.0  -0.5819
  O  O732  1  0.768540  0.448410  0.049320  1.0  -0.5807
  O  O733  1  0.148940  0.447640  0.949870  1.0  -0.5814
  O  O734  1  0.231460  0.448410  0.950680  1.0  -0.5817
  O  O735  1  0.148940  0.552360  0.050130  1.0  -0.5814
  O  O736  1  0.231460  0.551590  0.049320  1.0  -0.5815
  O  O737  1  0.949870  0.851060  0.552360  1.0  -0.5835
  O  O738  1  0.950680  0.768540  0.551590  1.0  -0.583
  O  O739  1  0.050130  0.851060  0.447640  1.0  -0.5828
  O  O740  1  0.049320  0.768540  0.448410  1.0  -0.5826
  O  O741  1  0.949870  0.148940  0.447640  1.0  -0.5837
  O  O742  1  0.950680  0.231460  0.448410  1.0  -0.5827
  O  O743  1  0.050130  0.148940  0.552360  1.0  -0.5842
  O  O744  1  0.049320  0.231460  0.551590  1.0  -0.5822
  O  O745  1  0.947640  0.550130  0.648940  1.0  -0.5807
  O  O746  1  0.948410  0.549320  0.731460  1.0  -0.5825
  O  O747  1  0.052360  0.449870  0.648940  1.0  -0.5806
  O  O748  1  0.051590  0.450680  0.731460  1.0  -0.5822
  O  O749  1  0.052360  0.550130  0.351060  1.0  -0.5794
  O  O750  1  0.051590  0.549320  0.268540  1.0  -0.5822
  O  O751  1  0.947640  0.449870  0.351060  1.0  -0.5798
  O  O752  1  0.948410  0.450680  0.268540  1.0  -0.5827
  O  O753  1  0.648940  0.947640  0.550130  1.0  -0.5813
  O  O754  1  0.731460  0.948410  0.549320  1.0  -0.5818
  O  O755  1  0.648940  0.052360  0.449870  1.0  -0.5813
  O  O756  1  0.731460  0.051590  0.450680  1.0  -0.5816
  O  O757  1  0.351060  0.052360  0.550130  1.0  -0.5816
  O  O758  1  0.268540  0.051590  0.549320  1.0  -0.5807
  O  O759  1  0.351060  0.947640  0.449870  1.0  -0.581
  O  O760  1  0.268540  0.948410  0.450680  1.0  -0.5807
  O  O761  1  0.550130  0.648940  0.947640  1.0  -0.5843
  O  O762  1  0.549320  0.731460  0.948410  1.0  -0.5819
  O  O763  1  0.449870  0.648940  0.052360  1.0  -0.5836
  O  O764  1  0.450680  0.731460  0.051590  1.0  -0.583
  O  O765  1  0.550130  0.351060  0.052360  1.0  -0.5828
  O  O766  1  0.549320  0.268540  0.051590  1.0  -0.583
  O  O767  1  0.449870  0.351060  0.947640  1.0  -0.5833
  O  O768  1  0.450680  0.268540  0.948410  1.0  -0.5825
  O  O769  1  0.052360  0.449870  0.351060  1.0  -0.5804
  O  O770  1  0.051590  0.450680  0.268540  1.0  -0.5815
  O  O771  1  0.947640  0.550130  0.351060  1.0  -0.5801
  O  O772  1  0.948410  0.549320  0.268540  1.0  -0.5835
  O  O773  1  0.947640  0.449870  0.648940  1.0  -0.5806
  O  O774  1  0.948410  0.450680  0.731460  1.0  -0.5822
  O  O775  1  0.052360  0.550130  0.648940  1.0  -0.5793
  O  O776  1  0.051590  0.549320  0.731460  1.0  -0.5826
  O  O777  1  0.351060  0.052360  0.449870  1.0  -0.582
  O  O778  1  0.268540  0.051590  0.450680  1.0  -0.5808
  O  O779  1  0.351060  0.947640  0.550130  1.0  -0.5819
  O  O780  1  0.268540  0.948410  0.549320  1.0  -0.5807
  O  O781  1  0.648940  0.947640  0.449870  1.0  -0.5814
  O  O782  1  0.731460  0.948410  0.450680  1.0  -0.5817
  O  O783  1  0.648940  0.052360  0.550130  1.0  -0.5814
  O  O784  1  0.731460  0.051590  0.549320  1.0  -0.5815
  O  O785  1  0.449870  0.351060  0.052360  1.0  -0.5835
  O  O786  1  0.450680  0.268540  0.051590  1.0  -0.583
  O  O787  1  0.550130  0.351060  0.947640  1.0  -0.5828
  O  O788  1  0.549320  0.268540  0.948410  1.0  -0.5826
  O  O789  1  0.449870  0.648940  0.947640  1.0  -0.5837
  O  O790  1  0.450680  0.731460  0.948410  1.0  -0.5827
  O  O791  1  0.550130  0.648940  0.052360  1.0  -0.5842
  O  O792  1  0.549320  0.731460  0.051590  1.0  -0.5822
