# generated using pymatgen
data_CuH10(C9O2)2
_symmetry_space_group_name_H-M   'P 1'
_cell_length_a   26.95600000
_cell_length_b   26.95600000
_cell_length_c   26.95600000
_cell_angle_alpha   90.00000000
_cell_angle_beta   90.00000000
_cell_angle_gamma   90.00000000
_symmetry_Int_Tables_number   1
_chemical_formula_structural   CuH10(C9O2)2
_chemical_formula_sum   'Cu24 H240 C432 O96'
_cell_volume   19586.92873082
_cell_formula_units_Z   24
loop_
 _symmetry_equiv_pos_site_id
 _symmetry_equiv_pos_as_xyz
  1  'x, y, z'
loop_
 _atom_site_type_symbol
 _atom_site_label
 _atom_site_symmetry_multiplicity
 _atom_site_fract_x
 _atom_site_fract_y
 _atom_site_fract_z
 _atom_site_occupancy
 _atom_site_charge
  Cu  Cu1  1  0.500000  0.000000  0.143960  1.0  0.8726
  Cu  Cu2  1  0.500000  0.000000  0.240200  1.0  0.9077
  Cu  Cu3  1  0.500000  0.000000  0.856040  1.0  0.8728
  Cu  Cu4  1  0.500000  0.000000  0.759800  1.0  0.9108
  Cu  Cu5  1  0.143960  0.500000  0.000000  1.0  0.8714
  Cu  Cu6  1  0.240200  0.500000  0.000000  1.0  0.9127
  Cu  Cu7  1  0.856040  0.500000  0.000000  1.0  0.873
  Cu  Cu8  1  0.759800  0.500000  0.000000  1.0  0.912
  Cu  Cu9  1  0.000000  0.143960  0.500000  1.0  0.8735
  Cu  Cu10  1  0.000000  0.240200  0.500000  1.0  0.9132
  Cu  Cu11  1  0.000000  0.856040  0.500000  1.0  0.8727
  Cu  Cu12  1  0.000000  0.759800  0.500000  1.0  0.9154
  Cu  Cu13  1  0.000000  0.500000  0.643960  1.0  0.8726
  Cu  Cu14  1  0.000000  0.500000  0.740200  1.0  0.9077
  Cu  Cu15  1  0.000000  0.500000  0.356040  1.0  0.8728
  Cu  Cu16  1  0.000000  0.500000  0.259800  1.0  0.9108
  Cu  Cu17  1  0.643960  0.000000  0.500000  1.0  0.8714
  Cu  Cu18  1  0.740200  0.000000  0.500000  1.0  0.9127
  Cu  Cu19  1  0.356040  0.000000  0.500000  1.0  0.873
  Cu  Cu20  1  0.259800  0.000000  0.500000  1.0  0.912
  Cu  Cu21  1  0.500000  0.643960  0.000000  1.0  0.8735
  Cu  Cu22  1  0.500000  0.740200  0.000000  1.0  0.9132
  Cu  Cu23  1  0.500000  0.356040  0.000000  1.0  0.8727
  Cu  Cu24  1  0.500000  0.259800  0.000000  1.0  0.9154
  H  H25  1  0.373000  0.097900  0.118500  1.0  0.1027
  H  H26  1  0.306400  0.136900  0.272100  1.0  0.096
  H  H27  1  0.299600  0.144000  0.122400  1.0  0.1138
  H  H28  1  0.380300  0.094700  0.266600  1.0  0.1074
  H  H29  1  0.220800  0.142500  0.262500  1.0  0.1076
  H  H30  1  0.627000  0.902100  0.118500  1.0  0.1029
  H  H31  1  0.693600  0.863100  0.272100  1.0  0.0967
  H  H32  1  0.700400  0.856000  0.122400  1.0  0.1136
  H  H33  1  0.619700  0.905300  0.266600  1.0  0.1076
  H  H34  1  0.779200  0.857500  0.262500  1.0  0.1069
  H  H35  1  0.627000  0.097900  0.881500  1.0  0.1024
  H  H36  1  0.693600  0.136900  0.727900  1.0  0.0969
  H  H37  1  0.700400  0.144000  0.877600  1.0  0.1144
  H  H38  1  0.619700  0.094700  0.733400  1.0  0.1078
  H  H39  1  0.779200  0.142500  0.737500  1.0  0.1081
  H  H40  1  0.373000  0.902100  0.881500  1.0  0.1023
  H  H41  1  0.306400  0.863100  0.727900  1.0  0.0975
  H  H42  1  0.299600  0.856000  0.877600  1.0  0.1146
  H  H43  1  0.380300  0.905300  0.733400  1.0  0.1078
  H  H44  1  0.220800  0.857500  0.737500  1.0  0.1072
  H  H45  1  0.118500  0.373000  0.097900  1.0  0.1029
  H  H46  1  0.272100  0.306400  0.136900  1.0  0.0992
  H  H47  1  0.122400  0.299600  0.144000  1.0  0.1149
  H  H48  1  0.266600  0.380300  0.094700  1.0  0.1072
  H  H49  1  0.262500  0.220800  0.142500  1.0  0.1099
  H  H50  1  0.118500  0.627000  0.902100  1.0  0.1029
  H  H51  1  0.272100  0.693600  0.863100  1.0  0.0985
  H  H52  1  0.122400  0.700400  0.856000  1.0  0.1151
  H  H53  1  0.266600  0.619700  0.905300  1.0  0.1071
  H  H54  1  0.262500  0.779200  0.857500  1.0  0.1102
  H  H55  1  0.881500  0.627000  0.097900  1.0  0.1034
  H  H56  1  0.727900  0.693600  0.136900  1.0  0.0981
  H  H57  1  0.877600  0.700400  0.144000  1.0  0.1152
  H  H58  1  0.733400  0.619700  0.094700  1.0  0.1069
  H  H59  1  0.737500  0.779200  0.142500  1.0  0.1108
  H  H60  1  0.881500  0.373000  0.902100  1.0  0.1035
  H  H61  1  0.727900  0.306400  0.863100  1.0  0.0982
  H  H62  1  0.877600  0.299600  0.856000  1.0  0.115
  H  H63  1  0.733400  0.380300  0.905300  1.0  0.107
  H  H64  1  0.737500  0.220800  0.857500  1.0  0.1106
  H  H65  1  0.097900  0.118500  0.373000  1.0  0.1025
  H  H66  1  0.136900  0.272100  0.306400  1.0  0.0967
  H  H67  1  0.144000  0.122400  0.299600  1.0  0.1128
  H  H68  1  0.094700  0.266600  0.380300  1.0  0.1075
  H  H69  1  0.142500  0.262500  0.220800  1.0  0.1089
  H  H70  1  0.902100  0.118500  0.627000  1.0  0.1029
  H  H71  1  0.863100  0.272100  0.693600  1.0  0.0968
  H  H72  1  0.856000  0.122400  0.700400  1.0  0.1139
  H  H73  1  0.905300  0.266600  0.619700  1.0  0.1075
  H  H74  1  0.857500  0.262500  0.779200  1.0  0.1081
  H  H75  1  0.097900  0.881500  0.627000  1.0  0.1031
  H  H76  1  0.136900  0.727900  0.693600  1.0  0.0959
  H  H77  1  0.144000  0.877600  0.700400  1.0  0.1133
  H  H78  1  0.094700  0.733400  0.619700  1.0  0.1069
  H  H79  1  0.142500  0.737500  0.779200  1.0  0.109
  H  H80  1  0.902100  0.881500  0.373000  1.0  0.1029
  H  H81  1  0.863100  0.727900  0.306400  1.0  0.0967
  H  H82  1  0.856000  0.877600  0.299600  1.0  0.1141
  H  H83  1  0.905300  0.733400  0.380300  1.0  0.1075
  H  H84  1  0.857500  0.737500  0.220800  1.0  0.1087
  H  H85  1  0.627000  0.902100  0.881500  1.0  0.1023
  H  H86  1  0.693600  0.863100  0.727900  1.0  0.0976
  H  H87  1  0.700400  0.856000  0.877600  1.0  0.1144
  H  H88  1  0.619700  0.905300  0.733400  1.0  0.1077
  H  H89  1  0.779200  0.857500  0.737500  1.0  0.1072
  H  H90  1  0.373000  0.097900  0.881500  1.0  0.1024
  H  H91  1  0.306400  0.136900  0.727900  1.0  0.0971
  H  H92  1  0.299600  0.144000  0.877600  1.0  0.1146
  H  H93  1  0.380300  0.094700  0.733400  1.0  0.1078
  H  H94  1  0.220800  0.142500  0.737500  1.0  0.1076
  H  H95  1  0.373000  0.902100  0.118500  1.0  0.103
  H  H96  1  0.306400  0.863100  0.272100  1.0  0.0966
  H  H97  1  0.299600  0.856000  0.122400  1.0  0.1136
  H  H98  1  0.380300  0.905300  0.266600  1.0  0.1075
  H  H99  1  0.220800  0.857500  0.262500  1.0  0.1069
  H  H100  1  0.627000  0.097900  0.118500  1.0  0.1026
  H  H101  1  0.693600  0.136900  0.272100  1.0  0.0961
  H  H102  1  0.700400  0.144000  0.122400  1.0  0.1141
  H  H103  1  0.619700  0.094700  0.266600  1.0  0.1076
  H  H104  1  0.779200  0.142500  0.262500  1.0  0.108
  H  H105  1  0.881500  0.627000  0.902100  1.0  0.1032
  H  H106  1  0.727900  0.693600  0.863100  1.0  0.098
  H  H107  1  0.877600  0.700400  0.856000  1.0  0.1152
  H  H108  1  0.733400  0.619700  0.905300  1.0  0.1072
  H  H109  1  0.737500  0.779200  0.857500  1.0  0.1107
  H  H110  1  0.881500  0.373000  0.097900  1.0  0.1038
  H  H111  1  0.727900  0.306400  0.136900  1.0  0.0985
  H  H112  1  0.877600  0.299600  0.144000  1.0  0.1151
  H  H113  1  0.733400  0.380300  0.094700  1.0  0.107
  H  H114  1  0.737500  0.220800  0.142500  1.0  0.1104
  H  H115  1  0.118500  0.373000  0.902100  1.0  0.1029
  H  H116  1  0.272100  0.306400  0.863100  1.0  0.0986
  H  H117  1  0.122400  0.299600  0.856000  1.0  0.1152
  H  H118  1  0.266600  0.380300  0.905300  1.0  0.1072
  H  H119  1  0.262500  0.220800  0.857500  1.0  0.1102
  H  H120  1  0.118500  0.627000  0.097900  1.0  0.1027
  H  H121  1  0.272100  0.693600  0.136900  1.0  0.0988
  H  H122  1  0.122400  0.700400  0.144000  1.0  0.1146
  H  H123  1  0.266600  0.619700  0.094700  1.0  0.1068
  H  H124  1  0.262500  0.779200  0.142500  1.0  0.1098
  H  H125  1  0.902100  0.881500  0.627000  1.0  0.1031
  H  H126  1  0.863100  0.727900  0.693600  1.0  0.0968
  H  H127  1  0.856000  0.877600  0.700400  1.0  0.1136
  H  H128  1  0.905300  0.733400  0.619700  1.0  0.1072
  H  H129  1  0.857500  0.737500  0.779200  1.0  0.1083
  H  H130  1  0.097900  0.881500  0.373000  1.0  0.1027
  H  H131  1  0.136900  0.727900  0.306400  1.0  0.0958
  H  H132  1  0.144000  0.877600  0.299600  1.0  0.1136
  H  H133  1  0.094700  0.733400  0.380300  1.0  0.1074
  H  H134  1  0.142500  0.737500  0.220800  1.0  0.109
  H  H135  1  0.902100  0.118500  0.373000  1.0  0.1026
  H  H136  1  0.863100  0.272100  0.306400  1.0  0.0971
  H  H137  1  0.856000  0.122400  0.299600  1.0  0.1132
  H  H138  1  0.905300  0.266600  0.380300  1.0  0.1077
  H  H139  1  0.857500  0.262500  0.220800  1.0  0.1085
  H  H140  1  0.097900  0.118500  0.627000  1.0  0.1026
  H  H141  1  0.136900  0.272100  0.693600  1.0  0.0966
  H  H142  1  0.144000  0.122400  0.700400  1.0  0.1135
  H  H143  1  0.094700  0.266600  0.619700  1.0  0.1072
  H  H144  1  0.142500  0.262500  0.779200  1.0  0.1087
  H  H145  1  0.873000  0.597900  0.618500  1.0  0.1027
  H  H146  1  0.806400  0.636900  0.772100  1.0  0.0965
  H  H147  1  0.799600  0.644000  0.622400  1.0  0.1138
  H  H148  1  0.880300  0.594700  0.766600  1.0  0.1074
  H  H149  1  0.720800  0.642500  0.762500  1.0  0.1076
  H  H150  1  0.127000  0.402100  0.618500  1.0  0.1029
  H  H151  1  0.193600  0.363100  0.772100  1.0  0.0972
  H  H152  1  0.200400  0.356000  0.622400  1.0  0.1136
  H  H153  1  0.119700  0.405300  0.766600  1.0  0.1076
  H  H154  1  0.279200  0.357500  0.762500  1.0  0.1069
  H  H155  1  0.127000  0.597900  0.381500  1.0  0.1024
  H  H156  1  0.193600  0.636900  0.227900  1.0  0.0975
  H  H157  1  0.200400  0.644000  0.377600  1.0  0.1144
  H  H158  1  0.119700  0.594700  0.233400  1.0  0.1078
  H  H159  1  0.279200  0.642500  0.237500  1.0  0.1081
  H  H160  1  0.873000  0.402100  0.381500  1.0  0.1023
  H  H161  1  0.806400  0.363100  0.227900  1.0  0.098
  H  H162  1  0.799600  0.356000  0.377600  1.0  0.1146
  H  H163  1  0.880300  0.405300  0.233400  1.0  0.1078
  H  H164  1  0.720800  0.357500  0.237500  1.0  0.1072
  H  H165  1  0.618500  0.873000  0.597900  1.0  0.1029
  H  H166  1  0.772100  0.806400  0.636900  1.0  0.0997
  H  H167  1  0.622400  0.799600  0.644000  1.0  0.1149
  H  H168  1  0.766600  0.880300  0.594700  1.0  0.1072
  H  H169  1  0.762500  0.720800  0.642500  1.0  0.1099
  H  H170  1  0.618500  0.127000  0.402100  1.0  0.1029
  H  H171  1  0.772100  0.193600  0.363100  1.0  0.0989
  H  H172  1  0.622400  0.200400  0.356000  1.0  0.1151
  H  H173  1  0.766600  0.119700  0.405300  1.0  0.1071
  H  H174  1  0.762500  0.279200  0.357500  1.0  0.1102
  H  H175  1  0.381500  0.127000  0.597900  1.0  0.1034
  H  H176  1  0.227900  0.193600  0.636900  1.0  0.0986
  H  H177  1  0.377600  0.200400  0.644000  1.0  0.1152
  H  H178  1  0.233400  0.119700  0.594700  1.0  0.1069
  H  H179  1  0.237500  0.279200  0.642500  1.0  0.1108
  H  H180  1  0.381500  0.873000  0.402100  1.0  0.1035
  H  H181  1  0.227900  0.806400  0.363100  1.0  0.0986
  H  H182  1  0.377600  0.799600  0.356000  1.0  0.115
  H  H183  1  0.233400  0.880300  0.405300  1.0  0.107
  H  H184  1  0.237500  0.720800  0.357500  1.0  0.1106
  H  H185  1  0.597900  0.618500  0.873000  1.0  0.1025
  H  H186  1  0.636900  0.772100  0.806400  1.0  0.0971
  H  H187  1  0.644000  0.622400  0.799600  1.0  0.1128
  H  H188  1  0.594700  0.766600  0.880300  1.0  0.1075
  H  H189  1  0.642500  0.762500  0.720800  1.0  0.1089
  H  H190  1  0.402100  0.618500  0.127000  1.0  0.1029
  H  H191  1  0.363100  0.772100  0.193600  1.0  0.0973
  H  H192  1  0.356000  0.622400  0.200400  1.0  0.1139
  H  H193  1  0.405300  0.766600  0.119700  1.0  0.1075
  H  H194  1  0.357500  0.762500  0.279200  1.0  0.1081
  H  H195  1  0.597900  0.381500  0.127000  1.0  0.1031
  H  H196  1  0.636900  0.227900  0.193600  1.0  0.0963
  H  H197  1  0.644000  0.377600  0.200400  1.0  0.1133
  H  H198  1  0.594700  0.233400  0.119700  1.0  0.1069
  H  H199  1  0.642500  0.237500  0.279200  1.0  0.109
  H  H200  1  0.402100  0.381500  0.873000  1.0  0.1029
  H  H201  1  0.363100  0.227900  0.806400  1.0  0.0972
  H  H202  1  0.356000  0.377600  0.799600  1.0  0.1141
  H  H203  1  0.405300  0.233400  0.880300  1.0  0.1075
  H  H204  1  0.357500  0.237500  0.720800  1.0  0.1087
  H  H205  1  0.127000  0.402100  0.381500  1.0  0.1023
  H  H206  1  0.193600  0.363100  0.227900  1.0  0.0981
  H  H207  1  0.200400  0.356000  0.377600  1.0  0.1144
  H  H208  1  0.119700  0.405300  0.233400  1.0  0.1077
  H  H209  1  0.279200  0.357500  0.237500  1.0  0.1072
  H  H210  1  0.873000  0.597900  0.381500  1.0  0.1024
  H  H211  1  0.806400  0.636900  0.227900  1.0  0.0976
  H  H212  1  0.799600  0.644000  0.377600  1.0  0.1146
  H  H213  1  0.880300  0.594700  0.233400  1.0  0.1078
  H  H214  1  0.720800  0.642500  0.237500  1.0  0.1076
  H  H215  1  0.873000  0.402100  0.618500  1.0  0.103
  H  H216  1  0.806400  0.363100  0.772100  1.0  0.0971
  H  H217  1  0.799600  0.356000  0.622400  1.0  0.1136
  H  H218  1  0.880300  0.405300  0.766600  1.0  0.1075
  H  H219  1  0.720800  0.357500  0.762500  1.0  0.1069
  H  H220  1  0.127000  0.597900  0.618500  1.0  0.1026
  H  H221  1  0.193600  0.636900  0.772100  1.0  0.0966
  H  H222  1  0.200400  0.644000  0.622400  1.0  0.1141
  H  H223  1  0.119700  0.594700  0.766600  1.0  0.1076
  H  H224  1  0.279200  0.642500  0.762500  1.0  0.108
  H  H225  1  0.381500  0.127000  0.402100  1.0  0.1032
  H  H226  1  0.227900  0.193600  0.363100  1.0  0.0984
  H  H227  1  0.377600  0.200400  0.356000  1.0  0.1152
  H  H228  1  0.233400  0.119700  0.405300  1.0  0.1072
  H  H229  1  0.237500  0.279200  0.357500  1.0  0.1107
  H  H230  1  0.381500  0.873000  0.597900  1.0  0.1038
  H  H231  1  0.227900  0.806400  0.636900  1.0  0.0989
  H  H232  1  0.377600  0.799600  0.644000  1.0  0.1151
  H  H233  1  0.233400  0.880300  0.594700  1.0  0.107
  H  H234  1  0.237500  0.720800  0.642500  1.0  0.1104
  H  H235  1  0.618500  0.873000  0.402100  1.0  0.1029
  H  H236  1  0.772100  0.806400  0.363100  1.0  0.0991
  H  H237  1  0.622400  0.799600  0.356000  1.0  0.1152
  H  H238  1  0.766600  0.880300  0.405300  1.0  0.1072
  H  H239  1  0.762500  0.720800  0.357500  1.0  0.1102
  H  H240  1  0.618500  0.127000  0.597900  1.0  0.1027
  H  H241  1  0.772100  0.193600  0.636900  1.0  0.0993
  H  H242  1  0.622400  0.200400  0.644000  1.0  0.1146
  H  H243  1  0.766600  0.119700  0.594700  1.0  0.1068
  H  H244  1  0.762500  0.279200  0.642500  1.0  0.1098
  H  H245  1  0.402100  0.381500  0.127000  1.0  0.1031
  H  H246  1  0.363100  0.227900  0.193600  1.0  0.0973
  H  H247  1  0.356000  0.377600  0.200400  1.0  0.1136
  H  H248  1  0.405300  0.233400  0.119700  1.0  0.1072
  H  H249  1  0.357500  0.237500  0.279200  1.0  0.1083
  H  H250  1  0.597900  0.381500  0.873000  1.0  0.1027
  H  H251  1  0.636900  0.227900  0.806400  1.0  0.0962
  H  H252  1  0.644000  0.377600  0.799600  1.0  0.1136
  H  H253  1  0.594700  0.233400  0.880300  1.0  0.1074
  H  H254  1  0.642500  0.237500  0.720800  1.0  0.109
  H  H255  1  0.402100  0.618500  0.873000  1.0  0.1026
  H  H256  1  0.363100  0.772100  0.806400  1.0  0.0976
  H  H257  1  0.356000  0.622400  0.799600  1.0  0.1132
  H  H258  1  0.405300  0.766600  0.880300  1.0  0.1077
  H  H259  1  0.357500  0.762500  0.720800  1.0  0.1085
  H  H260  1  0.597900  0.618500  0.127000  1.0  0.1026
  H  H261  1  0.636900  0.772100  0.193600  1.0  0.097
  H  H262  1  0.644000  0.622400  0.200400  1.0  0.1135
  H  H263  1  0.594700  0.766600  0.119700  1.0  0.1072
  H  H264  1  0.642500  0.762500  0.279200  1.0  0.1087
  C  C265  1  0.294200  0.145300  0.197300  1.0  0.033
  C  C266  1  0.430400  0.061900  0.190200  1.0  0.6953
  C  C267  1  0.359800  0.106500  0.149200  1.0  -0.0398
  C  C268  1  0.319700  0.129700  0.241100  1.0  -0.1275
  C  C269  1  0.315000  0.133800  0.151400  1.0  -0.1042
  C  C270  1  0.363900  0.104200  0.237800  1.0  -0.0456
  C  C271  1  0.216500  0.169500  0.241400  1.0  -0.1223
  C  C272  1  0.384300  0.092400  0.192100  1.0  -0.1351
  C  C273  1  0.249300  0.177000  0.202300  1.0  0.0249
  C  C274  1  0.705800  0.854700  0.197300  1.0  0.0364
  C  C275  1  0.569600  0.938100  0.190200  1.0  0.695
  C  C276  1  0.640200  0.893500  0.149200  1.0  -0.0405
  C  C277  1  0.680300  0.870300  0.241100  1.0  -0.1258
  C  C278  1  0.685000  0.866200  0.151400  1.0  -0.1054
  C  C279  1  0.636100  0.895800  0.237800  1.0  -0.0454
  C  C280  1  0.783500  0.830500  0.241400  1.0  -0.1228
  C  C281  1  0.615700  0.907600  0.192100  1.0  -0.1327
  C  C282  1  0.750700  0.823000  0.202300  1.0  0.0239
  C  C283  1  0.705800  0.145300  0.802700  1.0  0.0346
  C  C284  1  0.569600  0.061900  0.809800  1.0  0.6951
  C  C285  1  0.640200  0.106500  0.850800  1.0  -0.043
  C  C286  1  0.680300  0.129700  0.758900  1.0  -0.125
  C  C287  1  0.685000  0.133800  0.848600  1.0  -0.1065
  C  C288  1  0.636100  0.104200  0.762200  1.0  -0.0454
  C  C289  1  0.783500  0.169500  0.758600  1.0  -0.1256
  C  C290  1  0.615700  0.092400  0.807900  1.0  -0.134
  C  C291  1  0.750700  0.177000  0.797700  1.0  0.025
  C  C292  1  0.294200  0.854700  0.802700  1.0  0.0355
  C  C293  1  0.430400  0.938100  0.809800  1.0  0.6954
  C  C294  1  0.359800  0.893500  0.850800  1.0  -0.0427
  C  C295  1  0.319700  0.870300  0.758900  1.0  -0.1262
  C  C296  1  0.315000  0.866200  0.848600  1.0  -0.1062
  C  C297  1  0.363900  0.895800  0.762200  1.0  -0.0474
  C  C298  1  0.216500  0.830500  0.758600  1.0  -0.1238
  C  C299  1  0.384300  0.907600  0.807900  1.0  -0.1346
  C  C300  1  0.249300  0.823000  0.797700  1.0  0.022
  C  C301  1  0.197300  0.294200  0.145300  1.0  0.0348
  C  C302  1  0.190200  0.430400  0.061900  1.0  0.6965
  C  C303  1  0.149200  0.359800  0.106500  1.0  -0.0372
  C  C304  1  0.241100  0.319700  0.129700  1.0  -0.1215
  C  C305  1  0.151400  0.315000  0.133800  1.0  -0.1035
  C  C306  1  0.237800  0.363900  0.104200  1.0  -0.0415
  C  C307  1  0.241400  0.216500  0.169500  1.0  -0.1263
  C  C308  1  0.192100  0.384300  0.092400  1.0  -0.131
  C  C309  1  0.202300  0.249300  0.177000  1.0  0.0224
  C  C310  1  0.197300  0.705800  0.854700  1.0  0.0364
  C  C311  1  0.190200  0.569600  0.938100  1.0  0.6962
  C  C312  1  0.149200  0.640200  0.893500  1.0  -0.0363
  C  C313  1  0.241100  0.680300  0.870300  1.0  -0.1227
  C  C314  1  0.151400  0.685000  0.866200  1.0  -0.1056
  C  C315  1  0.237800  0.636100  0.895800  1.0  -0.041
  C  C316  1  0.241400  0.783500  0.830500  1.0  -0.1288
  C  C317  1  0.192100  0.615700  0.907600  1.0  -0.1324
  C  C318  1  0.202300  0.750700  0.823000  1.0  0.0238
  C  C319  1  0.802700  0.705800  0.145300  1.0  0.0371
  C  C320  1  0.809800  0.569600  0.061900  1.0  0.6959
  C  C321  1  0.850800  0.640200  0.106500  1.0  -0.0362
  C  C322  1  0.758900  0.680300  0.129700  1.0  -0.1219
  C  C323  1  0.848600  0.685000  0.133800  1.0  -0.102
  C  C324  1  0.762200  0.636100  0.104200  1.0  -0.0413
  C  C325  1  0.758600  0.783500  0.169500  1.0  -0.1267
  C  C326  1  0.807900  0.615700  0.092400  1.0  -0.1331
  C  C327  1  0.797700  0.750700  0.177000  1.0  0.0212
  C  C328  1  0.802700  0.294200  0.854700  1.0  0.0375
  C  C329  1  0.809800  0.430400  0.938100  1.0  0.6963
  C  C330  1  0.850800  0.359800  0.893500  1.0  -0.0363
  C  C331  1  0.758900  0.319700  0.870300  1.0  -0.1242
  C  C332  1  0.848600  0.315000  0.866200  1.0  -0.1029
  C  C333  1  0.762200  0.363900  0.895800  1.0  -0.0427
  C  C334  1  0.758600  0.216500  0.830500  1.0  -0.1293
  C  C335  1  0.807900  0.384300  0.907600  1.0  -0.1331
  C  C336  1  0.797700  0.249300  0.823000  1.0  0.0251
  C  C337  1  0.145300  0.197300  0.294200  1.0  0.035
  C  C338  1  0.061900  0.190200  0.430400  1.0  0.6974
  C  C339  1  0.106500  0.149200  0.359800  1.0  -0.042
  C  C340  1  0.129700  0.241100  0.319700  1.0  -0.1234
  C  C341  1  0.133800  0.151400  0.315000  1.0  -0.1022
  C  C342  1  0.104200  0.237800  0.363900  1.0  -0.041
  C  C343  1  0.169500  0.241400  0.216500  1.0  -0.1292
  C  C344  1  0.092400  0.192100  0.384300  1.0  -0.1322
  C  C345  1  0.177000  0.202300  0.249300  1.0  0.0261
  C  C346  1  0.854700  0.197300  0.705800  1.0  0.0341
  C  C347  1  0.938100  0.190200  0.569600  1.0  0.6962
  C  C348  1  0.893500  0.149200  0.640200  1.0  -0.0409
  C  C349  1  0.870300  0.241100  0.680300  1.0  -0.1212
  C  C350  1  0.866200  0.151400  0.685000  1.0  -0.1024
  C  C351  1  0.895800  0.237800  0.636100  1.0  -0.0416
  C  C352  1  0.830500  0.241400  0.783500  1.0  -0.1296
  C  C353  1  0.907600  0.192100  0.615700  1.0  -0.1338
  C  C354  1  0.823000  0.202300  0.750700  1.0  0.0274
  C  C355  1  0.145300  0.802700  0.705800  1.0  0.034
  C  C356  1  0.061900  0.809800  0.569600  1.0  0.6966
  C  C357  1  0.106500  0.850800  0.640200  1.0  -0.0429
  C  C358  1  0.129700  0.758900  0.680300  1.0  -0.1228
  C  C359  1  0.133800  0.848600  0.685000  1.0  -0.1015
  C  C360  1  0.104200  0.762200  0.636100  1.0  -0.0395
  C  C361  1  0.169500  0.758600  0.783500  1.0  -0.1296
  C  C362  1  0.092400  0.807900  0.615700  1.0  -0.1325
  C  C363  1  0.177000  0.797700  0.750700  1.0  0.0254
  C  C364  1  0.854700  0.802700  0.294200  1.0  0.035
  C  C365  1  0.938100  0.809800  0.430400  1.0  0.6969
  C  C366  1  0.893500  0.850800  0.359800  1.0  -0.0413
  C  C367  1  0.870300  0.758900  0.319700  1.0  -0.1217
  C  C368  1  0.866200  0.848600  0.315000  1.0  -0.1036
  C  C369  1  0.895800  0.762200  0.363900  1.0  -0.0406
  C  C370  1  0.830500  0.758600  0.216500  1.0  -0.1289
  C  C371  1  0.907600  0.807900  0.384300  1.0  -0.1344
  C  C372  1  0.823000  0.797700  0.249300  1.0  0.0256
  C  C373  1  0.705800  0.854700  0.802700  1.0  0.0366
  C  C374  1  0.569600  0.938100  0.809800  1.0  0.6951
  C  C375  1  0.640200  0.893500  0.850800  1.0  -0.0437
  C  C376  1  0.680300  0.870300  0.758900  1.0  -0.126
  C  C377  1  0.685000  0.866200  0.848600  1.0  -0.105
  C  C378  1  0.636100  0.895800  0.762200  1.0  -0.0455
  C  C379  1  0.783500  0.830500  0.758600  1.0  -0.1248
  C  C380  1  0.615700  0.907600  0.807900  1.0  -0.1331
  C  C381  1  0.750700  0.823000  0.797700  1.0  0.0228
  C  C382  1  0.294200  0.145300  0.802700  1.0  0.0339
  C  C383  1  0.430400  0.061900  0.809800  1.0  0.6952
  C  C384  1  0.359800  0.106500  0.850800  1.0  -0.0422
  C  C385  1  0.319700  0.129700  0.758900  1.0  -0.126
  C  C386  1  0.315000  0.133800  0.848600  1.0  -0.1067
  C  C387  1  0.363900  0.104200  0.762200  1.0  -0.047
  C  C388  1  0.216500  0.169500  0.758600  1.0  -0.1247
  C  C389  1  0.384300  0.092400  0.807900  1.0  -0.1354
  C  C390  1  0.249300  0.177000  0.797700  1.0  0.0247
  C  C391  1  0.294200  0.854700  0.197300  1.0  0.0341
  C  C392  1  0.430400  0.938100  0.190200  1.0  0.6953
  C  C393  1  0.359800  0.893500  0.149200  1.0  -0.0409
  C  C394  1  0.319700  0.870300  0.241100  1.0  -0.1257
  C  C395  1  0.315000  0.866200  0.151400  1.0  -0.1042
  C  C396  1  0.363900  0.895800  0.237800  1.0  -0.0458
  C  C397  1  0.216500  0.830500  0.241400  1.0  -0.1219
  C  C398  1  0.384300  0.907600  0.192100  1.0  -0.1342
  C  C399  1  0.249300  0.823000  0.202300  1.0  0.0244
  C  C400  1  0.705800  0.145300  0.197300  1.0  0.0345
  C  C401  1  0.569600  0.061900  0.190200  1.0  0.6952
  C  C402  1  0.640200  0.106500  0.149200  1.0  -0.0396
  C  C403  1  0.680300  0.129700  0.241100  1.0  -0.1268
  C  C404  1  0.685000  0.133800  0.151400  1.0  -0.1063
  C  C405  1  0.636100  0.104200  0.237800  1.0  -0.0449
  C  C406  1  0.783500  0.169500  0.241400  1.0  -0.123
  C  C407  1  0.615700  0.092400  0.192100  1.0  -0.1338
  C  C408  1  0.750700  0.177000  0.202300  1.0  0.0251
  C  C409  1  0.802700  0.705800  0.854700  1.0  0.0382
  C  C410  1  0.809800  0.569600  0.938100  1.0  0.696
  C  C411  1  0.850800  0.640200  0.893500  1.0  -0.0361
  C  C412  1  0.758900  0.680300  0.870300  1.0  -0.1245
  C  C413  1  0.848600  0.685000  0.866200  1.0  -0.1021
  C  C414  1  0.762200  0.636100  0.895800  1.0  -0.0419
  C  C415  1  0.758600  0.783500  0.830500  1.0  -0.129
  C  C416  1  0.807900  0.615700  0.907600  1.0  -0.1333
  C  C417  1  0.797700  0.750700  0.823000  1.0  0.0233
  C  C418  1  0.802700  0.294200  0.145300  1.0  0.0347
  C  C419  1  0.809800  0.430400  0.061900  1.0  0.6961
  C  C420  1  0.850800  0.359800  0.106500  1.0  -0.0363
  C  C421  1  0.758900  0.319700  0.129700  1.0  -0.1221
  C  C422  1  0.848600  0.315000  0.133800  1.0  -0.1029
  C  C423  1  0.762200  0.363900  0.104200  1.0  -0.0418
  C  C424  1  0.758600  0.216500  0.169500  1.0  -0.1269
  C  C425  1  0.807900  0.384300  0.092400  1.0  -0.1321
  C  C426  1  0.797700  0.249300  0.177000  1.0  0.0215
  C  C427  1  0.197300  0.294200  0.854700  1.0  0.0362
  C  C428  1  0.190200  0.430400  0.938100  1.0  0.6966
  C  C429  1  0.149200  0.359800  0.893500  1.0  -0.0367
  C  C430  1  0.241100  0.319700  0.870300  1.0  -0.1225
  C  C431  1  0.151400  0.315000  0.866200  1.0  -0.1043
  C  C432  1  0.237800  0.363900  0.895800  1.0  -0.0413
  C  C433  1  0.241400  0.216500  0.830500  1.0  -0.1288
  C  C434  1  0.192100  0.384300  0.907600  1.0  -0.1319
  C  C435  1  0.202300  0.249300  0.823000  1.0  0.025
  C  C436  1  0.197300  0.705800  0.145300  1.0  0.0377
  C  C437  1  0.190200  0.569600  0.061900  1.0  0.6963
  C  C438  1  0.149200  0.640200  0.106500  1.0  -0.0368
  C  C439  1  0.241100  0.680300  0.129700  1.0  -0.1211
  C  C440  1  0.151400  0.685000  0.133800  1.0  -0.1047
  C  C441  1  0.237800  0.636100  0.104200  1.0  -0.0413
  C  C442  1  0.241400  0.783500  0.169500  1.0  -0.1252
  C  C443  1  0.192100  0.615700  0.092400  1.0  -0.1321
  C  C444  1  0.202300  0.750700  0.177000  1.0  0.0222
  C  C445  1  0.854700  0.802700  0.705800  1.0  0.0336
  C  C446  1  0.938100  0.809800  0.569600  1.0  0.6962
  C  C447  1  0.893500  0.850800  0.640200  1.0  -0.0415
  C  C448  1  0.870300  0.758900  0.680300  1.0  -0.1211
  C  C449  1  0.866200  0.848600  0.685000  1.0  -0.104
  C  C450  1  0.895800  0.762200  0.636100  1.0  -0.0408
  C  C451  1  0.830500  0.758600  0.783500  1.0  -0.1294
  C  C452  1  0.907600  0.807900  0.615700  1.0  -0.1334
  C  C453  1  0.823000  0.797700  0.750700  1.0  0.0267
  C  C454  1  0.145300  0.802700  0.294200  1.0  0.0349
  C  C455  1  0.061900  0.809800  0.430400  1.0  0.6973
  C  C456  1  0.106500  0.850800  0.359800  1.0  -0.0423
  C  C457  1  0.129700  0.758900  0.319700  1.0  -0.1228
  C  C458  1  0.133800  0.848600  0.315000  1.0  -0.1025
  C  C459  1  0.104200  0.762200  0.363900  1.0  -0.04
  C  C460  1  0.169500  0.758600  0.216500  1.0  -0.1287
  C  C461  1  0.092400  0.807900  0.384300  1.0  -0.1324
  C  C462  1  0.177000  0.797700  0.249300  1.0  0.0254
  C  C463  1  0.854700  0.197300  0.294200  1.0  0.0348
  C  C464  1  0.938100  0.190200  0.430400  1.0  0.697
  C  C465  1  0.893500  0.149200  0.359800  1.0  -0.0411
  C  C466  1  0.870300  0.241100  0.319700  1.0  -0.1217
  C  C467  1  0.866200  0.151400  0.315000  1.0  -0.1025
  C  C468  1  0.895800  0.237800  0.363900  1.0  -0.0419
  C  C469  1  0.830500  0.241400  0.216500  1.0  -0.1288
  C  C470  1  0.907600  0.192100  0.384300  1.0  -0.1343
  C  C471  1  0.823000  0.202300  0.249300  1.0  0.0257
  C  C472  1  0.145300  0.197300  0.705800  1.0  0.0343
  C  C473  1  0.061900  0.190200  0.569600  1.0  0.6966
  C  C474  1  0.106500  0.149200  0.640200  1.0  -0.042
  C  C475  1  0.129700  0.241100  0.680300  1.0  -0.1234
  C  C476  1  0.133800  0.151400  0.685000  1.0  -0.1008
  C  C477  1  0.104200  0.237800  0.636100  1.0  -0.0402
  C  C478  1  0.169500  0.241400  0.783500  1.0  -0.1299
  C  C479  1  0.092400  0.192100  0.615700  1.0  -0.1328
  C  C480  1  0.177000  0.202300  0.750700  1.0  0.0268
  C  C481  1  0.794200  0.645300  0.697300  1.0  0.033
  C  C482  1  0.930400  0.561900  0.690200  1.0  0.6953
  C  C483  1  0.859800  0.606500  0.649200  1.0  -0.0398
  C  C484  1  0.819700  0.629700  0.741100  1.0  -0.1275
  C  C485  1  0.815000  0.633800  0.651400  1.0  -0.1042
  C  C486  1  0.863900  0.604200  0.737800  1.0  -0.0456
  C  C487  1  0.716500  0.669500  0.741400  1.0  -0.1223
  C  C488  1  0.884300  0.592400  0.692100  1.0  -0.1351
  C  C489  1  0.749300  0.677000  0.702300  1.0  0.0249
  C  C490  1  0.205800  0.354700  0.697300  1.0  0.0364
  C  C491  1  0.069600  0.438100  0.690200  1.0  0.695
  C  C492  1  0.140200  0.393500  0.649200  1.0  -0.0405
  C  C493  1  0.180300  0.370300  0.741100  1.0  -0.1258
  C  C494  1  0.185000  0.366200  0.651400  1.0  -0.1054
  C  C495  1  0.136100  0.395800  0.737800  1.0  -0.0454
  C  C496  1  0.283500  0.330500  0.741400  1.0  -0.1228
  C  C497  1  0.115700  0.407600  0.692100  1.0  -0.1327
  C  C498  1  0.250700  0.323000  0.702300  1.0  0.0239
  C  C499  1  0.205800  0.645300  0.302700  1.0  0.0346
  C  C500  1  0.069600  0.561900  0.309800  1.0  0.6951
  C  C501  1  0.140200  0.606500  0.350800  1.0  -0.043
  C  C502  1  0.180300  0.629700  0.258900  1.0  -0.125
  C  C503  1  0.185000  0.633800  0.348600  1.0  -0.1065
  C  C504  1  0.136100  0.604200  0.262200  1.0  -0.0454
  C  C505  1  0.283500  0.669500  0.258600  1.0  -0.1256
  C  C506  1  0.115700  0.592400  0.307900  1.0  -0.134
  C  C507  1  0.250700  0.677000  0.297700  1.0  0.025
  C  C508  1  0.794200  0.354700  0.302700  1.0  0.0355
  C  C509  1  0.930400  0.438100  0.309800  1.0  0.6954
  C  C510  1  0.859800  0.393500  0.350800  1.0  -0.0427
  C  C511  1  0.819700  0.370300  0.258900  1.0  -0.1262
  C  C512  1  0.815000  0.366200  0.348600  1.0  -0.1062
  C  C513  1  0.863900  0.395800  0.262200  1.0  -0.0474
  C  C514  1  0.716500  0.330500  0.258600  1.0  -0.1238
  C  C515  1  0.884300  0.407600  0.307900  1.0  -0.1346
  C  C516  1  0.749300  0.323000  0.297700  1.0  0.022
  C  C517  1  0.697300  0.794200  0.645300  1.0  0.0348
  C  C518  1  0.690200  0.930400  0.561900  1.0  0.6965
  C  C519  1  0.649200  0.859800  0.606500  1.0  -0.0372
  C  C520  1  0.741100  0.819700  0.629700  1.0  -0.1215
  C  C521  1  0.651400  0.815000  0.633800  1.0  -0.1035
  C  C522  1  0.737800  0.863900  0.604200  1.0  -0.0415
  C  C523  1  0.741400  0.716500  0.669500  1.0  -0.1263
  C  C524  1  0.692100  0.884300  0.592400  1.0  -0.131
  C  C525  1  0.702300  0.749300  0.677000  1.0  0.0224
  C  C526  1  0.697300  0.205800  0.354700  1.0  0.0364
  C  C527  1  0.690200  0.069600  0.438100  1.0  0.6962
  C  C528  1  0.649200  0.140200  0.393500  1.0  -0.0363
  C  C529  1  0.741100  0.180300  0.370300  1.0  -0.1227
  C  C530  1  0.651400  0.185000  0.366200  1.0  -0.1056
  C  C531  1  0.737800  0.136100  0.395800  1.0  -0.041
  C  C532  1  0.741400  0.283500  0.330500  1.0  -0.1288
  C  C533  1  0.692100  0.115700  0.407600  1.0  -0.1324
  C  C534  1  0.702300  0.250700  0.323000  1.0  0.0238
  C  C535  1  0.302700  0.205800  0.645300  1.0  0.0371
  C  C536  1  0.309800  0.069600  0.561900  1.0  0.6959
  C  C537  1  0.350800  0.140200  0.606500  1.0  -0.0362
  C  C538  1  0.258900  0.180300  0.629700  1.0  -0.1219
  C  C539  1  0.348600  0.185000  0.633800  1.0  -0.102
  C  C540  1  0.262200  0.136100  0.604200  1.0  -0.0413
  C  C541  1  0.258600  0.283500  0.669500  1.0  -0.1267
  C  C542  1  0.307900  0.115700  0.592400  1.0  -0.1331
  C  C543  1  0.297700  0.250700  0.677000  1.0  0.0212
  C  C544  1  0.302700  0.794200  0.354700  1.0  0.0375
  C  C545  1  0.309800  0.930400  0.438100  1.0  0.6963
  C  C546  1  0.350800  0.859800  0.393500  1.0  -0.0363
  C  C547  1  0.258900  0.819700  0.370300  1.0  -0.1242
  C  C548  1  0.348600  0.815000  0.366200  1.0  -0.1029
  C  C549  1  0.262200  0.863900  0.395800  1.0  -0.0427
  C  C550  1  0.258600  0.716500  0.330500  1.0  -0.1293
  C  C551  1  0.307900  0.884300  0.407600  1.0  -0.1331
  C  C552  1  0.297700  0.749300  0.323000  1.0  0.0251
  C  C553  1  0.645300  0.697300  0.794200  1.0  0.035
  C  C554  1  0.561900  0.690200  0.930400  1.0  0.6974
  C  C555  1  0.606500  0.649200  0.859800  1.0  -0.042
  C  C556  1  0.629700  0.741100  0.819700  1.0  -0.1234
  C  C557  1  0.633800  0.651400  0.815000  1.0  -0.1022
  C  C558  1  0.604200  0.737800  0.863900  1.0  -0.041
  C  C559  1  0.669500  0.741400  0.716500  1.0  -0.1292
  C  C560  1  0.592400  0.692100  0.884300  1.0  -0.1322
  C  C561  1  0.677000  0.702300  0.749300  1.0  0.0261
  C  C562  1  0.354700  0.697300  0.205800  1.0  0.0341
  C  C563  1  0.438100  0.690200  0.069600  1.0  0.6962
  C  C564  1  0.393500  0.649200  0.140200  1.0  -0.0409
  C  C565  1  0.370300  0.741100  0.180300  1.0  -0.1212
  C  C566  1  0.366200  0.651400  0.185000  1.0  -0.1024
  C  C567  1  0.395800  0.737800  0.136100  1.0  -0.0416
  C  C568  1  0.330500  0.741400  0.283500  1.0  -0.1296
  C  C569  1  0.407600  0.692100  0.115700  1.0  -0.1338
  C  C570  1  0.323000  0.702300  0.250700  1.0  0.0274
  C  C571  1  0.645300  0.302700  0.205800  1.0  0.034
  C  C572  1  0.561900  0.309800  0.069600  1.0  0.6966
  C  C573  1  0.606500  0.350800  0.140200  1.0  -0.0429
  C  C574  1  0.629700  0.258900  0.180300  1.0  -0.1228
  C  C575  1  0.633800  0.348600  0.185000  1.0  -0.1015
  C  C576  1  0.604200  0.262200  0.136100  1.0  -0.0395
  C  C577  1  0.669500  0.258600  0.283500  1.0  -0.1296
  C  C578  1  0.592400  0.307900  0.115700  1.0  -0.1325
  C  C579  1  0.677000  0.297700  0.250700  1.0  0.0254
  C  C580  1  0.354700  0.302700  0.794200  1.0  0.035
  C  C581  1  0.438100  0.309800  0.930400  1.0  0.6969
  C  C582  1  0.393500  0.350800  0.859800  1.0  -0.0413
  C  C583  1  0.370300  0.258900  0.819700  1.0  -0.1217
  C  C584  1  0.366200  0.348600  0.815000  1.0  -0.1036
  C  C585  1  0.395800  0.262200  0.863900  1.0  -0.0406
  C  C586  1  0.330500  0.258600  0.716500  1.0  -0.1289
  C  C587  1  0.407600  0.307900  0.884300  1.0  -0.1344
  C  C588  1  0.323000  0.297700  0.749300  1.0  0.0256
  C  C589  1  0.205800  0.354700  0.302700  1.0  0.0366
  C  C590  1  0.069600  0.438100  0.309800  1.0  0.6951
  C  C591  1  0.140200  0.393500  0.350800  1.0  -0.0437
  C  C592  1  0.180300  0.370300  0.258900  1.0  -0.126
  C  C593  1  0.185000  0.366200  0.348600  1.0  -0.105
  C  C594  1  0.136100  0.395800  0.262200  1.0  -0.0455
  C  C595  1  0.283500  0.330500  0.258600  1.0  -0.1248
  C  C596  1  0.115700  0.407600  0.307900  1.0  -0.1331
  C  C597  1  0.250700  0.323000  0.297700  1.0  0.0228
  C  C598  1  0.794200  0.645300  0.302700  1.0  0.0339
  C  C599  1  0.930400  0.561900  0.309800  1.0  0.6952
  C  C600  1  0.859800  0.606500  0.350800  1.0  -0.0422
  C  C601  1  0.819700  0.629700  0.258900  1.0  -0.126
  C  C602  1  0.815000  0.633800  0.348600  1.0  -0.1067
  C  C603  1  0.863900  0.604200  0.262200  1.0  -0.047
  C  C604  1  0.716500  0.669500  0.258600  1.0  -0.1247
  C  C605  1  0.884300  0.592400  0.307900  1.0  -0.1354
  C  C606  1  0.749300  0.677000  0.297700  1.0  0.0247
  C  C607  1  0.794200  0.354700  0.697300  1.0  0.0341
  C  C608  1  0.930400  0.438100  0.690200  1.0  0.6953
  C  C609  1  0.859800  0.393500  0.649200  1.0  -0.0409
  C  C610  1  0.819700  0.370300  0.741100  1.0  -0.1257
  C  C611  1  0.815000  0.366200  0.651400  1.0  -0.1042
  C  C612  1  0.863900  0.395800  0.737800  1.0  -0.0458
  C  C613  1  0.716500  0.330500  0.741400  1.0  -0.1219
  C  C614  1  0.884300  0.407600  0.692100  1.0  -0.1342
  C  C615  1  0.749300  0.323000  0.702300  1.0  0.0244
  C  C616  1  0.205800  0.645300  0.697300  1.0  0.0345
  C  C617  1  0.069600  0.561900  0.690200  1.0  0.6952
  C  C618  1  0.140200  0.606500  0.649200  1.0  -0.0396
  C  C619  1  0.180300  0.629700  0.741100  1.0  -0.1268
  C  C620  1  0.185000  0.633800  0.651400  1.0  -0.1063
  C  C621  1  0.136100  0.604200  0.737800  1.0  -0.0449
  C  C622  1  0.283500  0.669500  0.741400  1.0  -0.123
  C  C623  1  0.115700  0.592400  0.692100  1.0  -0.1338
  C  C624  1  0.250700  0.677000  0.702300  1.0  0.0251
  C  C625  1  0.302700  0.205800  0.354700  1.0  0.0382
  C  C626  1  0.309800  0.069600  0.438100  1.0  0.696
  C  C627  1  0.350800  0.140200  0.393500  1.0  -0.0361
  C  C628  1  0.258900  0.180300  0.370300  1.0  -0.1245
  C  C629  1  0.348600  0.185000  0.366200  1.0  -0.1021
  C  C630  1  0.262200  0.136100  0.395800  1.0  -0.0419
  C  C631  1  0.258600  0.283500  0.330500  1.0  -0.129
  C  C632  1  0.307900  0.115700  0.407600  1.0  -0.1333
  C  C633  1  0.297700  0.250700  0.323000  1.0  0.0233
  C  C634  1  0.302700  0.794200  0.645300  1.0  0.0347
  C  C635  1  0.309800  0.930400  0.561900  1.0  0.6961
  C  C636  1  0.350800  0.859800  0.606500  1.0  -0.0363
  C  C637  1  0.258900  0.819700  0.629700  1.0  -0.1221
  C  C638  1  0.348600  0.815000  0.633800  1.0  -0.1029
  C  C639  1  0.262200  0.863900  0.604200  1.0  -0.0418
  C  C640  1  0.258600  0.716500  0.669500  1.0  -0.1269
  C  C641  1  0.307900  0.884300  0.592400  1.0  -0.1321
  C  C642  1  0.297700  0.749300  0.677000  1.0  0.0215
  C  C643  1  0.697300  0.794200  0.354700  1.0  0.0362
  C  C644  1  0.690200  0.930400  0.438100  1.0  0.6966
  C  C645  1  0.649200  0.859800  0.393500  1.0  -0.0367
  C  C646  1  0.741100  0.819700  0.370300  1.0  -0.1225
  C  C647  1  0.651400  0.815000  0.366200  1.0  -0.1043
  C  C648  1  0.737800  0.863900  0.395800  1.0  -0.0413
  C  C649  1  0.741400  0.716500  0.330500  1.0  -0.1288
  C  C650  1  0.692100  0.884300  0.407600  1.0  -0.1319
  C  C651  1  0.702300  0.749300  0.323000  1.0  0.025
  C  C652  1  0.697300  0.205800  0.645300  1.0  0.0377
  C  C653  1  0.690200  0.069600  0.561900  1.0  0.6963
  C  C654  1  0.649200  0.140200  0.606500  1.0  -0.0368
  C  C655  1  0.741100  0.180300  0.629700  1.0  -0.1211
  C  C656  1  0.651400  0.185000  0.633800  1.0  -0.1047
  C  C657  1  0.737800  0.136100  0.604200  1.0  -0.0413
  C  C658  1  0.741400  0.283500  0.669500  1.0  -0.1252
  C  C659  1  0.692100  0.115700  0.592400  1.0  -0.1321
  C  C660  1  0.702300  0.250700  0.677000  1.0  0.0222
  C  C661  1  0.354700  0.302700  0.205800  1.0  0.0336
  C  C662  1  0.438100  0.309800  0.069600  1.0  0.6962
  C  C663  1  0.393500  0.350800  0.140200  1.0  -0.0415
  C  C664  1  0.370300  0.258900  0.180300  1.0  -0.1211
  C  C665  1  0.366200  0.348600  0.185000  1.0  -0.104
  C  C666  1  0.395800  0.262200  0.136100  1.0  -0.0408
  C  C667  1  0.330500  0.258600  0.283500  1.0  -0.1294
  C  C668  1  0.407600  0.307900  0.115700  1.0  -0.1334
  C  C669  1  0.323000  0.297700  0.250700  1.0  0.0267
  C  C670  1  0.645300  0.302700  0.794200  1.0  0.0349
  C  C671  1  0.561900  0.309800  0.930400  1.0  0.6973
  C  C672  1  0.606500  0.350800  0.859800  1.0  -0.0423
  C  C673  1  0.629700  0.258900  0.819700  1.0  -0.1228
  C  C674  1  0.633800  0.348600  0.815000  1.0  -0.1025
  C  C675  1  0.604200  0.262200  0.863900  1.0  -0.04
  C  C676  1  0.669500  0.258600  0.716500  1.0  -0.1287
  C  C677  1  0.592400  0.307900  0.884300  1.0  -0.1324
  C  C678  1  0.677000  0.297700  0.749300  1.0  0.0254
  C  C679  1  0.354700  0.697300  0.794200  1.0  0.0348
  C  C680  1  0.438100  0.690200  0.930400  1.0  0.697
  C  C681  1  0.393500  0.649200  0.859800  1.0  -0.0411
  C  C682  1  0.370300  0.741100  0.819700  1.0  -0.1217
  C  C683  1  0.366200  0.651400  0.815000  1.0  -0.1025
  C  C684  1  0.395800  0.737800  0.863900  1.0  -0.0419
  C  C685  1  0.330500  0.741400  0.716500  1.0  -0.1288
  C  C686  1  0.407600  0.692100  0.884300  1.0  -0.1343
  C  C687  1  0.323000  0.702300  0.749300  1.0  0.0257
  C  C688  1  0.645300  0.697300  0.205800  1.0  0.0343
  C  C689  1  0.561900  0.690200  0.069600  1.0  0.6966
  C  C690  1  0.606500  0.649200  0.140200  1.0  -0.042
  C  C691  1  0.629700  0.741100  0.180300  1.0  -0.1234
  C  C692  1  0.633800  0.651400  0.185000  1.0  -0.1008
  C  C693  1  0.604200  0.737800  0.136100  1.0  -0.0402
  C  C694  1  0.669500  0.741400  0.283500  1.0  -0.1299
  C  C695  1  0.592400  0.692100  0.115700  1.0  -0.1328
  C  C696  1  0.677000  0.702300  0.250700  1.0  0.0268
  O  O697  1  0.447490  0.050400  0.148820  1.0  -0.5764
  O  O698  1  0.448420  0.049130  0.230910  1.0  -0.5855
  O  O699  1  0.552510  0.949600  0.148820  1.0  -0.5766
  O  O700  1  0.551580  0.950870  0.230910  1.0  -0.5851
  O  O701  1  0.552510  0.050400  0.851180  1.0  -0.5769
  O  O702  1  0.551580  0.049130  0.769090  1.0  -0.584
  O  O703  1  0.447490  0.949600  0.851180  1.0  -0.5759
  O  O704  1  0.448420  0.950870  0.769090  1.0  -0.5851
  O  O705  1  0.148820  0.447490  0.050400  1.0  -0.5774
  O  O706  1  0.230910  0.448420  0.049130  1.0  -0.5842
  O  O707  1  0.148820  0.552510  0.949600  1.0  -0.5776
  O  O708  1  0.230910  0.551580  0.950870  1.0  -0.5839
  O  O709  1  0.851180  0.552510  0.050400  1.0  -0.5778
  O  O710  1  0.769090  0.551580  0.049130  1.0  -0.5829
  O  O711  1  0.851180  0.447490  0.949600  1.0  -0.5788
  O  O712  1  0.769090  0.448420  0.950870  1.0  -0.5831
  O  O713  1  0.050400  0.148820  0.447490  1.0  -0.5801
  O  O714  1  0.049130  0.230910  0.448420  1.0  -0.5847
  O  O715  1  0.949600  0.148820  0.552510  1.0  -0.5792
  O  O716  1  0.950870  0.230910  0.551580  1.0  -0.5856
  O  O717  1  0.050400  0.851180  0.552510  1.0  -0.5793
  O  O718  1  0.049130  0.769090  0.551580  1.0  -0.5855
  O  O719  1  0.949600  0.851180  0.447490  1.0  -0.5795
  O  O720  1  0.950870  0.769090  0.448420  1.0  -0.5846
  O  O721  1  0.552510  0.949600  0.851180  1.0  -0.5767
  O  O722  1  0.551580  0.950870  0.769090  1.0  -0.5836
  O  O723  1  0.447490  0.050400  0.851180  1.0  -0.5762
  O  O724  1  0.448420  0.049130  0.769090  1.0  -0.5855
  O  O725  1  0.447490  0.949600  0.148820  1.0  -0.5763
  O  O726  1  0.448420  0.950870  0.230910  1.0  -0.5854
  O  O727  1  0.552510  0.050400  0.148820  1.0  -0.5767
  O  O728  1  0.551580  0.049130  0.230910  1.0  -0.5854
  O  O729  1  0.851180  0.552510  0.949600  1.0  -0.5785
  O  O730  1  0.769090  0.551580  0.950870  1.0  -0.5831
  O  O731  1  0.851180  0.447490  0.050400  1.0  -0.5778
  O  O732  1  0.769090  0.448420  0.049130  1.0  -0.5829
  O  O733  1  0.148820  0.447490  0.949600  1.0  -0.5777
  O  O734  1  0.230910  0.448420  0.950870  1.0  -0.5841
  O  O735  1  0.148820  0.552510  0.050400  1.0  -0.5773
  O  O736  1  0.230910  0.551580  0.049130  1.0  -0.5838
  O  O737  1  0.949600  0.851180  0.552510  1.0  -0.5798
  O  O738  1  0.950870  0.769090  0.551580  1.0  -0.5851
  O  O739  1  0.050400  0.851180  0.447490  1.0  -0.5791
  O  O740  1  0.049130  0.769090  0.448420  1.0  -0.5848
  O  O741  1  0.949600  0.148820  0.447490  1.0  -0.5793
  O  O742  1  0.950870  0.230910  0.448420  1.0  -0.5851
  O  O743  1  0.050400  0.148820  0.552510  1.0  -0.5799
  O  O744  1  0.049130  0.230910  0.551580  1.0  -0.5851
  O  O745  1  0.947490  0.550400  0.648820  1.0  -0.5764
  O  O746  1  0.948420  0.549130  0.730910  1.0  -0.5855
  O  O747  1  0.052510  0.449600  0.648820  1.0  -0.5766
  O  O748  1  0.051580  0.450870  0.730910  1.0  -0.5851
  O  O749  1  0.052510  0.550400  0.351180  1.0  -0.5769
  O  O750  1  0.051580  0.549130  0.269090  1.0  -0.584
  O  O751  1  0.947490  0.449600  0.351180  1.0  -0.5759
  O  O752  1  0.948420  0.450870  0.269090  1.0  -0.5851
  O  O753  1  0.648820  0.947490  0.550400  1.0  -0.5774
  O  O754  1  0.730910  0.948420  0.549130  1.0  -0.5842
  O  O755  1  0.648820  0.052510  0.449600  1.0  -0.5776
  O  O756  1  0.730910  0.051580  0.450870  1.0  -0.5839
  O  O757  1  0.351180  0.052510  0.550400  1.0  -0.5778
  O  O758  1  0.269090  0.051580  0.549130  1.0  -0.5829
  O  O759  1  0.351180  0.947490  0.449600  1.0  -0.5788
  O  O760  1  0.269090  0.948420  0.450870  1.0  -0.5831
  O  O761  1  0.550400  0.648820  0.947490  1.0  -0.5801
  O  O762  1  0.549130  0.730910  0.948420  1.0  -0.5847
  O  O763  1  0.449600  0.648820  0.052510  1.0  -0.5792
  O  O764  1  0.450870  0.730910  0.051580  1.0  -0.5856
  O  O765  1  0.550400  0.351180  0.052510  1.0  -0.5793
  O  O766  1  0.549130  0.269090  0.051580  1.0  -0.5855
  O  O767  1  0.449600  0.351180  0.947490  1.0  -0.5795
  O  O768  1  0.450870  0.269090  0.948420  1.0  -0.5846
  O  O769  1  0.052510  0.449600  0.351180  1.0  -0.5767
  O  O770  1  0.051580  0.450870  0.269090  1.0  -0.5836
  O  O771  1  0.947490  0.550400  0.351180  1.0  -0.5762
  O  O772  1  0.948420  0.549130  0.269090  1.0  -0.5855
  O  O773  1  0.947490  0.449600  0.648820  1.0  -0.5763
  O  O774  1  0.948420  0.450870  0.730910  1.0  -0.5854
  O  O775  1  0.052510  0.550400  0.648820  1.0  -0.5767
  O  O776  1  0.051580  0.549130  0.730910  1.0  -0.5854
  O  O777  1  0.351180  0.052510  0.449600  1.0  -0.5785
  O  O778  1  0.269090  0.051580  0.450870  1.0  -0.5831
  O  O779  1  0.351180  0.947490  0.550400  1.0  -0.5778
  O  O780  1  0.269090  0.948420  0.549130  1.0  -0.583
  O  O781  1  0.648820  0.947490  0.449600  1.0  -0.5777
  O  O782  1  0.730910  0.948420  0.450870  1.0  -0.5841
  O  O783  1  0.648820  0.052510  0.550400  1.0  -0.5773
  O  O784  1  0.730910  0.051580  0.549130  1.0  -0.5838
  O  O785  1  0.449600  0.351180  0.052510  1.0  -0.5799
  O  O786  1  0.450870  0.269090  0.051580  1.0  -0.5851
  O  O787  1  0.550400  0.351180  0.947490  1.0  -0.5791
  O  O788  1  0.549130  0.269090  0.948420  1.0  -0.5848
  O  O789  1  0.449600  0.648820  0.947490  1.0  -0.5793
  O  O790  1  0.450870  0.730910  0.948420  1.0  -0.5851
  O  O791  1  0.550400  0.648820  0.052510  1.0  -0.5799
  O  O792  1  0.549130  0.730910  0.051580  1.0  -0.5851
