# generated using pymatgen
data_CuH10(C9O2)2
_symmetry_space_group_name_H-M   'P 1'
_cell_length_a   26.94300000
_cell_length_b   26.94300000
_cell_length_c   26.94300000
_cell_angle_alpha   90.00000000
_cell_angle_beta   90.00000000
_cell_angle_gamma   90.00000000
_symmetry_Int_Tables_number   1
_chemical_formula_structural   CuH10(C9O2)2
_chemical_formula_sum   'Cu24 H240 C432 O96'
_cell_volume   19558.60398381
_cell_formula_units_Z   24
loop_
 _symmetry_equiv_pos_site_id
 _symmetry_equiv_pos_as_xyz
  1  'x, y, z'
loop_
 _atom_site_type_symbol
 _atom_site_label
 _atom_site_symmetry_multiplicity
 _atom_site_fract_x
 _atom_site_fract_y
 _atom_site_fract_z
 _atom_site_occupancy
 _atom_site_charge
  Cu  Cu1  1  0.500000  0.000000  0.144090  1.0  0.8718
  Cu  Cu2  1  0.500000  0.000000  0.240490  1.0  0.9084
  Cu  Cu3  1  0.500000  0.000000  0.855910  1.0  0.8717
  Cu  Cu4  1  0.500000  0.000000  0.759510  1.0  0.9109
  Cu  Cu5  1  0.144090  0.500000  0.000000  1.0  0.8703
  Cu  Cu6  1  0.240490  0.500000  0.000000  1.0  0.9124
  Cu  Cu7  1  0.855910  0.500000  0.000000  1.0  0.8722
  Cu  Cu8  1  0.759510  0.500000  0.000000  1.0  0.9118
  Cu  Cu9  1  0.000000  0.144090  0.500000  1.0  0.8726
  Cu  Cu10  1  0.000000  0.240490  0.500000  1.0  0.9133
  Cu  Cu11  1  0.000000  0.855910  0.500000  1.0  0.8721
  Cu  Cu12  1  0.000000  0.759510  0.500000  1.0  0.9152
  Cu  Cu13  1  0.000000  0.500000  0.644090  1.0  0.8718
  Cu  Cu14  1  0.000000  0.500000  0.740490  1.0  0.9084
  Cu  Cu15  1  0.000000  0.500000  0.355910  1.0  0.8717
  Cu  Cu16  1  0.000000  0.500000  0.259510  1.0  0.9109
  Cu  Cu17  1  0.644090  0.000000  0.500000  1.0  0.8703
  Cu  Cu18  1  0.740490  0.000000  0.500000  1.0  0.9124
  Cu  Cu19  1  0.355910  0.000000  0.500000  1.0  0.8722
  Cu  Cu20  1  0.259510  0.000000  0.500000  1.0  0.9118
  Cu  Cu21  1  0.500000  0.644090  0.000000  1.0  0.8726
  Cu  Cu22  1  0.500000  0.740490  0.000000  1.0  0.9133
  Cu  Cu23  1  0.500000  0.355910  0.000000  1.0  0.8721
  Cu  Cu24  1  0.500000  0.259510  0.000000  1.0  0.9152
  H  H25  1  0.373200  0.098100  0.118400  1.0  0.102
  H  H26  1  0.306100  0.136400  0.272300  1.0  0.0939
  H  H27  1  0.299400  0.144000  0.122100  1.0  0.115
  H  H28  1  0.380300  0.094500  0.266500  1.0  0.1044
  H  H29  1  0.220700  0.142500  0.262500  1.0  0.1066
  H  H30  1  0.626800  0.901900  0.118400  1.0  0.1022
  H  H31  1  0.693900  0.863600  0.272300  1.0  0.0948
  H  H32  1  0.700600  0.856000  0.122100  1.0  0.1152
  H  H33  1  0.619700  0.905500  0.266500  1.0  0.1048
  H  H34  1  0.779300  0.857500  0.262500  1.0  0.1059
  H  H35  1  0.626800  0.098100  0.881600  1.0  0.1022
  H  H36  1  0.693900  0.136400  0.727700  1.0  0.0951
  H  H37  1  0.700600  0.144000  0.877900  1.0  0.1152
  H  H38  1  0.619700  0.094500  0.733500  1.0  0.1047
  H  H39  1  0.779300  0.142500  0.737500  1.0  0.1071
  H  H40  1  0.373200  0.901900  0.881600  1.0  0.1021
  H  H41  1  0.306100  0.863600  0.727700  1.0  0.0956
  H  H42  1  0.299400  0.856000  0.877900  1.0  0.1151
  H  H43  1  0.380300  0.905500  0.733500  1.0  0.1048
  H  H44  1  0.220700  0.857500  0.737500  1.0  0.1062
  H  H45  1  0.118400  0.373200  0.098100  1.0  0.1022
  H  H46  1  0.272300  0.306100  0.136400  1.0  0.0984
  H  H47  1  0.122100  0.299400  0.144000  1.0  0.1162
  H  H48  1  0.266500  0.380300  0.094500  1.0  0.1042
  H  H49  1  0.262500  0.220700  0.142500  1.0  0.1089
  H  H50  1  0.118400  0.626800  0.901900  1.0  0.1025
  H  H51  1  0.272300  0.693900  0.863600  1.0  0.0973
  H  H52  1  0.122100  0.700600  0.856000  1.0  0.1165
  H  H53  1  0.266500  0.619700  0.905500  1.0  0.1041
  H  H54  1  0.262500  0.779300  0.857500  1.0  0.1091
  H  H55  1  0.881600  0.626800  0.098100  1.0  0.1028
  H  H56  1  0.727700  0.693900  0.136400  1.0  0.0979
  H  H57  1  0.877900  0.700600  0.144000  1.0  0.1164
  H  H58  1  0.733500  0.619700  0.094500  1.0  0.1037
  H  H59  1  0.737500  0.779300  0.142500  1.0  0.1099
  H  H60  1  0.881600  0.373200  0.901900  1.0  0.103
  H  H61  1  0.727700  0.306100  0.863600  1.0  0.097
  H  H62  1  0.877900  0.299400  0.856000  1.0  0.116
  H  H63  1  0.733500  0.380300  0.905500  1.0  0.1041
  H  H64  1  0.737500  0.220700  0.857500  1.0  0.1094
  H  H65  1  0.098100  0.118400  0.373200  1.0  0.1026
  H  H66  1  0.136400  0.272300  0.306100  1.0  0.0952
  H  H67  1  0.144000  0.122100  0.299400  1.0  0.1136
  H  H68  1  0.094500  0.266500  0.380300  1.0  0.1046
  H  H69  1  0.142500  0.262500  0.220700  1.0  0.1077
  H  H70  1  0.901900  0.118400  0.626800  1.0  0.1029
  H  H71  1  0.863600  0.272300  0.693900  1.0  0.0953
  H  H72  1  0.856000  0.122100  0.700600  1.0  0.1148
  H  H73  1  0.905500  0.266500  0.619700  1.0  0.1046
  H  H74  1  0.857500  0.262500  0.779300  1.0  0.1068
  H  H75  1  0.098100  0.881600  0.626800  1.0  0.1029
  H  H76  1  0.136400  0.727700  0.693900  1.0  0.0942
  H  H77  1  0.144000  0.877900  0.700600  1.0  0.1141
  H  H78  1  0.094500  0.733500  0.619700  1.0  0.1038
  H  H79  1  0.142500  0.737500  0.779300  1.0  0.1078
  H  H80  1  0.901900  0.881600  0.373200  1.0  0.1025
  H  H81  1  0.863600  0.727700  0.306100  1.0  0.095
  H  H82  1  0.856000  0.877900  0.299400  1.0  0.115
  H  H83  1  0.905500  0.733500  0.380300  1.0  0.1044
  H  H84  1  0.857500  0.737500  0.220700  1.0  0.1075
  H  H85  1  0.626800  0.901900  0.881600  1.0  0.1022
  H  H86  1  0.693900  0.863600  0.727700  1.0  0.0956
  H  H87  1  0.700600  0.856000  0.877900  1.0  0.1151
  H  H88  1  0.619700  0.905500  0.733500  1.0  0.1047
  H  H89  1  0.779300  0.857500  0.737500  1.0  0.1062
  H  H90  1  0.373200  0.098100  0.881600  1.0  0.1022
  H  H91  1  0.306100  0.136400  0.727700  1.0  0.0951
  H  H92  1  0.299400  0.144000  0.877900  1.0  0.1151
  H  H93  1  0.380300  0.094500  0.733500  1.0  0.1048
  H  H94  1  0.220700  0.142500  0.737500  1.0  0.1066
  H  H95  1  0.373200  0.901900  0.118400  1.0  0.1022
  H  H96  1  0.306100  0.863600  0.272300  1.0  0.0947
  H  H97  1  0.299400  0.856000  0.122100  1.0  0.1149
  H  H98  1  0.380300  0.905500  0.266500  1.0  0.1047
  H  H99  1  0.220700  0.857500  0.262500  1.0  0.1058
  H  H100  1  0.626800  0.098100  0.118400  1.0  0.1019
  H  H101  1  0.693900  0.136400  0.272300  1.0  0.0942
  H  H102  1  0.700600  0.144000  0.122100  1.0  0.1155
  H  H103  1  0.619700  0.094500  0.266500  1.0  0.1047
  H  H104  1  0.779300  0.142500  0.262500  1.0  0.1069
  H  H105  1  0.881600  0.626800  0.901900  1.0  0.1029
  H  H106  1  0.727700  0.693900  0.863600  1.0  0.0977
  H  H107  1  0.877900  0.700600  0.856000  1.0  0.1163
  H  H108  1  0.733500  0.619700  0.905500  1.0  0.1041
  H  H109  1  0.737500  0.779300  0.857500  1.0  0.1095
  H  H110  1  0.881600  0.373200  0.098100  1.0  0.1032
  H  H111  1  0.727700  0.306100  0.136400  1.0  0.0973
  H  H112  1  0.877900  0.299400  0.144000  1.0  0.1162
  H  H113  1  0.733500  0.380300  0.094500  1.0  0.1039
  H  H114  1  0.737500  0.220700  0.142500  1.0  0.1095
  H  H115  1  0.118400  0.373200  0.901900  1.0  0.1024
  H  H116  1  0.272300  0.306100  0.863600  1.0  0.0981
  H  H117  1  0.122100  0.299400  0.856000  1.0  0.1165
  H  H118  1  0.266500  0.380300  0.905500  1.0  0.1043
  H  H119  1  0.262500  0.220700  0.857500  1.0  0.109
  H  H120  1  0.118400  0.626800  0.098100  1.0  0.1022
  H  H121  1  0.272300  0.693900  0.136400  1.0  0.0976
  H  H122  1  0.122100  0.700600  0.144000  1.0  0.1161
  H  H123  1  0.266500  0.619700  0.094500  1.0  0.1038
  H  H124  1  0.262500  0.779300  0.142500  1.0  0.1089
  H  H125  1  0.901900  0.881600  0.626800  1.0  0.1029
  H  H126  1  0.863600  0.727700  0.693900  1.0  0.0949
  H  H127  1  0.856000  0.877900  0.700600  1.0  0.1146
  H  H128  1  0.905500  0.733500  0.619700  1.0  0.1041
  H  H129  1  0.857500  0.737500  0.779300  1.0  0.107
  H  H130  1  0.098100  0.881600  0.373200  1.0  0.1025
  H  H131  1  0.136400  0.727700  0.306100  1.0  0.0942
  H  H132  1  0.144000  0.877900  0.299400  1.0  0.1143
  H  H133  1  0.094500  0.733500  0.380300  1.0  0.1043
  H  H134  1  0.142500  0.737500  0.220700  1.0  0.1079
  H  H135  1  0.901900  0.118400  0.373200  1.0  0.1025
  H  H136  1  0.863600  0.272300  0.306100  1.0  0.0955
  H  H137  1  0.856000  0.122100  0.299400  1.0  0.1141
  H  H138  1  0.905500  0.266500  0.380300  1.0  0.1049
  H  H139  1  0.857500  0.262500  0.220700  1.0  0.1072
  H  H140  1  0.098100  0.118400  0.626800  1.0  0.1027
  H  H141  1  0.136400  0.272300  0.693900  1.0  0.0952
  H  H142  1  0.144000  0.122100  0.700600  1.0  0.1144
  H  H143  1  0.094500  0.266500  0.619700  1.0  0.1043
  H  H144  1  0.142500  0.262500  0.779300  1.0  0.1075
  H  H145  1  0.873200  0.598100  0.618400  1.0  0.102
  H  H146  1  0.806100  0.636400  0.772300  1.0  0.0939
  H  H147  1  0.799400  0.644000  0.622100  1.0  0.115
  H  H148  1  0.880300  0.594500  0.766500  1.0  0.1044
  H  H149  1  0.720700  0.642500  0.762500  1.0  0.1066
  H  H150  1  0.126800  0.401900  0.618400  1.0  0.1022
  H  H151  1  0.193900  0.363600  0.772300  1.0  0.0948
  H  H152  1  0.200600  0.356000  0.622100  1.0  0.1152
  H  H153  1  0.119700  0.405500  0.766500  1.0  0.1048
  H  H154  1  0.279300  0.357500  0.762500  1.0  0.1059
  H  H155  1  0.126800  0.598100  0.381600  1.0  0.1022
  H  H156  1  0.193900  0.636400  0.227700  1.0  0.0951
  H  H157  1  0.200600  0.644000  0.377900  1.0  0.1152
  H  H158  1  0.119700  0.594500  0.233500  1.0  0.1047
  H  H159  1  0.279300  0.642500  0.237500  1.0  0.1071
  H  H160  1  0.873200  0.401900  0.381600  1.0  0.1021
  H  H161  1  0.806100  0.363600  0.227700  1.0  0.0956
  H  H162  1  0.799400  0.356000  0.377900  1.0  0.1151
  H  H163  1  0.880300  0.405500  0.233500  1.0  0.1048
  H  H164  1  0.720700  0.357500  0.237500  1.0  0.1062
  H  H165  1  0.618400  0.873200  0.598100  1.0  0.1022
  H  H166  1  0.772300  0.806100  0.636400  1.0  0.0984
  H  H167  1  0.622100  0.799400  0.644000  1.0  0.1162
  H  H168  1  0.766500  0.880300  0.594500  1.0  0.1042
  H  H169  1  0.762500  0.720700  0.642500  1.0  0.1089
  H  H170  1  0.618400  0.126800  0.401900  1.0  0.1025
  H  H171  1  0.772300  0.193900  0.363600  1.0  0.0973
  H  H172  1  0.622100  0.200600  0.356000  1.0  0.1165
  H  H173  1  0.766500  0.119700  0.405500  1.0  0.1041
  H  H174  1  0.762500  0.279300  0.357500  1.0  0.1091
  H  H175  1  0.381600  0.126800  0.598100  1.0  0.1028
  H  H176  1  0.227700  0.193900  0.636400  1.0  0.0979
  H  H177  1  0.377900  0.200600  0.644000  1.0  0.1164
  H  H178  1  0.233500  0.119700  0.594500  1.0  0.1037
  H  H179  1  0.237500  0.279300  0.642500  1.0  0.1099
  H  H180  1  0.381600  0.873200  0.401900  1.0  0.103
  H  H181  1  0.227700  0.806100  0.363600  1.0  0.097
  H  H182  1  0.377900  0.799400  0.356000  1.0  0.116
  H  H183  1  0.233500  0.880300  0.405500  1.0  0.1041
  H  H184  1  0.237500  0.720700  0.357500  1.0  0.1094
  H  H185  1  0.598100  0.618400  0.873200  1.0  0.1026
  H  H186  1  0.636400  0.772300  0.806100  1.0  0.0952
  H  H187  1  0.644000  0.622100  0.799400  1.0  0.1136
  H  H188  1  0.594500  0.766500  0.880300  1.0  0.1046
  H  H189  1  0.642500  0.762500  0.720700  1.0  0.1077
  H  H190  1  0.401900  0.618400  0.126800  1.0  0.1029
  H  H191  1  0.363600  0.772300  0.193900  1.0  0.0953
  H  H192  1  0.356000  0.622100  0.200600  1.0  0.1148
  H  H193  1  0.405500  0.766500  0.119700  1.0  0.1046
  H  H194  1  0.357500  0.762500  0.279300  1.0  0.1068
  H  H195  1  0.598100  0.381600  0.126800  1.0  0.1029
  H  H196  1  0.636400  0.227700  0.193900  1.0  0.0942
  H  H197  1  0.644000  0.377900  0.200600  1.0  0.1141
  H  H198  1  0.594500  0.233500  0.119700  1.0  0.1038
  H  H199  1  0.642500  0.237500  0.279300  1.0  0.1078
  H  H200  1  0.401900  0.381600  0.873200  1.0  0.1025
  H  H201  1  0.363600  0.227700  0.806100  1.0  0.095
  H  H202  1  0.356000  0.377900  0.799400  1.0  0.115
  H  H203  1  0.405500  0.233500  0.880300  1.0  0.1044
  H  H204  1  0.357500  0.237500  0.720700  1.0  0.1075
  H  H205  1  0.126800  0.401900  0.381600  1.0  0.1022
  H  H206  1  0.193900  0.363600  0.227700  1.0  0.0956
  H  H207  1  0.200600  0.356000  0.377900  1.0  0.1151
  H  H208  1  0.119700  0.405500  0.233500  1.0  0.1047
  H  H209  1  0.279300  0.357500  0.237500  1.0  0.1062
  H  H210  1  0.873200  0.598100  0.381600  1.0  0.1022
  H  H211  1  0.806100  0.636400  0.227700  1.0  0.0951
  H  H212  1  0.799400  0.644000  0.377900  1.0  0.1151
  H  H213  1  0.880300  0.594500  0.233500  1.0  0.1048
  H  H214  1  0.720700  0.642500  0.237500  1.0  0.1066
  H  H215  1  0.873200  0.401900  0.618400  1.0  0.1022
  H  H216  1  0.806100  0.363600  0.772300  1.0  0.0947
  H  H217  1  0.799400  0.356000  0.622100  1.0  0.1149
  H  H218  1  0.880300  0.405500  0.766500  1.0  0.1047
  H  H219  1  0.720700  0.357500  0.762500  1.0  0.1058
  H  H220  1  0.126800  0.598100  0.618400  1.0  0.1019
  H  H221  1  0.193900  0.636400  0.772300  1.0  0.0942
  H  H222  1  0.200600  0.644000  0.622100  1.0  0.1155
  H  H223  1  0.119700  0.594500  0.766500  1.0  0.1047
  H  H224  1  0.279300  0.642500  0.762500  1.0  0.1069
  H  H225  1  0.381600  0.126800  0.401900  1.0  0.1029
  H  H226  1  0.227700  0.193900  0.363600  1.0  0.0977
  H  H227  1  0.377900  0.200600  0.356000  1.0  0.1163
  H  H228  1  0.233500  0.119700  0.405500  1.0  0.1041
  H  H229  1  0.237500  0.279300  0.357500  1.0  0.1095
  H  H230  1  0.381600  0.873200  0.598100  1.0  0.1032
  H  H231  1  0.227700  0.806100  0.636400  1.0  0.0973
  H  H232  1  0.377900  0.799400  0.644000  1.0  0.1162
  H  H233  1  0.233500  0.880300  0.594500  1.0  0.1039
  H  H234  1  0.237500  0.720700  0.642500  1.0  0.1095
  H  H235  1  0.618400  0.873200  0.401900  1.0  0.1024
  H  H236  1  0.772300  0.806100  0.363600  1.0  0.0981
  H  H237  1  0.622100  0.799400  0.356000  1.0  0.1165
  H  H238  1  0.766500  0.880300  0.405500  1.0  0.1043
  H  H239  1  0.762500  0.720700  0.357500  1.0  0.109
  H  H240  1  0.618400  0.126800  0.598100  1.0  0.1022
  H  H241  1  0.772300  0.193900  0.636400  1.0  0.0976
  H  H242  1  0.622100  0.200600  0.644000  1.0  0.1161
  H  H243  1  0.766500  0.119700  0.594500  1.0  0.1038
  H  H244  1  0.762500  0.279300  0.642500  1.0  0.1089
  H  H245  1  0.401900  0.381600  0.126800  1.0  0.1029
  H  H246  1  0.363600  0.227700  0.193900  1.0  0.0949
  H  H247  1  0.356000  0.377900  0.200600  1.0  0.1146
  H  H248  1  0.405500  0.233500  0.119700  1.0  0.1041
  H  H249  1  0.357500  0.237500  0.279300  1.0  0.107
  H  H250  1  0.598100  0.381600  0.873200  1.0  0.1025
  H  H251  1  0.636400  0.227700  0.806100  1.0  0.0942
  H  H252  1  0.644000  0.377900  0.799400  1.0  0.1143
  H  H253  1  0.594500  0.233500  0.880300  1.0  0.1043
  H  H254  1  0.642500  0.237500  0.720700  1.0  0.1079
  H  H255  1  0.401900  0.618400  0.873200  1.0  0.1025
  H  H256  1  0.363600  0.772300  0.806100  1.0  0.0955
  H  H257  1  0.356000  0.622100  0.799400  1.0  0.1141
  H  H258  1  0.405500  0.766500  0.880300  1.0  0.1049
  H  H259  1  0.357500  0.762500  0.720700  1.0  0.1072
  H  H260  1  0.598100  0.618400  0.126800  1.0  0.1027
  H  H261  1  0.636400  0.772300  0.193900  1.0  0.0952
  H  H262  1  0.644000  0.622100  0.200600  1.0  0.1144
  H  H263  1  0.594500  0.766500  0.119700  1.0  0.1043
  H  H264  1  0.642500  0.762500  0.279300  1.0  0.1075
  C  C265  1  0.294100  0.145100  0.197200  1.0  0.0562
  C  C266  1  0.430600  0.062000  0.190200  1.0  0.6984
  C  C267  1  0.359800  0.106500  0.149100  1.0  -0.0413
  C  C268  1  0.319500  0.129400  0.241300  1.0  -0.137
  C  C269  1  0.314900  0.133700  0.151200  1.0  -0.1146
  C  C270  1  0.363800  0.104000  0.237700  1.0  -0.0384
  C  C271  1  0.216400  0.169500  0.241400  1.0  -0.1284
  C  C272  1  0.384100  0.092200  0.192300  1.0  -0.1311
  C  C273  1  0.249400  0.176800  0.202300  1.0  0.0259
  C  C274  1  0.705900  0.854900  0.197200  1.0  0.0588
  C  C275  1  0.569400  0.938000  0.190200  1.0  0.6979
  C  C276  1  0.640200  0.893500  0.149100  1.0  -0.0419
  C  C277  1  0.680500  0.870600  0.241300  1.0  -0.1356
  C  C278  1  0.685100  0.866300  0.151200  1.0  -0.1163
  C  C279  1  0.636200  0.896000  0.237700  1.0  -0.0386
  C  C280  1  0.783600  0.830500  0.241400  1.0  -0.1296
  C  C281  1  0.615900  0.907800  0.192300  1.0  -0.128
  C  C282  1  0.750600  0.823200  0.202300  1.0  0.0251
  C  C283  1  0.705900  0.145100  0.802800  1.0  0.0572
  C  C284  1  0.569400  0.062000  0.809800  1.0  0.6981
  C  C285  1  0.640200  0.106500  0.850900  1.0  -0.044
  C  C286  1  0.680500  0.129400  0.758700  1.0  -0.1345
  C  C287  1  0.685100  0.133700  0.848800  1.0  -0.1186
  C  C288  1  0.636200  0.104000  0.762300  1.0  -0.038
  C  C289  1  0.783600  0.169500  0.758600  1.0  -0.1316
  C  C290  1  0.615900  0.092200  0.807700  1.0  -0.1296
  C  C291  1  0.750600  0.176800  0.797700  1.0  0.0265
  C  C292  1  0.294100  0.854900  0.802800  1.0  0.0587
  C  C293  1  0.430600  0.938000  0.809800  1.0  0.6986
  C  C294  1  0.359800  0.893500  0.850900  1.0  -0.0432
  C  C295  1  0.319500  0.870600  0.758700  1.0  -0.1356
  C  C296  1  0.314900  0.866300  0.848800  1.0  -0.1179
  C  C297  1  0.363800  0.896000  0.762300  1.0  -0.04
  C  C298  1  0.216400  0.830500  0.758600  1.0  -0.1298
  C  C299  1  0.384100  0.907800  0.807700  1.0  -0.1299
  C  C300  1  0.249400  0.823200  0.797700  1.0  0.024
  C  C301  1  0.197200  0.294100  0.145100  1.0  0.0574
  C  C302  1  0.190200  0.430600  0.062000  1.0  0.6979
  C  C303  1  0.149100  0.359800  0.106500  1.0  -0.0389
  C  C304  1  0.241300  0.319500  0.129400  1.0  -0.1315
  C  C305  1  0.151200  0.314900  0.133700  1.0  -0.1139
  C  C306  1  0.237700  0.363800  0.104000  1.0  -0.0336
  C  C307  1  0.241400  0.216400  0.169500  1.0  -0.1313
  C  C308  1  0.192300  0.384100  0.092200  1.0  -0.1279
  C  C309  1  0.202300  0.249400  0.176800  1.0  0.0233
  C  C310  1  0.197200  0.705900  0.854900  1.0  0.0582
  C  C311  1  0.190200  0.569400  0.938000  1.0  0.6979
  C  C312  1  0.149100  0.640200  0.893500  1.0  -0.0378
  C  C313  1  0.241300  0.680500  0.870600  1.0  -0.1335
  C  C314  1  0.151200  0.685100  0.866300  1.0  -0.1163
  C  C315  1  0.237700  0.636200  0.896000  1.0  -0.0329
  C  C316  1  0.241400  0.783600  0.830500  1.0  -0.1332
  C  C317  1  0.192300  0.615900  0.907800  1.0  -0.1288
  C  C318  1  0.202300  0.750600  0.823200  1.0  0.0253
  C  C319  1  0.802800  0.705900  0.145100  1.0  0.0582
  C  C320  1  0.809800  0.569400  0.062000  1.0  0.6979
  C  C321  1  0.850900  0.640200  0.106500  1.0  -0.037
  C  C322  1  0.758700  0.680500  0.129400  1.0  -0.132
  C  C323  1  0.848800  0.685100  0.133700  1.0  -0.113
  C  C324  1  0.762300  0.636200  0.104000  1.0  -0.0333
  C  C325  1  0.758600  0.783600  0.169500  1.0  -0.1324
  C  C326  1  0.807700  0.615900  0.092200  1.0  -0.1282
  C  C327  1  0.797700  0.750600  0.176800  1.0  0.0223
  C  C328  1  0.802800  0.294100  0.854900  1.0  0.06
  C  C329  1  0.809800  0.430600  0.938000  1.0  0.6984
  C  C330  1  0.850900  0.359800  0.893500  1.0  -0.037
  C  C331  1  0.758700  0.319500  0.870600  1.0  -0.1354
  C  C332  1  0.848800  0.314900  0.866300  1.0  -0.1134
  C  C333  1  0.762300  0.363800  0.896000  1.0  -0.0342
  C  C334  1  0.758600  0.216400  0.830500  1.0  -0.134
  C  C335  1  0.807700  0.384100  0.907800  1.0  -0.1287
  C  C336  1  0.797700  0.249400  0.823200  1.0  0.0266
  C  C337  1  0.145100  0.197200  0.294100  1.0  0.0574
  C  C338  1  0.062000  0.190200  0.430600  1.0  0.6994
  C  C339  1  0.106500  0.149100  0.359800  1.0  -0.0434
  C  C340  1  0.129400  0.241300  0.319500  1.0  -0.133
  C  C341  1  0.133700  0.151200  0.314900  1.0  -0.1123
  C  C342  1  0.104000  0.237700  0.363800  1.0  -0.0337
  C  C343  1  0.169500  0.241400  0.216400  1.0  -0.1345
  C  C344  1  0.092200  0.192300  0.384100  1.0  -0.1276
  C  C345  1  0.176800  0.202300  0.249400  1.0  0.0273
  C  C346  1  0.854900  0.197200  0.705900  1.0  0.0583
  C  C347  1  0.938000  0.190200  0.569400  1.0  0.6988
  C  C348  1  0.893500  0.149100  0.640200  1.0  -0.0422
  C  C349  1  0.870600  0.241300  0.680500  1.0  -0.1312
  C  C350  1  0.866300  0.151200  0.685100  1.0  -0.1127
  C  C351  1  0.896000  0.237700  0.636200  1.0  -0.0347
  C  C352  1  0.830500  0.241400  0.783600  1.0  -0.1356
  C  C353  1  0.907800  0.192300  0.615900  1.0  -0.1297
  C  C354  1  0.823200  0.202300  0.750600  1.0  0.0291
  C  C355  1  0.145100  0.802800  0.705900  1.0  0.0568
  C  C356  1  0.062000  0.809800  0.569400  1.0  0.6993
  C  C357  1  0.106500  0.850900  0.640200  1.0  -0.0437
  C  C358  1  0.129400  0.758700  0.680500  1.0  -0.1322
  C  C359  1  0.133700  0.848800  0.685100  1.0  -0.1127
  C  C360  1  0.104000  0.762300  0.636200  1.0  -0.033
  C  C361  1  0.169500  0.758600  0.783600  1.0  -0.1342
  C  C362  1  0.092200  0.807700  0.615900  1.0  -0.1282
  C  C363  1  0.176800  0.797700  0.750600  1.0  0.0265
  C  C364  1  0.854900  0.802800  0.294100  1.0  0.0579
  C  C365  1  0.938000  0.809800  0.430600  1.0  0.699
  C  C366  1  0.893500  0.850900  0.359800  1.0  -0.0418
  C  C367  1  0.870600  0.758700  0.319500  1.0  -0.1311
  C  C368  1  0.866300  0.848800  0.314900  1.0  -0.1146
  C  C369  1  0.896000  0.762300  0.363800  1.0  -0.0332
  C  C370  1  0.830500  0.758600  0.216400  1.0  -0.1356
  C  C371  1  0.907800  0.807700  0.384100  1.0  -0.1297
  C  C372  1  0.823200  0.797700  0.249400  1.0  0.0273
  C  C373  1  0.705900  0.854900  0.802800  1.0  0.0592
  C  C374  1  0.569400  0.938000  0.809800  1.0  0.6981
  C  C375  1  0.640200  0.893500  0.850900  1.0  -0.0444
  C  C376  1  0.680500  0.870600  0.758700  1.0  -0.1355
  C  C377  1  0.685100  0.866300  0.848800  1.0  -0.1167
  C  C378  1  0.636200  0.896000  0.762300  1.0  -0.0383
  C  C379  1  0.783600  0.830500  0.758600  1.0  -0.1315
  C  C380  1  0.615900  0.907800  0.807700  1.0  -0.1279
  C  C381  1  0.750600  0.823200  0.797700  1.0  0.0241
  C  C382  1  0.294100  0.145100  0.802800  1.0  0.0568
  C  C383  1  0.430600  0.062000  0.809800  1.0  0.6985
  C  C384  1  0.359800  0.106500  0.850900  1.0  -0.043
  C  C385  1  0.319500  0.129400  0.758700  1.0  -0.1355
  C  C386  1  0.314900  0.133700  0.848800  1.0  -0.1187
  C  C387  1  0.363800  0.104000  0.762300  1.0  -0.0395
  C  C388  1  0.216400  0.169500  0.758600  1.0  -0.1302
  C  C389  1  0.384100  0.092200  0.807700  1.0  -0.1308
  C  C390  1  0.249400  0.176800  0.797700  1.0  0.0261
  C  C391  1  0.294100  0.854900  0.197200  1.0  0.0574
  C  C392  1  0.430600  0.938000  0.190200  1.0  0.6985
  C  C393  1  0.359800  0.893500  0.149100  1.0  -0.0422
  C  C394  1  0.319500  0.870600  0.241300  1.0  -0.1354
  C  C395  1  0.314900  0.866300  0.151200  1.0  -0.1154
  C  C396  1  0.363800  0.896000  0.237700  1.0  -0.0388
  C  C397  1  0.216400  0.830500  0.241400  1.0  -0.1283
  C  C398  1  0.384100  0.907800  0.192300  1.0  -0.1299
  C  C399  1  0.249400  0.823200  0.202300  1.0  0.026
  C  C400  1  0.705900  0.145100  0.197200  1.0  0.057
  C  C401  1  0.569400  0.062000  0.190200  1.0  0.6981
  C  C402  1  0.640200  0.106500  0.149100  1.0  -0.0411
  C  C403  1  0.680500  0.129400  0.241300  1.0  -0.1364
  C  C404  1  0.685100  0.133700  0.151200  1.0  -0.1168
  C  C405  1  0.636200  0.104000  0.237700  1.0  -0.0379
  C  C406  1  0.783600  0.169500  0.241400  1.0  -0.1294
  C  C407  1  0.615900  0.092200  0.192300  1.0  -0.1299
  C  C408  1  0.750600  0.176800  0.202300  1.0  0.0262
  C  C409  1  0.802800  0.705900  0.854900  1.0  0.0601
  C  C410  1  0.809800  0.569400  0.938000  1.0  0.6981
  C  C411  1  0.850900  0.640200  0.893500  1.0  -0.037
  C  C412  1  0.758700  0.680500  0.870600  1.0  -0.1354
  C  C413  1  0.848800  0.685100  0.866300  1.0  -0.113
  C  C414  1  0.762300  0.636200  0.896000  1.0  -0.0336
  C  C415  1  0.758600  0.783600  0.830500  1.0  -0.1338
  C  C416  1  0.807700  0.615900  0.907800  1.0  -0.1278
  C  C417  1  0.797700  0.750600  0.823200  1.0  0.0247
  C  C418  1  0.802800  0.294100  0.145100  1.0  0.057
  C  C419  1  0.809800  0.430600  0.062000  1.0  0.6981
  C  C420  1  0.850900  0.359800  0.106500  1.0  -0.0371
  C  C421  1  0.758700  0.319500  0.129400  1.0  -0.1324
  C  C422  1  0.848800  0.314900  0.133700  1.0  -0.1135
  C  C423  1  0.762300  0.363800  0.104000  1.0  -0.0336
  C  C424  1  0.758600  0.216400  0.169500  1.0  -0.1323
  C  C425  1  0.807700  0.384100  0.092200  1.0  -0.1288
  C  C426  1  0.797700  0.249400  0.176800  1.0  0.0225
  C  C427  1  0.197200  0.294100  0.854900  1.0  0.0587
  C  C428  1  0.190200  0.430600  0.938000  1.0  0.6982
  C  C429  1  0.149100  0.359800  0.893500  1.0  -0.0384
  C  C430  1  0.241300  0.319500  0.870600  1.0  -0.1338
  C  C431  1  0.151200  0.314900  0.866300  1.0  -0.1144
  C  C432  1  0.237700  0.363800  0.896000  1.0  -0.033
  C  C433  1  0.241400  0.216400  0.830500  1.0  -0.1336
  C  C434  1  0.192300  0.384100  0.907800  1.0  -0.1277
  C  C435  1  0.202300  0.249400  0.823200  1.0  0.0264
  C  C436  1  0.197200  0.705900  0.145100  1.0  0.0592
  C  C437  1  0.190200  0.569400  0.062000  1.0  0.6978
  C  C438  1  0.149100  0.640200  0.106500  1.0  -0.0383
  C  C439  1  0.241300  0.680500  0.129400  1.0  -0.131
  C  C440  1  0.151200  0.685100  0.133700  1.0  -0.1157
  C  C441  1  0.237700  0.636200  0.104000  1.0  -0.0337
  C  C442  1  0.241400  0.783600  0.169500  1.0  -0.1302
  C  C443  1  0.192300  0.615900  0.092200  1.0  -0.1294
  C  C444  1  0.202300  0.750600  0.176800  1.0  0.0232
  C  C445  1  0.854900  0.802800  0.705900  1.0  0.0575
  C  C446  1  0.938000  0.809800  0.569400  1.0  0.6989
  C  C447  1  0.893500  0.850900  0.640200  1.0  -0.0422
  C  C448  1  0.870600  0.758700  0.680500  1.0  -0.1308
  C  C449  1  0.866300  0.848800  0.685100  1.0  -0.1147
  C  C450  1  0.896000  0.762300  0.636200  1.0  -0.0341
  C  C451  1  0.830500  0.758600  0.783600  1.0  -0.135
  C  C452  1  0.907800  0.807700  0.615900  1.0  -0.1293
  C  C453  1  0.823200  0.797700  0.750600  1.0  0.0284
  C  C454  1  0.145100  0.802800  0.294100  1.0  0.0573
  C  C455  1  0.062000  0.809800  0.430600  1.0  0.6995
  C  C456  1  0.106500  0.850900  0.359800  1.0  -0.0431
  C  C457  1  0.129400  0.758700  0.319500  1.0  -0.1319
  C  C458  1  0.133700  0.848800  0.314900  1.0  -0.114
  C  C459  1  0.104000  0.762300  0.363800  1.0  -0.0328
  C  C460  1  0.169500  0.758600  0.216400  1.0  -0.1345
  C  C461  1  0.092200  0.807700  0.384100  1.0  -0.1274
  C  C462  1  0.176800  0.797700  0.249400  1.0  0.0268
  C  C463  1  0.854900  0.197200  0.294100  1.0  0.0577
  C  C464  1  0.938000  0.190200  0.430600  1.0  0.699
  C  C465  1  0.893500  0.149100  0.359800  1.0  -0.0424
  C  C466  1  0.870600  0.241300  0.319500  1.0  -0.1316
  C  C467  1  0.866300  0.151200  0.314900  1.0  -0.1125
  C  C468  1  0.896000  0.237700  0.363800  1.0  -0.0343
  C  C469  1  0.830500  0.241400  0.216400  1.0  -0.1353
  C  C470  1  0.907800  0.192300  0.384100  1.0  -0.1298
  C  C471  1  0.823200  0.202300  0.249400  1.0  0.0276
  C  C472  1  0.145100  0.197200  0.705900  1.0  0.0571
  C  C473  1  0.062000  0.190200  0.569400  1.0  0.6991
  C  C474  1  0.106500  0.149100  0.640200  1.0  -0.0434
  C  C475  1  0.129400  0.241300  0.680500  1.0  -0.1333
  C  C476  1  0.133700  0.151200  0.685100  1.0  -0.1112
  C  C477  1  0.104000  0.237700  0.636200  1.0  -0.0335
  C  C478  1  0.169500  0.241400  0.783600  1.0  -0.1349
  C  C479  1  0.092200  0.192300  0.615900  1.0  -0.1288
  C  C480  1  0.176800  0.202300  0.750600  1.0  0.0277
  C  C481  1  0.794100  0.645100  0.697200  1.0  0.0562
  C  C482  1  0.930600  0.562000  0.690200  1.0  0.6984
  C  C483  1  0.859800  0.606500  0.649100  1.0  -0.0413
  C  C484  1  0.819500  0.629400  0.741300  1.0  -0.137
  C  C485  1  0.814900  0.633700  0.651200  1.0  -0.1146
  C  C486  1  0.863800  0.604000  0.737700  1.0  -0.0384
  C  C487  1  0.716400  0.669500  0.741400  1.0  -0.1284
  C  C488  1  0.884100  0.592200  0.692300  1.0  -0.1311
  C  C489  1  0.749400  0.676800  0.702300  1.0  0.0259
  C  C490  1  0.205900  0.354900  0.697200  1.0  0.0588
  C  C491  1  0.069400  0.438000  0.690200  1.0  0.6979
  C  C492  1  0.140200  0.393500  0.649100  1.0  -0.0419
  C  C493  1  0.180500  0.370600  0.741300  1.0  -0.1356
  C  C494  1  0.185100  0.366300  0.651200  1.0  -0.1163
  C  C495  1  0.136200  0.396000  0.737700  1.0  -0.0386
  C  C496  1  0.283600  0.330500  0.741400  1.0  -0.1296
  C  C497  1  0.115900  0.407800  0.692300  1.0  -0.128
  C  C498  1  0.250600  0.323200  0.702300  1.0  0.0251
  C  C499  1  0.205900  0.645100  0.302800  1.0  0.0572
  C  C500  1  0.069400  0.562000  0.309800  1.0  0.6981
  C  C501  1  0.140200  0.606500  0.350900  1.0  -0.044
  C  C502  1  0.180500  0.629400  0.258700  1.0  -0.1345
  C  C503  1  0.185100  0.633700  0.348800  1.0  -0.1186
  C  C504  1  0.136200  0.604000  0.262300  1.0  -0.038
  C  C505  1  0.283600  0.669500  0.258600  1.0  -0.1316
  C  C506  1  0.115900  0.592200  0.307700  1.0  -0.1296
  C  C507  1  0.250600  0.676800  0.297700  1.0  0.0265
  C  C508  1  0.794100  0.354900  0.302800  1.0  0.0587
  C  C509  1  0.930600  0.438000  0.309800  1.0  0.6986
  C  C510  1  0.859800  0.393500  0.350900  1.0  -0.0432
  C  C511  1  0.819500  0.370600  0.258700  1.0  -0.1356
  C  C512  1  0.814900  0.366300  0.348800  1.0  -0.1179
  C  C513  1  0.863800  0.396000  0.262300  1.0  -0.04
  C  C514  1  0.716400  0.330500  0.258600  1.0  -0.1298
  C  C515  1  0.884100  0.407800  0.307700  1.0  -0.1299
  C  C516  1  0.749400  0.323200  0.297700  1.0  0.024
  C  C517  1  0.697200  0.794100  0.645100  1.0  0.0574
  C  C518  1  0.690200  0.930600  0.562000  1.0  0.6979
  C  C519  1  0.649100  0.859800  0.606500  1.0  -0.0389
  C  C520  1  0.741300  0.819500  0.629400  1.0  -0.1315
  C  C521  1  0.651200  0.814900  0.633700  1.0  -0.1139
  C  C522  1  0.737700  0.863800  0.604000  1.0  -0.0336
  C  C523  1  0.741400  0.716400  0.669500  1.0  -0.1313
  C  C524  1  0.692300  0.884100  0.592200  1.0  -0.1279
  C  C525  1  0.702300  0.749400  0.676800  1.0  0.0233
  C  C526  1  0.697200  0.205900  0.354900  1.0  0.0582
  C  C527  1  0.690200  0.069400  0.438000  1.0  0.6979
  C  C528  1  0.649100  0.140200  0.393500  1.0  -0.0378
  C  C529  1  0.741300  0.180500  0.370600  1.0  -0.1335
  C  C530  1  0.651200  0.185100  0.366300  1.0  -0.1163
  C  C531  1  0.737700  0.136200  0.396000  1.0  -0.0329
  C  C532  1  0.741400  0.283600  0.330500  1.0  -0.1332
  C  C533  1  0.692300  0.115900  0.407800  1.0  -0.1288
  C  C534  1  0.702300  0.250600  0.323200  1.0  0.0253
  C  C535  1  0.302800  0.205900  0.645100  1.0  0.0582
  C  C536  1  0.309800  0.069400  0.562000  1.0  0.6979
  C  C537  1  0.350900  0.140200  0.606500  1.0  -0.037
  C  C538  1  0.258700  0.180500  0.629400  1.0  -0.132
  C  C539  1  0.348800  0.185100  0.633700  1.0  -0.113
  C  C540  1  0.262300  0.136200  0.604000  1.0  -0.0333
  C  C541  1  0.258600  0.283600  0.669500  1.0  -0.1324
  C  C542  1  0.307700  0.115900  0.592200  1.0  -0.1282
  C  C543  1  0.297700  0.250600  0.676800  1.0  0.0223
  C  C544  1  0.302800  0.794100  0.354900  1.0  0.06
  C  C545  1  0.309800  0.930600  0.438000  1.0  0.6984
  C  C546  1  0.350900  0.859800  0.393500  1.0  -0.037
  C  C547  1  0.258700  0.819500  0.370600  1.0  -0.1354
  C  C548  1  0.348800  0.814900  0.366300  1.0  -0.1134
  C  C549  1  0.262300  0.863800  0.396000  1.0  -0.0342
  C  C550  1  0.258600  0.716400  0.330500  1.0  -0.134
  C  C551  1  0.307700  0.884100  0.407800  1.0  -0.1287
  C  C552  1  0.297700  0.749400  0.323200  1.0  0.0266
  C  C553  1  0.645100  0.697200  0.794100  1.0  0.0574
  C  C554  1  0.562000  0.690200  0.930600  1.0  0.6994
  C  C555  1  0.606500  0.649100  0.859800  1.0  -0.0434
  C  C556  1  0.629400  0.741300  0.819500  1.0  -0.133
  C  C557  1  0.633700  0.651200  0.814900  1.0  -0.1123
  C  C558  1  0.604000  0.737700  0.863800  1.0  -0.0337
  C  C559  1  0.669500  0.741400  0.716400  1.0  -0.1345
  C  C560  1  0.592200  0.692300  0.884100  1.0  -0.1276
  C  C561  1  0.676800  0.702300  0.749400  1.0  0.0273
  C  C562  1  0.354900  0.697200  0.205900  1.0  0.0583
  C  C563  1  0.438000  0.690200  0.069400  1.0  0.6988
  C  C564  1  0.393500  0.649100  0.140200  1.0  -0.0422
  C  C565  1  0.370600  0.741300  0.180500  1.0  -0.1312
  C  C566  1  0.366300  0.651200  0.185100  1.0  -0.1127
  C  C567  1  0.396000  0.737700  0.136200  1.0  -0.0347
  C  C568  1  0.330500  0.741400  0.283600  1.0  -0.1356
  C  C569  1  0.407800  0.692300  0.115900  1.0  -0.1297
  C  C570  1  0.323200  0.702300  0.250600  1.0  0.0291
  C  C571  1  0.645100  0.302800  0.205900  1.0  0.0568
  C  C572  1  0.562000  0.309800  0.069400  1.0  0.6993
  C  C573  1  0.606500  0.350900  0.140200  1.0  -0.0437
  C  C574  1  0.629400  0.258700  0.180500  1.0  -0.1322
  C  C575  1  0.633700  0.348800  0.185100  1.0  -0.1127
  C  C576  1  0.604000  0.262300  0.136200  1.0  -0.033
  C  C577  1  0.669500  0.258600  0.283600  1.0  -0.1342
  C  C578  1  0.592200  0.307700  0.115900  1.0  -0.1282
  C  C579  1  0.676800  0.297700  0.250600  1.0  0.0265
  C  C580  1  0.354900  0.302800  0.794100  1.0  0.0579
  C  C581  1  0.438000  0.309800  0.930600  1.0  0.699
  C  C582  1  0.393500  0.350900  0.859800  1.0  -0.0418
  C  C583  1  0.370600  0.258700  0.819500  1.0  -0.1311
  C  C584  1  0.366300  0.348800  0.814900  1.0  -0.1146
  C  C585  1  0.396000  0.262300  0.863800  1.0  -0.0332
  C  C586  1  0.330500  0.258600  0.716400  1.0  -0.1356
  C  C587  1  0.407800  0.307700  0.884100  1.0  -0.1297
  C  C588  1  0.323200  0.297700  0.749400  1.0  0.0273
  C  C589  1  0.205900  0.354900  0.302800  1.0  0.0592
  C  C590  1  0.069400  0.438000  0.309800  1.0  0.6981
  C  C591  1  0.140200  0.393500  0.350900  1.0  -0.0444
  C  C592  1  0.180500  0.370600  0.258700  1.0  -0.1355
  C  C593  1  0.185100  0.366300  0.348800  1.0  -0.1167
  C  C594  1  0.136200  0.396000  0.262300  1.0  -0.0383
  C  C595  1  0.283600  0.330500  0.258600  1.0  -0.1315
  C  C596  1  0.115900  0.407800  0.307700  1.0  -0.1279
  C  C597  1  0.250600  0.323200  0.297700  1.0  0.0241
  C  C598  1  0.794100  0.645100  0.302800  1.0  0.0568
  C  C599  1  0.930600  0.562000  0.309800  1.0  0.6985
  C  C600  1  0.859800  0.606500  0.350900  1.0  -0.043
  C  C601  1  0.819500  0.629400  0.258700  1.0  -0.1355
  C  C602  1  0.814900  0.633700  0.348800  1.0  -0.1187
  C  C603  1  0.863800  0.604000  0.262300  1.0  -0.0395
  C  C604  1  0.716400  0.669500  0.258600  1.0  -0.1302
  C  C605  1  0.884100  0.592200  0.307700  1.0  -0.1308
  C  C606  1  0.749400  0.676800  0.297700  1.0  0.0261
  C  C607  1  0.794100  0.354900  0.697200  1.0  0.0574
  C  C608  1  0.930600  0.438000  0.690200  1.0  0.6985
  C  C609  1  0.859800  0.393500  0.649100  1.0  -0.0422
  C  C610  1  0.819500  0.370600  0.741300  1.0  -0.1354
  C  C611  1  0.814900  0.366300  0.651200  1.0  -0.1154
  C  C612  1  0.863800  0.396000  0.737700  1.0  -0.0388
  C  C613  1  0.716400  0.330500  0.741400  1.0  -0.1283
  C  C614  1  0.884100  0.407800  0.692300  1.0  -0.1299
  C  C615  1  0.749400  0.323200  0.702300  1.0  0.026
  C  C616  1  0.205900  0.645100  0.697200  1.0  0.057
  C  C617  1  0.069400  0.562000  0.690200  1.0  0.6981
  C  C618  1  0.140200  0.606500  0.649100  1.0  -0.0411
  C  C619  1  0.180500  0.629400  0.741300  1.0  -0.1364
  C  C620  1  0.185100  0.633700  0.651200  1.0  -0.1168
  C  C621  1  0.136200  0.604000  0.737700  1.0  -0.0379
  C  C622  1  0.283600  0.669500  0.741400  1.0  -0.1294
  C  C623  1  0.115900  0.592200  0.692300  1.0  -0.1299
  C  C624  1  0.250600  0.676800  0.702300  1.0  0.0262
  C  C625  1  0.302800  0.205900  0.354900  1.0  0.0601
  C  C626  1  0.309800  0.069400  0.438000  1.0  0.6981
  C  C627  1  0.350900  0.140200  0.393500  1.0  -0.037
  C  C628  1  0.258700  0.180500  0.370600  1.0  -0.1354
  C  C629  1  0.348800  0.185100  0.366300  1.0  -0.113
  C  C630  1  0.262300  0.136200  0.396000  1.0  -0.0336
  C  C631  1  0.258600  0.283600  0.330500  1.0  -0.1338
  C  C632  1  0.307700  0.115900  0.407800  1.0  -0.1278
  C  C633  1  0.297700  0.250600  0.323200  1.0  0.0247
  C  C634  1  0.302800  0.794100  0.645100  1.0  0.057
  C  C635  1  0.309800  0.930600  0.562000  1.0  0.6981
  C  C636  1  0.350900  0.859800  0.606500  1.0  -0.0371
  C  C637  1  0.258700  0.819500  0.629400  1.0  -0.1324
  C  C638  1  0.348800  0.814900  0.633700  1.0  -0.1135
  C  C639  1  0.262300  0.863800  0.604000  1.0  -0.0336
  C  C640  1  0.258600  0.716400  0.669500  1.0  -0.1323
  C  C641  1  0.307700  0.884100  0.592200  1.0  -0.1288
  C  C642  1  0.297700  0.749400  0.676800  1.0  0.0225
  C  C643  1  0.697200  0.794100  0.354900  1.0  0.0587
  C  C644  1  0.690200  0.930600  0.438000  1.0  0.6982
  C  C645  1  0.649100  0.859800  0.393500  1.0  -0.0384
  C  C646  1  0.741300  0.819500  0.370600  1.0  -0.1338
  C  C647  1  0.651200  0.814900  0.366300  1.0  -0.1144
  C  C648  1  0.737700  0.863800  0.396000  1.0  -0.033
  C  C649  1  0.741400  0.716400  0.330500  1.0  -0.1336
  C  C650  1  0.692300  0.884100  0.407800  1.0  -0.1277
  C  C651  1  0.702300  0.749400  0.323200  1.0  0.0264
  C  C652  1  0.697200  0.205900  0.645100  1.0  0.0592
  C  C653  1  0.690200  0.069400  0.562000  1.0  0.6978
  C  C654  1  0.649100  0.140200  0.606500  1.0  -0.0383
  C  C655  1  0.741300  0.180500  0.629400  1.0  -0.131
  C  C656  1  0.651200  0.185100  0.633700  1.0  -0.1157
  C  C657  1  0.737700  0.136200  0.604000  1.0  -0.0337
  C  C658  1  0.741400  0.283600  0.669500  1.0  -0.1302
  C  C659  1  0.692300  0.115900  0.592200  1.0  -0.1294
  C  C660  1  0.702300  0.250600  0.676800  1.0  0.0232
  C  C661  1  0.354900  0.302800  0.205900  1.0  0.0575
  C  C662  1  0.438000  0.309800  0.069400  1.0  0.6989
  C  C663  1  0.393500  0.350900  0.140200  1.0  -0.0422
  C  C664  1  0.370600  0.258700  0.180500  1.0  -0.1308
  C  C665  1  0.366300  0.348800  0.185100  1.0  -0.1147
  C  C666  1  0.396000  0.262300  0.136200  1.0  -0.0341
  C  C667  1  0.330500  0.258600  0.283600  1.0  -0.135
  C  C668  1  0.407800  0.307700  0.115900  1.0  -0.1293
  C  C669  1  0.323200  0.297700  0.250600  1.0  0.0284
  C  C670  1  0.645100  0.302800  0.794100  1.0  0.0573
  C  C671  1  0.562000  0.309800  0.930600  1.0  0.6995
  C  C672  1  0.606500  0.350900  0.859800  1.0  -0.0431
  C  C673  1  0.629400  0.258700  0.819500  1.0  -0.1319
  C  C674  1  0.633700  0.348800  0.814900  1.0  -0.114
  C  C675  1  0.604000  0.262300  0.863800  1.0  -0.0328
  C  C676  1  0.669500  0.258600  0.716400  1.0  -0.1345
  C  C677  1  0.592200  0.307700  0.884100  1.0  -0.1274
  C  C678  1  0.676800  0.297700  0.749400  1.0  0.0268
  C  C679  1  0.354900  0.697200  0.794100  1.0  0.0577
  C  C680  1  0.438000  0.690200  0.930600  1.0  0.699
  C  C681  1  0.393500  0.649100  0.859800  1.0  -0.0424
  C  C682  1  0.370600  0.741300  0.819500  1.0  -0.1316
  C  C683  1  0.366300  0.651200  0.814900  1.0  -0.1125
  C  C684  1  0.396000  0.737700  0.863800  1.0  -0.0343
  C  C685  1  0.330500  0.741400  0.716400  1.0  -0.1353
  C  C686  1  0.407800  0.692300  0.884100  1.0  -0.1298
  C  C687  1  0.323200  0.702300  0.749400  1.0  0.0276
  C  C688  1  0.645100  0.697200  0.205900  1.0  0.0571
  C  C689  1  0.562000  0.690200  0.069400  1.0  0.6991
  C  C690  1  0.606500  0.649100  0.140200  1.0  -0.0434
  C  C691  1  0.629400  0.741300  0.180500  1.0  -0.1333
  C  C692  1  0.633700  0.651200  0.185100  1.0  -0.1112
  C  C693  1  0.604000  0.737700  0.136200  1.0  -0.0335
  C  C694  1  0.669500  0.741400  0.283600  1.0  -0.1349
  C  C695  1  0.592200  0.692300  0.115900  1.0  -0.1288
  C  C696  1  0.676800  0.702300  0.250600  1.0  0.0277
  O  O697  1  0.447500  0.050410  0.148840  1.0  -0.5797
  O  O698  1  0.448500  0.048900  0.231100  1.0  -0.5879
  O  O699  1  0.552500  0.949590  0.148840  1.0  -0.5798
  O  O700  1  0.551500  0.951100  0.231100  1.0  -0.5877
  O  O701  1  0.552500  0.050410  0.851160  1.0  -0.5779
  O  O702  1  0.551500  0.048900  0.768900  1.0  -0.5878
  O  O703  1  0.447500  0.949590  0.851160  1.0  -0.5786
  O  O704  1  0.448500  0.951100  0.768900  1.0  -0.5883
  O  O705  1  0.148840  0.447500  0.050410  1.0  -0.5808
  O  O706  1  0.231100  0.448500  0.048900  1.0  -0.5872
  O  O707  1  0.148840  0.552500  0.949590  1.0  -0.5806
  O  O708  1  0.231100  0.551500  0.951100  1.0  -0.587
  O  O709  1  0.851160  0.552500  0.050410  1.0  -0.5807
  O  O710  1  0.768900  0.551500  0.048900  1.0  -0.5856
  O  O711  1  0.851160  0.447500  0.949590  1.0  -0.5813
  O  O712  1  0.768900  0.448500  0.951100  1.0  -0.5858
  O  O713  1  0.050410  0.148840  0.447500  1.0  -0.5824
  O  O714  1  0.048900  0.231100  0.448500  1.0  -0.5874
  O  O715  1  0.949590  0.148840  0.552500  1.0  -0.5815
  O  O716  1  0.951100  0.231100  0.551500  1.0  -0.5884
  O  O717  1  0.050410  0.851160  0.552500  1.0  -0.5814
  O  O718  1  0.048900  0.768900  0.551500  1.0  -0.5879
  O  O719  1  0.949590  0.851160  0.447500  1.0  -0.5817
  O  O720  1  0.951100  0.768900  0.448500  1.0  -0.5871
  O  O721  1  0.552500  0.949590  0.851160  1.0  -0.5791
  O  O722  1  0.551500  0.951100  0.768900  1.0  -0.5872
  O  O723  1  0.447500  0.050410  0.851160  1.0  -0.5786
  O  O724  1  0.448500  0.048900  0.768900  1.0  -0.589
  O  O725  1  0.447500  0.949590  0.148840  1.0  -0.5796
  O  O726  1  0.448500  0.951100  0.231100  1.0  -0.5877
  O  O727  1  0.552500  0.050410  0.148840  1.0  -0.5786
  O  O728  1  0.551500  0.048900  0.231100  1.0  -0.5879
  O  O729  1  0.851160  0.552500  0.949590  1.0  -0.581
  O  O730  1  0.768900  0.551500  0.951100  1.0  -0.5858
  O  O731  1  0.851160  0.447500  0.050410  1.0  -0.581
  O  O732  1  0.768900  0.448500  0.048900  1.0  -0.5855
  O  O733  1  0.148840  0.447500  0.949590  1.0  -0.5808
  O  O734  1  0.231100  0.448500  0.951100  1.0  -0.5872
  O  O735  1  0.148840  0.552500  0.050410  1.0  -0.5807
  O  O736  1  0.231100  0.551500  0.048900  1.0  -0.5873
  O  O737  1  0.949590  0.851160  0.552500  1.0  -0.5821
  O  O738  1  0.951100  0.768900  0.551500  1.0  -0.5875
  O  O739  1  0.050410  0.851160  0.447500  1.0  -0.5813
  O  O740  1  0.048900  0.768900  0.448500  1.0  -0.5874
  O  O741  1  0.949590  0.148840  0.447500  1.0  -0.5815
  O  O742  1  0.951100  0.231100  0.448500  1.0  -0.588
  O  O743  1  0.050410  0.148840  0.552500  1.0  -0.5823
  O  O744  1  0.048900  0.231100  0.551500  1.0  -0.5879
  O  O745  1  0.947500  0.550410  0.648840  1.0  -0.5797
  O  O746  1  0.948500  0.548900  0.731100  1.0  -0.5879
  O  O747  1  0.052500  0.449590  0.648840  1.0  -0.5798
  O  O748  1  0.051500  0.451100  0.731100  1.0  -0.5877
  O  O749  1  0.052500  0.550410  0.351160  1.0  -0.5779
  O  O750  1  0.051500  0.548900  0.268900  1.0  -0.5878
  O  O751  1  0.947500  0.449590  0.351160  1.0  -0.5786
  O  O752  1  0.948500  0.451100  0.268900  1.0  -0.5883
  O  O753  1  0.648840  0.947500  0.550410  1.0  -0.5808
  O  O754  1  0.731100  0.948500  0.548900  1.0  -0.5872
  O  O755  1  0.648840  0.052500  0.449590  1.0  -0.5806
  O  O756  1  0.731100  0.051500  0.451100  1.0  -0.587
  O  O757  1  0.351160  0.052500  0.550410  1.0  -0.5807
  O  O758  1  0.268900  0.051500  0.548900  1.0  -0.5856
  O  O759  1  0.351160  0.947500  0.449590  1.0  -0.58
  O  O760  1  0.268900  0.948500  0.451100  1.0  -0.5858
  O  O761  1  0.550410  0.648840  0.947500  1.0  -0.5824
  O  O762  1  0.548900  0.731100  0.948500  1.0  -0.5874
  O  O763  1  0.449590  0.648840  0.052500  1.0  -0.5815
  O  O764  1  0.451100  0.731100  0.051500  1.0  -0.5884
  O  O765  1  0.550410  0.351160  0.052500  1.0  -0.5814
  O  O766  1  0.548900  0.268900  0.051500  1.0  -0.5879
  O  O767  1  0.449590  0.351160  0.947500  1.0  -0.5817
  O  O768  1  0.451100  0.268900  0.948500  1.0  -0.5871
  O  O769  1  0.052500  0.449590  0.351160  1.0  -0.5791
  O  O770  1  0.051500  0.451100  0.268900  1.0  -0.5872
  O  O771  1  0.947500  0.550410  0.351160  1.0  -0.5786
  O  O772  1  0.948500  0.548900  0.268900  1.0  -0.589
  O  O773  1  0.947500  0.449590  0.648840  1.0  -0.5796
  O  O774  1  0.948500  0.451100  0.731100  1.0  -0.5867
  O  O775  1  0.052500  0.550410  0.648840  1.0  -0.5786
  O  O776  1  0.051500  0.548900  0.731100  1.0  -0.5879
  O  O777  1  0.351160  0.052500  0.449590  1.0  -0.581
  O  O778  1  0.268900  0.051500  0.451100  1.0  -0.5858
  O  O779  1  0.351160  0.947500  0.550410  1.0  -0.581
  O  O780  1  0.268900  0.948500  0.548900  1.0  -0.5855
  O  O781  1  0.648840  0.947500  0.449590  1.0  -0.5808
  O  O782  1  0.731100  0.948500  0.451100  1.0  -0.5861
  O  O783  1  0.648840  0.052500  0.550410  1.0  -0.5807
  O  O784  1  0.731100  0.051500  0.548900  1.0  -0.5873
  O  O785  1  0.449590  0.351160  0.052500  1.0  -0.5821
  O  O786  1  0.451100  0.268900  0.051500  1.0  -0.5875
  O  O787  1  0.550410  0.351160  0.947500  1.0  -0.5813
  O  O788  1  0.548900  0.268900  0.948500  1.0  -0.5874
  O  O789  1  0.449590  0.648840  0.947500  1.0  -0.5815
  O  O790  1  0.451100  0.731100  0.948500  1.0  -0.587
  O  O791  1  0.550410  0.648840  0.052500  1.0  -0.5823
  O  O792  1  0.548900  0.731100  0.051500  1.0  -0.5879
