# generated using pymatgen
data_CuH10(C9O2)2
_symmetry_space_group_name_H-M   'P 1'
_cell_length_a   26.98100000
_cell_length_b   26.98100000
_cell_length_c   26.98100000
_cell_angle_alpha   90.00000000
_cell_angle_beta   90.00000000
_cell_angle_gamma   90.00000000
_symmetry_Int_Tables_number   1
_chemical_formula_structural   CuH10(C9O2)2
_chemical_formula_sum   'Cu24 H240 C432 O96'
_cell_volume   19641.47623414
_cell_formula_units_Z   24
loop_
 _symmetry_equiv_pos_site_id
 _symmetry_equiv_pos_as_xyz
  1  'x, y, z'
loop_
 _atom_site_type_symbol
 _atom_site_label
 _atom_site_symmetry_multiplicity
 _atom_site_fract_x
 _atom_site_fract_y
 _atom_site_fract_z
 _atom_site_occupancy
 _atom_site_charge
  Cu  Cu1  1  0.500000  0.000000  0.144360  1.0  0.8765
  Cu  Cu2  1  0.500000  0.000000  0.240210  1.0  0.9102
  Cu  Cu3  1  0.500000  0.000000  0.855640  1.0  0.8769
  Cu  Cu4  1  0.500000  0.000000  0.759790  1.0  0.9113
  Cu  Cu5  1  0.144360  0.500000  0.000000  1.0  0.8768
  Cu  Cu6  1  0.240210  0.500000  0.000000  1.0  0.9129
  Cu  Cu7  1  0.855640  0.500000  0.000000  1.0  0.8777
  Cu  Cu8  1  0.759790  0.500000  0.000000  1.0  0.9123
  Cu  Cu9  1  0.000000  0.144360  0.500000  1.0  0.878
  Cu  Cu10  1  0.000000  0.240210  0.500000  1.0  0.9131
  Cu  Cu11  1  0.000000  0.855640  0.500000  1.0  0.8771
  Cu  Cu12  1  0.000000  0.759790  0.500000  1.0  0.9139
  Cu  Cu13  1  0.000000  0.500000  0.644360  1.0  0.8765
  Cu  Cu14  1  0.000000  0.500000  0.740210  1.0  0.9102
  Cu  Cu15  1  0.000000  0.500000  0.355640  1.0  0.8769
  Cu  Cu16  1  0.000000  0.500000  0.259790  1.0  0.9113
  Cu  Cu17  1  0.644360  0.000000  0.500000  1.0  0.8768
  Cu  Cu18  1  0.740210  0.000000  0.500000  1.0  0.9129
  Cu  Cu19  1  0.355640  0.000000  0.500000  1.0  0.8777
  Cu  Cu20  1  0.259790  0.000000  0.500000  1.0  0.9123
  Cu  Cu21  1  0.500000  0.644360  0.000000  1.0  0.878
  Cu  Cu22  1  0.500000  0.740210  0.000000  1.0  0.9131
  Cu  Cu23  1  0.500000  0.355640  0.000000  1.0  0.8771
  Cu  Cu24  1  0.500000  0.259790  0.000000  1.0  0.9139
  H  H25  1  0.373700  0.098900  0.118400  1.0  0.1021
  H  H26  1  0.306000  0.137100  0.272500  1.0  0.0995
  H  H27  1  0.299600  0.144200  0.122600  1.0  0.1142
  H  H28  1  0.380300  0.094600  0.267200  1.0  0.1103
  H  H29  1  0.221200  0.143000  0.263400  1.0  0.1089
  H  H30  1  0.626300  0.901100  0.118400  1.0  0.1027
  H  H31  1  0.694000  0.862900  0.272500  1.0  0.0996
  H  H32  1  0.700400  0.855800  0.122600  1.0  0.1141
  H  H33  1  0.619700  0.905400  0.267200  1.0  0.1108
  H  H34  1  0.778800  0.857000  0.263400  1.0  0.1077
  H  H35  1  0.626300  0.098900  0.881600  1.0  0.1022
  H  H36  1  0.694000  0.137100  0.727500  1.0  0.0997
  H  H37  1  0.700400  0.144200  0.877400  1.0  0.1146
  H  H38  1  0.619700  0.094600  0.732800  1.0  0.1109
  H  H39  1  0.778800  0.143000  0.736600  1.0  0.1093
  H  H40  1  0.373700  0.901100  0.881600  1.0  0.102
  H  H41  1  0.306000  0.862900  0.727500  1.0  0.1
  H  H42  1  0.299600  0.855800  0.877400  1.0  0.1146
  H  H43  1  0.380300  0.905400  0.732800  1.0  0.1106
  H  H44  1  0.221200  0.857000  0.736600  1.0  0.1081
  H  H45  1  0.118400  0.373700  0.098900  1.0  0.1028
  H  H46  1  0.272500  0.306000  0.137100  1.0  0.1027
  H  H47  1  0.122600  0.299600  0.144200  1.0  0.115
  H  H48  1  0.267200  0.380300  0.094600  1.0  0.1098
  H  H49  1  0.263400  0.221200  0.143000  1.0  0.1114
  H  H50  1  0.118400  0.626300  0.901100  1.0  0.1031
  H  H51  1  0.272500  0.694000  0.862900  1.0  0.1023
  H  H52  1  0.122600  0.700400  0.855800  1.0  0.1155
  H  H53  1  0.267200  0.619700  0.905400  1.0  0.1097
  H  H54  1  0.263400  0.778800  0.857000  1.0  0.1109
  H  H55  1  0.881600  0.626300  0.098900  1.0  0.1032
  H  H56  1  0.727500  0.694000  0.137100  1.0  0.1018
  H  H57  1  0.877400  0.700400  0.144200  1.0  0.1151
  H  H58  1  0.732800  0.619700  0.094600  1.0  0.1097
  H  H59  1  0.736600  0.778800  0.143000  1.0  0.112
  H  H60  1  0.881600  0.373700  0.901100  1.0  0.1034
  H  H61  1  0.727500  0.306000  0.862900  1.0  0.1024
  H  H62  1  0.877400  0.299600  0.855800  1.0  0.1149
  H  H63  1  0.732800  0.380300  0.905400  1.0  0.1098
  H  H64  1  0.736600  0.221200  0.857000  1.0  0.1112
  H  H65  1  0.098900  0.118400  0.373700  1.0  0.1024
  H  H66  1  0.137100  0.272500  0.306000  1.0  0.1003
  H  H67  1  0.144200  0.122600  0.299600  1.0  0.1126
  H  H68  1  0.094600  0.267200  0.380300  1.0  0.1103
  H  H69  1  0.143000  0.263400  0.221200  1.0  0.1101
  H  H70  1  0.901100  0.118400  0.626300  1.0  0.1024
  H  H71  1  0.862900  0.272500  0.694000  1.0  0.1005
  H  H72  1  0.855800  0.122600  0.700400  1.0  0.1137
  H  H73  1  0.905400  0.267200  0.619700  1.0  0.1101
  H  H74  1  0.857000  0.263400  0.778800  1.0  0.1092
  H  H75  1  0.098900  0.881600  0.626300  1.0  0.1033
  H  H76  1  0.137100  0.727500  0.694000  1.0  0.0994
  H  H77  1  0.144200  0.877400  0.700400  1.0  0.1132
  H  H78  1  0.094600  0.732800  0.619700  1.0  0.1098
  H  H79  1  0.143000  0.736600  0.778800  1.0  0.1101
  H  H80  1  0.901100  0.881600  0.373700  1.0  0.1029
  H  H81  1  0.862900  0.727500  0.306000  1.0  0.1003
  H  H82  1  0.855800  0.877400  0.299600  1.0  0.1138
  H  H83  1  0.905400  0.732800  0.380300  1.0  0.1101
  H  H84  1  0.857000  0.736600  0.221200  1.0  0.1101
  H  H85  1  0.626300  0.901100  0.881600  1.0  0.1021
  H  H86  1  0.694000  0.862900  0.727500  1.0  0.0999
  H  H87  1  0.700400  0.855800  0.877400  1.0  0.1147
  H  H88  1  0.619700  0.905400  0.732800  1.0  0.1109
  H  H89  1  0.778800  0.857000  0.736600  1.0  0.1081
  H  H90  1  0.373700  0.098900  0.881600  1.0  0.1021
  H  H91  1  0.306000  0.137100  0.727500  1.0  0.0998
  H  H92  1  0.299600  0.144200  0.877400  1.0  0.1144
  H  H93  1  0.380300  0.094600  0.732800  1.0  0.1107
  H  H94  1  0.221200  0.143000  0.736600  1.0  0.109
  H  H95  1  0.373700  0.901100  0.118400  1.0  0.1026
  H  H96  1  0.306000  0.862900  0.272500  1.0  0.0996
  H  H97  1  0.299600  0.855800  0.122600  1.0  0.114
  H  H98  1  0.380300  0.905400  0.267200  1.0  0.1104
  H  H99  1  0.221200  0.857000  0.263400  1.0  0.1079
  H  H100  1  0.626300  0.098900  0.118400  1.0  0.1021
  H  H101  1  0.694000  0.137100  0.272500  1.0  0.0995
  H  H102  1  0.700400  0.144200  0.122600  1.0  0.1145
  H  H103  1  0.619700  0.094600  0.267200  1.0  0.1107
  H  H104  1  0.778800  0.143000  0.263400  1.0  0.109
  H  H105  1  0.881600  0.626300  0.901100  1.0  0.1033
  H  H106  1  0.727500  0.694000  0.862900  1.0  0.1021
  H  H107  1  0.877400  0.700400  0.855800  1.0  0.1151
  H  H108  1  0.732800  0.619700  0.905400  1.0  0.1099
  H  H109  1  0.736600  0.778800  0.857000  1.0  0.1114
  H  H110  1  0.881600  0.373700  0.098900  1.0  0.1036
  H  H111  1  0.727500  0.306000  0.137100  1.0  0.1021
  H  H112  1  0.877400  0.299600  0.144200  1.0  0.115
  H  H113  1  0.732800  0.380300  0.094600  1.0  0.1099
  H  H114  1  0.736600  0.221200  0.143000  1.0  0.1116
  H  H115  1  0.118400  0.373700  0.901100  1.0  0.103
  H  H116  1  0.272500  0.306000  0.862900  1.0  0.1027
  H  H117  1  0.122600  0.299600  0.855800  1.0  0.1154
  H  H118  1  0.267200  0.380300  0.905400  1.0  0.1097
  H  H119  1  0.263400  0.221200  0.857000  1.0  0.1108
  H  H120  1  0.118400  0.626300  0.098900  1.0  0.1028
  H  H121  1  0.272500  0.694000  0.137100  1.0  0.1024
  H  H122  1  0.122600  0.700400  0.144200  1.0  0.115
  H  H123  1  0.267200  0.619700  0.094600  1.0  0.1095
  H  H124  1  0.263400  0.778800  0.143000  1.0  0.1114
  H  H125  1  0.901100  0.881600  0.626300  1.0  0.1033
  H  H126  1  0.862900  0.727500  0.694000  1.0  0.1005
  H  H127  1  0.855800  0.877400  0.700400  1.0  0.1135
  H  H128  1  0.905400  0.732800  0.619700  1.0  0.1099
  H  H129  1  0.857000  0.736600  0.778800  1.0  0.1093
  H  H130  1  0.098900  0.881600  0.373700  1.0  0.1029
  H  H131  1  0.137100  0.727500  0.306000  1.0  0.0993
  H  H132  1  0.144200  0.877400  0.299600  1.0  0.1135
  H  H133  1  0.094600  0.732800  0.380300  1.0  0.1102
  H  H134  1  0.143000  0.736600  0.221200  1.0  0.1103
  H  H135  1  0.901100  0.118400  0.373700  1.0  0.1024
  H  H136  1  0.862900  0.272500  0.306000  1.0  0.1007
  H  H137  1  0.855800  0.122600  0.299600  1.0  0.113
  H  H138  1  0.905400  0.267200  0.380300  1.0  0.1102
  H  H139  1  0.857000  0.263400  0.221200  1.0  0.1098
  H  H140  1  0.098900  0.118400  0.626300  1.0  0.1022
  H  H141  1  0.137100  0.272500  0.694000  1.0  0.1001
  H  H142  1  0.144200  0.122600  0.700400  1.0  0.1134
  H  H143  1  0.094600  0.267200  0.619700  1.0  0.1101
  H  H144  1  0.143000  0.263400  0.778800  1.0  0.1098
  H  H145  1  0.873700  0.598900  0.618400  1.0  0.1021
  H  H146  1  0.806000  0.637100  0.772500  1.0  0.1
  H  H147  1  0.799600  0.644200  0.622600  1.0  0.1142
  H  H148  1  0.880300  0.594600  0.767200  1.0  0.1103
  H  H149  1  0.721200  0.643000  0.763400  1.0  0.1089
  H  H150  1  0.126300  0.401100  0.618400  1.0  0.1027
  H  H151  1  0.194000  0.362900  0.772500  1.0  0.1001
  H  H152  1  0.200400  0.355800  0.622600  1.0  0.1141
  H  H153  1  0.119700  0.405400  0.767200  1.0  0.1108
  H  H154  1  0.278800  0.357000  0.763400  1.0  0.1077
  H  H155  1  0.126300  0.598900  0.381600  1.0  0.1022
  H  H156  1  0.194000  0.637100  0.227500  1.0  0.1001
  H  H157  1  0.200400  0.644200  0.377400  1.0  0.1146
  H  H158  1  0.119700  0.594600  0.232800  1.0  0.1109
  H  H159  1  0.278800  0.643000  0.236600  1.0  0.1093
  H  H160  1  0.873700  0.401100  0.381600  1.0  0.102
  H  H161  1  0.806000  0.362900  0.227500  1.0  0.1003
  H  H162  1  0.799600  0.355800  0.377400  1.0  0.1146
  H  H163  1  0.880300  0.405400  0.232800  1.0  0.1106
  H  H164  1  0.721200  0.357000  0.236600  1.0  0.1081
  H  H165  1  0.618400  0.873700  0.598900  1.0  0.1028
  H  H166  1  0.772500  0.806000  0.637100  1.0  0.1029
  H  H167  1  0.622600  0.799600  0.644200  1.0  0.115
  H  H168  1  0.767200  0.880300  0.594600  1.0  0.1098
  H  H169  1  0.763400  0.721200  0.643000  1.0  0.1114
  H  H170  1  0.618400  0.126300  0.401100  1.0  0.1031
  H  H171  1  0.772500  0.194000  0.362900  1.0  0.1027
  H  H172  1  0.622600  0.200400  0.355800  1.0  0.1155
  H  H173  1  0.767200  0.119700  0.405400  1.0  0.1097
  H  H174  1  0.763400  0.278800  0.357000  1.0  0.1109
  H  H175  1  0.381600  0.126300  0.598900  1.0  0.1032
  H  H176  1  0.227500  0.194000  0.637100  1.0  0.1021
  H  H177  1  0.377400  0.200400  0.644200  1.0  0.1151
  H  H178  1  0.232800  0.119700  0.594600  1.0  0.1097
  H  H179  1  0.236600  0.278800  0.643000  1.0  0.112
  H  H180  1  0.381600  0.873700  0.401100  1.0  0.1034
  H  H181  1  0.227500  0.806000  0.362900  1.0  0.1028
  H  H182  1  0.377400  0.799600  0.355800  1.0  0.1149
  H  H183  1  0.232800  0.880300  0.405400  1.0  0.1098
  H  H184  1  0.236600  0.721200  0.357000  1.0  0.1112
  H  H185  1  0.598900  0.618400  0.873700  1.0  0.1024
  H  H186  1  0.637100  0.772500  0.806000  1.0  0.1006
  H  H187  1  0.644200  0.622600  0.799600  1.0  0.1126
  H  H188  1  0.594600  0.767200  0.880300  1.0  0.1103
  H  H189  1  0.643000  0.763400  0.721200  1.0  0.1101
  H  H190  1  0.401100  0.618400  0.126300  1.0  0.1024
  H  H191  1  0.362900  0.772500  0.194000  1.0  0.1008
  H  H192  1  0.355800  0.622600  0.200400  1.0  0.1137
  H  H193  1  0.405400  0.767200  0.119700  1.0  0.1101
  H  H194  1  0.357000  0.763400  0.278800  1.0  0.1092
  H  H195  1  0.598900  0.381600  0.126300  1.0  0.1033
  H  H196  1  0.637100  0.227500  0.194000  1.0  0.0997
  H  H197  1  0.644200  0.377400  0.200400  1.0  0.1132
  H  H198  1  0.594600  0.232800  0.119700  1.0  0.1098
  H  H199  1  0.643000  0.236600  0.278800  1.0  0.1101
  H  H200  1  0.401100  0.381600  0.873700  1.0  0.1029
  H  H201  1  0.362900  0.227500  0.806000  1.0  0.1007
  H  H202  1  0.355800  0.377400  0.799600  1.0  0.1138
  H  H203  1  0.405400  0.232800  0.880300  1.0  0.1101
  H  H204  1  0.357000  0.236600  0.721200  1.0  0.1101
  H  H205  1  0.126300  0.401100  0.381600  1.0  0.1021
  H  H206  1  0.194000  0.362900  0.227500  1.0  0.1003
  H  H207  1  0.200400  0.355800  0.377400  1.0  0.1147
  H  H208  1  0.119700  0.405400  0.232800  1.0  0.1109
  H  H209  1  0.278800  0.357000  0.236600  1.0  0.1081
  H  H210  1  0.873700  0.598900  0.381600  1.0  0.1021
  H  H211  1  0.806000  0.637100  0.227500  1.0  0.1002
  H  H212  1  0.799600  0.644200  0.377400  1.0  0.1144
  H  H213  1  0.880300  0.594600  0.232800  1.0  0.1107
  H  H214  1  0.721200  0.643000  0.236600  1.0  0.109
  H  H215  1  0.873700  0.401100  0.618400  1.0  0.1026
  H  H216  1  0.806000  0.362900  0.772500  1.0  0.1
  H  H217  1  0.799600  0.355800  0.622600  1.0  0.114
  H  H218  1  0.880300  0.405400  0.767200  1.0  0.1104
  H  H219  1  0.721200  0.357000  0.763400  1.0  0.1079
  H  H220  1  0.126300  0.598900  0.618400  1.0  0.1021
  H  H221  1  0.194000  0.637100  0.772500  1.0  0.1001
  H  H222  1  0.200400  0.644200  0.622600  1.0  0.1145
  H  H223  1  0.119700  0.594600  0.767200  1.0  0.1107
  H  H224  1  0.278800  0.643000  0.763400  1.0  0.109
  H  H225  1  0.381600  0.126300  0.401100  1.0  0.1033
  H  H226  1  0.227500  0.194000  0.362900  1.0  0.1025
  H  H227  1  0.377400  0.200400  0.355800  1.0  0.1151
  H  H228  1  0.232800  0.119700  0.405400  1.0  0.1099
  H  H229  1  0.236600  0.278800  0.357000  1.0  0.1114
  H  H230  1  0.381600  0.873700  0.598900  1.0  0.1036
  H  H231  1  0.227500  0.806000  0.637100  1.0  0.1024
  H  H232  1  0.377400  0.799600  0.644200  1.0  0.115
  H  H233  1  0.232800  0.880300  0.594600  1.0  0.1099
  H  H234  1  0.236600  0.721200  0.643000  1.0  0.1116
  H  H235  1  0.618400  0.873700  0.401100  1.0  0.103
  H  H236  1  0.772500  0.806000  0.362900  1.0  0.1031
  H  H237  1  0.622600  0.799600  0.355800  1.0  0.1154
  H  H238  1  0.767200  0.880300  0.405400  1.0  0.1097
  H  H239  1  0.763400  0.721200  0.357000  1.0  0.1108
  H  H240  1  0.618400  0.126300  0.598900  1.0  0.1028
  H  H241  1  0.772500  0.194000  0.637100  1.0  0.1026
  H  H242  1  0.622600  0.200400  0.644200  1.0  0.115
  H  H243  1  0.767200  0.119700  0.594600  1.0  0.1095
  H  H244  1  0.763400  0.278800  0.643000  1.0  0.1114
  H  H245  1  0.401100  0.381600  0.126300  1.0  0.1033
  H  H246  1  0.362900  0.227500  0.194000  1.0  0.1007
  H  H247  1  0.355800  0.377400  0.200400  1.0  0.1135
  H  H248  1  0.405400  0.232800  0.119700  1.0  0.1099
  H  H249  1  0.357000  0.236600  0.278800  1.0  0.1093
  H  H250  1  0.598900  0.381600  0.873700  1.0  0.1029
  H  H251  1  0.637100  0.227500  0.806000  1.0  0.0997
  H  H252  1  0.644200  0.377400  0.799600  1.0  0.1135
  H  H253  1  0.594600  0.232800  0.880300  1.0  0.1102
  H  H254  1  0.643000  0.236600  0.721200  1.0  0.1103
  H  H255  1  0.401100  0.618400  0.873700  1.0  0.1024
  H  H256  1  0.362900  0.772500  0.806000  1.0  0.101
  H  H257  1  0.355800  0.622600  0.799600  1.0  0.113
  H  H258  1  0.405400  0.767200  0.880300  1.0  0.1102
  H  H259  1  0.357000  0.763400  0.721200  1.0  0.1098
  H  H260  1  0.598900  0.618400  0.126300  1.0  0.1022
  H  H261  1  0.637100  0.772500  0.194000  1.0  0.1005
  H  H262  1  0.644200  0.622600  0.200400  1.0  0.1134
  H  H263  1  0.594600  0.767200  0.119700  1.0  0.1101
  H  H264  1  0.643000  0.763400  0.278800  1.0  0.1098
  C  C265  1  0.294700  0.145730  0.197840  1.0  0.0481
  C  C266  1  0.430560  0.062140  0.190690  1.0  0.6936
  C  C267  1  0.360140  0.107080  0.149400  1.0  -0.0457
  C  C268  1  0.319630  0.130020  0.241250  1.0  -0.1129
  C  C269  1  0.315430  0.134000  0.151890  1.0  -0.1064
  C  C270  1  0.363900  0.104250  0.238070  1.0  -0.0874
  C  C271  1  0.216650  0.170070  0.241910  1.0  -0.1309
  C  C272  1  0.384290  0.092570  0.192370  1.0  -0.13
  C  C273  1  0.249620  0.177330  0.202480  1.0  0.0382
  C  C274  1  0.705300  0.854270  0.197840  1.0  0.0499
  C  C275  1  0.569440  0.937860  0.190690  1.0  0.6929
  C  C276  1  0.639860  0.892920  0.149400  1.0  -0.0454
  C  C277  1  0.680370  0.869980  0.241250  1.0  -0.1136
  C  C278  1  0.684570  0.866000  0.151890  1.0  -0.1081
  C  C279  1  0.636100  0.895750  0.238070  1.0  -0.0862
  C  C280  1  0.783350  0.829930  0.241910  1.0  -0.1326
  C  C281  1  0.615710  0.907430  0.192370  1.0  -0.1278
  C  C282  1  0.750380  0.822670  0.202480  1.0  0.0376
  C  C283  1  0.705300  0.145730  0.802160  1.0  0.0489
  C  C284  1  0.569440  0.062140  0.809310  1.0  0.6927
  C  C285  1  0.639860  0.107080  0.850600  1.0  -0.0458
  C  C286  1  0.680370  0.130020  0.758750  1.0  -0.1127
  C  C287  1  0.684570  0.134000  0.848110  1.0  -0.1081
  C  C288  1  0.636100  0.104250  0.761930  1.0  -0.0865
  C  C289  1  0.783350  0.170070  0.758090  1.0  -0.135
  C  C290  1  0.615710  0.092570  0.807630  1.0  -0.1286
  C  C291  1  0.750380  0.177330  0.797520  1.0  0.0382
  C  C292  1  0.294700  0.854270  0.802160  1.0  0.0498
  C  C293  1  0.430560  0.937860  0.809310  1.0  0.6937
  C  C294  1  0.360140  0.892920  0.850600  1.0  -0.0446
  C  C295  1  0.319630  0.869980  0.758750  1.0  -0.1143
  C  C296  1  0.315430  0.866000  0.848110  1.0  -0.1071
  C  C297  1  0.363900  0.895750  0.761930  1.0  -0.0882
  C  C298  1  0.216650  0.829930  0.758090  1.0  -0.1322
  C  C299  1  0.384290  0.907430  0.807630  1.0  -0.1294
  C  C300  1  0.249620  0.822670  0.797520  1.0  0.0367
  C  C301  1  0.197840  0.294700  0.145730  1.0  0.0498
  C  C302  1  0.190690  0.430560  0.062140  1.0  0.6947
  C  C303  1  0.149400  0.360140  0.107080  1.0  -0.0413
  C  C304  1  0.241250  0.319630  0.130020  1.0  -0.1099
  C  C305  1  0.151890  0.315430  0.134000  1.0  -0.1037
  C  C306  1  0.238070  0.363900  0.104250  1.0  -0.0839
  C  C307  1  0.241910  0.216650  0.170070  1.0  -0.1346
  C  C308  1  0.192370  0.384290  0.092570  1.0  -0.1263
  C  C309  1  0.202480  0.249620  0.177330  1.0  0.035
  C  C310  1  0.197840  0.705300  0.854270  1.0  0.0486
  C  C311  1  0.190690  0.569440  0.937860  1.0  0.6946
  C  C312  1  0.149400  0.639860  0.892920  1.0  -0.041
  C  C313  1  0.241250  0.680370  0.869980  1.0  -0.1115
  C  C314  1  0.151890  0.684570  0.866000  1.0  -0.1056
  C  C315  1  0.238070  0.636100  0.895750  1.0  -0.0837
  C  C316  1  0.241910  0.783350  0.829930  1.0  -0.1348
  C  C317  1  0.192370  0.615710  0.907430  1.0  -0.1269
  C  C318  1  0.202480  0.750380  0.822670  1.0  0.0366
  C  C319  1  0.802160  0.705300  0.145730  1.0  0.0516
  C  C320  1  0.809310  0.569440  0.062140  1.0  0.6943
  C  C321  1  0.850600  0.639860  0.107080  1.0  -0.0402
  C  C322  1  0.758750  0.680370  0.130020  1.0  -0.11
  C  C323  1  0.848110  0.684570  0.134000  1.0  -0.1028
  C  C324  1  0.761930  0.636100  0.104250  1.0  -0.0823
  C  C325  1  0.758090  0.783350  0.170070  1.0  -0.1357
  C  C326  1  0.807630  0.615710  0.092570  1.0  -0.1283
  C  C327  1  0.797520  0.750380  0.177330  1.0  0.0336
  C  C328  1  0.802160  0.294700  0.854270  1.0  0.0512
  C  C329  1  0.809310  0.430560  0.937860  1.0  0.6944
  C  C330  1  0.850600  0.360140  0.892920  1.0  -0.0404
  C  C331  1  0.758750  0.319630  0.869980  1.0  -0.1126
  C  C332  1  0.848110  0.315430  0.866000  1.0  -0.1029
  C  C333  1  0.761930  0.363900  0.895750  1.0  -0.0837
  C  C334  1  0.758090  0.216650  0.829930  1.0  -0.1358
  C  C335  1  0.807630  0.384290  0.907430  1.0  -0.1274
  C  C336  1  0.797520  0.249620  0.822670  1.0  0.0377
  C  C337  1  0.145730  0.197840  0.294700  1.0  0.0505
  C  C338  1  0.062140  0.190690  0.430560  1.0  0.6949
  C  C339  1  0.107080  0.149400  0.360140  1.0  -0.0418
  C  C340  1  0.130020  0.241250  0.319630  1.0  -0.1116
  C  C341  1  0.134000  0.151890  0.315430  1.0  -0.1034
  C  C342  1  0.104250  0.238070  0.363900  1.0  -0.0827
  C  C343  1  0.170070  0.241910  0.216650  1.0  -0.1373
  C  C344  1  0.092570  0.192370  0.384290  1.0  -0.129
  C  C345  1  0.177330  0.202480  0.249620  1.0  0.0398
  C  C346  1  0.854270  0.197840  0.705300  1.0  0.05
  C  C347  1  0.937860  0.190690  0.569440  1.0  0.6943
  C  C348  1  0.892920  0.149400  0.639860  1.0  -0.0417
  C  C349  1  0.869980  0.241250  0.680370  1.0  -0.1102
  C  C350  1  0.866000  0.151890  0.684570  1.0  -0.1029
  C  C351  1  0.895750  0.238070  0.636100  1.0  -0.0837
  C  C352  1  0.829930  0.241910  0.783350  1.0  -0.1371
  C  C353  1  0.907430  0.192370  0.615710  1.0  -0.1296
  C  C354  1  0.822670  0.202480  0.750380  1.0  0.0413
  C  C355  1  0.145730  0.802160  0.705300  1.0  0.0498
  C  C356  1  0.062140  0.809310  0.569440  1.0  0.6947
  C  C357  1  0.107080  0.850600  0.639860  1.0  -0.0412
  C  C358  1  0.130020  0.758750  0.680370  1.0  -0.1121
  C  C359  1  0.134000  0.848110  0.684570  1.0  -0.1035
  C  C360  1  0.104250  0.761930  0.636100  1.0  -0.082
  C  C361  1  0.170070  0.758090  0.783350  1.0  -0.1368
  C  C362  1  0.092570  0.807630  0.615710  1.0  -0.1285
  C  C363  1  0.177330  0.797520  0.750380  1.0  0.0389
  C  C364  1  0.854270  0.802160  0.294700  1.0  0.05
  C  C365  1  0.937860  0.809310  0.430560  1.0  0.6951
  C  C366  1  0.892920  0.850600  0.360140  1.0  -0.0404
  C  C367  1  0.869980  0.758750  0.319630  1.0  -0.1118
  C  C368  1  0.866000  0.848110  0.315430  1.0  -0.1048
  C  C369  1  0.895750  0.761930  0.363900  1.0  -0.0835
  C  C370  1  0.829930  0.758090  0.216650  1.0  -0.1362
  C  C371  1  0.907430  0.807630  0.384290  1.0  -0.1308
  C  C372  1  0.822670  0.797520  0.249620  1.0  0.0393
  C  C373  1  0.705300  0.854270  0.802160  1.0  0.0497
  C  C374  1  0.569440  0.937860  0.809310  1.0  0.6929
  C  C375  1  0.639860  0.892920  0.850600  1.0  -0.0461
  C  C376  1  0.680370  0.869980  0.758750  1.0  -0.1147
  C  C377  1  0.684570  0.866000  0.848110  1.0  -0.1064
  C  C378  1  0.636100  0.895750  0.761930  1.0  -0.0866
  C  C379  1  0.783350  0.829930  0.758090  1.0  -0.1339
  C  C380  1  0.615710  0.907430  0.807630  1.0  -0.128
  C  C381  1  0.750380  0.822670  0.797520  1.0  0.0365
  C  C382  1  0.294700  0.145730  0.802160  1.0  0.0489
  C  C383  1  0.430560  0.062140  0.809310  1.0  0.6934
  C  C384  1  0.360140  0.107080  0.850600  1.0  -0.0446
  C  C385  1  0.319630  0.130020  0.758750  1.0  -0.1126
  C  C386  1  0.315430  0.134000  0.848110  1.0  -0.1078
  C  C387  1  0.363900  0.104250  0.761930  1.0  -0.0881
  C  C388  1  0.216650  0.170070  0.758090  1.0  -0.1326
  C  C389  1  0.384290  0.092570  0.807630  1.0  -0.1301
  C  C390  1  0.249620  0.177330  0.797520  1.0  0.0392
  C  C391  1  0.294700  0.854270  0.197840  1.0  0.0492
  C  C392  1  0.430560  0.937860  0.190690  1.0  0.6937
  C  C393  1  0.360140  0.892920  0.149400  1.0  -0.0456
  C  C394  1  0.319630  0.869980  0.241250  1.0  -0.1132
  C  C395  1  0.315430  0.866000  0.151890  1.0  -0.1065
  C  C396  1  0.363900  0.895750  0.238070  1.0  -0.0873
  C  C397  1  0.216650  0.829930  0.241910  1.0  -0.1314
  C  C398  1  0.384290  0.907430  0.192370  1.0  -0.1293
  C  C399  1  0.249620  0.822670  0.202480  1.0  0.0385
  C  C400  1  0.705300  0.145730  0.197840  1.0  0.0483
  C  C401  1  0.569440  0.062140  0.190690  1.0  0.6929
  C  C402  1  0.639860  0.107080  0.149400  1.0  -0.0454
  C  C403  1  0.680370  0.130020  0.241250  1.0  -0.1127
  C  C404  1  0.684570  0.134000  0.151890  1.0  -0.1085
  C  C405  1  0.636100  0.104250  0.238070  1.0  -0.0861
  C  C406  1  0.783350  0.170070  0.241910  1.0  -0.1325
  C  C407  1  0.615710  0.092570  0.192370  1.0  -0.1286
  C  C408  1  0.750380  0.177330  0.202480  1.0  0.0379
  C  C409  1  0.802160  0.705300  0.854270  1.0  0.0509
  C  C410  1  0.809310  0.569440  0.937860  1.0  0.6943
  C  C411  1  0.850600  0.639860  0.892920  1.0  -0.0404
  C  C412  1  0.758750  0.680370  0.869980  1.0  -0.1125
  C  C413  1  0.848110  0.684570  0.866000  1.0  -0.1026
  C  C414  1  0.761930  0.636100  0.895750  1.0  -0.0825
  C  C415  1  0.758090  0.783350  0.829930  1.0  -0.1358
  C  C416  1  0.807630  0.615710  0.907430  1.0  -0.1276
  C  C417  1  0.797520  0.750380  0.822670  1.0  0.0354
  C  C418  1  0.802160  0.294700  0.145730  1.0  0.0497
  C  C419  1  0.809310  0.430560  0.062140  1.0  0.6942
  C  C420  1  0.850600  0.360140  0.107080  1.0  -0.0401
  C  C421  1  0.758750  0.319630  0.130020  1.0  -0.1103
  C  C422  1  0.848110  0.315430  0.134000  1.0  -0.1027
  C  C423  1  0.761930  0.363900  0.104250  1.0  -0.0827
  C  C424  1  0.758090  0.216650  0.170070  1.0  -0.1363
  C  C425  1  0.807630  0.384290  0.092570  1.0  -0.1271
  C  C426  1  0.797520  0.249620  0.177330  1.0  0.0338
  C  C427  1  0.197840  0.294700  0.854270  1.0  0.0495
  C  C428  1  0.190690  0.430560  0.937860  1.0  0.6948
  C  C429  1  0.149400  0.360140  0.892920  1.0  -0.0416
  C  C430  1  0.241250  0.319630  0.869980  1.0  -0.1118
  C  C431  1  0.151890  0.315430  0.866000  1.0  -0.1041
  C  C432  1  0.238070  0.363900  0.895750  1.0  -0.0842
  C  C433  1  0.241910  0.216650  0.829930  1.0  -0.1346
  C  C434  1  0.192370  0.384290  0.907430  1.0  -0.1263
  C  C435  1  0.202480  0.249620  0.822670  1.0  0.0384
  C  C436  1  0.197840  0.705300  0.145730  1.0  0.0523
  C  C437  1  0.190690  0.569440  0.062140  1.0  0.6947
  C  C438  1  0.149400  0.639860  0.107080  1.0  -0.0408
  C  C439  1  0.241250  0.680370  0.130020  1.0  -0.1098
  C  C440  1  0.151890  0.684570  0.134000  1.0  -0.1054
  C  C441  1  0.238070  0.636100  0.104250  1.0  -0.0836
  C  C442  1  0.241910  0.783350  0.170070  1.0  -0.1336
  C  C443  1  0.192370  0.615710  0.092570  1.0  -0.1278
  C  C444  1  0.202480  0.750380  0.177330  1.0  0.0348
  C  C445  1  0.854270  0.802160  0.705300  1.0  0.049
  C  C446  1  0.937860  0.809310  0.569440  1.0  0.6946
  C  C447  1  0.892920  0.850600  0.639860  1.0  -0.0405
  C  C448  1  0.869980  0.758750  0.680370  1.0  -0.1113
  C  C449  1  0.866000  0.848110  0.684570  1.0  -0.1044
  C  C450  1  0.895750  0.761930  0.636100  1.0  -0.0834
  C  C451  1  0.829930  0.758090  0.783350  1.0  -0.1367
  C  C452  1  0.907430  0.807630  0.615710  1.0  -0.1294
  C  C453  1  0.822670  0.797520  0.750380  1.0  0.0401
  C  C454  1  0.145730  0.802160  0.294700  1.0  0.0504
  C  C455  1  0.062140  0.809310  0.430560  1.0  0.6951
  C  C456  1  0.107080  0.850600  0.360140  1.0  -0.0408
  C  C457  1  0.130020  0.758750  0.319630  1.0  -0.1118
  C  C458  1  0.134000  0.848110  0.315430  1.0  -0.1043
  C  C459  1  0.104250  0.761930  0.363900  1.0  -0.0823
  C  C460  1  0.170070  0.758090  0.216650  1.0  -0.1358
  C  C461  1  0.092570  0.807630  0.384290  1.0  -0.129
  C  C462  1  0.177330  0.797520  0.249620  1.0  0.0389
  C  C463  1  0.854270  0.197840  0.294700  1.0  0.0504
  C  C464  1  0.937860  0.190690  0.430560  1.0  0.6948
  C  C465  1  0.892920  0.149400  0.360140  1.0  -0.0416
  C  C466  1  0.869980  0.241250  0.319630  1.0  -0.1107
  C  C467  1  0.866000  0.151890  0.315430  1.0  -0.103
  C  C468  1  0.895750  0.238070  0.363900  1.0  -0.0845
  C  C469  1  0.829930  0.241910  0.216650  1.0  -0.1366
  C  C470  1  0.907430  0.192370  0.384290  1.0  -0.1308
  C  C471  1  0.822670  0.202480  0.249620  1.0  0.0399
  C  C472  1  0.145730  0.197840  0.705300  1.0  0.05
  C  C473  1  0.062140  0.190690  0.569440  1.0  0.6944
  C  C474  1  0.107080  0.149400  0.639860  1.0  -0.0423
  C  C475  1  0.130020  0.241250  0.680370  1.0  -0.1115
  C  C476  1  0.134000  0.151890  0.684570  1.0  -0.1024
  C  C477  1  0.104250  0.238070  0.636100  1.0  -0.0817
  C  C478  1  0.170070  0.241910  0.783350  1.0  -0.1381
  C  C479  1  0.092570  0.192370  0.615710  1.0  -0.1287
  C  C480  1  0.177330  0.202480  0.750380  1.0  0.0407
  C  C481  1  0.794700  0.645730  0.697840  1.0  0.0481
  C  C482  1  0.930560  0.562140  0.690690  1.0  0.6936
  C  C483  1  0.860140  0.607080  0.649400  1.0  -0.0457
  C  C484  1  0.819630  0.630020  0.741250  1.0  -0.1129
  C  C485  1  0.815430  0.634000  0.651890  1.0  -0.1064
  C  C486  1  0.863900  0.604250  0.738070  1.0  -0.0874
  C  C487  1  0.716650  0.670070  0.741910  1.0  -0.1309
  C  C488  1  0.884290  0.592570  0.692370  1.0  -0.13
  C  C489  1  0.749620  0.677330  0.702480  1.0  0.0382
  C  C490  1  0.205300  0.354270  0.697840  1.0  0.0499
  C  C491  1  0.069440  0.437860  0.690690  1.0  0.6929
  C  C492  1  0.139860  0.392920  0.649400  1.0  -0.0454
  C  C493  1  0.180370  0.369980  0.741250  1.0  -0.1136
  C  C494  1  0.184570  0.366000  0.651890  1.0  -0.1081
  C  C495  1  0.136100  0.395750  0.738070  1.0  -0.0862
  C  C496  1  0.283350  0.329930  0.741910  1.0  -0.1326
  C  C497  1  0.115710  0.407430  0.692370  1.0  -0.1278
  C  C498  1  0.250380  0.322670  0.702480  1.0  0.0376
  C  C499  1  0.205300  0.645730  0.302160  1.0  0.0489
  C  C500  1  0.069440  0.562140  0.309310  1.0  0.6927
  C  C501  1  0.139860  0.607080  0.350600  1.0  -0.0458
  C  C502  1  0.180370  0.630020  0.258750  1.0  -0.1127
  C  C503  1  0.184570  0.634000  0.348110  1.0  -0.1081
  C  C504  1  0.136100  0.604250  0.261930  1.0  -0.0865
  C  C505  1  0.283350  0.670070  0.258090  1.0  -0.135
  C  C506  1  0.115710  0.592570  0.307630  1.0  -0.1286
  C  C507  1  0.250380  0.677330  0.297520  1.0  0.0382
  C  C508  1  0.794700  0.354270  0.302160  1.0  0.0498
  C  C509  1  0.930560  0.437860  0.309310  1.0  0.6937
  C  C510  1  0.860140  0.392920  0.350600  1.0  -0.0446
  C  C511  1  0.819630  0.369980  0.258750  1.0  -0.1143
  C  C512  1  0.815430  0.366000  0.348110  1.0  -0.1071
  C  C513  1  0.863900  0.395750  0.261930  1.0  -0.0882
  C  C514  1  0.716650  0.329930  0.258090  1.0  -0.1322
  C  C515  1  0.884290  0.407430  0.307630  1.0  -0.1294
  C  C516  1  0.749620  0.322670  0.297520  1.0  0.0367
  C  C517  1  0.697840  0.794700  0.645730  1.0  0.0498
  C  C518  1  0.690690  0.930560  0.562140  1.0  0.6947
  C  C519  1  0.649400  0.860140  0.607080  1.0  -0.0413
  C  C520  1  0.741250  0.819630  0.630020  1.0  -0.1099
  C  C521  1  0.651890  0.815430  0.634000  1.0  -0.1037
  C  C522  1  0.738070  0.863900  0.604250  1.0  -0.0839
  C  C523  1  0.741910  0.716650  0.670070  1.0  -0.1346
  C  C524  1  0.692370  0.884290  0.592570  1.0  -0.1263
  C  C525  1  0.702480  0.749620  0.677330  1.0  0.035
  C  C526  1  0.697840  0.205300  0.354270  1.0  0.0486
  C  C527  1  0.690690  0.069440  0.437860  1.0  0.6946
  C  C528  1  0.649400  0.139860  0.392920  1.0  -0.041
  C  C529  1  0.741250  0.180370  0.369980  1.0  -0.1115
  C  C530  1  0.651890  0.184570  0.366000  1.0  -0.1056
  C  C531  1  0.738070  0.136100  0.395750  1.0  -0.0837
  C  C532  1  0.741910  0.283350  0.329930  1.0  -0.1348
  C  C533  1  0.692370  0.115710  0.407430  1.0  -0.1269
  C  C534  1  0.702480  0.250380  0.322670  1.0  0.0366
  C  C535  1  0.302160  0.205300  0.645730  1.0  0.0516
  C  C536  1  0.309310  0.069440  0.562140  1.0  0.6943
  C  C537  1  0.350600  0.139860  0.607080  1.0  -0.0402
  C  C538  1  0.258750  0.180370  0.630020  1.0  -0.11
  C  C539  1  0.348110  0.184570  0.634000  1.0  -0.1028
  C  C540  1  0.261930  0.136100  0.604250  1.0  -0.0823
  C  C541  1  0.258090  0.283350  0.670070  1.0  -0.1357
  C  C542  1  0.307630  0.115710  0.592570  1.0  -0.1283
  C  C543  1  0.297520  0.250380  0.677330  1.0  0.0336
  C  C544  1  0.302160  0.794700  0.354270  1.0  0.0512
  C  C545  1  0.309310  0.930560  0.437860  1.0  0.6944
  C  C546  1  0.350600  0.860140  0.392920  1.0  -0.0404
  C  C547  1  0.258750  0.819630  0.369980  1.0  -0.1126
  C  C548  1  0.348110  0.815430  0.366000  1.0  -0.1029
  C  C549  1  0.261930  0.863900  0.395750  1.0  -0.0837
  C  C550  1  0.258090  0.716650  0.329930  1.0  -0.1358
  C  C551  1  0.307630  0.884290  0.407430  1.0  -0.1274
  C  C552  1  0.297520  0.749620  0.322670  1.0  0.0377
  C  C553  1  0.645730  0.697840  0.794700  1.0  0.0505
  C  C554  1  0.562140  0.690690  0.930560  1.0  0.6949
  C  C555  1  0.607080  0.649400  0.860140  1.0  -0.0418
  C  C556  1  0.630020  0.741250  0.819630  1.0  -0.1116
  C  C557  1  0.634000  0.651890  0.815430  1.0  -0.1034
  C  C558  1  0.604250  0.738070  0.863900  1.0  -0.0827
  C  C559  1  0.670070  0.741910  0.716650  1.0  -0.1373
  C  C560  1  0.592570  0.692370  0.884290  1.0  -0.129
  C  C561  1  0.677330  0.702480  0.749620  1.0  0.0398
  C  C562  1  0.354270  0.697840  0.205300  1.0  0.05
  C  C563  1  0.437860  0.690690  0.069440  1.0  0.6943
  C  C564  1  0.392920  0.649400  0.139860  1.0  -0.0417
  C  C565  1  0.369980  0.741250  0.180370  1.0  -0.1102
  C  C566  1  0.366000  0.651890  0.184570  1.0  -0.1029
  C  C567  1  0.395750  0.738070  0.136100  1.0  -0.0837
  C  C568  1  0.329930  0.741910  0.283350  1.0  -0.1371
  C  C569  1  0.407430  0.692370  0.115710  1.0  -0.1296
  C  C570  1  0.322670  0.702480  0.250380  1.0  0.0413
  C  C571  1  0.645730  0.302160  0.205300  1.0  0.0498
  C  C572  1  0.562140  0.309310  0.069440  1.0  0.6947
  C  C573  1  0.607080  0.350600  0.139860  1.0  -0.0412
  C  C574  1  0.630020  0.258750  0.180370  1.0  -0.1121
  C  C575  1  0.634000  0.348110  0.184570  1.0  -0.1035
  C  C576  1  0.604250  0.261930  0.136100  1.0  -0.082
  C  C577  1  0.670070  0.258090  0.283350  1.0  -0.1368
  C  C578  1  0.592570  0.307630  0.115710  1.0  -0.1285
  C  C579  1  0.677330  0.297520  0.250380  1.0  0.0389
  C  C580  1  0.354270  0.302160  0.794700  1.0  0.05
  C  C581  1  0.437860  0.309310  0.930560  1.0  0.6951
  C  C582  1  0.392920  0.350600  0.860140  1.0  -0.0404
  C  C583  1  0.369980  0.258750  0.819630  1.0  -0.1118
  C  C584  1  0.366000  0.348110  0.815430  1.0  -0.1048
  C  C585  1  0.395750  0.261930  0.863900  1.0  -0.0835
  C  C586  1  0.329930  0.258090  0.716650  1.0  -0.1362
  C  C587  1  0.407430  0.307630  0.884290  1.0  -0.1308
  C  C588  1  0.322670  0.297520  0.749620  1.0  0.0393
  C  C589  1  0.205300  0.354270  0.302160  1.0  0.0497
  C  C590  1  0.069440  0.437860  0.309310  1.0  0.6929
  C  C591  1  0.139860  0.392920  0.350600  1.0  -0.0461
  C  C592  1  0.180370  0.369980  0.258750  1.0  -0.1147
  C  C593  1  0.184570  0.366000  0.348110  1.0  -0.1064
  C  C594  1  0.136100  0.395750  0.261930  1.0  -0.0866
  C  C595  1  0.283350  0.329930  0.258090  1.0  -0.1339
  C  C596  1  0.115710  0.407430  0.307630  1.0  -0.128
  C  C597  1  0.250380  0.322670  0.297520  1.0  0.0365
  C  C598  1  0.794700  0.645730  0.302160  1.0  0.0489
  C  C599  1  0.930560  0.562140  0.309310  1.0  0.6934
  C  C600  1  0.860140  0.607080  0.350600  1.0  -0.0446
  C  C601  1  0.819630  0.630020  0.258750  1.0  -0.1126
  C  C602  1  0.815430  0.634000  0.348110  1.0  -0.1078
  C  C603  1  0.863900  0.604250  0.261930  1.0  -0.0881
  C  C604  1  0.716650  0.670070  0.258090  1.0  -0.1326
  C  C605  1  0.884290  0.592570  0.307630  1.0  -0.1301
  C  C606  1  0.749620  0.677330  0.297520  1.0  0.0392
  C  C607  1  0.794700  0.354270  0.697840  1.0  0.0492
  C  C608  1  0.930560  0.437860  0.690690  1.0  0.6937
  C  C609  1  0.860140  0.392920  0.649400  1.0  -0.0456
  C  C610  1  0.819630  0.369980  0.741250  1.0  -0.1132
  C  C611  1  0.815430  0.366000  0.651890  1.0  -0.1065
  C  C612  1  0.863900  0.395750  0.738070  1.0  -0.0873
  C  C613  1  0.716650  0.329930  0.741910  1.0  -0.1314
  C  C614  1  0.884290  0.407430  0.692370  1.0  -0.1293
  C  C615  1  0.749620  0.322670  0.702480  1.0  0.0385
  C  C616  1  0.205300  0.645730  0.697840  1.0  0.0483
  C  C617  1  0.069440  0.562140  0.690690  1.0  0.6929
  C  C618  1  0.139860  0.607080  0.649400  1.0  -0.0454
  C  C619  1  0.180370  0.630020  0.741250  1.0  -0.1127
  C  C620  1  0.184570  0.634000  0.651890  1.0  -0.1085
  C  C621  1  0.136100  0.604250  0.738070  1.0  -0.0861
  C  C622  1  0.283350  0.670070  0.741910  1.0  -0.1325
  C  C623  1  0.115710  0.592570  0.692370  1.0  -0.1286
  C  C624  1  0.250380  0.677330  0.702480  1.0  0.0379
  C  C625  1  0.302160  0.205300  0.354270  1.0  0.0509
  C  C626  1  0.309310  0.069440  0.437860  1.0  0.6943
  C  C627  1  0.350600  0.139860  0.392920  1.0  -0.0404
  C  C628  1  0.258750  0.180370  0.369980  1.0  -0.1125
  C  C629  1  0.348110  0.184570  0.366000  1.0  -0.1026
  C  C630  1  0.261930  0.136100  0.395750  1.0  -0.0825
  C  C631  1  0.258090  0.283350  0.329930  1.0  -0.1358
  C  C632  1  0.307630  0.115710  0.407430  1.0  -0.1276
  C  C633  1  0.297520  0.250380  0.322670  1.0  0.0354
  C  C634  1  0.302160  0.794700  0.645730  1.0  0.0497
  C  C635  1  0.309310  0.930560  0.562140  1.0  0.6942
  C  C636  1  0.350600  0.860140  0.607080  1.0  -0.0401
  C  C637  1  0.258750  0.819630  0.630020  1.0  -0.1103
  C  C638  1  0.348110  0.815430  0.634000  1.0  -0.1027
  C  C639  1  0.261930  0.863900  0.604250  1.0  -0.0827
  C  C640  1  0.258090  0.716650  0.670070  1.0  -0.1363
  C  C641  1  0.307630  0.884290  0.592570  1.0  -0.1271
  C  C642  1  0.297520  0.749620  0.677330  1.0  0.0338
  C  C643  1  0.697840  0.794700  0.354270  1.0  0.0495
  C  C644  1  0.690690  0.930560  0.437860  1.0  0.6948
  C  C645  1  0.649400  0.860140  0.392920  1.0  -0.0416
  C  C646  1  0.741250  0.819630  0.369980  1.0  -0.1118
  C  C647  1  0.651890  0.815430  0.366000  1.0  -0.1041
  C  C648  1  0.738070  0.863900  0.395750  1.0  -0.0842
  C  C649  1  0.741910  0.716650  0.329930  1.0  -0.1346
  C  C650  1  0.692370  0.884290  0.407430  1.0  -0.1263
  C  C651  1  0.702480  0.749620  0.322670  1.0  0.0384
  C  C652  1  0.697840  0.205300  0.645730  1.0  0.0523
  C  C653  1  0.690690  0.069440  0.562140  1.0  0.6947
  C  C654  1  0.649400  0.139860  0.607080  1.0  -0.0408
  C  C655  1  0.741250  0.180370  0.630020  1.0  -0.1098
  C  C656  1  0.651890  0.184570  0.634000  1.0  -0.1054
  C  C657  1  0.738070  0.136100  0.604250  1.0  -0.0836
  C  C658  1  0.741910  0.283350  0.670070  1.0  -0.1336
  C  C659  1  0.692370  0.115710  0.592570  1.0  -0.1278
  C  C660  1  0.702480  0.250380  0.677330  1.0  0.0348
  C  C661  1  0.354270  0.302160  0.205300  1.0  0.049
  C  C662  1  0.437860  0.309310  0.069440  1.0  0.6946
  C  C663  1  0.392920  0.350600  0.139860  1.0  -0.0405
  C  C664  1  0.369980  0.258750  0.180370  1.0  -0.1113
  C  C665  1  0.366000  0.348110  0.184570  1.0  -0.1044
  C  C666  1  0.395750  0.261930  0.136100  1.0  -0.0834
  C  C667  1  0.329930  0.258090  0.283350  1.0  -0.1367
  C  C668  1  0.407430  0.307630  0.115710  1.0  -0.1294
  C  C669  1  0.322670  0.297520  0.250380  1.0  0.0401
  C  C670  1  0.645730  0.302160  0.794700  1.0  0.0504
  C  C671  1  0.562140  0.309310  0.930560  1.0  0.6951
  C  C672  1  0.607080  0.350600  0.860140  1.0  -0.0408
  C  C673  1  0.630020  0.258750  0.819630  1.0  -0.1118
  C  C674  1  0.634000  0.348110  0.815430  1.0  -0.1043
  C  C675  1  0.604250  0.261930  0.863900  1.0  -0.0823
  C  C676  1  0.670070  0.258090  0.716650  1.0  -0.1358
  C  C677  1  0.592570  0.307630  0.884290  1.0  -0.129
  C  C678  1  0.677330  0.297520  0.749620  1.0  0.0389
  C  C679  1  0.354270  0.697840  0.794700  1.0  0.0504
  C  C680  1  0.437860  0.690690  0.930560  1.0  0.6948
  C  C681  1  0.392920  0.649400  0.860140  1.0  -0.0416
  C  C682  1  0.369980  0.741250  0.819630  1.0  -0.1107
  C  C683  1  0.366000  0.651890  0.815430  1.0  -0.103
  C  C684  1  0.395750  0.738070  0.863900  1.0  -0.0845
  C  C685  1  0.329930  0.741910  0.716650  1.0  -0.1366
  C  C686  1  0.407430  0.692370  0.884290  1.0  -0.1308
  C  C687  1  0.322670  0.702480  0.749620  1.0  0.0399
  C  C688  1  0.645730  0.697840  0.205300  1.0  0.05
  C  C689  1  0.562140  0.690690  0.069440  1.0  0.6944
  C  C690  1  0.607080  0.649400  0.139860  1.0  -0.0423
  C  C691  1  0.630020  0.741250  0.180370  1.0  -0.1115
  C  C692  1  0.634000  0.651890  0.184570  1.0  -0.1024
  C  C693  1  0.604250  0.738070  0.136100  1.0  -0.0817
  C  C694  1  0.670070  0.741910  0.283350  1.0  -0.1381
  C  C695  1  0.592570  0.692370  0.115710  1.0  -0.1287
  C  C696  1  0.677330  0.702480  0.250380  1.0  0.0407
  O  O697  1  0.447580  0.050170  0.148850  1.0  -0.5771
  O  O698  1  0.448450  0.049240  0.231400  1.0  -0.5821
  O  O699  1  0.552420  0.949830  0.148850  1.0  -0.5767
  O  O700  1  0.551550  0.950760  0.231400  1.0  -0.5819
  O  O701  1  0.552420  0.050170  0.851150  1.0  -0.5773
  O  O702  1  0.551550  0.049240  0.768600  1.0  -0.5814
  O  O703  1  0.447580  0.949830  0.851150  1.0  -0.5764
  O  O704  1  0.448450  0.950760  0.768600  1.0  -0.5821
  O  O705  1  0.148850  0.447580  0.050170  1.0  -0.5776
  O  O706  1  0.231400  0.448450  0.049240  1.0  -0.5811
  O  O707  1  0.148850  0.552420  0.949830  1.0  -0.5777
  O  O708  1  0.231400  0.551550  0.950760  1.0  -0.5809
  O  O709  1  0.851150  0.552420  0.050170  1.0  -0.578
  O  O710  1  0.768600  0.551550  0.049240  1.0  -0.5801
  O  O711  1  0.851150  0.447580  0.949830  1.0  -0.5789
  O  O712  1  0.768600  0.448450  0.950760  1.0  -0.5801
  O  O713  1  0.050170  0.148850  0.447580  1.0  -0.5806
  O  O714  1  0.049240  0.231400  0.448450  1.0  -0.5816
  O  O715  1  0.949830  0.148850  0.552420  1.0  -0.5802
  O  O716  1  0.950760  0.231400  0.551550  1.0  -0.5826
  O  O717  1  0.050170  0.851150  0.552420  1.0  -0.5797
  O  O718  1  0.049240  0.768600  0.551550  1.0  -0.5828
  O  O719  1  0.949830  0.851150  0.447580  1.0  -0.5805
  O  O720  1  0.950760  0.768600  0.448450  1.0  -0.5821
  O  O721  1  0.552420  0.949830  0.851150  1.0  -0.5769
  O  O722  1  0.551550  0.950760  0.768600  1.0  -0.5808
  O  O723  1  0.447580  0.050170  0.851150  1.0  -0.5769
  O  O724  1  0.448450  0.049240  0.768600  1.0  -0.5827
  O  O725  1  0.447580  0.949830  0.148850  1.0  -0.5769
  O  O726  1  0.448450  0.950760  0.231400  1.0  -0.5819
  O  O727  1  0.552420  0.050170  0.148850  1.0  -0.577
  O  O728  1  0.551550  0.049240  0.231400  1.0  -0.5822
  O  O729  1  0.851150  0.552420  0.949830  1.0  -0.5786
  O  O730  1  0.768600  0.551550  0.950760  1.0  -0.5801
  O  O731  1  0.851150  0.447580  0.050170  1.0  -0.5781
  O  O732  1  0.768600  0.448450  0.049240  1.0  -0.5799
  O  O733  1  0.148850  0.447580  0.949830  1.0  -0.5777
  O  O734  1  0.231400  0.448450  0.950760  1.0  -0.5811
  O  O735  1  0.148850  0.552420  0.050170  1.0  -0.5777
  O  O736  1  0.231400  0.551550  0.049240  1.0  -0.581
  O  O737  1  0.949830  0.851150  0.552420  1.0  -0.5806
  O  O738  1  0.950760  0.768600  0.551550  1.0  -0.5827
  O  O739  1  0.050170  0.851150  0.447580  1.0  -0.5797
  O  O740  1  0.049240  0.768600  0.448450  1.0  -0.5823
  O  O741  1  0.949830  0.148850  0.447580  1.0  -0.5804
  O  O742  1  0.950760  0.231400  0.448450  1.0  -0.5823
  O  O743  1  0.050170  0.148850  0.552420  1.0  -0.5805
  O  O744  1  0.049240  0.231400  0.551550  1.0  -0.582
  O  O745  1  0.947580  0.550170  0.648850  1.0  -0.5771
  O  O746  1  0.948450  0.549240  0.731400  1.0  -0.5821
  O  O747  1  0.052420  0.449830  0.648850  1.0  -0.5767
  O  O748  1  0.051550  0.450760  0.731400  1.0  -0.5819
  O  O749  1  0.052420  0.550170  0.351150  1.0  -0.5773
  O  O750  1  0.051550  0.549240  0.268600  1.0  -0.5814
  O  O751  1  0.947580  0.449830  0.351150  1.0  -0.5764
  O  O752  1  0.948450  0.450760  0.268600  1.0  -0.5821
  O  O753  1  0.648850  0.947580  0.550170  1.0  -0.5776
  O  O754  1  0.731400  0.948450  0.549240  1.0  -0.5811
  O  O755  1  0.648850  0.052420  0.449830  1.0  -0.5777
  O  O756  1  0.731400  0.051550  0.450760  1.0  -0.5809
  O  O757  1  0.351150  0.052420  0.550170  1.0  -0.578
  O  O758  1  0.268600  0.051550  0.549240  1.0  -0.5801
  O  O759  1  0.351150  0.947580  0.449830  1.0  -0.5789
  O  O760  1  0.268600  0.948450  0.450760  1.0  -0.5801
  O  O761  1  0.550170  0.648850  0.947580  1.0  -0.5806
  O  O762  1  0.549240  0.731400  0.948450  1.0  -0.5816
  O  O763  1  0.449830  0.648850  0.052420  1.0  -0.5802
  O  O764  1  0.450760  0.731400  0.051550  1.0  -0.5826
  O  O765  1  0.550170  0.351150  0.052420  1.0  -0.5797
  O  O766  1  0.549240  0.268600  0.051550  1.0  -0.5828
  O  O767  1  0.449830  0.351150  0.947580  1.0  -0.5805
  O  O768  1  0.450760  0.268600  0.948450  1.0  -0.5821
  O  O769  1  0.052420  0.449830  0.351150  1.0  -0.5769
  O  O770  1  0.051550  0.450760  0.268600  1.0  -0.5808
  O  O771  1  0.947580  0.550170  0.351150  1.0  -0.5769
  O  O772  1  0.948450  0.549240  0.268600  1.0  -0.5827
  O  O773  1  0.947580  0.449830  0.648850  1.0  -0.5769
  O  O774  1  0.948450  0.450760  0.731400  1.0  -0.5819
  O  O775  1  0.052420  0.550170  0.648850  1.0  -0.577
  O  O776  1  0.051550  0.549240  0.731400  1.0  -0.5822
  O  O777  1  0.351150  0.052420  0.449830  1.0  -0.5786
  O  O778  1  0.268600  0.051550  0.450760  1.0  -0.5801
  O  O779  1  0.351150  0.947580  0.550170  1.0  -0.5781
  O  O780  1  0.268600  0.948450  0.549240  1.0  -0.58
  O  O781  1  0.648850  0.947580  0.449830  1.0  -0.5777
  O  O782  1  0.731400  0.948450  0.450760  1.0  -0.5811
  O  O783  1  0.648850  0.052420  0.550170  1.0  -0.5777
  O  O784  1  0.731400  0.051550  0.549240  1.0  -0.581
  O  O785  1  0.449830  0.351150  0.052420  1.0  -0.5806
  O  O786  1  0.450760  0.268600  0.051550  1.0  -0.5827
  O  O787  1  0.550170  0.351150  0.947580  1.0  -0.5797
  O  O788  1  0.549240  0.268600  0.948450  1.0  -0.5823
  O  O789  1  0.449830  0.648850  0.947580  1.0  -0.5804
  O  O790  1  0.450760  0.731400  0.948450  1.0  -0.5823
  O  O791  1  0.550170  0.648850  0.052420  1.0  -0.5805
  O  O792  1  0.549240  0.731400  0.051550  1.0  -0.582
