# generated using pymatgen
data_CuH10(C9O2)2
_symmetry_space_group_name_H-M   'P 1'
_cell_length_a   26.99100000
_cell_length_b   26.99100000
_cell_length_c   26.99100000
_cell_angle_alpha   90.00000000
_cell_angle_beta   90.00000000
_cell_angle_gamma   90.00000000
_symmetry_Int_Tables_number   1
_chemical_formula_structural   CuH10(C9O2)2
_chemical_formula_sum   'Cu24 H240 C432 O96'
_cell_volume   19663.32356027
_cell_formula_units_Z   24
loop_
 _symmetry_equiv_pos_site_id
 _symmetry_equiv_pos_as_xyz
  1  'x, y, z'
loop_
 _atom_site_type_symbol
 _atom_site_label
 _atom_site_symmetry_multiplicity
 _atom_site_fract_x
 _atom_site_fract_y
 _atom_site_fract_z
 _atom_site_occupancy
 _atom_site_charge
  Cu  Cu1  1  0.500000  0.000000  0.144400  1.0  0.9004
  Cu  Cu2  1  0.500000  0.000000  0.240290  1.0  0.9106
  Cu  Cu3  1  0.500000  0.000000  0.855600  1.0  0.9009
  Cu  Cu4  1  0.500000  0.000000  0.759710  1.0  0.9119
  Cu  Cu5  1  0.144400  0.500000  0.000000  1.0  0.9005
  Cu  Cu6  1  0.240290  0.500000  0.000000  1.0  0.9134
  Cu  Cu7  1  0.855600  0.500000  0.000000  1.0  0.9013
  Cu  Cu8  1  0.759710  0.500000  0.000000  1.0  0.9129
  Cu  Cu9  1  0.000000  0.144400  0.500000  1.0  0.9021
  Cu  Cu10  1  0.000000  0.240290  0.500000  1.0  0.9128
  Cu  Cu11  1  0.000000  0.855600  0.500000  1.0  0.9007
  Cu  Cu12  1  0.000000  0.759710  0.500000  1.0  0.9143
  Cu  Cu13  1  0.000000  0.500000  0.644400  1.0  0.9004
  Cu  Cu14  1  0.000000  0.500000  0.740290  1.0  0.9106
  Cu  Cu15  1  0.000000  0.500000  0.355600  1.0  0.9009
  Cu  Cu16  1  0.000000  0.500000  0.259710  1.0  0.9119
  Cu  Cu17  1  0.644400  0.000000  0.500000  1.0  0.9005
  Cu  Cu18  1  0.740290  0.000000  0.500000  1.0  0.9134
  Cu  Cu19  1  0.355600  0.000000  0.500000  1.0  0.9013
  Cu  Cu20  1  0.259710  0.000000  0.500000  1.0  0.9129
  Cu  Cu21  1  0.500000  0.644400  0.000000  1.0  0.9021
  Cu  Cu22  1  0.500000  0.740290  0.000000  1.0  0.9128
  Cu  Cu23  1  0.500000  0.355600  0.000000  1.0  0.9007
  Cu  Cu24  1  0.500000  0.259710  0.000000  1.0  0.9143
  H  H25  1  0.374100  0.099000  0.118200  1.0  0.1059
  H  H26  1  0.305900  0.137400  0.272900  1.0  0.0994
  H  H27  1  0.299900  0.144900  0.122500  1.0  0.1177
  H  H28  1  0.380500  0.094400  0.267800  1.0  0.1123
  H  H29  1  0.221500  0.143100  0.263900  1.0  0.1121
  H  H30  1  0.625900  0.901000  0.118200  1.0  0.1063
  H  H31  1  0.694100  0.862600  0.272900  1.0  0.0998
  H  H32  1  0.700100  0.855100  0.122500  1.0  0.1176
  H  H33  1  0.619500  0.905600  0.267800  1.0  0.1126
  H  H34  1  0.778500  0.856900  0.263900  1.0  0.1104
  H  H35  1  0.625900  0.099000  0.881800  1.0  0.1055
  H  H36  1  0.694100  0.137400  0.727100  1.0  0.0997
  H  H37  1  0.700100  0.144900  0.877500  1.0  0.1183
  H  H38  1  0.619500  0.094400  0.732200  1.0  0.1126
  H  H39  1  0.778500  0.143100  0.736100  1.0  0.1123
  H  H40  1  0.374100  0.901000  0.881800  1.0  0.1051
  H  H41  1  0.305900  0.862600  0.727100  1.0  0.1004
  H  H42  1  0.299900  0.855100  0.877500  1.0  0.118
  H  H43  1  0.380500  0.905600  0.732200  1.0  0.1125
  H  H44  1  0.221500  0.856900  0.736100  1.0  0.1108
  H  H45  1  0.118200  0.374100  0.099000  1.0  0.1061
  H  H46  1  0.272900  0.305900  0.137400  1.0  0.1022
  H  H47  1  0.122500  0.299900  0.144900  1.0  0.1184
  H  H48  1  0.267800  0.380500  0.094400  1.0  0.112
  H  H49  1  0.263900  0.221500  0.143100  1.0  0.1142
  H  H50  1  0.118200  0.625900  0.901000  1.0  0.1062
  H  H51  1  0.272900  0.694100  0.862600  1.0  0.102
  H  H52  1  0.122500  0.700100  0.855100  1.0  0.1192
  H  H53  1  0.267800  0.619500  0.905600  1.0  0.1119
  H  H54  1  0.263900  0.778500  0.856900  1.0  0.1139
  H  H55  1  0.881800  0.625900  0.099000  1.0  0.1066
  H  H56  1  0.727100  0.694100  0.137400  1.0  0.102
  H  H57  1  0.877500  0.700100  0.144900  1.0  0.1183
  H  H58  1  0.732200  0.619500  0.094400  1.0  0.112
  H  H59  1  0.736100  0.778500  0.143100  1.0  0.1146
  H  H60  1  0.881800  0.374100  0.901000  1.0  0.1067
  H  H61  1  0.727100  0.305900  0.862600  1.0  0.1023
  H  H62  1  0.877500  0.299900  0.855100  1.0  0.1183
  H  H63  1  0.732200  0.380500  0.905600  1.0  0.112
  H  H64  1  0.736100  0.221500  0.856900  1.0  0.1139
  H  H65  1  0.099000  0.118200  0.374100  1.0  0.1061
  H  H66  1  0.137400  0.272900  0.305900  1.0  0.1002
  H  H67  1  0.144900  0.122500  0.299900  1.0  0.1159
  H  H68  1  0.094400  0.267800  0.380500  1.0  0.1123
  H  H69  1  0.143100  0.263900  0.221500  1.0  0.1134
  H  H70  1  0.901000  0.118200  0.625900  1.0  0.1063
  H  H71  1  0.862600  0.272900  0.694100  1.0  0.1002
  H  H72  1  0.855100  0.122500  0.700100  1.0  0.117
  H  H73  1  0.905600  0.267800  0.619500  1.0  0.1123
  H  H74  1  0.856900  0.263900  0.778500  1.0  0.1124
  H  H75  1  0.099000  0.881800  0.625900  1.0  0.1062
  H  H76  1  0.137400  0.727100  0.694100  1.0  0.1
  H  H77  1  0.144900  0.877500  0.700100  1.0  0.1162
  H  H78  1  0.094400  0.732200  0.619500  1.0  0.1119
  H  H79  1  0.143100  0.736100  0.778500  1.0  0.1134
  H  H80  1  0.901000  0.881800  0.374100  1.0  0.1058
  H  H81  1  0.862600  0.727100  0.305900  1.0  0.1002
  H  H82  1  0.855100  0.877500  0.299900  1.0  0.1169
  H  H83  1  0.905600  0.732200  0.380500  1.0  0.1122
  H  H84  1  0.856900  0.736100  0.221500  1.0  0.1134
  H  H85  1  0.625900  0.901000  0.881800  1.0  0.105
  H  H86  1  0.694100  0.862600  0.727100  1.0  0.1002
  H  H87  1  0.700100  0.855100  0.877500  1.0  0.1183
  H  H88  1  0.619500  0.905600  0.732200  1.0  0.1126
  H  H89  1  0.778500  0.856900  0.736100  1.0  0.1107
  H  H90  1  0.374100  0.099000  0.881800  1.0  0.1053
  H  H91  1  0.305900  0.137400  0.727100  1.0  0.0998
  H  H92  1  0.299900  0.144900  0.877500  1.0  0.118
  H  H93  1  0.380500  0.094400  0.732200  1.0  0.1125
  H  H94  1  0.221500  0.143100  0.736100  1.0  0.112
  H  H95  1  0.374100  0.901000  0.118200  1.0  0.1061
  H  H96  1  0.305900  0.862600  0.272900  1.0  0.0999
  H  H97  1  0.299900  0.855100  0.122500  1.0  0.1174
  H  H98  1  0.380500  0.905600  0.267800  1.0  0.1124
  H  H99  1  0.221500  0.856900  0.263900  1.0  0.1107
  H  H100  1  0.625900  0.099000  0.118200  1.0  0.106
  H  H101  1  0.694100  0.137400  0.272900  1.0  0.0994
  H  H102  1  0.700100  0.144900  0.122500  1.0  0.1181
  H  H103  1  0.619500  0.094400  0.267800  1.0  0.1126
  H  H104  1  0.778500  0.143100  0.263900  1.0  0.1121
  H  H105  1  0.881800  0.625900  0.901000  1.0  0.1066
  H  H106  1  0.727100  0.694100  0.862600  1.0  0.1019
  H  H107  1  0.877500  0.700100  0.855100  1.0  0.1184
  H  H108  1  0.732200  0.619500  0.905600  1.0  0.1121
  H  H109  1  0.736100  0.778500  0.856900  1.0  0.1142
  H  H110  1  0.881800  0.374100  0.099000  1.0  0.1069
  H  H111  1  0.727100  0.305900  0.137400  1.0  0.1022
  H  H112  1  0.877500  0.299900  0.144900  1.0  0.1181
  H  H113  1  0.732200  0.380500  0.094400  1.0  0.1121
  H  H114  1  0.736100  0.221500  0.143100  1.0  0.1142
  H  H115  1  0.118200  0.374100  0.901000  1.0  0.1064
  H  H116  1  0.272900  0.305900  0.862600  1.0  0.1024
  H  H117  1  0.122500  0.299900  0.855100  1.0  0.1192
  H  H118  1  0.267800  0.380500  0.905600  1.0  0.1119
  H  H119  1  0.263900  0.221500  0.856900  1.0  0.1138
  H  H120  1  0.118200  0.625900  0.099000  1.0  0.106
  H  H121  1  0.272900  0.694100  0.137400  1.0  0.102
  H  H122  1  0.122500  0.700100  0.144900  1.0  0.1185
  H  H123  1  0.267800  0.619500  0.094400  1.0  0.1119
  H  H124  1  0.263900  0.778500  0.143100  1.0  0.1142
  H  H125  1  0.901000  0.881800  0.625900  1.0  0.1059
  H  H126  1  0.862600  0.727100  0.694100  1.0  0.1002
  H  H127  1  0.855100  0.877500  0.700100  1.0  0.1165
  H  H128  1  0.905600  0.732200  0.619500  1.0  0.112
  H  H129  1  0.856900  0.736100  0.778500  1.0  0.1127
  H  H130  1  0.099000  0.881800  0.374100  1.0  0.1059
  H  H131  1  0.137400  0.727100  0.305900  1.0  0.1
  H  H132  1  0.144900  0.877500  0.299900  1.0  0.1166
  H  H133  1  0.094400  0.732200  0.380500  1.0  0.1121
  H  H134  1  0.143100  0.736100  0.221500  1.0  0.1136
  H  H135  1  0.901000  0.118200  0.374100  1.0  0.1062
  H  H136  1  0.862600  0.272900  0.305900  1.0  0.1005
  H  H137  1  0.855100  0.122500  0.299900  1.0  0.1164
  H  H138  1  0.905600  0.267800  0.380500  1.0  0.1123
  H  H139  1  0.856900  0.263900  0.221500  1.0  0.1131
  H  H140  1  0.099000  0.118200  0.625900  1.0  0.106
  H  H141  1  0.137400  0.272900  0.694100  1.0  0.1002
  H  H142  1  0.144900  0.122500  0.700100  1.0  0.1165
  H  H143  1  0.094400  0.267800  0.619500  1.0  0.1122
  H  H144  1  0.143100  0.263900  0.778500  1.0  0.113
  H  H145  1  0.874100  0.599000  0.618200  1.0  0.1059
  H  H146  1  0.805900  0.637400  0.772900  1.0  0.0997
  H  H147  1  0.799900  0.644900  0.622500  1.0  0.1177
  H  H148  1  0.880500  0.594400  0.767800  1.0  0.1123
  H  H149  1  0.721500  0.643100  0.763900  1.0  0.1121
  H  H150  1  0.125900  0.401000  0.618200  1.0  0.1063
  H  H151  1  0.194100  0.362600  0.772900  1.0  0.1001
  H  H152  1  0.200100  0.355100  0.622500  1.0  0.1176
  H  H153  1  0.119500  0.405600  0.767800  1.0  0.1126
  H  H154  1  0.278500  0.356900  0.763900  1.0  0.1104
  H  H155  1  0.125900  0.599000  0.381800  1.0  0.1055
  H  H156  1  0.194100  0.637400  0.227100  1.0  0.1002
  H  H157  1  0.200100  0.644900  0.377500  1.0  0.1183
  H  H158  1  0.119500  0.594400  0.232200  1.0  0.1126
  H  H159  1  0.278500  0.643100  0.236100  1.0  0.1123
  H  H160  1  0.874100  0.401000  0.381800  1.0  0.1051
  H  H161  1  0.805900  0.362600  0.227100  1.0  0.1008
  H  H162  1  0.799900  0.355100  0.377500  1.0  0.118
  H  H163  1  0.880500  0.405600  0.232200  1.0  0.1125
  H  H164  1  0.721500  0.356900  0.236100  1.0  0.1108
  H  H165  1  0.618200  0.874100  0.599000  1.0  0.1061
  H  H166  1  0.772900  0.805900  0.637400  1.0  0.1026
  H  H167  1  0.622500  0.799900  0.644900  1.0  0.1184
  H  H168  1  0.767800  0.880500  0.594400  1.0  0.112
  H  H169  1  0.763900  0.721500  0.643100  1.0  0.1142
  H  H170  1  0.618200  0.125900  0.401000  1.0  0.1062
  H  H171  1  0.772900  0.194100  0.362600  1.0  0.1025
  H  H172  1  0.622500  0.200100  0.355100  1.0  0.1192
  H  H173  1  0.767800  0.119500  0.405600  1.0  0.1119
  H  H174  1  0.763900  0.278500  0.356900  1.0  0.1139
  H  H175  1  0.381800  0.125900  0.599000  1.0  0.1066
  H  H176  1  0.227100  0.194100  0.637400  1.0  0.1023
  H  H177  1  0.377500  0.200100  0.644900  1.0  0.1183
  H  H178  1  0.232200  0.119500  0.594400  1.0  0.112
  H  H179  1  0.236100  0.278500  0.643100  1.0  0.1146
  H  H180  1  0.381800  0.874100  0.401000  1.0  0.1067
  H  H181  1  0.227100  0.805900  0.362600  1.0  0.1027
  H  H182  1  0.377500  0.799900  0.355100  1.0  0.1183
  H  H183  1  0.232200  0.880500  0.405600  1.0  0.112
  H  H184  1  0.236100  0.721500  0.356900  1.0  0.1139
  H  H185  1  0.599000  0.618200  0.874100  1.0  0.1061
  H  H186  1  0.637400  0.772900  0.805900  1.0  0.1006
  H  H187  1  0.644900  0.622500  0.799900  1.0  0.1159
  H  H188  1  0.594400  0.767800  0.880500  1.0  0.1123
  H  H189  1  0.643100  0.763900  0.721500  1.0  0.1134
  H  H190  1  0.401000  0.618200  0.125900  1.0  0.1063
  H  H191  1  0.362600  0.772900  0.194100  1.0  0.1006
  H  H192  1  0.355100  0.622500  0.200100  1.0  0.117
  H  H193  1  0.405600  0.767800  0.119500  1.0  0.1123
  H  H194  1  0.356900  0.763900  0.278500  1.0  0.1124
  H  H195  1  0.599000  0.381800  0.125900  1.0  0.1062
  H  H196  1  0.637400  0.227100  0.194100  1.0  0.1004
  H  H197  1  0.644900  0.377500  0.200100  1.0  0.1162
  H  H198  1  0.594400  0.232200  0.119500  1.0  0.1119
  H  H199  1  0.643100  0.236100  0.278500  1.0  0.1134
  H  H200  1  0.401000  0.381800  0.874100  1.0  0.1058
  H  H201  1  0.362600  0.227100  0.805900  1.0  0.1006
  H  H202  1  0.355100  0.377500  0.799900  1.0  0.1169
  H  H203  1  0.405600  0.232200  0.880500  1.0  0.1122
  H  H204  1  0.356900  0.236100  0.721500  1.0  0.1134
  H  H205  1  0.125900  0.401000  0.381800  1.0  0.105
  H  H206  1  0.194100  0.362600  0.227100  1.0  0.1005
  H  H207  1  0.200100  0.355100  0.377500  1.0  0.1183
  H  H208  1  0.119500  0.405600  0.232200  1.0  0.1126
  H  H209  1  0.278500  0.356900  0.236100  1.0  0.1107
  H  H210  1  0.874100  0.599000  0.381800  1.0  0.1053
  H  H211  1  0.805900  0.637400  0.227100  1.0  0.1003
  H  H212  1  0.799900  0.644900  0.377500  1.0  0.118
  H  H213  1  0.880500  0.594400  0.232200  1.0  0.1125
  H  H214  1  0.721500  0.643100  0.236100  1.0  0.112
  H  H215  1  0.874100  0.401000  0.618200  1.0  0.1061
  H  H216  1  0.805900  0.362600  0.772900  1.0  0.1002
  H  H217  1  0.799900  0.355100  0.622500  1.0  0.1174
  H  H218  1  0.880500  0.405600  0.767800  1.0  0.1124
  H  H219  1  0.721500  0.356900  0.763900  1.0  0.1107
  H  H220  1  0.125900  0.599000  0.618200  1.0  0.106
  H  H221  1  0.194100  0.637400  0.772900  1.0  0.0998
  H  H222  1  0.200100  0.644900  0.622500  1.0  0.1181
  H  H223  1  0.119500  0.594400  0.767800  1.0  0.1126
  H  H224  1  0.278500  0.643100  0.763900  1.0  0.1121
  H  H225  1  0.381800  0.125900  0.401000  1.0  0.1066
  H  H226  1  0.227100  0.194100  0.362600  1.0  0.1024
  H  H227  1  0.377500  0.200100  0.355100  1.0  0.1184
  H  H228  1  0.232200  0.119500  0.405600  1.0  0.1121
  H  H229  1  0.236100  0.278500  0.356900  1.0  0.1142
  H  H230  1  0.381800  0.874100  0.599000  1.0  0.1069
  H  H231  1  0.227100  0.805900  0.637400  1.0  0.1025
  H  H232  1  0.377500  0.799900  0.644900  1.0  0.1181
  H  H233  1  0.232200  0.880500  0.594400  1.0  0.1121
  H  H234  1  0.236100  0.721500  0.643100  1.0  0.1142
  H  H235  1  0.618200  0.874100  0.401000  1.0  0.1064
  H  H236  1  0.772900  0.805900  0.362600  1.0  0.1029
  H  H237  1  0.622500  0.799900  0.355100  1.0  0.1192
  H  H238  1  0.767800  0.880500  0.405600  1.0  0.1119
  H  H239  1  0.763900  0.721500  0.356900  1.0  0.1138
  H  H240  1  0.618200  0.125900  0.599000  1.0  0.106
  H  H241  1  0.772900  0.194100  0.637400  1.0  0.1024
  H  H242  1  0.622500  0.200100  0.644900  1.0  0.1185
  H  H243  1  0.767800  0.119500  0.594400  1.0  0.1119
  H  H244  1  0.763900  0.278500  0.643100  1.0  0.1142
  H  H245  1  0.401000  0.381800  0.125900  1.0  0.1059
  H  H246  1  0.362600  0.227100  0.194100  1.0  0.1006
  H  H247  1  0.355100  0.377500  0.200100  1.0  0.1165
  H  H248  1  0.405600  0.232200  0.119500  1.0  0.112
  H  H249  1  0.356900  0.236100  0.278500  1.0  0.1127
  H  H250  1  0.599000  0.381800  0.874100  1.0  0.1059
  H  H251  1  0.637400  0.227100  0.805900  1.0  0.1003
  H  H252  1  0.644900  0.377500  0.799900  1.0  0.1166
  H  H253  1  0.594400  0.232200  0.880500  1.0  0.1121
  H  H254  1  0.643100  0.236100  0.721500  1.0  0.1136
  H  H255  1  0.401000  0.618200  0.874100  1.0  0.1062
  H  H256  1  0.362600  0.772900  0.805900  1.0  0.1008
  H  H257  1  0.355100  0.622500  0.799900  1.0  0.1164
  H  H258  1  0.405600  0.767800  0.880500  1.0  0.1123
  H  H259  1  0.356900  0.763900  0.721500  1.0  0.1131
  H  H260  1  0.599000  0.618200  0.125900  1.0  0.106
  H  H261  1  0.637400  0.772900  0.194100  1.0  0.1006
  H  H262  1  0.644900  0.622500  0.200100  1.0  0.1165
  H  H263  1  0.594400  0.767800  0.119500  1.0  0.1122
  H  H264  1  0.643100  0.763900  0.278500  1.0  0.113
  C  C265  1  0.294940  0.146100  0.198090  1.0  0.0408
  C  C266  1  0.430740  0.062270  0.190800  1.0  0.6894
  C  C267  1  0.360360  0.107340  0.149530  1.0  -0.0656
  C  C268  1  0.319730  0.130200  0.241340  1.0  -0.1215
  C  C269  1  0.315810  0.134460  0.152080  1.0  -0.1262
  C  C270  1  0.363960  0.104280  0.238330  1.0  -0.0526
  C  C271  1  0.216870  0.170330  0.242120  1.0  -0.1391
  C  C272  1  0.384250  0.092750  0.192610  1.0  -0.1229
  C  C273  1  0.249770  0.177510  0.202610  1.0  0.0415
  C  C274  1  0.705060  0.853900  0.198090  1.0  0.0427
  C  C275  1  0.569260  0.937730  0.190800  1.0  0.6883
  C  C276  1  0.639640  0.892660  0.149530  1.0  -0.0654
  C  C277  1  0.680270  0.869800  0.241340  1.0  -0.1204
  C  C278  1  0.684190  0.865540  0.152080  1.0  -0.1281
  C  C279  1  0.636040  0.895720  0.238330  1.0  -0.0519
  C  C280  1  0.783130  0.829670  0.242120  1.0  -0.1393
  C  C281  1  0.615750  0.907250  0.192610  1.0  -0.1216
  C  C282  1  0.750230  0.822490  0.202610  1.0  0.0412
  C  C283  1  0.705060  0.146100  0.801910  1.0  0.0422
  C  C284  1  0.569260  0.062270  0.809200  1.0  0.6886
  C  C285  1  0.639640  0.107340  0.850470  1.0  -0.0675
  C  C286  1  0.680270  0.130200  0.758660  1.0  -0.12
  C  C287  1  0.684190  0.134460  0.847920  1.0  -0.1291
  C  C288  1  0.636040  0.104280  0.761670  1.0  -0.0527
  C  C289  1  0.783130  0.170330  0.757880  1.0  -0.1422
  C  C290  1  0.615750  0.092750  0.807390  1.0  -0.122
  C  C291  1  0.750230  0.177510  0.797390  1.0  0.0413
  C  C292  1  0.294940  0.853900  0.801910  1.0  0.0424
  C  C293  1  0.430740  0.937730  0.809200  1.0  0.6895
  C  C294  1  0.360360  0.892660  0.850470  1.0  -0.0676
  C  C295  1  0.319730  0.869800  0.758660  1.0  -0.1214
  C  C296  1  0.315810  0.865540  0.847920  1.0  -0.1267
  C  C297  1  0.363960  0.895720  0.761670  1.0  -0.0528
  C  C298  1  0.216870  0.829670  0.757880  1.0  -0.1395
  C  C299  1  0.384250  0.907250  0.807390  1.0  -0.1222
  C  C300  1  0.249770  0.822490  0.797390  1.0  0.0395
  C  C301  1  0.198090  0.294940  0.146100  1.0  0.0412
  C  C302  1  0.190800  0.430740  0.062270  1.0  0.6905
  C  C303  1  0.149530  0.360360  0.107340  1.0  -0.0618
  C  C304  1  0.241340  0.319730  0.130200  1.0  -0.1189
  C  C305  1  0.152080  0.315810  0.134460  1.0  -0.1226
  C  C306  1  0.238330  0.363960  0.104280  1.0  -0.047
  C  C307  1  0.242120  0.216870  0.170330  1.0  -0.1437
  C  C308  1  0.192610  0.384250  0.092750  1.0  -0.1201
  C  C309  1  0.202610  0.249770  0.177510  1.0  0.0393
  C  C310  1  0.198090  0.705060  0.853900  1.0  0.0424
  C  C311  1  0.190800  0.569260  0.937730  1.0  0.6903
  C  C312  1  0.149530  0.639640  0.892660  1.0  -0.0618
  C  C313  1  0.241340  0.680270  0.869800  1.0  -0.12
  C  C314  1  0.152080  0.684190  0.865540  1.0  -0.1243
  C  C315  1  0.238330  0.636040  0.895720  1.0  -0.0472
  C  C316  1  0.242120  0.783130  0.829670  1.0  -0.1459
  C  C317  1  0.192610  0.615750  0.907250  1.0  -0.1202
  C  C318  1  0.202610  0.750230  0.822490  1.0  0.0399
  C  C319  1  0.801910  0.705060  0.146100  1.0  0.0436
  C  C320  1  0.809200  0.569260  0.062270  1.0  0.6904
  C  C321  1  0.850470  0.639640  0.107340  1.0  -0.0616
  C  C322  1  0.758660  0.680270  0.130200  1.0  -0.1181
  C  C323  1  0.847920  0.684190  0.134460  1.0  -0.1229
  C  C324  1  0.761670  0.636040  0.104280  1.0  -0.0463
  C  C325  1  0.757880  0.783130  0.170330  1.0  -0.1448
  C  C326  1  0.807390  0.615750  0.092750  1.0  -0.1214
  C  C327  1  0.797390  0.750230  0.177510  1.0  0.0381
  C  C328  1  0.801910  0.294940  0.853900  1.0  0.044
  C  C329  1  0.809200  0.430740  0.937730  1.0  0.6902
  C  C330  1  0.850470  0.360360  0.892660  1.0  -0.061
  C  C331  1  0.758660  0.319730  0.869800  1.0  -0.12
  C  C332  1  0.847920  0.315810  0.865540  1.0  -0.1231
  C  C333  1  0.761670  0.363960  0.895720  1.0  -0.0482
  C  C334  1  0.757880  0.216870  0.829670  1.0  -0.146
  C  C335  1  0.807390  0.384250  0.907250  1.0  -0.1202
  C  C336  1  0.797390  0.249770  0.822490  1.0  0.041
  C  C337  1  0.146100  0.198090  0.294940  1.0  0.0431
  C  C338  1  0.062270  0.190800  0.430740  1.0  0.691
  C  C339  1  0.107340  0.149530  0.360360  1.0  -0.0628
  C  C340  1  0.130200  0.241340  0.319730  1.0  -0.1205
  C  C341  1  0.134460  0.152080  0.315810  1.0  -0.1212
  C  C342  1  0.104280  0.238330  0.363960  1.0  -0.0465
  C  C343  1  0.170330  0.242120  0.216870  1.0  -0.1456
  C  C344  1  0.092750  0.192610  0.384250  1.0  -0.122
  C  C345  1  0.177510  0.202610  0.249770  1.0  0.0426
  C  C346  1  0.853900  0.198090  0.705060  1.0  0.0432
  C  C347  1  0.937730  0.190800  0.569260  1.0  0.6901
  C  C348  1  0.892660  0.149530  0.639640  1.0  -0.0623
  C  C349  1  0.869800  0.241340  0.680270  1.0  -0.1189
  C  C350  1  0.865540  0.152080  0.684190  1.0  -0.12
  C  C351  1  0.895720  0.238330  0.636040  1.0  -0.0467
  C  C352  1  0.829670  0.242120  0.783130  1.0  -0.1451
  C  C353  1  0.907250  0.192610  0.615750  1.0  -0.1223
  C  C354  1  0.822490  0.202610  0.750230  1.0  0.0443
  C  C355  1  0.146100  0.801910  0.705060  1.0  0.0425
  C  C356  1  0.062270  0.809200  0.569260  1.0  0.6906
  C  C357  1  0.107340  0.850470  0.639640  1.0  -0.0626
  C  C358  1  0.130200  0.758660  0.680270  1.0  -0.1199
  C  C359  1  0.134460  0.847920  0.684190  1.0  -0.1207
  C  C360  1  0.104280  0.761670  0.636040  1.0  -0.0456
  C  C361  1  0.170330  0.757880  0.783130  1.0  -0.1449
  C  C362  1  0.092750  0.807390  0.615750  1.0  -0.1219
  C  C363  1  0.177510  0.797390  0.750230  1.0  0.0413
  C  C364  1  0.853900  0.801910  0.294940  1.0  0.0431
  C  C365  1  0.937730  0.809200  0.430740  1.0  0.6909
  C  C366  1  0.892660  0.850470  0.360360  1.0  -0.0623
  C  C367  1  0.869800  0.758660  0.319730  1.0  -0.1189
  C  C368  1  0.865540  0.847920  0.315810  1.0  -0.1219
  C  C369  1  0.895720  0.761670  0.363960  1.0  -0.0469
  C  C370  1  0.829670  0.757880  0.216870  1.0  -0.1442
  C  C371  1  0.907250  0.807390  0.384250  1.0  -0.1232
  C  C372  1  0.822490  0.797390  0.249770  1.0  0.0427
  C  C373  1  0.705060  0.853900  0.801910  1.0  0.0426
  C  C374  1  0.569260  0.937730  0.809200  1.0  0.6885
  C  C375  1  0.639640  0.892660  0.850470  1.0  -0.0683
  C  C376  1  0.680270  0.869800  0.758660  1.0  -0.1208
  C  C377  1  0.684190  0.865540  0.847920  1.0  -0.1268
  C  C378  1  0.636040  0.895720  0.761670  1.0  -0.0516
  C  C379  1  0.783130  0.829670  0.757880  1.0  -0.1402
  C  C380  1  0.615750  0.907250  0.807390  1.0  -0.1215
  C  C381  1  0.750230  0.822490  0.797390  1.0  0.0392
  C  C382  1  0.294940  0.146100  0.801910  1.0  0.0419
  C  C383  1  0.430740  0.062270  0.809200  1.0  0.6894
  C  C384  1  0.360360  0.107340  0.850470  1.0  -0.067
  C  C385  1  0.319730  0.130200  0.758660  1.0  -0.1207
  C  C386  1  0.315810  0.134460  0.847920  1.0  -0.128
  C  C387  1  0.363960  0.104280  0.761670  1.0  -0.0536
  C  C388  1  0.216870  0.170330  0.757880  1.0  -0.1401
  C  C389  1  0.384250  0.092750  0.807390  1.0  -0.1228
  C  C390  1  0.249770  0.177510  0.797390  1.0  0.042
  C  C391  1  0.294940  0.853900  0.198090  1.0  0.0418
  C  C392  1  0.430740  0.937730  0.190800  1.0  0.6893
  C  C393  1  0.360360  0.892660  0.149530  1.0  -0.066
  C  C394  1  0.319730  0.869800  0.241340  1.0  -0.1213
  C  C395  1  0.315810  0.865540  0.152080  1.0  -0.1258
  C  C396  1  0.363960  0.895720  0.238330  1.0  -0.052
  C  C397  1  0.216870  0.829670  0.242120  1.0  -0.1391
  C  C398  1  0.384250  0.907250  0.192610  1.0  -0.1223
  C  C399  1  0.249770  0.822490  0.202610  1.0  0.0418
  C  C400  1  0.705060  0.146100  0.198090  1.0  0.0415
  C  C401  1  0.569260  0.062270  0.190800  1.0  0.6887
  C  C402  1  0.639640  0.107340  0.149530  1.0  -0.0648
  C  C403  1  0.680270  0.130200  0.241340  1.0  -0.1204
  C  C404  1  0.684190  0.134460  0.152080  1.0  -0.1293
  C  C405  1  0.636040  0.104280  0.238330  1.0  -0.0522
  C  C406  1  0.783130  0.170330  0.242120  1.0  -0.1403
  C  C407  1  0.615750  0.092750  0.192610  1.0  -0.1221
  C  C408  1  0.750230  0.177510  0.202610  1.0  0.0415
  C  C409  1  0.801910  0.705060  0.853900  1.0  0.0441
  C  C410  1  0.809200  0.569260  0.937730  1.0  0.6903
  C  C411  1  0.850470  0.639640  0.892660  1.0  -0.0615
  C  C412  1  0.758660  0.680270  0.869800  1.0  -0.12
  C  C413  1  0.847920  0.684190  0.865540  1.0  -0.1232
  C  C414  1  0.761670  0.636040  0.895720  1.0  -0.0471
  C  C415  1  0.757880  0.783130  0.829670  1.0  -0.1466
  C  C416  1  0.807390  0.615750  0.907250  1.0  -0.1203
  C  C417  1  0.797390  0.750230  0.822490  1.0  0.0386
  C  C418  1  0.801910  0.294940  0.146100  1.0  0.0411
  C  C419  1  0.809200  0.430740  0.062270  1.0  0.6902
  C  C420  1  0.850470  0.360360  0.107340  1.0  -0.0611
  C  C421  1  0.758660  0.319730  0.130200  1.0  -0.1181
  C  C422  1  0.847920  0.315810  0.134460  1.0  -0.1228
  C  C423  1  0.761670  0.363960  0.104280  1.0  -0.0464
  C  C424  1  0.757880  0.216870  0.170330  1.0  -0.1443
  C  C425  1  0.807390  0.384250  0.092750  1.0  -0.1203
  C  C426  1  0.797390  0.249770  0.177510  1.0  0.0382
  C  C427  1  0.198090  0.294940  0.853900  1.0  0.0424
  C  C428  1  0.190800  0.430740  0.937730  1.0  0.6904
  C  C429  1  0.149530  0.360360  0.892660  1.0  -0.0623
  C  C430  1  0.241340  0.319730  0.869800  1.0  -0.12
  C  C431  1  0.152080  0.315810  0.865540  1.0  -0.123
  C  C432  1  0.238330  0.363960  0.895720  1.0  -0.0479
  C  C433  1  0.242120  0.216870  0.829670  1.0  -0.1454
  C  C434  1  0.192610  0.384250  0.907250  1.0  -0.1198
  C  C435  1  0.202610  0.249770  0.822490  1.0  0.0419
  C  C436  1  0.198090  0.705060  0.146100  1.0  0.0447
  C  C437  1  0.190800  0.569260  0.062270  1.0  0.6906
  C  C438  1  0.149530  0.639640  0.107340  1.0  -0.0613
  C  C439  1  0.241340  0.680270  0.130200  1.0  -0.1189
  C  C440  1  0.152080  0.684190  0.134460  1.0  -0.1238
  C  C441  1  0.238330  0.636040  0.104280  1.0  -0.0467
  C  C442  1  0.242120  0.783130  0.170330  1.0  -0.1434
  C  C443  1  0.192610  0.615750  0.092750  1.0  -0.1212
  C  C444  1  0.202610  0.750230  0.177510  1.0  0.0393
  C  C445  1  0.853900  0.801910  0.705060  1.0  0.0423
  C  C446  1  0.937730  0.809200  0.569260  1.0  0.6903
  C  C447  1  0.892660  0.850470  0.639640  1.0  -0.0622
  C  C448  1  0.869800  0.758660  0.680270  1.0  -0.1185
  C  C449  1  0.865540  0.847920  0.684190  1.0  -0.121
  C  C450  1  0.895720  0.761670  0.636040  1.0  -0.0469
  C  C451  1  0.829670  0.757880  0.783130  1.0  -0.1451
  C  C452  1  0.907250  0.807390  0.615750  1.0  -0.1221
  C  C453  1  0.822490  0.797390  0.750230  1.0  0.0431
  C  C454  1  0.146100  0.801910  0.294940  1.0  0.0431
  C  C455  1  0.062270  0.809200  0.430740  1.0  0.6911
  C  C456  1  0.107340  0.850470  0.360360  1.0  -0.0626
  C  C457  1  0.130200  0.758660  0.319730  1.0  -0.1198
  C  C458  1  0.134460  0.847920  0.315810  1.0  -0.1214
  C  C459  1  0.104280  0.761670  0.363960  1.0  -0.0459
  C  C460  1  0.170330  0.757880  0.216870  1.0  -0.1439
  C  C461  1  0.092750  0.807390  0.384250  1.0  -0.122
  C  C462  1  0.177510  0.797390  0.249770  1.0  0.0416
  C  C463  1  0.853900  0.198090  0.294940  1.0  0.0435
  C  C464  1  0.937730  0.190800  0.430740  1.0  0.6907
  C  C465  1  0.892660  0.149530  0.360360  1.0  -0.0625
  C  C466  1  0.869800  0.241340  0.319730  1.0  -0.1193
  C  C467  1  0.865540  0.152080  0.315810  1.0  -0.1204
  C  C468  1  0.895720  0.238330  0.363960  1.0  -0.0471
  C  C469  1  0.829670  0.242120  0.216870  1.0  -0.1445
  C  C470  1  0.907250  0.192610  0.384250  1.0  -0.1233
  C  C471  1  0.822490  0.202610  0.249770  1.0  0.0434
  C  C472  1  0.146100  0.198090  0.705060  1.0  0.0426
  C  C473  1  0.062270  0.190800  0.569260  1.0  0.6904
  C  C474  1  0.107340  0.149530  0.639640  1.0  -0.0628
  C  C475  1  0.130200  0.241340  0.680270  1.0  -0.1205
  C  C476  1  0.134460  0.152080  0.684190  1.0  -0.1209
  C  C477  1  0.104280  0.238330  0.636040  1.0  -0.0452
  C  C478  1  0.170330  0.242120  0.783130  1.0  -0.1462
  C  C479  1  0.092750  0.192610  0.615750  1.0  -0.122
  C  C480  1  0.177510  0.202610  0.750230  1.0  0.0432
  C  C481  1  0.794940  0.646100  0.698090  1.0  0.0408
  C  C482  1  0.930740  0.562270  0.690800  1.0  0.6894
  C  C483  1  0.860360  0.607340  0.649530  1.0  -0.0656
  C  C484  1  0.819730  0.630200  0.741340  1.0  -0.1215
  C  C485  1  0.815810  0.634460  0.652080  1.0  -0.1262
  C  C486  1  0.863960  0.604280  0.738330  1.0  -0.0526
  C  C487  1  0.716870  0.670330  0.742120  1.0  -0.1391
  C  C488  1  0.884250  0.592750  0.692610  1.0  -0.1229
  C  C489  1  0.749770  0.677510  0.702610  1.0  0.0415
  C  C490  1  0.205060  0.353900  0.698090  1.0  0.0427
  C  C491  1  0.069260  0.437730  0.690800  1.0  0.6883
  C  C492  1  0.139640  0.392660  0.649530  1.0  -0.0654
  C  C493  1  0.180270  0.369800  0.741340  1.0  -0.1204
  C  C494  1  0.184190  0.365540  0.652080  1.0  -0.1281
  C  C495  1  0.136040  0.395720  0.738330  1.0  -0.0519
  C  C496  1  0.283130  0.329670  0.742120  1.0  -0.1393
  C  C497  1  0.115750  0.407250  0.692610  1.0  -0.1216
  C  C498  1  0.250230  0.322490  0.702610  1.0  0.0412
  C  C499  1  0.205060  0.646100  0.301910  1.0  0.0422
  C  C500  1  0.069260  0.562270  0.309200  1.0  0.6886
  C  C501  1  0.139640  0.607340  0.350470  1.0  -0.0675
  C  C502  1  0.180270  0.630200  0.258660  1.0  -0.12
  C  C503  1  0.184190  0.634460  0.347920  1.0  -0.1291
  C  C504  1  0.136040  0.604280  0.261670  1.0  -0.0527
  C  C505  1  0.283130  0.670330  0.257880  1.0  -0.1422
  C  C506  1  0.115750  0.592750  0.307390  1.0  -0.122
  C  C507  1  0.250230  0.677510  0.297390  1.0  0.0413
  C  C508  1  0.794940  0.353900  0.301910  1.0  0.0424
  C  C509  1  0.930740  0.437730  0.309200  1.0  0.6895
  C  C510  1  0.860360  0.392660  0.350470  1.0  -0.0676
  C  C511  1  0.819730  0.369800  0.258660  1.0  -0.1214
  C  C512  1  0.815810  0.365540  0.347920  1.0  -0.1267
  C  C513  1  0.863960  0.395720  0.261670  1.0  -0.0528
  C  C514  1  0.716870  0.329670  0.257880  1.0  -0.1395
  C  C515  1  0.884250  0.407250  0.307390  1.0  -0.1222
  C  C516  1  0.749770  0.322490  0.297390  1.0  0.0395
  C  C517  1  0.698090  0.794940  0.646100  1.0  0.0412
  C  C518  1  0.690800  0.930740  0.562270  1.0  0.6905
  C  C519  1  0.649530  0.860360  0.607340  1.0  -0.0618
  C  C520  1  0.741340  0.819730  0.630200  1.0  -0.1189
  C  C521  1  0.652080  0.815810  0.634460  1.0  -0.1226
  C  C522  1  0.738330  0.863960  0.604280  1.0  -0.047
  C  C523  1  0.742120  0.716870  0.670330  1.0  -0.1437
  C  C524  1  0.692610  0.884250  0.592750  1.0  -0.1201
  C  C525  1  0.702610  0.749770  0.677510  1.0  0.0393
  C  C526  1  0.698090  0.205060  0.353900  1.0  0.0424
  C  C527  1  0.690800  0.069260  0.437730  1.0  0.6903
  C  C528  1  0.649530  0.139640  0.392660  1.0  -0.0618
  C  C529  1  0.741340  0.180270  0.369800  1.0  -0.12
  C  C530  1  0.652080  0.184190  0.365540  1.0  -0.1243
  C  C531  1  0.738330  0.136040  0.395720  1.0  -0.0472
  C  C532  1  0.742120  0.283130  0.329670  1.0  -0.1459
  C  C533  1  0.692610  0.115750  0.407250  1.0  -0.1202
  C  C534  1  0.702610  0.250230  0.322490  1.0  0.0399
  C  C535  1  0.301910  0.205060  0.646100  1.0  0.0436
  C  C536  1  0.309200  0.069260  0.562270  1.0  0.6904
  C  C537  1  0.350470  0.139640  0.607340  1.0  -0.0616
  C  C538  1  0.258660  0.180270  0.630200  1.0  -0.1181
  C  C539  1  0.347920  0.184190  0.634460  1.0  -0.1229
  C  C540  1  0.261670  0.136040  0.604280  1.0  -0.0463
  C  C541  1  0.257880  0.283130  0.670330  1.0  -0.1448
  C  C542  1  0.307390  0.115750  0.592750  1.0  -0.1214
  C  C543  1  0.297390  0.250230  0.677510  1.0  0.0381
  C  C544  1  0.301910  0.794940  0.353900  1.0  0.044
  C  C545  1  0.309200  0.930740  0.437730  1.0  0.6902
  C  C546  1  0.350470  0.860360  0.392660  1.0  -0.061
  C  C547  1  0.258660  0.819730  0.369800  1.0  -0.12
  C  C548  1  0.347920  0.815810  0.365540  1.0  -0.1231
  C  C549  1  0.261670  0.863960  0.395720  1.0  -0.0482
  C  C550  1  0.257880  0.716870  0.329670  1.0  -0.146
  C  C551  1  0.307390  0.884250  0.407250  1.0  -0.1202
  C  C552  1  0.297390  0.749770  0.322490  1.0  0.041
  C  C553  1  0.646100  0.698090  0.794940  1.0  0.0431
  C  C554  1  0.562270  0.690800  0.930740  1.0  0.691
  C  C555  1  0.607340  0.649530  0.860360  1.0  -0.0628
  C  C556  1  0.630200  0.741340  0.819730  1.0  -0.1205
  C  C557  1  0.634460  0.652080  0.815810  1.0  -0.1212
  C  C558  1  0.604280  0.738330  0.863960  1.0  -0.0465
  C  C559  1  0.670330  0.742120  0.716870  1.0  -0.1456
  C  C560  1  0.592750  0.692610  0.884250  1.0  -0.122
  C  C561  1  0.677510  0.702610  0.749770  1.0  0.0426
  C  C562  1  0.353900  0.698090  0.205060  1.0  0.0432
  C  C563  1  0.437730  0.690800  0.069260  1.0  0.6901
  C  C564  1  0.392660  0.649530  0.139640  1.0  -0.0623
  C  C565  1  0.369800  0.741340  0.180270  1.0  -0.1189
  C  C566  1  0.365540  0.652080  0.184190  1.0  -0.12
  C  C567  1  0.395720  0.738330  0.136040  1.0  -0.0467
  C  C568  1  0.329670  0.742120  0.283130  1.0  -0.1451
  C  C569  1  0.407250  0.692610  0.115750  1.0  -0.1223
  C  C570  1  0.322490  0.702610  0.250230  1.0  0.0443
  C  C571  1  0.646100  0.301910  0.205060  1.0  0.0425
  C  C572  1  0.562270  0.309200  0.069260  1.0  0.6906
  C  C573  1  0.607340  0.350470  0.139640  1.0  -0.0626
  C  C574  1  0.630200  0.258660  0.180270  1.0  -0.1199
  C  C575  1  0.634460  0.347920  0.184190  1.0  -0.1207
  C  C576  1  0.604280  0.261670  0.136040  1.0  -0.0456
  C  C577  1  0.670330  0.257880  0.283130  1.0  -0.1449
  C  C578  1  0.592750  0.307390  0.115750  1.0  -0.1219
  C  C579  1  0.677510  0.297390  0.250230  1.0  0.0413
  C  C580  1  0.353900  0.301910  0.794940  1.0  0.0431
  C  C581  1  0.437730  0.309200  0.930740  1.0  0.6909
  C  C582  1  0.392660  0.350470  0.860360  1.0  -0.0623
  C  C583  1  0.369800  0.258660  0.819730  1.0  -0.1189
  C  C584  1  0.365540  0.347920  0.815810  1.0  -0.1219
  C  C585  1  0.395720  0.261670  0.863960  1.0  -0.0469
  C  C586  1  0.329670  0.257880  0.716870  1.0  -0.1442
  C  C587  1  0.407250  0.307390  0.884250  1.0  -0.1232
  C  C588  1  0.322490  0.297390  0.749770  1.0  0.0427
  C  C589  1  0.205060  0.353900  0.301910  1.0  0.0426
  C  C590  1  0.069260  0.437730  0.309200  1.0  0.6885
  C  C591  1  0.139640  0.392660  0.350470  1.0  -0.0683
  C  C592  1  0.180270  0.369800  0.258660  1.0  -0.1208
  C  C593  1  0.184190  0.365540  0.347920  1.0  -0.1268
  C  C594  1  0.136040  0.395720  0.261670  1.0  -0.0516
  C  C595  1  0.283130  0.329670  0.257880  1.0  -0.1402
  C  C596  1  0.115750  0.407250  0.307390  1.0  -0.1215
  C  C597  1  0.250230  0.322490  0.297390  1.0  0.0392
  C  C598  1  0.794940  0.646100  0.301910  1.0  0.0419
  C  C599  1  0.930740  0.562270  0.309200  1.0  0.6894
  C  C600  1  0.860360  0.607340  0.350470  1.0  -0.067
  C  C601  1  0.819730  0.630200  0.258660  1.0  -0.1207
  C  C602  1  0.815810  0.634460  0.347920  1.0  -0.128
  C  C603  1  0.863960  0.604280  0.261670  1.0  -0.0536
  C  C604  1  0.716870  0.670330  0.257880  1.0  -0.1401
  C  C605  1  0.884250  0.592750  0.307390  1.0  -0.1228
  C  C606  1  0.749770  0.677510  0.297390  1.0  0.042
  C  C607  1  0.794940  0.353900  0.698090  1.0  0.0418
  C  C608  1  0.930740  0.437730  0.690800  1.0  0.6893
  C  C609  1  0.860360  0.392660  0.649530  1.0  -0.066
  C  C610  1  0.819730  0.369800  0.741340  1.0  -0.1213
  C  C611  1  0.815810  0.365540  0.652080  1.0  -0.1258
  C  C612  1  0.863960  0.395720  0.738330  1.0  -0.052
  C  C613  1  0.716870  0.329670  0.742120  1.0  -0.1391
  C  C614  1  0.884250  0.407250  0.692610  1.0  -0.1223
  C  C615  1  0.749770  0.322490  0.702610  1.0  0.0418
  C  C616  1  0.205060  0.646100  0.698090  1.0  0.0415
  C  C617  1  0.069260  0.562270  0.690800  1.0  0.6887
  C  C618  1  0.139640  0.607340  0.649530  1.0  -0.0648
  C  C619  1  0.180270  0.630200  0.741340  1.0  -0.1204
  C  C620  1  0.184190  0.634460  0.652080  1.0  -0.1293
  C  C621  1  0.136040  0.604280  0.738330  1.0  -0.0522
  C  C622  1  0.283130  0.670330  0.742120  1.0  -0.1403
  C  C623  1  0.115750  0.592750  0.692610  1.0  -0.1221
  C  C624  1  0.250230  0.677510  0.702610  1.0  0.0415
  C  C625  1  0.301910  0.205060  0.353900  1.0  0.0441
  C  C626  1  0.309200  0.069260  0.437730  1.0  0.6903
  C  C627  1  0.350470  0.139640  0.392660  1.0  -0.0615
  C  C628  1  0.258660  0.180270  0.369800  1.0  -0.12
  C  C629  1  0.347920  0.184190  0.365540  1.0  -0.1232
  C  C630  1  0.261670  0.136040  0.395720  1.0  -0.0471
  C  C631  1  0.257880  0.283130  0.329670  1.0  -0.1466
  C  C632  1  0.307390  0.115750  0.407250  1.0  -0.1203
  C  C633  1  0.297390  0.250230  0.322490  1.0  0.0386
  C  C634  1  0.301910  0.794940  0.646100  1.0  0.0411
  C  C635  1  0.309200  0.930740  0.562270  1.0  0.6902
  C  C636  1  0.350470  0.860360  0.607340  1.0  -0.0611
  C  C637  1  0.258660  0.819730  0.630200  1.0  -0.1181
  C  C638  1  0.347920  0.815810  0.634460  1.0  -0.1228
  C  C639  1  0.261670  0.863960  0.604280  1.0  -0.0464
  C  C640  1  0.257880  0.716870  0.670330  1.0  -0.1443
  C  C641  1  0.307390  0.884250  0.592750  1.0  -0.1203
  C  C642  1  0.297390  0.749770  0.677510  1.0  0.0382
  C  C643  1  0.698090  0.794940  0.353900  1.0  0.0424
  C  C644  1  0.690800  0.930740  0.437730  1.0  0.6904
  C  C645  1  0.649530  0.860360  0.392660  1.0  -0.0623
  C  C646  1  0.741340  0.819730  0.369800  1.0  -0.12
  C  C647  1  0.652080  0.815810  0.365540  1.0  -0.123
  C  C648  1  0.738330  0.863960  0.395720  1.0  -0.0479
  C  C649  1  0.742120  0.716870  0.329670  1.0  -0.1454
  C  C650  1  0.692610  0.884250  0.407250  1.0  -0.1198
  C  C651  1  0.702610  0.749770  0.322490  1.0  0.0419
  C  C652  1  0.698090  0.205060  0.646100  1.0  0.0447
  C  C653  1  0.690800  0.069260  0.562270  1.0  0.6906
  C  C654  1  0.649530  0.139640  0.607340  1.0  -0.0613
  C  C655  1  0.741340  0.180270  0.630200  1.0  -0.1189
  C  C656  1  0.652080  0.184190  0.634460  1.0  -0.1238
  C  C657  1  0.738330  0.136040  0.604280  1.0  -0.0467
  C  C658  1  0.742120  0.283130  0.670330  1.0  -0.1434
  C  C659  1  0.692610  0.115750  0.592750  1.0  -0.1212
  C  C660  1  0.702610  0.250230  0.677510  1.0  0.0393
  C  C661  1  0.353900  0.301910  0.205060  1.0  0.0423
  C  C662  1  0.437730  0.309200  0.069260  1.0  0.6903
  C  C663  1  0.392660  0.350470  0.139640  1.0  -0.0622
  C  C664  1  0.369800  0.258660  0.180270  1.0  -0.1185
  C  C665  1  0.365540  0.347920  0.184190  1.0  -0.121
  C  C666  1  0.395720  0.261670  0.136040  1.0  -0.0469
  C  C667  1  0.329670  0.257880  0.283130  1.0  -0.1451
  C  C668  1  0.407250  0.307390  0.115750  1.0  -0.1221
  C  C669  1  0.322490  0.297390  0.250230  1.0  0.0431
  C  C670  1  0.646100  0.301910  0.794940  1.0  0.0431
  C  C671  1  0.562270  0.309200  0.930740  1.0  0.6911
  C  C672  1  0.607340  0.350470  0.860360  1.0  -0.0626
  C  C673  1  0.630200  0.258660  0.819730  1.0  -0.1198
  C  C674  1  0.634460  0.347920  0.815810  1.0  -0.1214
  C  C675  1  0.604280  0.261670  0.863960  1.0  -0.0459
  C  C676  1  0.670330  0.257880  0.716870  1.0  -0.1439
  C  C677  1  0.592750  0.307390  0.884250  1.0  -0.122
  C  C678  1  0.677510  0.297390  0.749770  1.0  0.0416
  C  C679  1  0.353900  0.698090  0.794940  1.0  0.0435
  C  C680  1  0.437730  0.690800  0.930740  1.0  0.6907
  C  C681  1  0.392660  0.649530  0.860360  1.0  -0.0625
  C  C682  1  0.369800  0.741340  0.819730  1.0  -0.1193
  C  C683  1  0.365540  0.652080  0.815810  1.0  -0.1204
  C  C684  1  0.395720  0.738330  0.863960  1.0  -0.0471
  C  C685  1  0.329670  0.742120  0.716870  1.0  -0.1445
  C  C686  1  0.407250  0.692610  0.884250  1.0  -0.1233
  C  C687  1  0.322490  0.702610  0.749770  1.0  0.0434
  C  C688  1  0.646100  0.698090  0.205060  1.0  0.0426
  C  C689  1  0.562270  0.690800  0.069260  1.0  0.6904
  C  C690  1  0.607340  0.649530  0.139640  1.0  -0.0628
  C  C691  1  0.630200  0.741340  0.180270  1.0  -0.1205
  C  C692  1  0.634460  0.652080  0.184190  1.0  -0.1209
  C  C693  1  0.604280  0.738330  0.136040  1.0  -0.0452
  C  C694  1  0.670330  0.742120  0.283130  1.0  -0.1462
  C  C695  1  0.592750  0.692610  0.115750  1.0  -0.122
  C  C696  1  0.677510  0.702610  0.250230  1.0  0.0432
  O  O697  1  0.447700  0.050120  0.148850  1.0  -0.5771
  O  O698  1  0.448460  0.049490  0.231580  1.0  -0.5788
  O  O699  1  0.552300  0.949880  0.148850  1.0  -0.5768
  O  O700  1  0.551540  0.950510  0.231580  1.0  -0.5782
  O  O701  1  0.552300  0.050120  0.851150  1.0  -0.5769
  O  O702  1  0.551540  0.049490  0.768420  1.0  -0.5781
  O  O703  1  0.447700  0.949880  0.851150  1.0  -0.5762
  O  O704  1  0.448460  0.950510  0.768420  1.0  -0.5788
  O  O705  1  0.148850  0.447700  0.050120  1.0  -0.5777
  O  O706  1  0.231580  0.448460  0.049490  1.0  -0.5774
  O  O707  1  0.148850  0.552300  0.949880  1.0  -0.5779
  O  O708  1  0.231580  0.551540  0.950510  1.0  -0.5771
  O  O709  1  0.851150  0.552300  0.050120  1.0  -0.5782
  O  O710  1  0.768420  0.551540  0.049490  1.0  -0.5761
  O  O711  1  0.851150  0.447700  0.949880  1.0  -0.5789
  O  O712  1  0.768420  0.448460  0.950510  1.0  -0.5762
  O  O713  1  0.050120  0.148850  0.447700  1.0  -0.5796
  O  O714  1  0.049490  0.231580  0.448460  1.0  -0.5779
  O  O715  1  0.949880  0.148850  0.552300  1.0  -0.5792
  O  O716  1  0.950510  0.231580  0.551540  1.0  -0.5786
  O  O717  1  0.050120  0.851150  0.552300  1.0  -0.5789
  O  O718  1  0.049490  0.768420  0.551540  1.0  -0.5786
  O  O719  1  0.949880  0.851150  0.447700  1.0  -0.5796
  O  O720  1  0.950510  0.768420  0.448460  1.0  -0.5781
  O  O721  1  0.552300  0.949880  0.851150  1.0  -0.5767
  O  O722  1  0.551540  0.950510  0.768420  1.0  -0.5774
  O  O723  1  0.447700  0.050120  0.851150  1.0  -0.5765
  O  O724  1  0.448460  0.049490  0.768420  1.0  -0.5795
  O  O725  1  0.447700  0.949880  0.148850  1.0  -0.5771
  O  O726  1  0.448460  0.950510  0.231580  1.0  -0.5784
  O  O727  1  0.552300  0.050120  0.148850  1.0  -0.5769
  O  O728  1  0.551540  0.049490  0.231580  1.0  -0.5786
  O  O729  1  0.851150  0.552300  0.949880  1.0  -0.5788
  O  O730  1  0.768420  0.551540  0.950510  1.0  -0.5762
  O  O731  1  0.851150  0.447700  0.050120  1.0  -0.5784
  O  O732  1  0.768420  0.448460  0.049490  1.0  -0.5761
  O  O733  1  0.148850  0.447700  0.949880  1.0  -0.5778
  O  O734  1  0.231580  0.448460  0.950510  1.0  -0.5776
  O  O735  1  0.148850  0.552300  0.050120  1.0  -0.5778
  O  O736  1  0.231580  0.551540  0.049490  1.0  -0.5772
  O  O737  1  0.949880  0.851150  0.552300  1.0  -0.5795
  O  O738  1  0.950510  0.768420  0.551540  1.0  -0.5785
  O  O739  1  0.050120  0.851150  0.447700  1.0  -0.5792
  O  O740  1  0.049490  0.768420  0.448460  1.0  -0.5783
  O  O741  1  0.949880  0.148850  0.447700  1.0  -0.5794
  O  O742  1  0.950510  0.231580  0.448460  1.0  -0.5786
  O  O743  1  0.050120  0.148850  0.552300  1.0  -0.5796
  O  O744  1  0.049490  0.231580  0.551540  1.0  -0.578
  O  O745  1  0.947700  0.550120  0.648850  1.0  -0.5771
  O  O746  1  0.948460  0.549490  0.731580  1.0  -0.5788
  O  O747  1  0.052300  0.449880  0.648850  1.0  -0.5768
  O  O748  1  0.051540  0.450510  0.731580  1.0  -0.5782
  O  O749  1  0.052300  0.550120  0.351150  1.0  -0.5769
  O  O750  1  0.051540  0.549490  0.268420  1.0  -0.5781
  O  O751  1  0.947700  0.449880  0.351150  1.0  -0.5762
  O  O752  1  0.948460  0.450510  0.268420  1.0  -0.5788
  O  O753  1  0.648850  0.947700  0.550120  1.0  -0.5777
  O  O754  1  0.731580  0.948460  0.549490  1.0  -0.5774
  O  O755  1  0.648850  0.052300  0.449880  1.0  -0.5779
  O  O756  1  0.731580  0.051540  0.450510  1.0  -0.5771
  O  O757  1  0.351150  0.052300  0.550120  1.0  -0.5782
  O  O758  1  0.268420  0.051540  0.549490  1.0  -0.5761
  O  O759  1  0.351150  0.947700  0.449880  1.0  -0.5789
  O  O760  1  0.268420  0.948460  0.450510  1.0  -0.5762
  O  O761  1  0.550120  0.648850  0.947700  1.0  -0.5796
  O  O762  1  0.549490  0.731580  0.948460  1.0  -0.5779
  O  O763  1  0.449880  0.648850  0.052300  1.0  -0.5792
  O  O764  1  0.450510  0.731580  0.051540  1.0  -0.5787
  O  O765  1  0.550120  0.351150  0.052300  1.0  -0.5789
  O  O766  1  0.549490  0.268420  0.051540  1.0  -0.5786
  O  O767  1  0.449880  0.351150  0.947700  1.0  -0.5796
  O  O768  1  0.450510  0.268420  0.948460  1.0  -0.5781
  O  O769  1  0.052300  0.449880  0.351150  1.0  -0.5767
  O  O770  1  0.051540  0.450510  0.268420  1.0  -0.5774
  O  O771  1  0.947700  0.550120  0.351150  1.0  -0.5765
  O  O772  1  0.948460  0.549490  0.268420  1.0  -0.5795
  O  O773  1  0.947700  0.449880  0.648850  1.0  -0.5771
  O  O774  1  0.948460  0.450510  0.731580  1.0  -0.5784
  O  O775  1  0.052300  0.550120  0.648850  1.0  -0.5769
  O  O776  1  0.051540  0.549490  0.731580  1.0  -0.5786
  O  O777  1  0.351150  0.052300  0.449880  1.0  -0.5788
  O  O778  1  0.268420  0.051540  0.450510  1.0  -0.5762
  O  O779  1  0.351150  0.947700  0.550120  1.0  -0.5784
  O  O780  1  0.268420  0.948460  0.549490  1.0  -0.576
  O  O781  1  0.648850  0.947700  0.449880  1.0  -0.5778
  O  O782  1  0.731580  0.948460  0.450510  1.0  -0.5776
  O  O783  1  0.648850  0.052300  0.550120  1.0  -0.5778
  O  O784  1  0.731580  0.051540  0.549490  1.0  -0.5772
  O  O785  1  0.449880  0.351150  0.052300  1.0  -0.5795
  O  O786  1  0.450510  0.268420  0.051540  1.0  -0.5785
  O  O787  1  0.550120  0.351150  0.947700  1.0  -0.5792
  O  O788  1  0.549490  0.268420  0.948460  1.0  -0.5783
  O  O789  1  0.449880  0.648850  0.947700  1.0  -0.5794
  O  O790  1  0.450510  0.731580  0.948460  1.0  -0.5786
  O  O791  1  0.550120  0.648850  0.052300  1.0  -0.5796
  O  O792  1  0.549490  0.731580  0.051540  1.0  -0.578
