# generated using pymatgen
data_Zn8H21(C28O15)2
_symmetry_space_group_name_H-M   'P 1'
_cell_length_a   52.62300000
_cell_length_b   52.62300000
_cell_length_c   52.62300000
_cell_angle_alpha   90.00000000
_cell_angle_beta   90.00000000
_cell_angle_gamma   90.00000000
_symmetry_Int_Tables_number   1
_chemical_formula_structural   Zn8H21(C28O15)2
_chemical_formula_sum   'Zn384 H1008 C2688 O1440'
_cell_volume   145722.56592837
_cell_formula_units_Z   48
loop_
 _symmetry_equiv_pos_site_id
 _symmetry_equiv_pos_as_xyz
  1  'x, y, z'
loop_
 _atom_site_type_symbol
 _atom_site_label
 _atom_site_symmetry_multiplicity
 _atom_site_fract_x
 _atom_site_fract_y
 _atom_site_fract_z
 _atom_site_occupancy
 _atom_site_charge
  Zn  Zn1  1  0.219760  0.378900  0.875990  1.0  1.0026
  Zn  Zn2  1  0.277200  0.374370  0.880530  1.0  1.1
  Zn  Zn3  1  0.248990  0.427900  0.879440  1.0  1.0894
  Zn  Zn4  1  0.249800  0.394370  0.929580  1.0  1.1087
  Zn  Zn5  1  0.118620  0.373130  0.768550  1.0  1.0557
  Zn  Zn6  1  0.112240  0.383760  0.709350  1.0  1.0632
  Zn  Zn7  1  0.097810  0.428550  0.746440  1.0  1.0828
  Zn  Zn8  1  0.064240  0.379740  0.743680  1.0  1.1065
  Zn  Zn9  1  0.719760  0.878900  0.375990  1.0  1.0026
  Zn  Zn10  1  0.777200  0.874370  0.380530  1.0  1.1
  Zn  Zn11  1  0.748990  0.927900  0.379440  1.0  1.0894
  Zn  Zn12  1  0.749800  0.894370  0.429580  1.0  1.1087
  Zn  Zn13  1  0.618620  0.873130  0.268550  1.0  1.0557
  Zn  Zn14  1  0.612240  0.883760  0.209350  1.0  1.0632
  Zn  Zn15  1  0.597810  0.928550  0.246440  1.0  1.0828
  Zn  Zn16  1  0.564240  0.879740  0.243680  1.0  1.1065
  Zn  Zn17  1  0.280240  0.621100  0.375990  1.0  1.0026
  Zn  Zn18  1  0.222800  0.625630  0.380530  1.0  1.1014
  Zn  Zn19  1  0.251010  0.572100  0.379440  1.0  1.0892
  Zn  Zn20  1  0.250200  0.605630  0.429580  1.0  1.109
  Zn  Zn21  1  0.381380  0.626870  0.268550  1.0  1.0554
  Zn  Zn22  1  0.387760  0.616240  0.209350  1.0  1.0631
  Zn  Zn23  1  0.402190  0.571450  0.246440  1.0  1.0824
  Zn  Zn24  1  0.435760  0.620260  0.243680  1.0  1.1062
  Zn  Zn25  1  0.780240  0.121100  0.875990  1.0  1.0026
  Zn  Zn26  1  0.722800  0.125630  0.880530  1.0  1.1014
  Zn  Zn27  1  0.751010  0.072100  0.879440  1.0  1.0892
  Zn  Zn28  1  0.750200  0.105630  0.929580  1.0  1.109
  Zn  Zn29  1  0.881380  0.126870  0.768550  1.0  1.0554
  Zn  Zn30  1  0.887760  0.116240  0.709350  1.0  1.0631
  Zn  Zn31  1  0.902190  0.071450  0.746440  1.0  1.0824
  Zn  Zn32  1  0.935760  0.120260  0.743680  1.0  1.1062
  Zn  Zn33  1  0.780240  0.878900  0.624010  1.0  1.0032
  Zn  Zn34  1  0.722800  0.874370  0.619470  1.0  1.1014
  Zn  Zn35  1  0.751010  0.927900  0.620560  1.0  1.0897
  Zn  Zn36  1  0.750200  0.894370  0.570420  1.0  1.113
  Zn  Zn37  1  0.881380  0.873130  0.731450  1.0  1.0565
  Zn  Zn38  1  0.887760  0.883760  0.790650  1.0  1.061
  Zn  Zn39  1  0.902190  0.928550  0.753560  1.0  1.0833
  Zn  Zn40  1  0.935760  0.879740  0.756320  1.0  1.1063
  Zn  Zn41  1  0.280240  0.378900  0.124010  1.0  1.0032
  Zn  Zn42  1  0.222800  0.374370  0.119470  1.0  1.1014
  Zn  Zn43  1  0.251010  0.427900  0.120560  1.0  1.0897
  Zn  Zn44  1  0.250200  0.394370  0.070420  1.0  1.113
  Zn  Zn45  1  0.381380  0.373130  0.231450  1.0  1.0565
  Zn  Zn46  1  0.387760  0.383760  0.290650  1.0  1.061
  Zn  Zn47  1  0.402190  0.428550  0.253560  1.0  1.0833
  Zn  Zn48  1  0.435760  0.379740  0.256320  1.0  1.1063
  Zn  Zn49  1  0.719760  0.121100  0.124010  1.0  1.0031
  Zn  Zn50  1  0.777200  0.125630  0.119470  1.0  1.1001
  Zn  Zn51  1  0.748990  0.072100  0.120560  1.0  1.0898
  Zn  Zn52  1  0.749800  0.105630  0.070420  1.0  1.1123
  Zn  Zn53  1  0.618620  0.126870  0.231450  1.0  1.0563
  Zn  Zn54  1  0.612240  0.116240  0.290650  1.0  1.061
  Zn  Zn55  1  0.597810  0.071450  0.253560  1.0  1.0823
  Zn  Zn56  1  0.564240  0.120260  0.256320  1.0  1.1063
  Zn  Zn57  1  0.219760  0.621100  0.624010  1.0  1.0031
  Zn  Zn58  1  0.277200  0.625630  0.619470  1.0  1.1001
  Zn  Zn59  1  0.248990  0.572100  0.620560  1.0  1.0898
  Zn  Zn60  1  0.249800  0.605630  0.570420  1.0  1.1123
  Zn  Zn61  1  0.118620  0.626870  0.731450  1.0  1.0563
  Zn  Zn62  1  0.112240  0.616240  0.790650  1.0  1.061
  Zn  Zn63  1  0.097810  0.571450  0.753560  1.0  1.0823
  Zn  Zn64  1  0.064240  0.620260  0.756320  1.0  1.1063
  Zn  Zn65  1  0.875990  0.219760  0.378900  1.0  1.0027
  Zn  Zn66  1  0.880530  0.277200  0.374370  1.0  1.1027
  Zn  Zn67  1  0.879440  0.248990  0.427900  1.0  1.0932
  Zn  Zn68  1  0.929580  0.249800  0.394370  1.0  1.1102
  Zn  Zn69  1  0.768550  0.118620  0.373130  1.0  1.0538
  Zn  Zn70  1  0.709350  0.112240  0.383760  1.0  1.0573
  Zn  Zn71  1  0.746440  0.097810  0.428550  1.0  1.0855
  Zn  Zn72  1  0.743680  0.064240  0.379740  1.0  1.1078
  Zn  Zn73  1  0.375990  0.719760  0.878900  1.0  1.0027
  Zn  Zn74  1  0.380530  0.777200  0.874370  1.0  1.1027
  Zn  Zn75  1  0.379440  0.748990  0.927900  1.0  1.0932
  Zn  Zn76  1  0.429580  0.749800  0.894370  1.0  1.1102
  Zn  Zn77  1  0.268550  0.618620  0.873130  1.0  1.0538
  Zn  Zn78  1  0.209350  0.612240  0.883760  1.0  1.0573
  Zn  Zn79  1  0.246440  0.597810  0.928550  1.0  1.0855
  Zn  Zn80  1  0.243680  0.564240  0.879740  1.0  1.1078
  Zn  Zn81  1  0.375990  0.280240  0.621100  1.0  1.0044
  Zn  Zn82  1  0.380530  0.222800  0.625630  1.0  1.1003
  Zn  Zn83  1  0.379440  0.251010  0.572100  1.0  1.0918
  Zn  Zn84  1  0.429580  0.250200  0.605630  1.0  1.1097
  Zn  Zn85  1  0.268550  0.381380  0.626870  1.0  1.052
  Zn  Zn86  1  0.209350  0.387760  0.616240  1.0  1.0572
  Zn  Zn87  1  0.246440  0.402190  0.571450  1.0  1.0861
  Zn  Zn88  1  0.243680  0.435760  0.620260  1.0  1.1084
  Zn  Zn89  1  0.875990  0.780240  0.121100  1.0  1.0044
  Zn  Zn90  1  0.880530  0.722800  0.125630  1.0  1.1003
  Zn  Zn91  1  0.879440  0.751010  0.072100  1.0  1.0918
  Zn  Zn92  1  0.929580  0.750200  0.105630  1.0  1.1097
  Zn  Zn93  1  0.768550  0.881380  0.126870  1.0  1.052
  Zn  Zn94  1  0.709350  0.887760  0.116240  1.0  1.0572
  Zn  Zn95  1  0.746440  0.902190  0.071450  1.0  1.0861
  Zn  Zn96  1  0.743680  0.935760  0.120260  1.0  1.1084
  Zn  Zn97  1  0.624010  0.780240  0.878900  1.0  1.0056
  Zn  Zn98  1  0.619470  0.722800  0.874370  1.0  1.0998
  Zn  Zn99  1  0.620560  0.751010  0.927900  1.0  1.0931
  Zn  Zn100  1  0.570420  0.750200  0.894370  1.0  1.1104
  Zn  Zn101  1  0.731450  0.881380  0.873130  1.0  1.0544
  Zn  Zn102  1  0.790650  0.887760  0.883760  1.0  1.0583
  Zn  Zn103  1  0.753560  0.902190  0.928550  1.0  1.0841
  Zn  Zn104  1  0.756320  0.935760  0.879740  1.0  1.1079
  Zn  Zn105  1  0.124010  0.280240  0.378900  1.0  1.0056
  Zn  Zn106  1  0.119470  0.222800  0.374370  1.0  1.0998
  Zn  Zn107  1  0.120560  0.251010  0.427900  1.0  1.0931
  Zn  Zn108  1  0.070420  0.250200  0.394370  1.0  1.1104
  Zn  Zn109  1  0.231450  0.381380  0.373130  1.0  1.0544
  Zn  Zn110  1  0.290650  0.387760  0.383760  1.0  1.0583
  Zn  Zn111  1  0.253560  0.402190  0.428550  1.0  1.0841
  Zn  Zn112  1  0.256320  0.435760  0.379740  1.0  1.1079
  Zn  Zn113  1  0.124010  0.719760  0.121100  1.0  1.0041
  Zn  Zn114  1  0.119470  0.777200  0.125630  1.0  1.102
  Zn  Zn115  1  0.120560  0.748990  0.072100  1.0  1.0916
  Zn  Zn116  1  0.070420  0.749800  0.105630  1.0  1.1101
  Zn  Zn117  1  0.231450  0.618620  0.126870  1.0  1.0535
  Zn  Zn118  1  0.290650  0.612240  0.116240  1.0  1.0581
  Zn  Zn119  1  0.253560  0.597810  0.071450  1.0  1.0861
  Zn  Zn120  1  0.256320  0.564240  0.120260  1.0  1.1075
  Zn  Zn121  1  0.624010  0.219760  0.621100  1.0  1.0041
  Zn  Zn122  1  0.619470  0.277200  0.625630  1.0  1.102
  Zn  Zn123  1  0.620560  0.248990  0.572100  1.0  1.0916
  Zn  Zn124  1  0.570420  0.249800  0.605630  1.0  1.1101
  Zn  Zn125  1  0.731450  0.118620  0.626870  1.0  1.0535
  Zn  Zn126  1  0.790650  0.112240  0.616240  1.0  1.0581
  Zn  Zn127  1  0.753560  0.097810  0.571450  1.0  1.0861
  Zn  Zn128  1  0.756320  0.064240  0.620260  1.0  1.1075
  Zn  Zn129  1  0.378900  0.875990  0.219760  1.0  1.0083
  Zn  Zn130  1  0.374370  0.880530  0.277200  1.0  1.1007
  Zn  Zn131  1  0.427900  0.879440  0.248990  1.0  1.0872
  Zn  Zn132  1  0.394370  0.929580  0.249800  1.0  1.1104
  Zn  Zn133  1  0.373130  0.768550  0.118620  1.0  1.0597
  Zn  Zn134  1  0.383760  0.709350  0.112240  1.0  1.0611
  Zn  Zn135  1  0.428550  0.746440  0.097810  1.0  1.0835
  Zn  Zn136  1  0.379740  0.743680  0.064240  1.0  1.1109
  Zn  Zn137  1  0.878900  0.375990  0.719760  1.0  1.0083
  Zn  Zn138  1  0.874370  0.380530  0.777200  1.0  1.1007
  Zn  Zn139  1  0.927900  0.379440  0.748990  1.0  1.0872
  Zn  Zn140  1  0.894370  0.429580  0.749800  1.0  1.1104
  Zn  Zn141  1  0.873130  0.268550  0.618620  1.0  1.0597
  Zn  Zn142  1  0.883760  0.209350  0.612240  1.0  1.0611
  Zn  Zn143  1  0.928550  0.246440  0.597810  1.0  1.0835
  Zn  Zn144  1  0.879740  0.243680  0.564240  1.0  1.1109
  Zn  Zn145  1  0.621100  0.375990  0.280240  1.0  1.0071
  Zn  Zn146  1  0.625630  0.380530  0.222800  1.0  1.1019
  Zn  Zn147  1  0.572100  0.379440  0.251010  1.0  1.0861
  Zn  Zn148  1  0.605630  0.429580  0.250200  1.0  1.1117
  Zn  Zn149  1  0.626870  0.268550  0.381380  1.0  1.0598
  Zn  Zn150  1  0.616240  0.209350  0.387760  1.0  1.061
  Zn  Zn151  1  0.571450  0.246440  0.402190  1.0  1.084
  Zn  Zn152  1  0.620260  0.243680  0.435760  1.0  1.1104
  Zn  Zn153  1  0.121100  0.875990  0.780240  1.0  1.0071
  Zn  Zn154  1  0.125630  0.880530  0.722800  1.0  1.1019
  Zn  Zn155  1  0.072100  0.879440  0.751010  1.0  1.0861
  Zn  Zn156  1  0.105630  0.929580  0.750200  1.0  1.1117
  Zn  Zn157  1  0.126870  0.768550  0.881380  1.0  1.0598
  Zn  Zn158  1  0.116240  0.709350  0.887760  1.0  1.061
  Zn  Zn159  1  0.071450  0.746440  0.902190  1.0  1.084
  Zn  Zn160  1  0.120260  0.743680  0.935760  1.0  1.1104
  Zn  Zn161  1  0.878900  0.624010  0.780240  1.0  1.0065
  Zn  Zn162  1  0.874370  0.619470  0.722800  1.0  1.1019
  Zn  Zn163  1  0.927900  0.620560  0.751010  1.0  1.0876
  Zn  Zn164  1  0.894370  0.570420  0.750200  1.0  1.1103
  Zn  Zn165  1  0.873130  0.731450  0.881380  1.0  1.0557
  Zn  Zn166  1  0.883760  0.790650  0.887760  1.0  1.0635
  Zn  Zn167  1  0.928550  0.753560  0.902190  1.0  1.0838
  Zn  Zn168  1  0.879740  0.756320  0.935760  1.0  1.1108
  Zn  Zn169  1  0.378900  0.124010  0.280240  1.0  1.0065
  Zn  Zn170  1  0.374370  0.119470  0.222800  1.0  1.1019
  Zn  Zn171  1  0.427900  0.120560  0.251010  1.0  1.0876
  Zn  Zn172  1  0.394370  0.070420  0.250200  1.0  1.1103
  Zn  Zn173  1  0.373130  0.231450  0.381380  1.0  1.0557
  Zn  Zn174  1  0.383760  0.290650  0.387760  1.0  1.0635
  Zn  Zn175  1  0.428550  0.253560  0.402190  1.0  1.0838
  Zn  Zn176  1  0.379740  0.256320  0.435760  1.0  1.1108
  Zn  Zn177  1  0.121100  0.124010  0.719760  1.0  1.0078
  Zn  Zn178  1  0.125630  0.119470  0.777200  1.0  1.1009
  Zn  Zn179  1  0.072100  0.120560  0.748990  1.0  1.0861
  Zn  Zn180  1  0.105630  0.070420  0.749800  1.0  1.1112
  Zn  Zn181  1  0.126870  0.231450  0.618620  1.0  1.0546
  Zn  Zn182  1  0.116240  0.290650  0.612240  1.0  1.0632
  Zn  Zn183  1  0.071450  0.253560  0.597810  1.0  1.084
  Zn  Zn184  1  0.120260  0.256320  0.564240  1.0  1.1106
  Zn  Zn185  1  0.621100  0.624010  0.219760  1.0  1.0078
  Zn  Zn186  1  0.625630  0.619470  0.277200  1.0  1.1009
  Zn  Zn187  1  0.572100  0.620560  0.248990  1.0  1.0861
  Zn  Zn188  1  0.605630  0.570420  0.249800  1.0  1.1112
  Zn  Zn189  1  0.626870  0.731450  0.118620  1.0  1.0546
  Zn  Zn190  1  0.616240  0.790650  0.112240  1.0  1.0632
  Zn  Zn191  1  0.571450  0.753560  0.097810  1.0  1.084
  Zn  Zn192  1  0.620260  0.756320  0.064240  1.0  1.1106
  Zn  Zn193  1  0.780240  0.621100  0.124010  1.0  1.0031
  Zn  Zn194  1  0.722800  0.625630  0.119470  1.0  1.1017
  Zn  Zn195  1  0.751010  0.572100  0.120560  1.0  1.0896
  Zn  Zn196  1  0.750200  0.605630  0.070420  1.0  1.1128
  Zn  Zn197  1  0.881380  0.626870  0.231450  1.0  1.0568
  Zn  Zn198  1  0.887760  0.616240  0.290650  1.0  1.061
  Zn  Zn199  1  0.902190  0.571450  0.253560  1.0  1.0823
  Zn  Zn200  1  0.935760  0.620260  0.256320  1.0  1.1059
  Zn  Zn201  1  0.280240  0.121100  0.624010  1.0  1.0031
  Zn  Zn202  1  0.222800  0.125630  0.619470  1.0  1.1017
  Zn  Zn203  1  0.251010  0.072100  0.620560  1.0  1.0896
  Zn  Zn204  1  0.250200  0.105630  0.570420  1.0  1.1128
  Zn  Zn205  1  0.381380  0.126870  0.731450  1.0  1.0568
  Zn  Zn206  1  0.387760  0.116240  0.790650  1.0  1.061
  Zn  Zn207  1  0.402190  0.071450  0.753560  1.0  1.0823
  Zn  Zn208  1  0.435760  0.120260  0.756320  1.0  1.1059
  Zn  Zn209  1  0.719760  0.378900  0.624010  1.0  1.0033
  Zn  Zn210  1  0.777200  0.374370  0.619470  1.0  1.0999
  Zn  Zn211  1  0.748990  0.427900  0.620560  1.0  1.0896
  Zn  Zn212  1  0.749800  0.394370  0.570420  1.0  1.1124
  Zn  Zn213  1  0.618620  0.373130  0.731450  1.0  1.0559
  Zn  Zn214  1  0.612240  0.383760  0.790650  1.0  1.0609
  Zn  Zn215  1  0.597810  0.428550  0.753560  1.0  1.0826
  Zn  Zn216  1  0.564240  0.379740  0.756320  1.0  1.1064
  Zn  Zn217  1  0.219760  0.878900  0.124010  1.0  1.0033
  Zn  Zn218  1  0.277200  0.874370  0.119470  1.0  1.0999
  Zn  Zn219  1  0.248990  0.927900  0.120560  1.0  1.0896
  Zn  Zn220  1  0.249800  0.894370  0.070420  1.0  1.1124
  Zn  Zn221  1  0.118620  0.873130  0.231450  1.0  1.0559
  Zn  Zn222  1  0.112240  0.883760  0.290650  1.0  1.0609
  Zn  Zn223  1  0.097810  0.928550  0.253560  1.0  1.0826
  Zn  Zn224  1  0.064240  0.879740  0.256320  1.0  1.1064
  Zn  Zn225  1  0.219760  0.121100  0.375990  1.0  1.0025
  Zn  Zn226  1  0.277200  0.125630  0.380530  1.0  1.1001
  Zn  Zn227  1  0.248990  0.072100  0.379440  1.0  1.0894
  Zn  Zn228  1  0.249800  0.105630  0.429580  1.0  1.1088
  Zn  Zn229  1  0.118620  0.126870  0.268550  1.0  1.0558
  Zn  Zn230  1  0.112240  0.116240  0.209350  1.0  1.0632
  Zn  Zn231  1  0.097810  0.071450  0.246440  1.0  1.0825
  Zn  Zn232  1  0.064240  0.120260  0.243680  1.0  1.1064
  Zn  Zn233  1  0.719760  0.621100  0.875990  1.0  1.0025
  Zn  Zn234  1  0.777200  0.625630  0.880530  1.0  1.1001
  Zn  Zn235  1  0.748990  0.572100  0.879440  1.0  1.0894
  Zn  Zn236  1  0.749800  0.605630  0.929580  1.0  1.1088
  Zn  Zn237  1  0.618620  0.626870  0.768550  1.0  1.0558
  Zn  Zn238  1  0.612240  0.616240  0.709350  1.0  1.0632
  Zn  Zn239  1  0.597810  0.571450  0.746440  1.0  1.0825
  Zn  Zn240  1  0.564240  0.620260  0.743680  1.0  1.1064
  Zn  Zn241  1  0.280240  0.878900  0.875990  1.0  1.0027
  Zn  Zn242  1  0.222800  0.874370  0.880530  1.0  1.1011
  Zn  Zn243  1  0.251010  0.927900  0.879440  1.0  1.0894
  Zn  Zn244  1  0.250200  0.894370  0.929580  1.0  1.1089
  Zn  Zn245  1  0.381380  0.873130  0.768550  1.0  1.0553
  Zn  Zn246  1  0.387760  0.883760  0.709350  1.0  1.0631
  Zn  Zn247  1  0.402190  0.928550  0.746440  1.0  1.0835
  Zn  Zn248  1  0.435760  0.879740  0.743680  1.0  1.1066
  Zn  Zn249  1  0.780240  0.378900  0.375990  1.0  1.0027
  Zn  Zn250  1  0.722800  0.374370  0.380530  1.0  1.1011
  Zn  Zn251  1  0.751010  0.427900  0.379440  1.0  1.0894
  Zn  Zn252  1  0.750200  0.394370  0.429580  1.0  1.1089
  Zn  Zn253  1  0.881380  0.373130  0.268550  1.0  1.0553
  Zn  Zn254  1  0.887760  0.383760  0.209350  1.0  1.0631
  Zn  Zn255  1  0.902190  0.428550  0.246440  1.0  1.0835
  Zn  Zn256  1  0.935760  0.379740  0.243680  1.0  1.1066
  Zn  Zn257  1  0.124010  0.780240  0.621100  1.0  1.0055
  Zn  Zn258  1  0.119470  0.722800  0.625630  1.0  1.0996
  Zn  Zn259  1  0.120560  0.751010  0.572100  1.0  1.0917
  Zn  Zn260  1  0.070420  0.750200  0.605630  1.0  1.1101
  Zn  Zn261  1  0.231450  0.881380  0.626870  1.0  1.0534
  Zn  Zn262  1  0.290650  0.887760  0.616240  1.0  1.0582
  Zn  Zn263  1  0.253560  0.902190  0.571450  1.0  1.0855
  Zn  Zn264  1  0.256320  0.935760  0.620260  1.0  1.1079
  Zn  Zn265  1  0.624010  0.280240  0.121100  1.0  1.0055
  Zn  Zn266  1  0.619470  0.222800  0.125630  1.0  1.0996
  Zn  Zn267  1  0.620560  0.251010  0.072100  1.0  1.0917
  Zn  Zn268  1  0.570420  0.250200  0.105630  1.0  1.1101
  Zn  Zn269  1  0.731450  0.381380  0.126870  1.0  1.0534
  Zn  Zn270  1  0.790650  0.387760  0.116240  1.0  1.0582
  Zn  Zn271  1  0.753560  0.402190  0.071450  1.0  1.0855
  Zn  Zn272  1  0.756320  0.435760  0.120260  1.0  1.1079
  Zn  Zn273  1  0.624010  0.719760  0.378900  1.0  1.0039
  Zn  Zn274  1  0.619470  0.777200  0.374370  1.0  1.1023
  Zn  Zn275  1  0.620560  0.748990  0.427900  1.0  1.093
  Zn  Zn276  1  0.570420  0.749800  0.394370  1.0  1.1104
  Zn  Zn277  1  0.731450  0.618620  0.373130  1.0  1.0544
  Zn  Zn278  1  0.790650  0.612240  0.383760  1.0  1.0582
  Zn  Zn279  1  0.753560  0.597810  0.428550  1.0  1.0849
  Zn  Zn280  1  0.756320  0.564240  0.379740  1.0  1.1075
  Zn  Zn281  1  0.124010  0.219760  0.878900  1.0  1.0039
  Zn  Zn282  1  0.119470  0.277200  0.874370  1.0  1.1023
  Zn  Zn283  1  0.120560  0.248990  0.927900  1.0  1.093
  Zn  Zn284  1  0.070420  0.249800  0.894370  1.0  1.1104
  Zn  Zn285  1  0.231450  0.118620  0.873130  1.0  1.0544
  Zn  Zn286  1  0.290650  0.112240  0.883760  1.0  1.0582
  Zn  Zn287  1  0.253560  0.097810  0.928550  1.0  1.0849
  Zn  Zn288  1  0.256320  0.064240  0.879740  1.0  1.1075
  Zn  Zn289  1  0.375990  0.219760  0.121100  1.0  1.0028
  Zn  Zn290  1  0.380530  0.277200  0.125630  1.0  1.1026
  Zn  Zn291  1  0.379440  0.248990  0.072100  1.0  1.0917
  Zn  Zn292  1  0.429580  0.249800  0.105630  1.0  1.1097
  Zn  Zn293  1  0.268550  0.118620  0.126870  1.0  1.0524
  Zn  Zn294  1  0.209350  0.112240  0.116240  1.0  1.0571
  Zn  Zn295  1  0.246440  0.097810  0.071450  1.0  1.0868
  Zn  Zn296  1  0.243680  0.064240  0.120260  1.0  1.1079
  Zn  Zn297  1  0.875990  0.719760  0.621100  1.0  1.0028
  Zn  Zn298  1  0.880530  0.777200  0.625630  1.0  1.1026
  Zn  Zn299  1  0.879440  0.748990  0.572100  1.0  1.0917
  Zn  Zn300  1  0.929580  0.749800  0.605630  1.0  1.1097
  Zn  Zn301  1  0.768550  0.618620  0.626870  1.0  1.0524
  Zn  Zn302  1  0.709350  0.612240  0.616240  1.0  1.0571
  Zn  Zn303  1  0.746440  0.597810  0.571450  1.0  1.0868
  Zn  Zn304  1  0.743680  0.564240  0.620260  1.0  1.1079
  Zn  Zn305  1  0.875990  0.280240  0.878900  1.0  1.0046
  Zn  Zn306  1  0.880530  0.222800  0.874370  1.0  1.1003
  Zn  Zn307  1  0.879440  0.251010  0.927900  1.0  1.0933
  Zn  Zn308  1  0.929580  0.250200  0.894370  1.0  1.1101
  Zn  Zn309  1  0.768550  0.381380  0.873130  1.0  1.0534
  Zn  Zn310  1  0.709350  0.387760  0.883760  1.0  1.0573
  Zn  Zn311  1  0.746440  0.402190  0.928550  1.0  1.0848
  Zn  Zn312  1  0.743680  0.435760  0.879740  1.0  1.1083
  Zn  Zn313  1  0.375990  0.780240  0.378900  1.0  1.0046
  Zn  Zn314  1  0.380530  0.722800  0.374370  1.0  1.1003
  Zn  Zn315  1  0.379440  0.751010  0.427900  1.0  1.0933
  Zn  Zn316  1  0.429580  0.750200  0.394370  1.0  1.1101
  Zn  Zn317  1  0.268550  0.881380  0.373130  1.0  1.0534
  Zn  Zn318  1  0.209350  0.887760  0.383760  1.0  1.0573
  Zn  Zn319  1  0.246440  0.902190  0.428550  1.0  1.0848
  Zn  Zn320  1  0.243680  0.935760  0.379740  1.0  1.1083
  Zn  Zn321  1  0.621100  0.124010  0.780240  1.0  1.0063
  Zn  Zn322  1  0.625630  0.119470  0.722800  1.0  1.1015
  Zn  Zn323  1  0.572100  0.120560  0.751010  1.0  1.0862
  Zn  Zn324  1  0.605630  0.070420  0.750200  1.0  1.1115
  Zn  Zn325  1  0.626870  0.231450  0.881380  1.0  1.0555
  Zn  Zn326  1  0.616240  0.290650  0.887760  1.0  1.0634
  Zn  Zn327  1  0.571450  0.253560  0.902190  1.0  1.0843
  Zn  Zn328  1  0.620260  0.256320  0.935760  1.0  1.1106
  Zn  Zn329  1  0.121100  0.624010  0.280240  1.0  1.0063
  Zn  Zn330  1  0.125630  0.619470  0.222800  1.0  1.1015
  Zn  Zn331  1  0.072100  0.620560  0.251010  1.0  1.0862
  Zn  Zn332  1  0.105630  0.570420  0.250200  1.0  1.1115
  Zn  Zn333  1  0.126870  0.731450  0.381380  1.0  1.0555
  Zn  Zn334  1  0.116240  0.790650  0.387760  1.0  1.0634
  Zn  Zn335  1  0.071450  0.753560  0.402190  1.0  1.0843
  Zn  Zn336  1  0.120260  0.756320  0.435760  1.0  1.1106
  Zn  Zn337  1  0.378900  0.624010  0.719760  1.0  1.008
  Zn  Zn338  1  0.374370  0.619470  0.777200  1.0  1.1008
  Zn  Zn339  1  0.427900  0.620560  0.748990  1.0  1.0875
  Zn  Zn340  1  0.394370  0.570420  0.749800  1.0  1.11
  Zn  Zn341  1  0.373130  0.731450  0.618620  1.0  1.055
  Zn  Zn342  1  0.383760  0.790650  0.612240  1.0  1.0634
  Zn  Zn343  1  0.428550  0.753560  0.597810  1.0  1.0838
  Zn  Zn344  1  0.379740  0.756320  0.564240  1.0  1.1109
  Zn  Zn345  1  0.878900  0.124010  0.219760  1.0  1.008
  Zn  Zn346  1  0.874370  0.119470  0.277200  1.0  1.1008
  Zn  Zn347  1  0.927900  0.120560  0.248990  1.0  1.0875
  Zn  Zn348  1  0.894370  0.070420  0.249800  1.0  1.11
  Zn  Zn349  1  0.873130  0.231450  0.118620  1.0  1.055
  Zn  Zn350  1  0.883760  0.290650  0.112240  1.0  1.0634
  Zn  Zn351  1  0.928550  0.253560  0.097810  1.0  1.0838
  Zn  Zn352  1  0.879740  0.256320  0.064240  1.0  1.1109
  Zn  Zn353  1  0.121100  0.375990  0.219760  1.0  1.0081
  Zn  Zn354  1  0.125630  0.380530  0.277200  1.0  1.1011
  Zn  Zn355  1  0.072100  0.379440  0.248990  1.0  1.0859
  Zn  Zn356  1  0.105630  0.429580  0.249800  1.0  1.1114
  Zn  Zn357  1  0.126870  0.268550  0.118620  1.0  1.0593
  Zn  Zn358  1  0.116240  0.209350  0.112240  1.0  1.0609
  Zn  Zn359  1  0.071450  0.246440  0.097810  1.0  1.0839
  Zn  Zn360  1  0.120260  0.243680  0.064240  1.0  1.1106
  Zn  Zn361  1  0.621100  0.875990  0.719760  1.0  1.0081
  Zn  Zn362  1  0.625630  0.880530  0.777200  1.0  1.1011
  Zn  Zn363  1  0.572100  0.879440  0.748990  1.0  1.0859
  Zn  Zn364  1  0.605630  0.929580  0.749800  1.0  1.1114
  Zn  Zn365  1  0.626870  0.768550  0.618620  1.0  1.0593
  Zn  Zn366  1  0.616240  0.709350  0.612240  1.0  1.0609
  Zn  Zn367  1  0.571450  0.746440  0.597810  1.0  1.0839
  Zn  Zn368  1  0.620260  0.743680  0.564240  1.0  1.1106
  Zn  Zn369  1  0.878900  0.875990  0.280240  1.0  1.0073
  Zn  Zn370  1  0.874370  0.880530  0.222800  1.0  1.1021
  Zn  Zn371  1  0.927900  0.879440  0.251010  1.0  1.0874
  Zn  Zn372  1  0.894370  0.929580  0.250200  1.0  1.1106
  Zn  Zn373  1  0.873130  0.768550  0.381380  1.0  1.0599
  Zn  Zn374  1  0.883760  0.709350  0.387760  1.0  1.0612
  Zn  Zn375  1  0.928550  0.746440  0.402190  1.0  1.0834
  Zn  Zn376  1  0.879740  0.743680  0.435760  1.0  1.1107
  Zn  Zn377  1  0.378900  0.375990  0.780240  1.0  1.0073
  Zn  Zn378  1  0.374370  0.380530  0.722800  1.0  1.1021
  Zn  Zn379  1  0.427900  0.379440  0.751010  1.0  1.0874
  Zn  Zn380  1  0.394370  0.429580  0.750200  1.0  1.1106
  Zn  Zn381  1  0.373130  0.268550  0.881380  1.0  1.0599
  Zn  Zn382  1  0.383760  0.209350  0.887760  1.0  1.0612
  Zn  Zn383  1  0.428550  0.246440  0.902190  1.0  1.0834
  Zn  Zn384  1  0.379740  0.243680  0.935760  1.0  1.1107
  H  H385  1  0.306700  0.374200  0.809300  1.0  0.1316
  H  H386  1  0.286000  0.379600  0.735600  1.0  0.1331
  H  H387  1  0.232300  0.379900  0.790200  1.0  0.1147
  H  H388  1  0.258800  0.382100  0.709400  1.0  0.1206
  H  H389  1  0.204500  0.379100  0.763200  1.0  0.1246
  H  H390  1  0.185100  0.386700  0.689900  1.0  0.1192
  H  H391  1  0.161400  0.407400  0.825200  1.0  0.1304
  H  H392  1  0.130800  0.474600  0.803100  1.0  0.1209
  H  H393  1  0.188200  0.473800  0.853800  1.0  0.1296
  H  H394  1  0.128500  0.512200  0.805900  1.0  0.1216
  H  H395  1  0.153000  0.578300  0.836800  1.0  0.1243
  H  H396  1  0.187900  0.512500  0.854000  1.0  0.1278
  H  H397  1  0.166800  0.338100  0.913200  1.0  0.1321
  H  H398  1  0.145300  0.305400  0.979700  1.0  0.1193
  H  H399  1  0.194500  0.363500  0.980900  1.0  0.1234
  H  H400  1  0.194100  0.362900  0.020000  1.0  0.1147
  H  H401  1  0.170000  0.330200  0.085200  1.0  0.1312
  H  H402  1  0.147300  0.302400  0.016700  1.0  0.12
  H  H403  1  0.995600  0.415100  0.746600  1.0  0.1316
  H  H404  1  0.957700  0.481300  0.751400  1.0  0.1527
  H  H405  1  0.034600  0.481200  0.748900  1.0  0.1175
  H  H406  1  0.806700  0.874200  0.309300  1.0  0.1316
  H  H407  1  0.786000  0.879600  0.235600  1.0  0.1331
  H  H408  1  0.732300  0.879900  0.290200  1.0  0.1147
  H  H409  1  0.758800  0.882100  0.209400  1.0  0.1206
  H  H410  1  0.704500  0.879100  0.263200  1.0  0.1246
  H  H411  1  0.685100  0.886700  0.189900  1.0  0.1192
  H  H412  1  0.661400  0.907400  0.325200  1.0  0.1304
  H  H413  1  0.630800  0.974600  0.303100  1.0  0.1209
  H  H414  1  0.688200  0.973800  0.353800  1.0  0.1296
  H  H415  1  0.628500  0.012200  0.305900  1.0  0.1205
  H  H416  1  0.653000  0.078300  0.336800  1.0  0.1243
  H  H417  1  0.687900  0.012500  0.354000  1.0  0.1278
  H  H418  1  0.666800  0.838100  0.413200  1.0  0.1321
  H  H419  1  0.645300  0.805400  0.479700  1.0  0.1193
  H  H420  1  0.694500  0.863500  0.480900  1.0  0.1234
  H  H421  1  0.694100  0.862900  0.520000  1.0  0.1147
  H  H422  1  0.670000  0.830200  0.585200  1.0  0.1312
  H  H423  1  0.647300  0.802400  0.516700  1.0  0.12
  H  H424  1  0.495600  0.915100  0.246600  1.0  0.1316
  H  H425  1  0.457700  0.981300  0.251400  1.0  0.1527
  H  H426  1  0.534600  0.981200  0.248900  1.0  0.1175
  H  H427  1  0.193300  0.625800  0.309300  1.0  0.1304
  H  H428  1  0.214000  0.620400  0.235600  1.0  0.1335
  H  H429  1  0.267700  0.620100  0.290200  1.0  0.1148
  H  H430  1  0.241200  0.617900  0.209400  1.0  0.1197
  H  H431  1  0.295500  0.620900  0.263200  1.0  0.1242
  H  H432  1  0.314900  0.613300  0.189900  1.0  0.1193
  H  H433  1  0.338600  0.592600  0.325200  1.0  0.1302
  H  H434  1  0.369200  0.525400  0.303100  1.0  0.1215
  H  H435  1  0.311800  0.526200  0.353800  1.0  0.1292
  H  H436  1  0.371500  0.487800  0.305900  1.0  0.1213
  H  H437  1  0.347000  0.421700  0.336800  1.0  0.1245
  H  H438  1  0.312100  0.487500  0.354000  1.0  0.127
  H  H439  1  0.333200  0.661900  0.413200  1.0  0.1321
  H  H440  1  0.354700  0.694600  0.479700  1.0  0.119
  H  H441  1  0.305500  0.636500  0.480900  1.0  0.1233
  H  H442  1  0.305900  0.637100  0.520000  1.0  0.1148
  H  H443  1  0.330000  0.669800  0.585200  1.0  0.1313
  H  H444  1  0.352700  0.697600  0.516700  1.0  0.1207
  H  H445  1  0.504400  0.584900  0.246600  1.0  0.1307
  H  H446  1  0.542300  0.518700  0.251400  1.0  0.1537
  H  H447  1  0.465400  0.518800  0.248900  1.0  0.1174
  H  H448  1  0.693300  0.125800  0.809300  1.0  0.1304
  H  H449  1  0.714000  0.120400  0.735600  1.0  0.1335
  H  H450  1  0.767700  0.120100  0.790200  1.0  0.1148
  H  H451  1  0.741200  0.117900  0.709400  1.0  0.1197
  H  H452  1  0.795500  0.120900  0.763200  1.0  0.1242
  H  H453  1  0.814900  0.113300  0.689900  1.0  0.1193
  H  H454  1  0.838600  0.092600  0.825200  1.0  0.1302
  H  H455  1  0.869200  0.025400  0.803100  1.0  0.1215
  H  H456  1  0.811800  0.026200  0.853800  1.0  0.1292
  H  H457  1  0.871500  0.987800  0.805900  1.0  0.123
  H  H458  1  0.847000  0.921700  0.836800  1.0  0.1245
  H  H459  1  0.812100  0.987500  0.854000  1.0  0.127
  H  H460  1  0.833200  0.161900  0.913200  1.0  0.1321
  H  H461  1  0.854700  0.194600  0.979700  1.0  0.119
  H  H462  1  0.805500  0.136500  0.980900  1.0  0.1233
  H  H463  1  0.805900  0.137100  0.020000  1.0  0.1148
  H  H464  1  0.830000  0.169800  0.085200  1.0  0.1313
  H  H465  1  0.852700  0.197600  0.016700  1.0  0.1207
  H  H466  1  0.004400  0.084900  0.746600  1.0  0.1307
  H  H467  1  0.042300  0.018700  0.751400  1.0  0.1537
  H  H468  1  0.965400  0.018800  0.748900  1.0  0.1174
  H  H469  1  0.693300  0.874200  0.690700  1.0  0.1309
  H  H470  1  0.714000  0.879600  0.764400  1.0  0.1326
  H  H471  1  0.767700  0.879900  0.709800  1.0  0.1152
  H  H472  1  0.741200  0.882100  0.790600  1.0  0.119
  H  H473  1  0.795500  0.879100  0.736800  1.0  0.1256
  H  H474  1  0.814900  0.886700  0.810100  1.0  0.1192
  H  H475  1  0.838600  0.907400  0.674800  1.0  0.1303
  H  H476  1  0.869200  0.974600  0.696900  1.0  0.1208
  H  H477  1  0.811800  0.973800  0.646200  1.0  0.1297
  H  H478  1  0.871500  0.012200  0.694100  1.0  0.1226
  H  H479  1  0.847000  0.078300  0.663200  1.0  0.1245
  H  H480  1  0.812100  0.012500  0.646000  1.0  0.127
  H  H481  1  0.833200  0.838100  0.586800  1.0  0.1311
  H  H482  1  0.854700  0.805400  0.520300  1.0  0.1193
  H  H483  1  0.805500  0.863500  0.519100  1.0  0.1241
  H  H484  1  0.805900  0.862900  0.480000  1.0  0.1149
  H  H485  1  0.830000  0.830200  0.414800  1.0  0.1313
  H  H486  1  0.852700  0.802400  0.483300  1.0  0.1207
  H  H487  1  0.004400  0.915100  0.753400  1.0  0.1313
  H  H488  1  0.042300  0.981300  0.748600  1.0  0.1533
  H  H489  1  0.965400  0.981200  0.751100  1.0  0.1167
  H  H490  1  0.193300  0.374200  0.190700  1.0  0.1309
  H  H491  1  0.214000  0.379600  0.264400  1.0  0.1326
  H  H492  1  0.267700  0.379900  0.209800  1.0  0.1152
  H  H493  1  0.241200  0.382100  0.290600  1.0  0.119
  H  H494  1  0.295500  0.379100  0.236800  1.0  0.1256
  H  H495  1  0.314900  0.386700  0.310100  1.0  0.1192
  H  H496  1  0.338600  0.407400  0.174800  1.0  0.1303
  H  H497  1  0.369200  0.474600  0.196900  1.0  0.1208
  H  H498  1  0.311800  0.473800  0.146200  1.0  0.1297
  H  H499  1  0.371500  0.512200  0.194100  1.0  0.1211
  H  H500  1  0.347000  0.578300  0.163200  1.0  0.1245
  H  H501  1  0.312100  0.512500  0.146000  1.0  0.127
  H  H502  1  0.333200  0.338100  0.086800  1.0  0.1311
  H  H503  1  0.354700  0.305400  0.020300  1.0  0.1193
  H  H504  1  0.305500  0.363500  0.019100  1.0  0.1241
  H  H505  1  0.305900  0.362900  0.980000  1.0  0.1149
  H  H506  1  0.330000  0.330200  0.914800  1.0  0.1313
  H  H507  1  0.352700  0.302400  0.983300  1.0  0.1207
  H  H508  1  0.504400  0.415100  0.253400  1.0  0.1313
  H  H509  1  0.542300  0.481300  0.248600  1.0  0.1533
  H  H510  1  0.465400  0.481200  0.251100  1.0  0.1167
  H  H511  1  0.806700  0.125800  0.190700  1.0  0.1311
  H  H512  1  0.786000  0.120400  0.264400  1.0  0.1321
  H  H513  1  0.732300  0.120100  0.209800  1.0  0.1151
  H  H514  1  0.758800  0.117900  0.290600  1.0  0.1202
  H  H515  1  0.704500  0.120900  0.236800  1.0  0.1258
  H  H516  1  0.685100  0.113300  0.310100  1.0  0.1191
  H  H517  1  0.661400  0.092600  0.174800  1.0  0.1299
  H  H518  1  0.630800  0.025400  0.196900  1.0  0.1209
  H  H519  1  0.688200  0.026200  0.146200  1.0  0.1298
  H  H520  1  0.628500  0.987800  0.194100  1.0  0.1202
  H  H521  1  0.653000  0.921700  0.163200  1.0  0.1248
  H  H522  1  0.687900  0.987500  0.146000  1.0  0.1275
  H  H523  1  0.666800  0.161900  0.086800  1.0  0.1318
  H  H524  1  0.645300  0.194600  0.020300  1.0  0.1197
  H  H525  1  0.694500  0.136500  0.019100  1.0  0.1236
  H  H526  1  0.694100  0.137100  0.980000  1.0  0.1146
  H  H527  1  0.670000  0.169800  0.914800  1.0  0.1317
  H  H528  1  0.647300  0.197600  0.983300  1.0  0.1204
  H  H529  1  0.495600  0.084900  0.253400  1.0  0.1306
  H  H530  1  0.457700  0.018700  0.248600  1.0  0.1527
  H  H531  1  0.534600  0.018800  0.251100  1.0  0.1167
  H  H532  1  0.306700  0.625800  0.690700  1.0  0.1311
  H  H533  1  0.286000  0.620400  0.764400  1.0  0.1321
  H  H534  1  0.232300  0.620100  0.709800  1.0  0.1151
  H  H535  1  0.258800  0.617900  0.790600  1.0  0.1202
  H  H536  1  0.204500  0.620900  0.736800  1.0  0.1258
  H  H537  1  0.185100  0.613300  0.810100  1.0  0.1191
  H  H538  1  0.161400  0.592600  0.674800  1.0  0.1299
  H  H539  1  0.130800  0.525400  0.696900  1.0  0.1209
  H  H540  1  0.188200  0.526200  0.646200  1.0  0.1298
  H  H541  1  0.128500  0.487800  0.694100  1.0  0.1215
  H  H542  1  0.153000  0.421700  0.663200  1.0  0.1248
  H  H543  1  0.187900  0.487500  0.646000  1.0  0.1275
  H  H544  1  0.166800  0.661900  0.586800  1.0  0.1318
  H  H545  1  0.145300  0.694600  0.520300  1.0  0.1197
  H  H546  1  0.194500  0.636500  0.519100  1.0  0.1236
  H  H547  1  0.194100  0.637100  0.480000  1.0  0.1146
  H  H548  1  0.170000  0.669800  0.414800  1.0  0.1317
  H  H549  1  0.147300  0.697600  0.483300  1.0  0.1204
  H  H550  1  0.995600  0.584900  0.753400  1.0  0.1306
  H  H551  1  0.957700  0.518700  0.748600  1.0  0.1527
  H  H552  1  0.034600  0.518800  0.751100  1.0  0.1167
  H  H553  1  0.809300  0.306700  0.374200  1.0  0.1316
  H  H554  1  0.735600  0.286000  0.379600  1.0  0.1309
  H  H555  1  0.790200  0.232300  0.379900  1.0  0.1154
  H  H556  1  0.709400  0.258800  0.382100  1.0  0.1217
  H  H557  1  0.763200  0.204500  0.379100  1.0  0.1243
  H  H558  1  0.689900  0.185100  0.386700  1.0  0.1192
  H  H559  1  0.825200  0.161400  0.407400  1.0  0.1293
  H  H560  1  0.803100  0.130800  0.474600  1.0  0.1202
  H  H561  1  0.853800  0.188200  0.473800  1.0  0.1296
  H  H562  1  0.805900  0.128500  0.512200  1.0  0.1217
  H  H563  1  0.836800  0.153000  0.578300  1.0  0.1241
  H  H564  1  0.854000  0.187900  0.512500  1.0  0.1271
  H  H565  1  0.913200  0.166800  0.338100  1.0  0.1315
  H  H566  1  0.979700  0.145300  0.305400  1.0  0.12
  H  H567  1  0.980900  0.194500  0.363500  1.0  0.1244
  H  H568  1  0.020000  0.194100  0.362900  1.0  0.1157
  H  H569  1  0.085200  0.170000  0.330200  1.0  0.1301
  H  H570  1  0.016700  0.147300  0.302400  1.0  0.1203
  H  H571  1  0.746600  0.995600  0.415100  1.0  0.1303
  H  H572  1  0.751400  0.957700  0.481300  1.0  0.1525
  H  H573  1  0.748900  0.034600  0.481200  1.0  0.1179
  H  H574  1  0.309300  0.806700  0.874200  1.0  0.1316
  H  H575  1  0.235600  0.786000  0.879600  1.0  0.1309
  H  H576  1  0.290200  0.732300  0.879900  1.0  0.1154
  H  H577  1  0.209400  0.758800  0.882100  1.0  0.1217
  H  H578  1  0.263200  0.704500  0.879100  1.0  0.1243
  H  H579  1  0.189900  0.685100  0.886700  1.0  0.1192
  H  H580  1  0.325200  0.661400  0.907400  1.0  0.1293
  H  H581  1  0.303100  0.630800  0.974600  1.0  0.1202
  H  H582  1  0.353800  0.688200  0.973800  1.0  0.1296
  H  H583  1  0.305900  0.628500  0.012200  1.0  0.1203
  H  H584  1  0.336800  0.653000  0.078300  1.0  0.1241
  H  H585  1  0.354000  0.687900  0.012500  1.0  0.1271
  H  H586  1  0.413200  0.666800  0.838100  1.0  0.1315
  H  H587  1  0.479700  0.645300  0.805400  1.0  0.12
  H  H588  1  0.480900  0.694500  0.863500  1.0  0.1244
  H  H589  1  0.520000  0.694100  0.862900  1.0  0.1157
  H  H590  1  0.585200  0.670000  0.830200  1.0  0.1301
  H  H591  1  0.516700  0.647300  0.802400  1.0  0.1203
  H  H592  1  0.246600  0.495600  0.915100  1.0  0.1303
  H  H593  1  0.251400  0.457700  0.981300  1.0  0.1525
  H  H594  1  0.248900  0.534600  0.981200  1.0  0.1179
  H  H595  1  0.309300  0.193300  0.625800  1.0  0.1318
  H  H596  1  0.235600  0.214000  0.620400  1.0  0.1314
  H  H597  1  0.290200  0.267700  0.620100  1.0  0.1155
  H  H598  1  0.209400  0.241200  0.617900  1.0  0.1219
  H  H599  1  0.263200  0.295500  0.620900  1.0  0.1245
  H  H600  1  0.189900  0.314900  0.613300  1.0  0.1192
  H  H601  1  0.325200  0.338600  0.592600  1.0  0.1291
  H  H602  1  0.303100  0.369200  0.525400  1.0  0.1214
  H  H603  1  0.353800  0.311800  0.526200  1.0  0.1294
  H  H604  1  0.305900  0.371500  0.487800  1.0  0.1209
  H  H605  1  0.336800  0.347000  0.421700  1.0  0.1241
  H  H606  1  0.354000  0.312100  0.487500  1.0  0.1268
  H  H607  1  0.413200  0.333200  0.661900  1.0  0.1317
  H  H608  1  0.479700  0.354700  0.694600  1.0  0.12
  H  H609  1  0.480900  0.305500  0.636500  1.0  0.1243
  H  H610  1  0.520000  0.305900  0.637100  1.0  0.1157
  H  H611  1  0.585200  0.330000  0.669800  1.0  0.13
  H  H612  1  0.516700  0.352700  0.697600  1.0  0.1201
  H  H613  1  0.246600  0.504400  0.584900  1.0  0.1299
  H  H614  1  0.251400  0.542300  0.518700  1.0  0.1529
  H  H615  1  0.248900  0.465400  0.518800  1.0  0.1179
  H  H616  1  0.809300  0.693300  0.125800  1.0  0.1318
  H  H617  1  0.735600  0.714000  0.120400  1.0  0.1314
  H  H618  1  0.790200  0.767700  0.120100  1.0  0.1155
  H  H619  1  0.709400  0.741200  0.117900  1.0  0.1219
  H  H620  1  0.763200  0.795500  0.120900  1.0  0.1245
  H  H621  1  0.689900  0.814900  0.113300  1.0  0.1192
  H  H622  1  0.825200  0.838600  0.092600  1.0  0.1291
  H  H623  1  0.803100  0.869200  0.025400  1.0  0.1214
  H  H624  1  0.853800  0.811800  0.026200  1.0  0.1294
  H  H625  1  0.805900  0.871500  0.987800  1.0  0.1227
  H  H626  1  0.836800  0.847000  0.921700  1.0  0.1241
  H  H627  1  0.854000  0.812100  0.987500  1.0  0.1268
  H  H628  1  0.913200  0.833200  0.161900  1.0  0.1317
  H  H629  1  0.979700  0.854700  0.194600  1.0  0.12
  H  H630  1  0.980900  0.805500  0.136500  1.0  0.1243
  H  H631  1  0.020000  0.805900  0.137100  1.0  0.1157
  H  H632  1  0.085200  0.830000  0.169800  1.0  0.13
  H  H633  1  0.016700  0.852700  0.197600  1.0  0.1201
  H  H634  1  0.746600  0.004400  0.084900  1.0  0.1299
  H  H635  1  0.751400  0.042300  0.018700  1.0  0.1529
  H  H636  1  0.748900  0.965400  0.018800  1.0  0.1179
  H  H637  1  0.690700  0.693300  0.874200  1.0  0.1315
  H  H638  1  0.764400  0.714000  0.879600  1.0  0.1316
  H  H639  1  0.709800  0.767700  0.879900  1.0  0.1158
  H  H640  1  0.790600  0.741200  0.882100  1.0  0.1219
  H  H641  1  0.736800  0.795500  0.879100  1.0  0.1243
  H  H642  1  0.810100  0.814900  0.886700  1.0  0.1195
  H  H643  1  0.674800  0.838600  0.907400  1.0  0.1292
  H  H644  1  0.696900  0.869200  0.974600  1.0  0.1209
  H  H645  1  0.646200  0.811800  0.973800  1.0  0.1296
  H  H646  1  0.694100  0.871500  0.012200  1.0  0.1229
  H  H647  1  0.663200  0.847000  0.078300  1.0  0.1242
  H  H648  1  0.646000  0.812100  0.012500  1.0  0.127
  H  H649  1  0.586800  0.833200  0.838100  1.0  0.1319
  H  H650  1  0.520300  0.854700  0.805400  1.0  0.12
  H  H651  1  0.519100  0.805500  0.863500  1.0  0.1241
  H  H652  1  0.480000  0.805900  0.862900  1.0  0.1161
  H  H653  1  0.414800  0.830000  0.830200  1.0  0.1307
  H  H654  1  0.483300  0.852700  0.802400  1.0  0.1208
  H  H655  1  0.753400  0.004400  0.915100  1.0  0.1306
  H  H656  1  0.748600  0.042300  0.981300  1.0  0.1532
  H  H657  1  0.751100  0.965400  0.981200  1.0  0.1173
  H  H658  1  0.190700  0.193300  0.374200  1.0  0.1315
  H  H659  1  0.264400  0.214000  0.379600  1.0  0.1316
  H  H660  1  0.209800  0.267700  0.379900  1.0  0.1158
  H  H661  1  0.290600  0.241200  0.382100  1.0  0.1219
  H  H662  1  0.236800  0.295500  0.379100  1.0  0.1243
  H  H663  1  0.310100  0.314900  0.386700  1.0  0.1195
  H  H664  1  0.174800  0.338600  0.407400  1.0  0.1292
  H  H665  1  0.196900  0.369200  0.474600  1.0  0.1209
  H  H666  1  0.146200  0.311800  0.473800  1.0  0.1296
  H  H667  1  0.194100  0.371500  0.512200  1.0  0.1211
  H  H668  1  0.163200  0.347000  0.578300  1.0  0.1242
  H  H669  1  0.146000  0.312100  0.512500  1.0  0.127
  H  H670  1  0.086800  0.333200  0.338100  1.0  0.1319
  H  H671  1  0.020300  0.354700  0.305400  1.0  0.12
  H  H672  1  0.019100  0.305500  0.363500  1.0  0.1241
  H  H673  1  0.980000  0.305900  0.362900  1.0  0.1161
  H  H674  1  0.914800  0.330000  0.330200  1.0  0.1307
  H  H675  1  0.983300  0.352700  0.302400  1.0  0.1208
  H  H676  1  0.253400  0.504400  0.415100  1.0  0.1306
  H  H677  1  0.248600  0.542300  0.481300  1.0  0.1532
  H  H678  1  0.251100  0.465400  0.481200  1.0  0.1173
  H  H679  1  0.190700  0.806700  0.125800  1.0  0.1312
  H  H680  1  0.264400  0.786000  0.120400  1.0  0.1315
  H  H681  1  0.209800  0.732300  0.120100  1.0  0.1156
  H  H682  1  0.290600  0.758800  0.117900  1.0  0.1219
  H  H683  1  0.236800  0.704500  0.120900  1.0  0.1245
  H  H684  1  0.310100  0.685100  0.113300  1.0  0.1196
  H  H685  1  0.174800  0.661400  0.092600  1.0  0.1296
  H  H686  1  0.196900  0.630800  0.025400  1.0  0.1212
  H  H687  1  0.146200  0.688200  0.026200  1.0  0.1292
  H  H688  1  0.194100  0.628500  0.987800  1.0  0.1196
  H  H689  1  0.163200  0.653000  0.921700  1.0  0.1247
  H  H690  1  0.146000  0.687900  0.987500  1.0  0.1266
  H  H691  1  0.086800  0.666800  0.161900  1.0  0.1318
  H  H692  1  0.020300  0.645300  0.194600  1.0  0.12
  H  H693  1  0.019100  0.694500  0.136500  1.0  0.1243
  H  H694  1  0.980000  0.694100  0.137100  1.0  0.1154
  H  H695  1  0.914800  0.670000  0.169800  1.0  0.1304
  H  H696  1  0.983300  0.647300  0.197600  1.0  0.1212
  H  H697  1  0.253400  0.495600  0.084900  1.0  0.1303
  H  H698  1  0.248600  0.457700  0.018700  1.0  0.1523
  H  H699  1  0.251100  0.534600  0.018800  1.0  0.1175
  H  H700  1  0.690700  0.306700  0.625800  1.0  0.1312
  H  H701  1  0.764400  0.286000  0.620400  1.0  0.1315
  H  H702  1  0.709800  0.232300  0.620100  1.0  0.1156
  H  H703  1  0.790600  0.258800  0.617900  1.0  0.1219
  H  H704  1  0.736800  0.204500  0.620900  1.0  0.1245
  H  H705  1  0.810100  0.185100  0.613300  1.0  0.1196
  H  H706  1  0.674800  0.161400  0.592600  1.0  0.1296
  H  H707  1  0.696900  0.130800  0.525400  1.0  0.1212
  H  H708  1  0.646200  0.188200  0.526200  1.0  0.1292
  H  H709  1  0.694100  0.128500  0.487800  1.0  0.1215
  H  H710  1  0.663200  0.153000  0.421700  1.0  0.1247
  H  H711  1  0.646000  0.187900  0.487500  1.0  0.1266
  H  H712  1  0.586800  0.166800  0.661900  1.0  0.1318
  H  H713  1  0.520300  0.145300  0.694600  1.0  0.12
  H  H714  1  0.519100  0.194500  0.636500  1.0  0.1243
  H  H715  1  0.480000  0.194100  0.637100  1.0  0.1154
  H  H716  1  0.414800  0.170000  0.669800  1.0  0.1304
  H  H717  1  0.483300  0.147300  0.697600  1.0  0.1212
  H  H718  1  0.753400  0.995600  0.584900  1.0  0.1303
  H  H719  1  0.748600  0.957700  0.518700  1.0  0.1523
  H  H720  1  0.751100  0.034600  0.518800  1.0  0.1175
  H  H721  1  0.374200  0.809300  0.306700  1.0  0.1301
  H  H722  1  0.379600  0.735600  0.286000  1.0  0.1314
  H  H723  1  0.379900  0.790200  0.232300  1.0  0.1164
  H  H724  1  0.382100  0.709400  0.258800  1.0  0.1208
  H  H725  1  0.379100  0.763200  0.204500  1.0  0.1245
  H  H726  1  0.386700  0.689900  0.185100  1.0  0.1184
  H  H727  1  0.407400  0.825200  0.161400  1.0  0.1286
  H  H728  1  0.474600  0.803100  0.130800  1.0  0.1218
  H  H729  1  0.473800  0.853800  0.188200  1.0  0.129
  H  H730  1  0.512200  0.805900  0.128500  1.0  0.1221
  H  H731  1  0.578300  0.836800  0.153000  1.0  0.1244
  H  H732  1  0.512500  0.854000  0.187900  1.0  0.1278
  H  H733  1  0.338100  0.913200  0.166800  1.0  0.1311
  H  H734  1  0.305400  0.979700  0.145300  1.0  0.1207
  H  H735  1  0.363500  0.980900  0.194500  1.0  0.1239
  H  H736  1  0.362900  0.020000  0.194100  1.0  0.1146
  H  H737  1  0.330200  0.085200  0.170000  1.0  0.132
  H  H738  1  0.302400  0.016700  0.147300  1.0  0.12
  H  H739  1  0.415100  0.746600  0.995600  1.0  0.1292
  H  H740  1  0.481300  0.751400  0.957700  1.0  0.154
  H  H741  1  0.481200  0.748900  0.034600  1.0  0.1184
  H  H742  1  0.874200  0.309300  0.806700  1.0  0.1301
  H  H743  1  0.879600  0.235600  0.786000  1.0  0.1314
  H  H744  1  0.879900  0.290200  0.732300  1.0  0.1164
  H  H745  1  0.882100  0.209400  0.758800  1.0  0.1208
  H  H746  1  0.879100  0.263200  0.704500  1.0  0.1245
  H  H747  1  0.886700  0.189900  0.685100  1.0  0.1184
  H  H748  1  0.907400  0.325200  0.661400  1.0  0.1286
  H  H749  1  0.974600  0.303100  0.630800  1.0  0.1218
  H  H750  1  0.973800  0.353800  0.688200  1.0  0.129
  H  H751  1  0.012200  0.305900  0.628500  1.0  0.121
  H  H752  1  0.078300  0.336800  0.653000  1.0  0.1244
  H  H753  1  0.012500  0.354000  0.687900  1.0  0.1278
  H  H754  1  0.838100  0.413200  0.666800  1.0  0.1311
  H  H755  1  0.805400  0.479700  0.645300  1.0  0.1207
  H  H756  1  0.863500  0.480900  0.694500  1.0  0.1239
  H  H757  1  0.862900  0.520000  0.694100  1.0  0.1146
  H  H758  1  0.830200  0.585200  0.670000  1.0  0.132
  H  H759  1  0.802400  0.516700  0.647300  1.0  0.12
  H  H760  1  0.915100  0.246600  0.495600  1.0  0.1292
  H  H761  1  0.981300  0.251400  0.457700  1.0  0.154
  H  H762  1  0.981200  0.248900  0.534600  1.0  0.1184
  H  H763  1  0.625800  0.309300  0.193300  1.0  0.13
  H  H764  1  0.620400  0.235600  0.214000  1.0  0.1316
  H  H765  1  0.620100  0.290200  0.267700  1.0  0.1164
  H  H766  1  0.617900  0.209400  0.241200  1.0  0.1216
  H  H767  1  0.620900  0.263200  0.295500  1.0  0.1235
  H  H768  1  0.613300  0.189900  0.314900  1.0  0.1187
  H  H769  1  0.592600  0.325200  0.338600  1.0  0.1282
  H  H770  1  0.525400  0.303100  0.369200  1.0  0.1216
  H  H771  1  0.526200  0.353800  0.311800  1.0  0.1291
  H  H772  1  0.487800  0.305900  0.371500  1.0  0.1222
  H  H773  1  0.421700  0.336800  0.347000  1.0  0.1238
  H  H774  1  0.487500  0.354000  0.312100  1.0  0.1281
  H  H775  1  0.661900  0.413200  0.333200  1.0  0.1313
  H  H776  1  0.694600  0.479700  0.354700  1.0  0.1206
  H  H777  1  0.636500  0.480900  0.305500  1.0  0.1238
  H  H778  1  0.637100  0.520000  0.305900  1.0  0.1146
  H  H779  1  0.669800  0.585200  0.330000  1.0  0.132
  H  H780  1  0.697600  0.516700  0.352700  1.0  0.1209
  H  H781  1  0.584900  0.246600  0.504400  1.0  0.1285
  H  H782  1  0.518700  0.251400  0.542300  1.0  0.1545
  H  H783  1  0.518800  0.248900  0.465400  1.0  0.1182
  H  H784  1  0.125800  0.809300  0.693300  1.0  0.13
  H  H785  1  0.120400  0.735600  0.714000  1.0  0.1316
  H  H786  1  0.120100  0.790200  0.767700  1.0  0.1164
  H  H787  1  0.117900  0.709400  0.741200  1.0  0.1216
  H  H788  1  0.120900  0.763200  0.795500  1.0  0.1235
  H  H789  1  0.113300  0.689900  0.814900  1.0  0.1187
  H  H790  1  0.092600  0.825200  0.838600  1.0  0.1282
  H  H791  1  0.025400  0.803100  0.869200  1.0  0.1216
  H  H792  1  0.026200  0.853800  0.811800  1.0  0.1291
  H  H793  1  0.987800  0.805900  0.871500  1.0  0.1238
  H  H794  1  0.921700  0.836800  0.847000  1.0  0.1238
  H  H795  1  0.987500  0.854000  0.812100  1.0  0.1281
  H  H796  1  0.161900  0.913200  0.833200  1.0  0.1313
  H  H797  1  0.194600  0.979700  0.854700  1.0  0.1206
  H  H798  1  0.136500  0.980900  0.805500  1.0  0.1238
  H  H799  1  0.137100  0.020000  0.805900  1.0  0.1146
  H  H800  1  0.169800  0.085200  0.830000  1.0  0.132
  H  H801  1  0.197600  0.016700  0.852700  1.0  0.1209
  H  H802  1  0.084900  0.746600  0.004400  1.0  0.1285
  H  H803  1  0.018700  0.751400  0.042300  1.0  0.1545
  H  H804  1  0.018800  0.748900  0.965400  1.0  0.1182
  H  H805  1  0.874200  0.690700  0.693300  1.0  0.1305
  H  H806  1  0.879600  0.764400  0.714000  1.0  0.1325
  H  H807  1  0.879900  0.709800  0.767700  1.0  0.1167
  H  H808  1  0.882100  0.790600  0.741200  1.0  0.1211
  H  H809  1  0.879100  0.736800  0.795500  1.0  0.1237
  H  H810  1  0.886700  0.810100  0.814900  1.0  0.1185
  H  H811  1  0.907400  0.674800  0.838600  1.0  0.1286
  H  H812  1  0.974600  0.696900  0.869200  1.0  0.1214
  H  H813  1  0.973800  0.646200  0.811800  1.0  0.1295
  H  H814  1  0.012200  0.694100  0.871500  1.0  0.1235
  H  H815  1  0.078300  0.663200  0.847000  1.0  0.1243
  H  H816  1  0.012500  0.646000  0.812100  1.0  0.128
  H  H817  1  0.838100  0.586800  0.833200  1.0  0.1315
  H  H818  1  0.805400  0.520300  0.854700  1.0  0.1208
  H  H819  1  0.863500  0.519100  0.805500  1.0  0.1239
  H  H820  1  0.862900  0.480000  0.805900  1.0  0.1142
  H  H821  1  0.830200  0.414800  0.830000  1.0  0.1317
  H  H822  1  0.802400  0.483300  0.852700  1.0  0.1198
  H  H823  1  0.915100  0.753400  0.004400  1.0  0.1292
  H  H824  1  0.981300  0.748600  0.042300  1.0  0.1544
  H  H825  1  0.981200  0.751100  0.965400  1.0  0.1174
  H  H826  1  0.374200  0.190700  0.193300  1.0  0.1305
  H  H827  1  0.379600  0.264400  0.214000  1.0  0.1325
  H  H828  1  0.379900  0.209800  0.267700  1.0  0.1167
  H  H829  1  0.382100  0.290600  0.241200  1.0  0.1211
  H  H830  1  0.379100  0.236800  0.295500  1.0  0.1237
  H  H831  1  0.386700  0.310100  0.314900  1.0  0.1185
  H  H832  1  0.407400  0.174800  0.338600  1.0  0.1286
  H  H833  1  0.474600  0.196900  0.369200  1.0  0.1214
  H  H834  1  0.473800  0.146200  0.311800  1.0  0.1295
  H  H835  1  0.512200  0.194100  0.371500  1.0  0.1216
  H  H836  1  0.578300  0.163200  0.347000  1.0  0.1243
  H  H837  1  0.512500  0.146000  0.312100  1.0  0.128
  H  H838  1  0.338100  0.086800  0.333200  1.0  0.1315
  H  H839  1  0.305400  0.020300  0.354700  1.0  0.1208
  H  H840  1  0.363500  0.019100  0.305500  1.0  0.1239
  H  H841  1  0.362900  0.980000  0.305900  1.0  0.1142
  H  H842  1  0.330200  0.914800  0.330000  1.0  0.1317
  H  H843  1  0.302400  0.983300  0.352700  1.0  0.1198
  H  H844  1  0.415100  0.253400  0.504400  1.0  0.1292
  H  H845  1  0.481300  0.248600  0.542300  1.0  0.1544
  H  H846  1  0.481200  0.251100  0.465400  1.0  0.1174
  H  H847  1  0.125800  0.190700  0.806700  1.0  0.1297
  H  H848  1  0.120400  0.264400  0.786000  1.0  0.1305
  H  H849  1  0.120100  0.209800  0.732300  1.0  0.1167
  H  H850  1  0.117900  0.290600  0.758800  1.0  0.121
  H  H851  1  0.120900  0.236800  0.704500  1.0  0.1245
  H  H852  1  0.113300  0.310100  0.685100  1.0  0.1185
  H  H853  1  0.092600  0.174800  0.661400  1.0  0.1278
  H  H854  1  0.025400  0.196900  0.630800  1.0  0.1216
  H  H855  1  0.026200  0.146200  0.688200  1.0  0.1291
  H  H856  1  0.987800  0.194100  0.628500  1.0  0.121
  H  H857  1  0.921700  0.163200  0.653000  1.0  0.1236
  H  H858  1  0.987500  0.146000  0.687900  1.0  0.1282
  H  H859  1  0.161900  0.086800  0.666800  1.0  0.1315
  H  H860  1  0.194600  0.020300  0.645300  1.0  0.1208
  H  H861  1  0.136500  0.019100  0.694500  1.0  0.1239
  H  H862  1  0.137100  0.980000  0.694100  1.0  0.1143
  H  H863  1  0.169800  0.914800  0.670000  1.0  0.1315
  H  H864  1  0.197600  0.983300  0.647300  1.0  0.1207
  H  H865  1  0.084900  0.253400  0.495600  1.0  0.1287
  H  H866  1  0.018700  0.248600  0.457700  1.0  0.1539
  H  H867  1  0.018800  0.251100  0.534600  1.0  0.1179
  H  H868  1  0.625800  0.690700  0.306700  1.0  0.1297
  H  H869  1  0.620400  0.764400  0.286000  1.0  0.1305
  H  H870  1  0.620100  0.709800  0.232300  1.0  0.1167
  H  H871  1  0.617900  0.790600  0.258800  1.0  0.121
  H  H872  1  0.620900  0.736800  0.204500  1.0  0.1245
  H  H873  1  0.613300  0.810100  0.185100  1.0  0.1185
  H  H874  1  0.592600  0.674800  0.161400  1.0  0.1278
  H  H875  1  0.525400  0.696900  0.130800  1.0  0.1216
  H  H876  1  0.526200  0.646200  0.188200  1.0  0.1291
  H  H877  1  0.487800  0.694100  0.128500  1.0  0.1215
  H  H878  1  0.421700  0.663200  0.153000  1.0  0.1236
  H  H879  1  0.487500  0.646000  0.187900  1.0  0.1282
  H  H880  1  0.661900  0.586800  0.166800  1.0  0.1315
  H  H881  1  0.694600  0.520300  0.145300  1.0  0.1208
  H  H882  1  0.636500  0.519100  0.194500  1.0  0.1239
  H  H883  1  0.637100  0.480000  0.194100  1.0  0.1143
  H  H884  1  0.669800  0.414800  0.170000  1.0  0.1315
  H  H885  1  0.697600  0.483300  0.147300  1.0  0.1207
  H  H886  1  0.584900  0.753400  0.995600  1.0  0.1287
  H  H887  1  0.518700  0.748600  0.957700  1.0  0.1539
  H  H888  1  0.518800  0.751100  0.034600  1.0  0.1179
  H  H889  1  0.693300  0.625800  0.190700  1.0  0.1309
  H  H890  1  0.714000  0.620400  0.264400  1.0  0.1328
  H  H891  1  0.767700  0.620100  0.209800  1.0  0.1152
  H  H892  1  0.741200  0.617900  0.290600  1.0  0.119
  H  H893  1  0.795500  0.620900  0.236800  1.0  0.1257
  H  H894  1  0.814900  0.613300  0.310100  1.0  0.1195
  H  H895  1  0.838600  0.592600  0.174800  1.0  0.1299
  H  H896  1  0.869200  0.525400  0.196900  1.0  0.1213
  H  H897  1  0.811800  0.526200  0.146200  1.0  0.1294
  H  H898  1  0.871500  0.487800  0.194100  1.0  0.121
  H  H899  1  0.847000  0.421700  0.163200  1.0  0.1249
  H  H900  1  0.812100  0.487500  0.146000  1.0  0.1272
  H  H901  1  0.833200  0.661900  0.086800  1.0  0.1312
  H  H902  1  0.854700  0.694600  0.020300  1.0  0.1191
  H  H903  1  0.805500  0.636500  0.019100  1.0  0.1234
  H  H904  1  0.805900  0.637100  0.980000  1.0  0.1147
  H  H905  1  0.830000  0.669800  0.914800  1.0  0.1313
  H  H906  1  0.852700  0.697600  0.983300  1.0  0.1207
  H  H907  1  0.004400  0.584900  0.253400  1.0  0.1305
  H  H908  1  0.042300  0.518700  0.248600  1.0  0.1537
  H  H909  1  0.965400  0.518800  0.251100  1.0  0.1173
  H  H910  1  0.193300  0.125800  0.690700  1.0  0.1309
  H  H911  1  0.214000  0.120400  0.764400  1.0  0.1328
  H  H912  1  0.267700  0.120100  0.709800  1.0  0.1152
  H  H913  1  0.241200  0.117900  0.790600  1.0  0.119
  H  H914  1  0.295500  0.120900  0.736800  1.0  0.1257
  H  H915  1  0.314900  0.113300  0.810100  1.0  0.1195
  H  H916  1  0.338600  0.092600  0.674800  1.0  0.1299
  H  H917  1  0.369200  0.025400  0.696900  1.0  0.1213
  H  H918  1  0.311800  0.026200  0.646200  1.0  0.1294
  H  H919  1  0.371500  0.987800  0.694100  1.0  0.1198
  H  H920  1  0.347000  0.921700  0.663200  1.0  0.1249
  H  H921  1  0.312100  0.987500  0.646000  1.0  0.1272
  H  H922  1  0.333200  0.161900  0.586800  1.0  0.1312
  H  H923  1  0.354700  0.194600  0.520300  1.0  0.1191
  H  H924  1  0.305500  0.136500  0.519100  1.0  0.1234
  H  H925  1  0.305900  0.137100  0.480000  1.0  0.1147
  H  H926  1  0.330000  0.169800  0.414800  1.0  0.1313
  H  H927  1  0.352700  0.197600  0.483300  1.0  0.1207
  H  H928  1  0.504400  0.084900  0.753400  1.0  0.1305
  H  H929  1  0.542300  0.018700  0.748600  1.0  0.1537
  H  H930  1  0.465400  0.018800  0.751100  1.0  0.1173
  H  H931  1  0.806700  0.374200  0.690700  1.0  0.1313
  H  H932  1  0.786000  0.379600  0.764400  1.0  0.1321
  H  H933  1  0.732300  0.379900  0.709800  1.0  0.115
  H  H934  1  0.758800  0.382100  0.790600  1.0  0.1202
  H  H935  1  0.704500  0.379100  0.736800  1.0  0.1257
  H  H936  1  0.685100  0.386700  0.810100  1.0  0.1191
  H  H937  1  0.661400  0.407400  0.674800  1.0  0.1301
  H  H938  1  0.630800  0.474600  0.696900  1.0  0.1205
  H  H939  1  0.688200  0.473800  0.646200  1.0  0.1298
  H  H940  1  0.628500  0.512200  0.694100  1.0  0.1216
  H  H941  1  0.653000  0.578300  0.663200  1.0  0.1246
  H  H942  1  0.687900  0.512500  0.646000  1.0  0.1275
  H  H943  1  0.666800  0.338100  0.586800  1.0  0.1316
  H  H944  1  0.645300  0.305400  0.520300  1.0  0.1194
  H  H945  1  0.694500  0.363500  0.519100  1.0  0.1238
  H  H946  1  0.694100  0.362900  0.480000  1.0  0.1144
  H  H947  1  0.670000  0.330200  0.414800  1.0  0.1316
  H  H948  1  0.647300  0.302400  0.483300  1.0  0.1198
  H  H949  1  0.495600  0.415100  0.753400  1.0  0.1314
  H  H950  1  0.457700  0.481300  0.748600  1.0  0.1529
  H  H951  1  0.534600  0.481200  0.751100  1.0  0.1175
  H  H952  1  0.306700  0.874200  0.190700  1.0  0.1313
  H  H953  1  0.286000  0.879600  0.264400  1.0  0.1321
  H  H954  1  0.232300  0.879900  0.209800  1.0  0.115
  H  H955  1  0.258800  0.882100  0.290600  1.0  0.1202
  H  H956  1  0.204500  0.879100  0.236800  1.0  0.1257
  H  H957  1  0.185100  0.886700  0.310100  1.0  0.1191
  H  H958  1  0.161400  0.907400  0.174800  1.0  0.1301
  H  H959  1  0.130800  0.974600  0.196900  1.0  0.1205
  H  H960  1  0.188200  0.973800  0.146200  1.0  0.1298
  H  H961  1  0.128500  0.012200  0.194100  1.0  0.123
  H  H962  1  0.153000  0.078300  0.163200  1.0  0.1246
  H  H963  1  0.187900  0.012500  0.146000  1.0  0.1275
  H  H964  1  0.166800  0.838100  0.086800  1.0  0.1316
  H  H965  1  0.145300  0.805400  0.020300  1.0  0.1194
  H  H966  1  0.194500  0.863500  0.019100  1.0  0.1238
  H  H967  1  0.194100  0.862900  0.980000  1.0  0.1144
  H  H968  1  0.170000  0.830200  0.914800  1.0  0.1316
  H  H969  1  0.147300  0.802400  0.983300  1.0  0.1198
  H  H970  1  0.995600  0.915100  0.253400  1.0  0.1314
  H  H971  1  0.957700  0.981300  0.248600  1.0  0.1529
  H  H972  1  0.034600  0.981200  0.251100  1.0  0.1175
  H  H973  1  0.306700  0.125800  0.309300  1.0  0.1308
  H  H974  1  0.286000  0.120400  0.235600  1.0  0.1331
  H  H975  1  0.232300  0.120100  0.290200  1.0  0.1147
  H  H976  1  0.258800  0.117900  0.209400  1.0  0.1208
  H  H977  1  0.204500  0.120900  0.263200  1.0  0.1244
  H  H978  1  0.185100  0.113300  0.189900  1.0  0.1192
  H  H979  1  0.161400  0.092600  0.325200  1.0  0.1302
  H  H980  1  0.130800  0.025400  0.303100  1.0  0.121
  H  H981  1  0.188200  0.026200  0.353800  1.0  0.1297
  H  H982  1  0.128500  0.987800  0.305900  1.0  0.1232
  H  H983  1  0.153000  0.921700  0.336800  1.0  0.1247
  H  H984  1  0.187900  0.987500  0.354000  1.0  0.1276
  H  H985  1  0.166800  0.161900  0.413200  1.0  0.1322
  H  H986  1  0.145300  0.194600  0.479700  1.0  0.1193
  H  H987  1  0.194500  0.136500  0.480900  1.0  0.1236
  H  H988  1  0.194100  0.137100  0.520000  1.0  0.1148
  H  H989  1  0.170000  0.169800  0.585200  1.0  0.1312
  H  H990  1  0.147300  0.197600  0.516700  1.0  0.1208
  H  H991  1  0.995600  0.084900  0.246600  1.0  0.1308
  H  H992  1  0.957700  0.018700  0.251400  1.0  0.1529
  H  H993  1  0.034600  0.018800  0.248900  1.0  0.1166
  H  H994  1  0.806700  0.625800  0.809300  1.0  0.1308
  H  H995  1  0.786000  0.620400  0.735600  1.0  0.1331
  H  H996  1  0.732300  0.620100  0.790200  1.0  0.1147
  H  H997  1  0.758800  0.617900  0.709400  1.0  0.1208
  H  H998  1  0.704500  0.620900  0.763200  1.0  0.1244
  H  H999  1  0.685100  0.613300  0.689900  1.0  0.1192
  H  H1000  1  0.661400  0.592600  0.825200  1.0  0.1302
  H  H1001  1  0.630800  0.525400  0.803100  1.0  0.121
  H  H1002  1  0.688200  0.526200  0.853800  1.0  0.1297
  H  H1003  1  0.628500  0.487800  0.805900  1.0  0.1217
  H  H1004  1  0.653000  0.421700  0.836800  1.0  0.1247
  H  H1005  1  0.687900  0.487500  0.854000  1.0  0.1276
  H  H1006  1  0.666800  0.661900  0.913200  1.0  0.1322
  H  H1007  1  0.645300  0.694600  0.979700  1.0  0.1193
  H  H1008  1  0.694500  0.636500  0.980900  1.0  0.1236
  H  H1009  1  0.694100  0.637100  0.020000  1.0  0.1148
  H  H1010  1  0.670000  0.669800  0.085200  1.0  0.1312
  H  H1011  1  0.647300  0.697600  0.016700  1.0  0.1208
  H  H1012  1  0.495600  0.584900  0.746600  1.0  0.1308
  H  H1013  1  0.457700  0.518700  0.751400  1.0  0.1529
  H  H1014  1  0.534600  0.518800  0.748900  1.0  0.1166
  H  H1015  1  0.193300  0.874200  0.809300  1.0  0.1311
  H  H1016  1  0.214000  0.879600  0.735600  1.0  0.1334
  H  H1017  1  0.267700  0.879900  0.790200  1.0  0.1148
  H  H1018  1  0.241200  0.882100  0.709400  1.0  0.1195
  H  H1019  1  0.295500  0.879100  0.763200  1.0  0.1243
  H  H1020  1  0.314900  0.886700  0.689900  1.0  0.1192
  H  H1021  1  0.338600  0.907400  0.825200  1.0  0.1306
  H  H1022  1  0.369200  0.974600  0.803100  1.0  0.1213
  H  H1023  1  0.311800  0.973800  0.853800  1.0  0.1292
  H  H1024  1  0.371500  0.012200  0.805900  1.0  0.1202
  H  H1025  1  0.347000  0.078300  0.836800  1.0  0.1241
  H  H1026  1  0.312100  0.012500  0.854000  1.0  0.127
  H  H1027  1  0.333200  0.838100  0.913200  1.0  0.1321
  H  H1028  1  0.354700  0.805400  0.979700  1.0  0.1195
  H  H1029  1  0.305500  0.863500  0.980900  1.0  0.1237
  H  H1030  1  0.305900  0.862900  0.020000  1.0  0.1151
  H  H1031  1  0.330000  0.830200  0.085200  1.0  0.1313
  H  H1032  1  0.352700  0.802400  0.016700  1.0  0.1207
  H  H1033  1  0.504400  0.915100  0.746600  1.0  0.1315
  H  H1034  1  0.542300  0.981300  0.751400  1.0  0.153
  H  H1035  1  0.465400  0.981200  0.748900  1.0  0.1168
  H  H1036  1  0.693300  0.374200  0.309300  1.0  0.1311
  H  H1037  1  0.714000  0.379600  0.235600  1.0  0.1334
  H  H1038  1  0.767700  0.379900  0.290200  1.0  0.1148
  H  H1039  1  0.741200  0.382100  0.209400  1.0  0.1195
  H  H1040  1  0.795500  0.379100  0.263200  1.0  0.1243
  H  H1041  1  0.814900  0.386700  0.189900  1.0  0.1192
  H  H1042  1  0.838600  0.407400  0.325200  1.0  0.1306
  H  H1043  1  0.869200  0.474600  0.303100  1.0  0.1213
  H  H1044  1  0.811800  0.473800  0.353800  1.0  0.1292
  H  H1045  1  0.871500  0.512200  0.305900  1.0  0.1212
  H  H1046  1  0.847000  0.578300  0.336800  1.0  0.1241
  H  H1047  1  0.812100  0.512500  0.354000  1.0  0.127
  H  H1048  1  0.833200  0.338100  0.413200  1.0  0.1321
  H  H1049  1  0.854700  0.305400  0.479700  1.0  0.1195
  H  H1050  1  0.805500  0.363500  0.480900  1.0  0.1237
  H  H1051  1  0.805900  0.362900  0.520000  1.0  0.1151
  H  H1052  1  0.830000  0.330200  0.585200  1.0  0.1313
  H  H1053  1  0.852700  0.302400  0.516700  1.0  0.1207
  H  H1054  1  0.004400  0.415100  0.246600  1.0  0.1315
  H  H1055  1  0.042300  0.481300  0.251400  1.0  0.153
  H  H1056  1  0.965400  0.481200  0.248900  1.0  0.1168
  H  H1057  1  0.190700  0.693300  0.625800  1.0  0.1318
  H  H1058  1  0.264400  0.714000  0.620400  1.0  0.1317
  H  H1059  1  0.209800  0.767700  0.620100  1.0  0.1159
  H  H1060  1  0.290600  0.741200  0.617900  1.0  0.1221
  H  H1061  1  0.236800  0.795500  0.620900  1.0  0.1245
  H  H1062  1  0.310100  0.814900  0.613300  1.0  0.1191
  H  H1063  1  0.174800  0.838600  0.592600  1.0  0.1294
  H  H1064  1  0.196900  0.869200  0.525400  1.0  0.1215
  H  H1065  1  0.146200  0.811800  0.526200  1.0  0.1295
  H  H1066  1  0.194100  0.871500  0.487800  1.0  0.1206
  H  H1067  1  0.163200  0.847000  0.421700  1.0  0.1244
  H  H1068  1  0.146000  0.812100  0.487500  1.0  0.1265
  H  H1069  1  0.086800  0.833200  0.661900  1.0  0.132
  H  H1070  1  0.020300  0.854700  0.694600  1.0  0.1199
  H  H1071  1  0.019100  0.805500  0.636500  1.0  0.1241
  H  H1072  1  0.980000  0.805900  0.637100  1.0  0.1157
  H  H1073  1  0.914800  0.830000  0.669800  1.0  0.1306
  H  H1074  1  0.983300  0.852700  0.697600  1.0  0.1208
  H  H1075  1  0.253400  0.004400  0.584900  1.0  0.1303
  H  H1076  1  0.248600  0.042300  0.518700  1.0  0.1536
  H  H1077  1  0.251100  0.965400  0.518800  1.0  0.1179
  H  H1078  1  0.690700  0.193300  0.125800  1.0  0.1318
  H  H1079  1  0.764400  0.214000  0.120400  1.0  0.1317
  H  H1080  1  0.709800  0.267700  0.120100  1.0  0.1159
  H  H1081  1  0.790600  0.241200  0.117900  1.0  0.1221
  H  H1082  1  0.736800  0.295500  0.120900  1.0  0.1245
  H  H1083  1  0.810100  0.314900  0.113300  1.0  0.1191
  H  H1084  1  0.674800  0.338600  0.092600  1.0  0.1294
  H  H1085  1  0.696900  0.369200  0.025400  1.0  0.1215
  H  H1086  1  0.646200  0.311800  0.026200  1.0  0.1295
  H  H1087  1  0.694100  0.371500  0.987800  1.0  0.1196
  H  H1088  1  0.663200  0.347000  0.921700  1.0  0.1244
  H  H1089  1  0.646000  0.312100  0.987500  1.0  0.1265
  H  H1090  1  0.586800  0.333200  0.161900  1.0  0.132
  H  H1091  1  0.520300  0.354700  0.194600  1.0  0.1199
  H  H1092  1  0.519100  0.305500  0.136500  1.0  0.1241
  H  H1093  1  0.480000  0.305900  0.137100  1.0  0.1157
  H  H1094  1  0.414800  0.330000  0.169800  1.0  0.1306
  H  H1095  1  0.483300  0.352700  0.197600  1.0  0.1208
  H  H1096  1  0.753400  0.504400  0.084900  1.0  0.1303
  H  H1097  1  0.748600  0.542300  0.018700  1.0  0.1536
  H  H1098  1  0.751100  0.465400  0.018800  1.0  0.1179
  H  H1099  1  0.690700  0.806700  0.374200  1.0  0.1318
  H  H1100  1  0.764400  0.786000  0.379600  1.0  0.1315
  H  H1101  1  0.709800  0.732300  0.379900  1.0  0.1155
  H  H1102  1  0.790600  0.758800  0.382100  1.0  0.1219
  H  H1103  1  0.736800  0.704500  0.379100  1.0  0.1239
  H  H1104  1  0.810100  0.685100  0.386700  1.0  0.1195
  H  H1105  1  0.674800  0.661400  0.407400  1.0  0.1293
  H  H1106  1  0.696900  0.630800  0.474600  1.0  0.1208
  H  H1107  1  0.646200  0.688200  0.473800  1.0  0.1292
  H  H1108  1  0.694100  0.628500  0.512200  1.0  0.1215
  H  H1109  1  0.663200  0.653000  0.578300  1.0  0.1246
  H  H1110  1  0.646000  0.687900  0.512500  1.0  0.1274
  H  H1111  1  0.586800  0.666800  0.338100  1.0  0.1318
  H  H1112  1  0.520300  0.645300  0.305400  1.0  0.1199
  H  H1113  1  0.519100  0.694500  0.363500  1.0  0.1241
  H  H1114  1  0.480000  0.694100  0.362900  1.0  0.1158
  H  H1115  1  0.414800  0.670000  0.330200  1.0  0.1307
  H  H1116  1  0.483300  0.647300  0.302400  1.0  0.121
  H  H1117  1  0.753400  0.495600  0.415100  1.0  0.1306
  H  H1118  1  0.748600  0.457700  0.481300  1.0  0.1532
  H  H1119  1  0.751100  0.534600  0.481200  1.0  0.1179
  H  H1120  1  0.190700  0.306700  0.874200  1.0  0.1318
  H  H1121  1  0.264400  0.286000  0.879600  1.0  0.1315
  H  H1122  1  0.209800  0.232300  0.879900  1.0  0.1155
  H  H1123  1  0.290600  0.258800  0.882100  1.0  0.1219
  H  H1124  1  0.236800  0.204500  0.879100  1.0  0.1239
  H  H1125  1  0.310100  0.185100  0.886700  1.0  0.1195
  H  H1126  1  0.174800  0.161400  0.907400  1.0  0.1293
  H  H1127  1  0.196900  0.130800  0.974600  1.0  0.1208
  H  H1128  1  0.146200  0.188200  0.973800  1.0  0.1292
  H  H1129  1  0.194100  0.128500  0.012200  1.0  0.123
  H  H1130  1  0.163200  0.153000  0.078300  1.0  0.1246
  H  H1131  1  0.146000  0.187900  0.012500  1.0  0.1274
  H  H1132  1  0.086800  0.166800  0.838100  1.0  0.1318
  H  H1133  1  0.020300  0.145300  0.805400  1.0  0.1199
  H  H1134  1  0.019100  0.194500  0.863500  1.0  0.1241
  H  H1135  1  0.980000  0.194100  0.862900  1.0  0.1158
  H  H1136  1  0.914800  0.170000  0.830200  1.0  0.1307
  H  H1137  1  0.983300  0.147300  0.802400  1.0  0.121
  H  H1138  1  0.253400  0.995600  0.915100  1.0  0.1306
  H  H1139  1  0.248600  0.957700  0.981300  1.0  0.1532
  H  H1140  1  0.251100  0.034600  0.981200  1.0  0.1179
  H  H1141  1  0.309300  0.306700  0.125800  1.0  0.1308
  H  H1142  1  0.235600  0.286000  0.120400  1.0  0.1311
  H  H1143  1  0.290200  0.232300  0.120100  1.0  0.1154
  H  H1144  1  0.209400  0.258800  0.117900  1.0  0.1218
  H  H1145  1  0.263200  0.204500  0.120900  1.0  0.1246
  H  H1146  1  0.189900  0.185100  0.113300  1.0  0.1193
  H  H1147  1  0.325200  0.161400  0.092600  1.0  0.1292
  H  H1148  1  0.303100  0.130800  0.025400  1.0  0.1208
  H  H1149  1  0.353800  0.188200  0.026200  1.0  0.1293
  H  H1150  1  0.305900  0.128500  0.987800  1.0  0.1228
  H  H1151  1  0.336800  0.153000  0.921700  1.0  0.1243
  H  H1152  1  0.354000  0.187900  0.987500  1.0  0.1264
  H  H1153  1  0.413200  0.166800  0.161900  1.0  0.1315
  H  H1154  1  0.479700  0.145300  0.194600  1.0  0.1203
  H  H1155  1  0.480900  0.194500  0.136500  1.0  0.1245
  H  H1156  1  0.520000  0.194100  0.137100  1.0  0.1155
  H  H1157  1  0.585200  0.170000  0.169800  1.0  0.1298
  H  H1158  1  0.516700  0.147300  0.197600  1.0  0.1206
  H  H1159  1  0.246600  0.995600  0.084900  1.0  0.13
  H  H1160  1  0.251400  0.957700  0.018700  1.0  0.1519
  H  H1161  1  0.248900  0.034600  0.018800  1.0  0.1175
  H  H1162  1  0.809300  0.806700  0.625800  1.0  0.1308
  H  H1163  1  0.735600  0.786000  0.620400  1.0  0.1311
  H  H1164  1  0.790200  0.732300  0.620100  1.0  0.1154
  H  H1165  1  0.709400  0.758800  0.617900  1.0  0.1218
  H  H1166  1  0.763200  0.704500  0.620900  1.0  0.1246
  H  H1167  1  0.689900  0.685100  0.613300  1.0  0.1193
  H  H1168  1  0.825200  0.661400  0.592600  1.0  0.1292
  H  H1169  1  0.803100  0.630800  0.525400  1.0  0.1208
  H  H1170  1  0.853800  0.688200  0.526200  1.0  0.1293
  H  H1171  1  0.805900  0.628500  0.487800  1.0  0.1213
  H  H1172  1  0.836800  0.653000  0.421700  1.0  0.1243
  H  H1173  1  0.854000  0.687900  0.487500  1.0  0.1264
  H  H1174  1  0.913200  0.666800  0.661900  1.0  0.1315
  H  H1175  1  0.979700  0.645300  0.694600  1.0  0.1203
  H  H1176  1  0.980900  0.694500  0.636500  1.0  0.1245
  H  H1177  1  0.020000  0.694100  0.637100  1.0  0.1155
  H  H1178  1  0.085200  0.670000  0.669800  1.0  0.1298
  H  H1179  1  0.016700  0.647300  0.697600  1.0  0.1206
  H  H1180  1  0.746600  0.495600  0.584900  1.0  0.13
  H  H1181  1  0.751400  0.457700  0.518700  1.0  0.1519
  H  H1182  1  0.748900  0.534600  0.518800  1.0  0.1175
  H  H1183  1  0.809300  0.193300  0.874200  1.0  0.1319
  H  H1184  1  0.735600  0.214000  0.879600  1.0  0.1312
  H  H1185  1  0.790200  0.267700  0.879900  1.0  0.1154
  H  H1186  1  0.709400  0.241200  0.882100  1.0  0.1216
  H  H1187  1  0.763200  0.295500  0.879100  1.0  0.1246
  H  H1188  1  0.689900  0.314900  0.886700  1.0  0.1196
  H  H1189  1  0.825200  0.338600  0.907400  1.0  0.1291
  H  H1190  1  0.803100  0.369200  0.974600  1.0  0.1207
  H  H1191  1  0.853800  0.311800  0.973800  1.0  0.1299
  H  H1192  1  0.805900  0.371500  0.012200  1.0  0.1213
  H  H1193  1  0.836800  0.347000  0.078300  1.0  0.124
  H  H1194  1  0.854000  0.312100  0.012500  1.0  0.1271
  H  H1195  1  0.913200  0.333200  0.838100  1.0  0.1316
  H  H1196  1  0.979700  0.354700  0.805400  1.0  0.1201
  H  H1197  1  0.980900  0.305500  0.863500  1.0  0.1243
  H  H1198  1  0.020000  0.305900  0.862900  1.0  0.1159
  H  H1199  1  0.085200  0.330000  0.830200  1.0  0.13
  H  H1200  1  0.016700  0.352700  0.802400  1.0  0.1202
  H  H1201  1  0.746600  0.504400  0.915100  1.0  0.1303
  H  H1202  1  0.751400  0.542300  0.981300  1.0  0.1529
  H  H1203  1  0.748900  0.465400  0.981200  1.0  0.1173
  H  H1204  1  0.309300  0.693300  0.374200  1.0  0.1319
  H  H1205  1  0.235600  0.714000  0.379600  1.0  0.1312
  H  H1206  1  0.290200  0.767700  0.379900  1.0  0.1154
  H  H1207  1  0.209400  0.741200  0.382100  1.0  0.1216
  H  H1208  1  0.263200  0.795500  0.379100  1.0  0.1246
  H  H1209  1  0.189900  0.814900  0.386700  1.0  0.1196
  H  H1210  1  0.325200  0.838600  0.407400  1.0  0.1291
  H  H1211  1  0.303100  0.869200  0.474600  1.0  0.1207
  H  H1212  1  0.353800  0.811800  0.473800  1.0  0.1299
  H  H1213  1  0.305900  0.871500  0.512200  1.0  0.1218
  H  H1214  1  0.336800  0.847000  0.578300  1.0  0.124
  H  H1215  1  0.354000  0.812100  0.512500  1.0  0.1271
  H  H1216  1  0.413200  0.833200  0.338100  1.0  0.1316
  H  H1217  1  0.479700  0.854700  0.305400  1.0  0.1201
  H  H1218  1  0.480900  0.805500  0.363500  1.0  0.1243
  H  H1219  1  0.520000  0.805900  0.362900  1.0  0.1159
  H  H1220  1  0.585200  0.830000  0.330200  1.0  0.13
  H  H1221  1  0.516700  0.852700  0.302400  1.0  0.1202
  H  H1222  1  0.246600  0.004400  0.415100  1.0  0.1303
  H  H1223  1  0.251400  0.042300  0.481300  1.0  0.1529
  H  H1224  1  0.248900  0.965400  0.481200  1.0  0.1173
  H  H1225  1  0.625800  0.190700  0.693300  1.0  0.1303
  H  H1226  1  0.620400  0.264400  0.714000  1.0  0.132
  H  H1227  1  0.620100  0.209800  0.767700  1.0  0.1168
  H  H1228  1  0.617900  0.290600  0.741200  1.0  0.1216
  H  H1229  1  0.620900  0.236800  0.795500  1.0  0.1236
  H  H1230  1  0.613300  0.310100  0.814900  1.0  0.1183
  H  H1231  1  0.592600  0.174800  0.838600  1.0  0.128
  H  H1232  1  0.525400  0.196900  0.869200  1.0  0.1215
  H  H1233  1  0.526200  0.146200  0.811800  1.0  0.1294
  H  H1234  1  0.487800  0.194100  0.871500  1.0  0.1215
  H  H1235  1  0.421700  0.163200  0.847000  1.0  0.1237
  H  H1236  1  0.487500  0.146000  0.812100  1.0  0.1282
  H  H1237  1  0.661900  0.086800  0.833200  1.0  0.1317
  H  H1238  1  0.694600  0.020300  0.854700  1.0  0.1207
  H  H1239  1  0.636500  0.019100  0.805500  1.0  0.1235
  H  H1240  1  0.637100  0.980000  0.805900  1.0  0.1145
  H  H1241  1  0.669800  0.914800  0.830000  1.0  0.1314
  H  H1242  1  0.697600  0.983300  0.852700  1.0  0.1208
  H  H1243  1  0.584900  0.253400  0.004400  1.0  0.1286
  H  H1244  1  0.518700  0.248600  0.042300  1.0  0.1545
  H  H1245  1  0.518800  0.251100  0.965400  1.0  0.1181
  H  H1246  1  0.125800  0.690700  0.193300  1.0  0.1303
  H  H1247  1  0.120400  0.764400  0.214000  1.0  0.132
  H  H1248  1  0.120100  0.709800  0.267700  1.0  0.1168
  H  H1249  1  0.117900  0.790600  0.241200  1.0  0.1216
  H  H1250  1  0.120900  0.736800  0.295500  1.0  0.1236
  H  H1251  1  0.113300  0.810100  0.314900  1.0  0.1183
  H  H1252  1  0.092600  0.674800  0.338600  1.0  0.128
  H  H1253  1  0.025400  0.696900  0.369200  1.0  0.1215
  H  H1254  1  0.026200  0.646200  0.311800  1.0  0.1294
  H  H1255  1  0.987800  0.694100  0.371500  1.0  0.1206
  H  H1256  1  0.921700  0.663200  0.347000  1.0  0.1237
  H  H1257  1  0.987500  0.646000  0.312100  1.0  0.1282
  H  H1258  1  0.161900  0.586800  0.333200  1.0  0.1317
  H  H1259  1  0.194600  0.520300  0.354700  1.0  0.1207
  H  H1260  1  0.136500  0.519100  0.305500  1.0  0.1235
  H  H1261  1  0.137100  0.480000  0.305900  1.0  0.1145
  H  H1262  1  0.169800  0.414800  0.330000  1.0  0.1314
  H  H1263  1  0.197600  0.483300  0.352700  1.0  0.1208
  H  H1264  1  0.084900  0.753400  0.504400  1.0  0.1286
  H  H1265  1  0.018700  0.748600  0.542300  1.0  0.1545
  H  H1266  1  0.018800  0.751100  0.465400  1.0  0.1181
  H  H1267  1  0.374200  0.690700  0.806700  1.0  0.1307
  H  H1268  1  0.379600  0.764400  0.786000  1.0  0.1312
  H  H1269  1  0.379900  0.709800  0.732300  1.0  0.1166
  H  H1270  1  0.382100  0.790600  0.758800  1.0  0.1208
  H  H1271  1  0.379100  0.736800  0.704500  1.0  0.1242
  H  H1272  1  0.386700  0.810100  0.685100  1.0  0.1186
  H  H1273  1  0.407400  0.674800  0.661400  1.0  0.1284
  H  H1274  1  0.474600  0.696900  0.630800  1.0  0.1214
  H  H1275  1  0.473800  0.646200  0.688200  1.0  0.1295
  H  H1276  1  0.512200  0.694100  0.628500  1.0  0.1216
  H  H1277  1  0.578300  0.663200  0.653000  1.0  0.124
  H  H1278  1  0.512500  0.646000  0.687900  1.0  0.1279
  H  H1279  1  0.338100  0.586800  0.666800  1.0  0.1315
  H  H1280  1  0.305400  0.520300  0.645300  1.0  0.1207
  H  H1281  1  0.363500  0.519100  0.694500  1.0  0.1239
  H  H1282  1  0.362900  0.480000  0.694100  1.0  0.1141
  H  H1283  1  0.330200  0.414800  0.670000  1.0  0.1317
  H  H1284  1  0.302400  0.483300  0.647300  1.0  0.1201
  H  H1285  1  0.415100  0.753400  0.495600  1.0  0.1292
  H  H1286  1  0.481300  0.748600  0.457700  1.0  0.1542
  H  H1287  1  0.481200  0.751100  0.534600  1.0  0.1183
  H  H1288  1  0.874200  0.190700  0.306700  1.0  0.1307
  H  H1289  1  0.879600  0.264400  0.286000  1.0  0.1312
  H  H1290  1  0.879900  0.209800  0.232300  1.0  0.1166
  H  H1291  1  0.882100  0.290600  0.258800  1.0  0.1208
  H  H1292  1  0.879100  0.236800  0.204500  1.0  0.1242
  H  H1293  1  0.886700  0.310100  0.185100  1.0  0.1186
  H  H1294  1  0.907400  0.174800  0.161400  1.0  0.1284
  H  H1295  1  0.974600  0.196900  0.130800  1.0  0.1214
  H  H1296  1  0.973800  0.146200  0.188200  1.0  0.1295
  H  H1297  1  0.012200  0.194100  0.128500  1.0  0.1233
  H  H1298  1  0.078300  0.163200  0.153000  1.0  0.124
  H  H1299  1  0.012500  0.146000  0.187900  1.0  0.1279
  H  H1300  1  0.838100  0.086800  0.166800  1.0  0.1315
  H  H1301  1  0.805400  0.020300  0.145300  1.0  0.1207
  H  H1302  1  0.863500  0.019100  0.194500  1.0  0.1239
  H  H1303  1  0.862900  0.980000  0.194100  1.0  0.1141
  H  H1304  1  0.830200  0.914800  0.170000  1.0  0.1317
  H  H1305  1  0.802400  0.983300  0.147300  1.0  0.1201
  H  H1306  1  0.915100  0.253400  0.995600  1.0  0.1292
  H  H1307  1  0.981300  0.248600  0.957700  1.0  0.1542
  H  H1308  1  0.981200  0.251100  0.034600  1.0  0.1183
  H  H1309  1  0.125800  0.309300  0.306700  1.0  0.1291
  H  H1310  1  0.120400  0.235600  0.286000  1.0  0.1308
  H  H1311  1  0.120100  0.290200  0.232300  1.0  0.1165
  H  H1312  1  0.117900  0.209400  0.258800  1.0  0.121
  H  H1313  1  0.120900  0.263200  0.204500  1.0  0.1246
  H  H1314  1  0.113300  0.189900  0.185100  1.0  0.1184
  H  H1315  1  0.092600  0.325200  0.161400  1.0  0.1282
  H  H1316  1  0.025400  0.303100  0.130800  1.0  0.1219
  H  H1317  1  0.026200  0.353800  0.188200  1.0  0.1285
  H  H1318  1  0.987800  0.305900  0.128500  1.0  0.1235
  H  H1319  1  0.921700  0.336800  0.153000  1.0  0.1241
  H  H1320  1  0.987500  0.354000  0.187900  1.0  0.1281
  H  H1321  1  0.161900  0.413200  0.166800  1.0  0.1311
  H  H1322  1  0.194600  0.479700  0.145300  1.0  0.1206
  H  H1323  1  0.136500  0.480900  0.194500  1.0  0.1238
  H  H1324  1  0.137100  0.520000  0.194100  1.0  0.1145
  H  H1325  1  0.169800  0.585200  0.170000  1.0  0.1319
  H  H1326  1  0.197600  0.516700  0.147300  1.0  0.1207
  H  H1327  1  0.084900  0.246600  0.995600  1.0  0.1286
  H  H1328  1  0.018700  0.251400  0.957700  1.0  0.1539
  H  H1329  1  0.018800  0.248900  0.034600  1.0  0.1179
  H  H1330  1  0.625800  0.809300  0.806700  1.0  0.1291
  H  H1331  1  0.620400  0.735600  0.786000  1.0  0.1308
  H  H1332  1  0.620100  0.790200  0.732300  1.0  0.1165
  H  H1333  1  0.617900  0.709400  0.758800  1.0  0.121
  H  H1334  1  0.620900  0.763200  0.704500  1.0  0.1246
  H  H1335  1  0.613300  0.689900  0.685100  1.0  0.1184
  H  H1336  1  0.592600  0.825200  0.661400  1.0  0.1282
  H  H1337  1  0.525400  0.803100  0.630800  1.0  0.1219
  H  H1338  1  0.526200  0.853800  0.688200  1.0  0.1285
  H  H1339  1  0.487800  0.805900  0.628500  1.0  0.122
  H  H1340  1  0.421700  0.836800  0.653000  1.0  0.1241
  H  H1341  1  0.487500  0.854000  0.687900  1.0  0.1281
  H  H1342  1  0.661900  0.913200  0.666800  1.0  0.1311
  H  H1343  1  0.694600  0.979700  0.645300  1.0  0.1206
  H  H1344  1  0.636500  0.980900  0.694500  1.0  0.1238
  H  H1345  1  0.637100  0.020000  0.694100  1.0  0.1145
  H  H1346  1  0.669800  0.085200  0.670000  1.0  0.1319
  H  H1347  1  0.697600  0.016700  0.647300  1.0  0.1207
  H  H1348  1  0.584900  0.746600  0.495600  1.0  0.1286
  H  H1349  1  0.518700  0.751400  0.457700  1.0  0.1539
  H  H1350  1  0.518800  0.748900  0.534600  1.0  0.1179
  H  H1351  1  0.874200  0.809300  0.193300  1.0  0.1307
  H  H1352  1  0.879600  0.735600  0.214000  1.0  0.132
  H  H1353  1  0.879900  0.790200  0.267700  1.0  0.1164
  H  H1354  1  0.882100  0.709400  0.241200  1.0  0.1212
  H  H1355  1  0.879100  0.763200  0.295500  1.0  0.1235
  H  H1356  1  0.886700  0.689900  0.314900  1.0  0.1189
  H  H1357  1  0.907400  0.825200  0.338600  1.0  0.1286
  H  H1358  1  0.974600  0.803100  0.369200  1.0  0.1215
  H  H1359  1  0.973800  0.853800  0.311800  1.0  0.1292
  H  H1360  1  0.012200  0.805900  0.371500  1.0  0.121
  H  H1361  1  0.078300  0.836800  0.347000  1.0  0.1242
  H  H1362  1  0.012500  0.854000  0.312100  1.0  0.1279
  H  H1363  1  0.838100  0.913200  0.333200  1.0  0.1309
  H  H1364  1  0.805400  0.979700  0.354700  1.0  0.1206
  H  H1365  1  0.863500  0.980900  0.305500  1.0  0.1241
  H  H1366  1  0.862900  0.020000  0.305900  1.0  0.1146
  H  H1367  1  0.830200  0.085200  0.330000  1.0  0.1321
  H  H1368  1  0.802400  0.016700  0.352700  1.0  0.1199
  H  H1369  1  0.915100  0.746600  0.504400  1.0  0.1291
  H  H1370  1  0.981300  0.751400  0.542300  1.0  0.1542
  H  H1371  1  0.981200  0.748900  0.465400  1.0  0.1174
  H  H1372  1  0.374200  0.309300  0.693300  1.0  0.1307
  H  H1373  1  0.379600  0.235600  0.714000  1.0  0.132
  H  H1374  1  0.379900  0.290200  0.767700  1.0  0.1164
  H  H1375  1  0.382100  0.209400  0.741200  1.0  0.1212
  H  H1376  1  0.379100  0.263200  0.795500  1.0  0.1235
  H  H1377  1  0.386700  0.189900  0.814900  1.0  0.1189
  H  H1378  1  0.407400  0.325200  0.838600  1.0  0.1286
  H  H1379  1  0.474600  0.303100  0.869200  1.0  0.1215
  H  H1380  1  0.473800  0.353800  0.811800  1.0  0.1292
  H  H1381  1  0.512200  0.305900  0.871500  1.0  0.1223
  H  H1382  1  0.578300  0.336800  0.847000  1.0  0.1242
  H  H1383  1  0.512500  0.354000  0.812100  1.0  0.1279
  H  H1384  1  0.338100  0.413200  0.833200  1.0  0.1309
  H  H1385  1  0.305400  0.479700  0.854700  1.0  0.1206
  H  H1386  1  0.363500  0.480900  0.805500  1.0  0.1241
  H  H1387  1  0.362900  0.520000  0.805900  1.0  0.1146
  H  H1388  1  0.330200  0.585200  0.830000  1.0  0.1321
  H  H1389  1  0.302400  0.516700  0.852700  1.0  0.1199
  H  H1390  1  0.415100  0.246600  0.004400  1.0  0.1291
  H  H1391  1  0.481300  0.251400  0.042300  1.0  0.1542
  H  H1392  1  0.481200  0.248900  0.965400  1.0  0.1174
  C  C1393  1  0.261700  0.375800  0.831720  1.0  0.6638
  C  C1394  1  0.268300  0.376700  0.803780  1.0  -0.1671
  C  C1395  1  0.293800  0.375800  0.796710  1.0  -0.0064
  C  C1396  1  0.300260  0.377300  0.771350  1.0  -0.1281
  C  C1397  1  0.328180  0.377800  0.764900  1.0  0.7102
  C  C1398  1  0.281400  0.378900  0.753010  1.0  -0.0517
  C  C1399  1  0.249580  0.378800  0.785240  1.0  -0.0642
  C  C1400  1  0.255730  0.379400  0.759660  1.0  -0.0814
  C  C1401  1  0.235460  0.380500  0.739800  1.0  0.0338
  C  C1402  1  0.241420  0.381900  0.714330  1.0  -0.1004
  C  C1403  1  0.209550  0.380700  0.745900  1.0  -0.095
  C  C1404  1  0.191070  0.383000  0.727300  1.0  -0.1267
  C  C1405  1  0.163200  0.383400  0.733700  1.0  0.724
  C  C1406  1  0.197800  0.384500  0.702600  1.0  -0.0672
  C  C1407  1  0.222950  0.383000  0.695690  1.0  -0.1474
  C  C1408  1  0.229900  0.383600  0.668020  1.0  0.7236
  C  C1409  1  0.197820  0.424530  0.855890  1.0  0.7216
  C  C1410  1  0.177620  0.438660  0.841540  1.0  -0.1494
  C  C1411  1  0.161090  0.425480  0.825840  1.0  0.0067
  C  C1412  1  0.144110  0.439270  0.810990  1.0  -0.1481
  C  C1413  1  0.127490  0.425710  0.792290  1.0  0.7555
  C  C1414  1  0.142890  0.465460  0.812910  1.0  -0.0621
  C  C1415  1  0.176660  0.465050  0.843030  1.0  -0.0766
  C  C1416  1  0.159200  0.478500  0.829040  1.0  0.0265
  C  C1417  1  0.157590  0.507310  0.830820  1.0  0.1643
  C  C1418  1  0.139790  0.521000  0.816950  1.0  -0.0374
  C  C1419  1  0.138190  0.547440  0.818870  1.0  -0.0013
  C  C1420  1  0.154570  0.560390  0.834700  1.0  -0.0064
  C  C1421  1  0.173200  0.547110  0.847400  1.0  0.0441
  C  C1422  1  0.192800  0.561200  0.862000  1.0  0.7064
  C  C1423  1  0.174700  0.521240  0.845300  1.0  -0.074
  C  C1424  1  0.201200  0.370500  0.931000  1.0  0.7282
  C  C1425  1  0.183100  0.353300  0.945100  1.0  -0.0477
  C  C1426  1  0.167800  0.336900  0.931220  1.0  0.0052
  C  C1427  1  0.154000  0.318500  0.944330  1.0  -0.0434
  C  C1428  1  0.139500  0.298500  0.930150  1.0  0.7323
  C  C1429  1  0.154900  0.317900  0.970950  1.0  -0.0707
  C  C1430  1  0.183800  0.352180  0.971820  1.0  -0.0378
  C  C1431  1  0.169200  0.335010  0.984950  1.0  0.076
  C  C1432  1  0.169700  0.333560  0.013760  1.0  0.0665
  C  C1433  1  0.184230  0.350220  0.028350  1.0  -0.0705
  C  C1434  1  0.184720  0.348840  0.054640  1.0  -0.1293
  C  C1435  1  0.202200  0.365150  0.069790  1.0  0.7173
  C  C1436  1  0.170390  0.330800  0.067150  1.0  0.0035
  C  C1437  1  0.156390  0.313380  0.052460  1.0  -0.1404
  C  C1438  1  0.142590  0.292140  0.065860  1.0  0.7557
  C  C1439  1  0.156500  0.314680  0.026260  1.0  -0.0663
  C  C1440  1  0.043040  0.431510  0.746300  1.0  0.7405
  C  C1441  1  0.018660  0.446240  0.747200  1.0  -0.154
  C  C1442  1  0.995790  0.433140  0.747500  1.0  -0.0522
  C  C1443  1  0.973570  0.446320  0.749000  1.0  -0.1138
  C  C1444  1  0.949310  0.431620  0.749200  1.0  0.7277
  C  C1445  1  0.973380  0.472500  0.750000  1.0  -0.0993
  C  C1446  1  0.996170  0.485980  0.749000  1.0  0.0472
  C  C1447  1  0.018820  0.472400  0.748400  1.0  -0.099
  C  C1448  1  0.119950  0.561760  0.802200  1.0  0.7469
  C  C1449  1  0.761700  0.875800  0.331720  1.0  0.6638
  C  C1450  1  0.768300  0.876700  0.303780  1.0  -0.1671
  C  C1451  1  0.793800  0.875800  0.296710  1.0  -0.0064
  C  C1452  1  0.800260  0.877300  0.271350  1.0  -0.1281
  C  C1453  1  0.828180  0.877800  0.264900  1.0  0.7102
  C  C1454  1  0.781400  0.878900  0.253010  1.0  -0.0517
  C  C1455  1  0.749580  0.878800  0.285240  1.0  -0.0642
  C  C1456  1  0.755730  0.879400  0.259660  1.0  -0.0814
  C  C1457  1  0.735460  0.880500  0.239800  1.0  0.0338
  C  C1458  1  0.741420  0.881900  0.214330  1.0  -0.1004
  C  C1459  1  0.709550  0.880700  0.245900  1.0  -0.095
  C  C1460  1  0.691070  0.883000  0.227300  1.0  -0.1267
  C  C1461  1  0.663200  0.883400  0.233700  1.0  0.724
  C  C1462  1  0.697800  0.884500  0.202600  1.0  -0.0672
  C  C1463  1  0.722950  0.883000  0.195690  1.0  -0.1474
  C  C1464  1  0.729900  0.883600  0.168020  1.0  0.7236
  C  C1465  1  0.697820  0.924530  0.355890  1.0  0.7216
  C  C1466  1  0.677620  0.938660  0.341540  1.0  -0.1494
  C  C1467  1  0.661090  0.925480  0.325840  1.0  0.0067
  C  C1468  1  0.644110  0.939270  0.310990  1.0  -0.1481
  C  C1469  1  0.627490  0.925710  0.292290  1.0  0.7555
  C  C1470  1  0.642890  0.965460  0.312910  1.0  -0.0621
  C  C1471  1  0.676660  0.965050  0.343030  1.0  -0.0766
  C  C1472  1  0.659200  0.978500  0.329040  1.0  0.0265
  C  C1473  1  0.657590  0.007310  0.330820  1.0  0.1551
  C  C1474  1  0.639790  0.021000  0.316950  1.0  -0.046
  C  C1475  1  0.638190  0.047440  0.318870  1.0  -0.0013
  C  C1476  1  0.654570  0.060390  0.334700  1.0  -0.0064
  C  C1477  1  0.673200  0.047110  0.347400  1.0  0.0441
  C  C1478  1  0.692800  0.061200  0.362000  1.0  0.7064
  C  C1479  1  0.674700  0.021240  0.345300  1.0  -0.074
  C  C1480  1  0.701200  0.870500  0.431000  1.0  0.7282
  C  C1481  1  0.683100  0.853300  0.445100  1.0  -0.0477
  C  C1482  1  0.667800  0.836900  0.431220  1.0  0.0052
  C  C1483  1  0.654000  0.818500  0.444330  1.0  -0.0434
  C  C1484  1  0.639500  0.798500  0.430150  1.0  0.7323
  C  C1485  1  0.654900  0.817900  0.470950  1.0  -0.0707
  C  C1486  1  0.683800  0.852180  0.471820  1.0  -0.0378
  C  C1487  1  0.669200  0.835010  0.484950  1.0  0.0727
  C  C1488  1  0.669700  0.833560  0.513760  1.0  0.0665
  C  C1489  1  0.684230  0.850220  0.528350  1.0  -0.0705
  C  C1490  1  0.684720  0.848840  0.554640  1.0  -0.1293
  C  C1491  1  0.702200  0.865150  0.569790  1.0  0.7173
  C  C1492  1  0.670390  0.830800  0.567150  1.0  0.0035
  C  C1493  1  0.656390  0.813380  0.552460  1.0  -0.1404
  C  C1494  1  0.642590  0.792140  0.565860  1.0  0.7557
  C  C1495  1  0.656500  0.814680  0.526260  1.0  -0.0663
  C  C1496  1  0.543040  0.931510  0.246300  1.0  0.7405
  C  C1497  1  0.518660  0.946240  0.247200  1.0  -0.154
  C  C1498  1  0.495790  0.933140  0.247500  1.0  -0.0522
  C  C1499  1  0.473570  0.946320  0.249000  1.0  -0.1138
  C  C1500  1  0.449310  0.931620  0.249200  1.0  0.7277
  C  C1501  1  0.473380  0.972500  0.250000  1.0  -0.0993
  C  C1502  1  0.496170  0.985980  0.249000  1.0  0.0472
  C  C1503  1  0.518820  0.972400  0.248400  1.0  -0.099
  C  C1504  1  0.619950  0.061760  0.302200  1.0  0.7469
  C  C1505  1  0.238300  0.624200  0.331720  1.0  0.6637
  C  C1506  1  0.231700  0.623300  0.303780  1.0  -0.1678
  C  C1507  1  0.206200  0.624200  0.296710  1.0  -0.007
  C  C1508  1  0.199740  0.622700  0.271350  1.0  -0.129
  C  C1509  1  0.171820  0.622200  0.264900  1.0  0.7104
  C  C1510  1  0.218600  0.621100  0.253010  1.0  -0.051
  C  C1511  1  0.250420  0.621200  0.285240  1.0  -0.0636
  C  C1512  1  0.244270  0.620600  0.259660  1.0  -0.0815
  C  C1513  1  0.264540  0.619500  0.239800  1.0  0.0334
  C  C1514  1  0.258580  0.618100  0.214330  1.0  -0.0999
  C  C1515  1  0.290450  0.619300  0.245900  1.0  -0.0944
  C  C1516  1  0.308930  0.617000  0.227300  1.0  -0.1268
  C  C1517  1  0.336800  0.616600  0.233700  1.0  0.7227
  C  C1518  1  0.302200  0.615500  0.202600  1.0  -0.0665
  C  C1519  1  0.277050  0.617000  0.195690  1.0  -0.1475
  C  C1520  1  0.270100  0.616400  0.168020  1.0  0.7236
  C  C1521  1  0.302180  0.575470  0.355890  1.0  0.7221
  C  C1522  1  0.322380  0.561340  0.341540  1.0  -0.1499
  C  C1523  1  0.338910  0.574520  0.325840  1.0  0.0054
  C  C1524  1  0.355890  0.560730  0.310990  1.0  -0.1469
  C  C1525  1  0.372510  0.574290  0.292290  1.0  0.7559
  C  C1526  1  0.357110  0.534540  0.312910  1.0  -0.0618
  C  C1527  1  0.323340  0.534950  0.343030  1.0  -0.0777
  C  C1528  1  0.340800  0.521500  0.329040  1.0  0.0269
  C  C1529  1  0.342410  0.492690  0.330820  1.0  0.1634
  C  C1530  1  0.360210  0.479000  0.316950  1.0  -0.0364
  C  C1531  1  0.361810  0.452560  0.318870  1.0  -0.0012
  C  C1532  1  0.345430  0.439610  0.334700  1.0  -0.0069
  C  C1533  1  0.326800  0.452890  0.347400  1.0  0.0444
  C  C1534  1  0.307200  0.438800  0.362000  1.0  0.7062
  C  C1535  1  0.325300  0.478760  0.345300  1.0  -0.0737
  C  C1536  1  0.298800  0.629500  0.431000  1.0  0.7281
  C  C1537  1  0.316900  0.646700  0.445100  1.0  -0.0469
  C  C1538  1  0.332200  0.663100  0.431220  1.0  0.0061
  C  C1539  1  0.346000  0.681500  0.444330  1.0  -0.0425
  C  C1540  1  0.360500  0.701500  0.430150  1.0  0.7331
  C  C1541  1  0.345100  0.682100  0.470950  1.0  -0.0709
  C  C1542  1  0.316200  0.647820  0.471820  1.0  -0.0376
  C  C1543  1  0.330800  0.664990  0.484950  1.0  0.073
  C  C1544  1  0.330300  0.666440  0.513760  1.0  0.0666
  C  C1545  1  0.315770  0.649780  0.528350  1.0  -0.0694
  C  C1546  1  0.315280  0.651160  0.554640  1.0  -0.1296
  C  C1547  1  0.297800  0.634850  0.569790  1.0  0.7182
  C  C1548  1  0.329610  0.669200  0.567150  1.0  0.0037
  C  C1549  1  0.343610  0.686620  0.552460  1.0  -0.1399
  C  C1550  1  0.357410  0.707860  0.565860  1.0  0.756
  C  C1551  1  0.343500  0.685320  0.526260  1.0  -0.0668
  C  C1552  1  0.456960  0.568490  0.246300  1.0  0.7416
  C  C1553  1  0.481340  0.553760  0.247200  1.0  -0.155
  C  C1554  1  0.504210  0.566860  0.247500  1.0  -0.0537
  C  C1555  1  0.526430  0.553680  0.249000  1.0  -0.1134
  C  C1556  1  0.550690  0.568380  0.249200  1.0  0.728
  C  C1557  1  0.526620  0.527500  0.250000  1.0  -0.0985
  C  C1558  1  0.503830  0.514020  0.249000  1.0  0.0471
  C  C1559  1  0.481180  0.527600  0.248400  1.0  -0.0985
  C  C1560  1  0.380050  0.438240  0.302200  1.0  0.746
  C  C1561  1  0.738300  0.124200  0.831720  1.0  0.6637
  C  C1562  1  0.731700  0.123300  0.803780  1.0  -0.1678
  C  C1563  1  0.706200  0.124200  0.796710  1.0  -0.007
  C  C1564  1  0.699740  0.122700  0.771350  1.0  -0.129
  C  C1565  1  0.671820  0.122200  0.764900  1.0  0.7104
  C  C1566  1  0.718600  0.121100  0.753010  1.0  -0.051
  C  C1567  1  0.750420  0.121200  0.785240  1.0  -0.0636
  C  C1568  1  0.744270  0.120600  0.759660  1.0  -0.0815
  C  C1569  1  0.764540  0.119500  0.739800  1.0  0.0334
  C  C1570  1  0.758580  0.118100  0.714330  1.0  -0.0999
  C  C1571  1  0.790450  0.119300  0.745900  1.0  -0.0944
  C  C1572  1  0.808930  0.117000  0.727300  1.0  -0.1268
  C  C1573  1  0.836800  0.116600  0.733700  1.0  0.7227
  C  C1574  1  0.802200  0.115500  0.702600  1.0  -0.0665
  C  C1575  1  0.777050  0.117000  0.695690  1.0  -0.1475
  C  C1576  1  0.770100  0.116400  0.668020  1.0  0.7236
  C  C1577  1  0.802180  0.075470  0.855890  1.0  0.7221
  C  C1578  1  0.822380  0.061340  0.841540  1.0  -0.1499
  C  C1579  1  0.838910  0.074520  0.825840  1.0  0.0054
  C  C1580  1  0.855890  0.060730  0.810990  1.0  -0.1469
  C  C1581  1  0.872510  0.074290  0.792290  1.0  0.7559
  C  C1582  1  0.857110  0.034540  0.812910  1.0  -0.0618
  C  C1583  1  0.823340  0.034950  0.843030  1.0  -0.0777
  C  C1584  1  0.840800  0.021500  0.829040  1.0  0.0269
  C  C1585  1  0.842410  0.992690  0.830820  1.0  0.1544
  C  C1586  1  0.860210  0.979000  0.816950  1.0  -0.0344
  C  C1587  1  0.861810  0.952560  0.818870  1.0  -0.0012
  C  C1588  1  0.845430  0.939610  0.834700  1.0  -0.0069
  C  C1589  1  0.826800  0.952890  0.847400  1.0  0.0444
  C  C1590  1  0.807200  0.938800  0.862000  1.0  0.7062
  C  C1591  1  0.825300  0.978760  0.845300  1.0  -0.0737
  C  C1592  1  0.798800  0.129500  0.931000  1.0  0.7281
  C  C1593  1  0.816900  0.146700  0.945100  1.0  -0.0469
  C  C1594  1  0.832200  0.163100  0.931220  1.0  0.0061
  C  C1595  1  0.846000  0.181500  0.944330  1.0  -0.0425
  C  C1596  1  0.860500  0.201500  0.930150  1.0  0.7331
  C  C1597  1  0.845100  0.182100  0.970950  1.0  -0.0709
  C  C1598  1  0.816200  0.147820  0.971820  1.0  -0.0376
  C  C1599  1  0.830800  0.164990  0.984950  1.0  0.0763
  C  C1600  1  0.830300  0.166440  0.013760  1.0  0.0666
  C  C1601  1  0.815770  0.149780  0.028350  1.0  -0.0694
  C  C1602  1  0.815280  0.151160  0.054640  1.0  -0.1296
  C  C1603  1  0.797800  0.134850  0.069790  1.0  0.7182
  C  C1604  1  0.829610  0.169200  0.067150  1.0  0.0037
  C  C1605  1  0.843610  0.186620  0.052460  1.0  -0.1399
  C  C1606  1  0.857410  0.207860  0.065860  1.0  0.756
  C  C1607  1  0.843500  0.185320  0.026260  1.0  -0.0668
  C  C1608  1  0.956960  0.068490  0.746300  1.0  0.7416
  C  C1609  1  0.981340  0.053760  0.747200  1.0  -0.155
  C  C1610  1  0.004210  0.066860  0.747500  1.0  -0.0537
  C  C1611  1  0.026430  0.053680  0.749000  1.0  -0.1134
  C  C1612  1  0.050690  0.068380  0.749200  1.0  0.728
  C  C1613  1  0.026620  0.027500  0.750000  1.0  -0.0985
  C  C1614  1  0.003830  0.014020  0.749000  1.0  0.0471
  C  C1615  1  0.981180  0.027600  0.748400  1.0  -0.0985
  C  C1616  1  0.880050  0.938240  0.802200  1.0  0.746
  C  C1617  1  0.738300  0.875800  0.668280  1.0  0.6636
  C  C1618  1  0.731700  0.876700  0.696220  1.0  -0.1676
  C  C1619  1  0.706200  0.875800  0.703290  1.0  -0.0057
  C  C1620  1  0.699740  0.877300  0.728650  1.0  -0.1292
  C  C1621  1  0.671820  0.877800  0.735100  1.0  0.7103
  C  C1622  1  0.718600  0.878900  0.746990  1.0  -0.0515
  C  C1623  1  0.750420  0.878800  0.714760  1.0  -0.0637
  C  C1624  1  0.744270  0.879400  0.740340  1.0  -0.0819
  C  C1625  1  0.764540  0.880500  0.760200  1.0  0.0341
  C  C1626  1  0.758580  0.881900  0.785670  1.0  -0.1003
  C  C1627  1  0.790450  0.880700  0.754100  1.0  -0.0939
  C  C1628  1  0.808930  0.883000  0.772700  1.0  -0.1263
  C  C1629  1  0.836800  0.883400  0.766300  1.0  0.7229
  C  C1630  1  0.802200  0.884500  0.797400  1.0  -0.0671
  C  C1631  1  0.777050  0.883000  0.804310  1.0  -0.1475
  C  C1632  1  0.770100  0.883600  0.831980  1.0  0.7237
  C  C1633  1  0.802180  0.924530  0.644110  1.0  0.7216
  C  C1634  1  0.822380  0.938660  0.658460  1.0  -0.1492
  C  C1635  1  0.838910  0.925480  0.674160  1.0  0.0056
  C  C1636  1  0.855890  0.939270  0.689010  1.0  -0.1467
  C  C1637  1  0.872510  0.925710  0.707710  1.0  0.7565
  C  C1638  1  0.857110  0.965460  0.687090  1.0  -0.0617
  C  C1639  1  0.823340  0.965050  0.656970  1.0  -0.0764
  C  C1640  1  0.840800  0.978500  0.670960  1.0  0.0272
  C  C1641  1  0.842410  0.007310  0.669180  1.0  0.1531
  C  C1642  1  0.860210  0.021000  0.683050  1.0  -0.0367
  C  C1643  1  0.861810  0.047440  0.681130  1.0  -0.0013
  C  C1644  1  0.845430  0.060390  0.665300  1.0  -0.0054
  C  C1645  1  0.826800  0.047110  0.652600  1.0  0.0437
  C  C1646  1  0.807200  0.061200  0.638000  1.0  0.7077
  C  C1647  1  0.825300  0.021240  0.654700  1.0  -0.0743
  C  C1648  1  0.798800  0.870500  0.569000  1.0  0.7288
  C  C1649  1  0.816900  0.853300  0.554900  1.0  -0.0473
  C  C1650  1  0.832200  0.836900  0.568780  1.0  0.0033
  C  C1651  1  0.846000  0.818500  0.555670  1.0  -0.0425
  C  C1652  1  0.860500  0.798500  0.569850  1.0  0.7327
  C  C1653  1  0.845100  0.817900  0.529050  1.0  -0.0698
  C  C1654  1  0.816200  0.852180  0.528180  1.0  -0.0374
  C  C1655  1  0.830800  0.835010  0.515050  1.0  0.0726
  C  C1656  1  0.830300  0.833560  0.486240  1.0  0.0669
  C  C1657  1  0.815770  0.850220  0.471650  1.0  -0.0709
  C  C1658  1  0.815280  0.848840  0.445360  1.0  -0.1293
  C  C1659  1  0.797800  0.865150  0.430210  1.0  0.718
  C  C1660  1  0.829610  0.830800  0.432850  1.0  0.0045
  C  C1661  1  0.843610  0.813380  0.447540  1.0  -0.1398
  C  C1662  1  0.857410  0.792140  0.434140  1.0  0.7554
  C  C1663  1  0.843500  0.814680  0.473740  1.0  -0.0671
  C  C1664  1  0.956960  0.931510  0.753700  1.0  0.7411
  C  C1665  1  0.981340  0.946240  0.752800  1.0  -0.1549
  C  C1666  1  0.004210  0.933140  0.752500  1.0  -0.0523
  C  C1667  1  0.026430  0.946320  0.751000  1.0  -0.1129
  C  C1668  1  0.050690  0.931620  0.750800  1.0  0.7276
  C  C1669  1  0.026620  0.972500  0.750000  1.0  -0.0983
  C  C1670  1  0.003830  0.985980  0.751000  1.0  0.047
  C  C1671  1  0.981180  0.972400  0.751600  1.0  -0.0986
  C  C1672  1  0.880050  0.061760  0.697800  1.0  0.7456
  C  C1673  1  0.238300  0.375800  0.168280  1.0  0.6636
  C  C1674  1  0.231700  0.376700  0.196220  1.0  -0.1676
  C  C1675  1  0.206200  0.375800  0.203290  1.0  -0.0057
  C  C1676  1  0.199740  0.377300  0.228650  1.0  -0.1292
  C  C1677  1  0.171820  0.377800  0.235100  1.0  0.7103
  C  C1678  1  0.218600  0.378900  0.246990  1.0  -0.0515
  C  C1679  1  0.250420  0.378800  0.214760  1.0  -0.0637
  C  C1680  1  0.244270  0.379400  0.240340  1.0  -0.0819
  C  C1681  1  0.264540  0.380500  0.260200  1.0  0.0341
  C  C1682  1  0.258580  0.381900  0.285670  1.0  -0.1003
  C  C1683  1  0.290450  0.380700  0.254100  1.0  -0.0939
  C  C1684  1  0.308930  0.383000  0.272700  1.0  -0.1263
  C  C1685  1  0.336800  0.383400  0.266300  1.0  0.7229
  C  C1686  1  0.302200  0.384500  0.297400  1.0  -0.0671
  C  C1687  1  0.277050  0.383000  0.304310  1.0  -0.1475
  C  C1688  1  0.270100  0.383600  0.331980  1.0  0.7237
  C  C1689  1  0.302180  0.424530  0.144110  1.0  0.7216
  C  C1690  1  0.322380  0.438660  0.158460  1.0  -0.1492
  C  C1691  1  0.338910  0.425480  0.174160  1.0  0.0056
  C  C1692  1  0.355890  0.439270  0.189010  1.0  -0.1467
  C  C1693  1  0.372510  0.425710  0.207710  1.0  0.7565
  C  C1694  1  0.357110  0.465460  0.187090  1.0  -0.0617
  C  C1695  1  0.323340  0.465050  0.156970  1.0  -0.0764
  C  C1696  1  0.340800  0.478500  0.170960  1.0  0.0272
  C  C1697  1  0.342410  0.507310  0.169180  1.0  0.1634
  C  C1698  1  0.360210  0.521000  0.183050  1.0  -0.0371
  C  C1699  1  0.361810  0.547440  0.181130  1.0  -0.0013
  C  C1700  1  0.345430  0.560390  0.165300  1.0  -0.0054
  C  C1701  1  0.326800  0.547110  0.152600  1.0  0.0437
  C  C1702  1  0.307200  0.561200  0.138000  1.0  0.7077
  C  C1703  1  0.325300  0.521240  0.154700  1.0  -0.0743
  C  C1704  1  0.298800  0.370500  0.069000  1.0  0.7288
  C  C1705  1  0.316900  0.353300  0.054900  1.0  -0.0473
  C  C1706  1  0.332200  0.336900  0.068780  1.0  0.0033
  C  C1707  1  0.346000  0.318500  0.055670  1.0  -0.0425
  C  C1708  1  0.360500  0.298500  0.069850  1.0  0.7327
  C  C1709  1  0.345100  0.317900  0.029050  1.0  -0.0698
  C  C1710  1  0.316200  0.352180  0.028180  1.0  -0.0374
  C  C1711  1  0.330800  0.335010  0.015050  1.0  0.076
  C  C1712  1  0.330300  0.333560  0.986240  1.0  0.0669
  C  C1713  1  0.315770  0.350220  0.971650  1.0  -0.0709
  C  C1714  1  0.315280  0.348840  0.945360  1.0  -0.1293
  C  C1715  1  0.297800  0.365150  0.930210  1.0  0.718
  C  C1716  1  0.329610  0.330800  0.932850  1.0  0.0045
  C  C1717  1  0.343610  0.313380  0.947540  1.0  -0.1398
  C  C1718  1  0.357410  0.292140  0.934140  1.0  0.7554
  C  C1719  1  0.343500  0.314680  0.973740  1.0  -0.0671
  C  C1720  1  0.456960  0.431510  0.253700  1.0  0.7411
  C  C1721  1  0.481340  0.446240  0.252800  1.0  -0.1549
  C  C1722  1  0.504210  0.433140  0.252500  1.0  -0.0523
  C  C1723  1  0.526430  0.446320  0.251000  1.0  -0.1129
  C  C1724  1  0.550690  0.431620  0.250800  1.0  0.7276
  C  C1725  1  0.526620  0.472500  0.250000  1.0  -0.0983
  C  C1726  1  0.503830  0.485980  0.251000  1.0  0.047
  C  C1727  1  0.481180  0.472400  0.251600  1.0  -0.0986
  C  C1728  1  0.380050  0.561760  0.197800  1.0  0.7456
  C  C1729  1  0.761700  0.124200  0.168280  1.0  0.6638
  C  C1730  1  0.768300  0.123300  0.196220  1.0  -0.1669
  C  C1731  1  0.793800  0.124200  0.203290  1.0  -0.0054
  C  C1732  1  0.800260  0.122700  0.228650  1.0  -0.1295
  C  C1733  1  0.828180  0.122200  0.235100  1.0  0.71
  C  C1734  1  0.781400  0.121100  0.246990  1.0  -0.0515
  C  C1735  1  0.749580  0.121200  0.214760  1.0  -0.0637
  C  C1736  1  0.755730  0.120600  0.240340  1.0  -0.082
  C  C1737  1  0.735460  0.119500  0.260200  1.0  0.0346
  C  C1738  1  0.741420  0.118100  0.285670  1.0  -0.1003
  C  C1739  1  0.709550  0.119300  0.254100  1.0  -0.0945
  C  C1740  1  0.691070  0.117000  0.272700  1.0  -0.1263
  C  C1741  1  0.663200  0.116600  0.266300  1.0  0.7236
  C  C1742  1  0.697800  0.115500  0.297400  1.0  -0.0679
  C  C1743  1  0.722950  0.117000  0.304310  1.0  -0.1474
  C  C1744  1  0.729900  0.116400  0.331980  1.0  0.7238
  C  C1745  1  0.697820  0.075470  0.144110  1.0  0.7218
  C  C1746  1  0.677620  0.061340  0.158460  1.0  -0.1482
  C  C1747  1  0.661090  0.074520  0.174160  1.0  0.006
  C  C1748  1  0.644110  0.060730  0.189010  1.0  -0.1476
  C  C1749  1  0.627490  0.074290  0.207710  1.0  0.7561
  C  C1750  1  0.642890  0.034540  0.187090  1.0  -0.0627
  C  C1751  1  0.676660  0.034950  0.156970  1.0  -0.0763
  C  C1752  1  0.659200  0.021500  0.170960  1.0  0.0265
  C  C1753  1  0.657590  0.992690  0.169180  1.0  0.1575
  C  C1754  1  0.639790  0.979000  0.183050  1.0  -0.0462
  C  C1755  1  0.638190  0.952560  0.181130  1.0  -0.001
  C  C1756  1  0.654570  0.939610  0.165300  1.0  -0.0057
  C  C1757  1  0.673200  0.952890  0.152600  1.0  0.0436
  C  C1758  1  0.692800  0.938800  0.138000  1.0  0.707
  C  C1759  1  0.674700  0.978760  0.154700  1.0  -0.0749
  C  C1760  1  0.701200  0.129500  0.069000  1.0  0.7273
  C  C1761  1  0.683100  0.146700  0.054900  1.0  -0.0473
  C  C1762  1  0.667800  0.163100  0.068780  1.0  0.0026
  C  C1763  1  0.654000  0.181500  0.055670  1.0  -0.0426
  C  C1764  1  0.639500  0.201500  0.069850  1.0  0.7326
  C  C1765  1  0.654900  0.182100  0.029050  1.0  -0.0709
  C  C1766  1  0.683800  0.147820  0.028180  1.0  -0.0375
  C  C1767  1  0.669200  0.164990  0.015050  1.0  0.0756
  C  C1768  1  0.669700  0.166440  0.986240  1.0  0.0666
  C  C1769  1  0.684230  0.149780  0.971650  1.0  -0.0695
  C  C1770  1  0.684720  0.151160  0.945360  1.0  -0.1293
  C  C1771  1  0.702200  0.134850  0.930210  1.0  0.7173
  C  C1772  1  0.670390  0.169200  0.932850  1.0  0.0053
  C  C1773  1  0.656390  0.186620  0.947540  1.0  -0.1404
  C  C1774  1  0.642590  0.207860  0.934140  1.0  0.7557
  C  C1775  1  0.656500  0.185320  0.973740  1.0  -0.067
  C  C1776  1  0.543040  0.068490  0.253700  1.0  0.7411
  C  C1777  1  0.518660  0.053760  0.252800  1.0  -0.1543
  C  C1778  1  0.495790  0.066860  0.252500  1.0  -0.0539
  C  C1779  1  0.473570  0.053680  0.251000  1.0  -0.1138
  C  C1780  1  0.449310  0.068380  0.250800  1.0  0.7282
  C  C1781  1  0.473380  0.027500  0.250000  1.0  -0.0993
  C  C1782  1  0.496170  0.014020  0.251000  1.0  0.047
  C  C1783  1  0.518820  0.027600  0.251600  1.0  -0.0993
  C  C1784  1  0.619950  0.938240  0.197800  1.0  0.7468
  C  C1785  1  0.261700  0.624200  0.668280  1.0  0.6638
  C  C1786  1  0.268300  0.623300  0.696220  1.0  -0.1669
  C  C1787  1  0.293800  0.624200  0.703290  1.0  -0.0054
  C  C1788  1  0.300260  0.622700  0.728650  1.0  -0.1295
  C  C1789  1  0.328180  0.622200  0.735100  1.0  0.71
  C  C1790  1  0.281400  0.621100  0.746990  1.0  -0.0515
  C  C1791  1  0.249580  0.621200  0.714760  1.0  -0.0637
  C  C1792  1  0.255730  0.620600  0.740340  1.0  -0.082
  C  C1793  1  0.235460  0.619500  0.760200  1.0  0.0346
  C  C1794  1  0.241420  0.618100  0.785670  1.0  -0.1003
  C  C1795  1  0.209550  0.619300  0.754100  1.0  -0.0945
  C  C1796  1  0.191070  0.617000  0.772700  1.0  -0.1263
  C  C1797  1  0.163200  0.616600  0.766300  1.0  0.7236
  C  C1798  1  0.197800  0.615500  0.797400  1.0  -0.0679
  C  C1799  1  0.222950  0.617000  0.804310  1.0  -0.1474
  C  C1800  1  0.229900  0.616400  0.831980  1.0  0.7238
  C  C1801  1  0.197820  0.575470  0.644110  1.0  0.7218
  C  C1802  1  0.177620  0.561340  0.658460  1.0  -0.1482
  C  C1803  1  0.161090  0.574520  0.674160  1.0  0.006
  C  C1804  1  0.144110  0.560730  0.689010  1.0  -0.1476
  C  C1805  1  0.127490  0.574290  0.707710  1.0  0.7561
  C  C1806  1  0.142890  0.534540  0.687090  1.0  -0.0627
  C  C1807  1  0.176660  0.534950  0.656970  1.0  -0.0763
  C  C1808  1  0.159200  0.521500  0.670960  1.0  0.0265
  C  C1809  1  0.157590  0.492690  0.669180  1.0  0.1649
  C  C1810  1  0.139790  0.479000  0.683050  1.0  -0.0372
  C  C1811  1  0.138190  0.452560  0.681130  1.0  -0.001
  C  C1812  1  0.154570  0.439610  0.665300  1.0  -0.0057
  C  C1813  1  0.173200  0.452890  0.652600  1.0  0.0436
  C  C1814  1  0.192800  0.438800  0.638000  1.0  0.707
  C  C1815  1  0.174700  0.478760  0.654700  1.0  -0.0749
  C  C1816  1  0.201200  0.629500  0.569000  1.0  0.7273
  C  C1817  1  0.183100  0.646700  0.554900  1.0  -0.0473
  C  C1818  1  0.167800  0.663100  0.568780  1.0  0.0026
  C  C1819  1  0.154000  0.681500  0.555670  1.0  -0.0426
  C  C1820  1  0.139500  0.701500  0.569850  1.0  0.7326
  C  C1821  1  0.154900  0.682100  0.529050  1.0  -0.0709
  C  C1822  1  0.183800  0.647820  0.528180  1.0  -0.0375
  C  C1823  1  0.169200  0.664990  0.515050  1.0  0.0723
  C  C1824  1  0.169700  0.666440  0.486240  1.0  0.0666
  C  C1825  1  0.184230  0.649780  0.471650  1.0  -0.0695
  C  C1826  1  0.184720  0.651160  0.445360  1.0  -0.1293
  C  C1827  1  0.202200  0.634850  0.430210  1.0  0.7173
  C  C1828  1  0.170390  0.669200  0.432850  1.0  0.0053
  C  C1829  1  0.156390  0.686620  0.447540  1.0  -0.1404
  C  C1830  1  0.142590  0.707860  0.434140  1.0  0.7557
  C  C1831  1  0.156500  0.685320  0.473740  1.0  -0.067
  C  C1832  1  0.043040  0.568490  0.753700  1.0  0.7411
  C  C1833  1  0.018660  0.553760  0.752800  1.0  -0.1543
  C  C1834  1  0.995790  0.566860  0.752500  1.0  -0.0539
  C  C1835  1  0.973570  0.553680  0.751000  1.0  -0.1138
  C  C1836  1  0.949310  0.568380  0.750800  1.0  0.7282
  C  C1837  1  0.973380  0.527500  0.750000  1.0  -0.0993
  C  C1838  1  0.996170  0.514020  0.751000  1.0  0.047
  C  C1839  1  0.018820  0.527600  0.751600  1.0  -0.0993
  C  C1840  1  0.119950  0.438240  0.697800  1.0  0.7468
  C  C1841  1  0.831720  0.261700  0.375800  1.0  0.661
  C  C1842  1  0.803780  0.268300  0.376700  1.0  -0.1654
  C  C1843  1  0.796710  0.293800  0.375800  1.0  -0.0053
  C  C1844  1  0.771350  0.300260  0.377300  1.0  -0.1296
  C  C1845  1  0.764900  0.328180  0.377800  1.0  0.7112
  C  C1846  1  0.753010  0.281400  0.378900  1.0  -0.0508
  C  C1847  1  0.785240  0.249580  0.378800  1.0  -0.0631
  C  C1848  1  0.759660  0.255730  0.379400  1.0  -0.0822
  C  C1849  1  0.739800  0.235460  0.380500  1.0  0.0345
  C  C1850  1  0.714330  0.241420  0.381900  1.0  -0.1014
  C  C1851  1  0.745900  0.209550  0.380700  1.0  -0.0949
  C  C1852  1  0.727300  0.191070  0.383000  1.0  -0.1285
  C  C1853  1  0.733700  0.163200  0.383400  1.0  0.7256
  C  C1854  1  0.702600  0.197800  0.384500  1.0  -0.0687
  C  C1855  1  0.695690  0.222950  0.383000  1.0  -0.1453
  C  C1856  1  0.668020  0.229900  0.383600  1.0  0.7216
  C  C1857  1  0.855890  0.197820  0.424530  1.0  0.7228
  C  C1858  1  0.841540  0.177620  0.438660  1.0  -0.147
  C  C1859  1  0.825840  0.161090  0.425480  1.0  0.0077
  C  C1860  1  0.810990  0.144110  0.439270  1.0  -0.1475
  C  C1861  1  0.792290  0.127490  0.425710  1.0  0.7567
  C  C1862  1  0.812910  0.142890  0.465460  1.0  -0.0618
  C  C1863  1  0.843030  0.176660  0.465050  1.0  -0.0744
  C  C1864  1  0.829040  0.159200  0.478500  1.0  0.0265
  C  C1865  1  0.830820  0.157590  0.507310  1.0  0.1638
  C  C1866  1  0.816950  0.139790  0.521000  1.0  -0.0368
  C  C1867  1  0.818870  0.138190  0.547440  1.0  -0.0007
  C  C1868  1  0.834700  0.154570  0.560390  1.0  -0.0069
  C  C1869  1  0.847400  0.173200  0.547110  1.0  0.0435
  C  C1870  1  0.862000  0.192800  0.561200  1.0  0.7071
  C  C1871  1  0.845300  0.174700  0.521240  1.0  -0.0739
  C  C1872  1  0.931000  0.201200  0.370500  1.0  0.7274
  C  C1873  1  0.945100  0.183100  0.353300  1.0  -0.048
  C  C1874  1  0.931220  0.167800  0.336900  1.0  0.007
  C  C1875  1  0.944330  0.154000  0.318500  1.0  -0.0425
  C  C1876  1  0.930150  0.139500  0.298500  1.0  0.7309
  C  C1877  1  0.970950  0.154900  0.317900  1.0  -0.0713
  C  C1878  1  0.971820  0.183800  0.352180  1.0  -0.0378
  C  C1879  1  0.984950  0.169200  0.335010  1.0  0.0761
  C  C1880  1  0.013760  0.169700  0.333560  1.0  0.0665
  C  C1881  1  0.028350  0.184230  0.350220  1.0  -0.0696
  C  C1882  1  0.054640  0.184720  0.348840  1.0  -0.1297
  C  C1883  1  0.069790  0.202200  0.365150  1.0  0.7182
  C  C1884  1  0.067150  0.170390  0.330800  1.0  0.0036
  C  C1885  1  0.052460  0.156390  0.313380  1.0  -0.1389
  C  C1886  1  0.065860  0.142590  0.292140  1.0  0.7545
  C  C1887  1  0.026260  0.156500  0.314680  1.0  -0.067
  C  C1888  1  0.746300  0.043040  0.431510  1.0  0.7413
  C  C1889  1  0.747200  0.018660  0.446240  1.0  -0.1535
  C  C1890  1  0.747500  0.995790  0.433140  1.0  -0.0539
  C  C1891  1  0.749000  0.973570  0.446320  1.0  -0.1121
  C  C1892  1  0.749200  0.949310  0.431620  1.0  0.7285
  C  C1893  1  0.750000  0.973380  0.472500  1.0  -0.0971
  C  C1894  1  0.749000  0.996170  0.485980  1.0  0.0465
  C  C1895  1  0.748400  0.018820  0.472400  1.0  -0.0985
  C  C1896  1  0.802200  0.119950  0.561760  1.0  0.7443
  C  C1897  1  0.331720  0.761700  0.875800  1.0  0.661
  C  C1898  1  0.303780  0.768300  0.876700  1.0  -0.1654
  C  C1899  1  0.296710  0.793800  0.875800  1.0  -0.0053
  C  C1900  1  0.271350  0.800260  0.877300  1.0  -0.1296
  C  C1901  1  0.264900  0.828180  0.877800  1.0  0.7112
  C  C1902  1  0.253010  0.781400  0.878900  1.0  -0.0508
  C  C1903  1  0.285240  0.749580  0.878800  1.0  -0.0631
  C  C1904  1  0.259660  0.755730  0.879400  1.0  -0.0822
  C  C1905  1  0.239800  0.735460  0.880500  1.0  0.0345
  C  C1906  1  0.214330  0.741420  0.881900  1.0  -0.1014
  C  C1907  1  0.245900  0.709550  0.880700  1.0  -0.0949
  C  C1908  1  0.227300  0.691070  0.883000  1.0  -0.1285
  C  C1909  1  0.233700  0.663200  0.883400  1.0  0.7256
  C  C1910  1  0.202600  0.697800  0.884500  1.0  -0.0687
  C  C1911  1  0.195690  0.722950  0.883000  1.0  -0.1453
  C  C1912  1  0.168020  0.729900  0.883600  1.0  0.7216
  C  C1913  1  0.355890  0.697820  0.924530  1.0  0.7228
  C  C1914  1  0.341540  0.677620  0.938660  1.0  -0.147
  C  C1915  1  0.325840  0.661090  0.925480  1.0  0.0077
  C  C1916  1  0.310990  0.644110  0.939270  1.0  -0.1475
  C  C1917  1  0.292290  0.627490  0.925710  1.0  0.7567
  C  C1918  1  0.312910  0.642890  0.965460  1.0  -0.0618
  C  C1919  1  0.343030  0.676660  0.965050  1.0  -0.0744
  C  C1920  1  0.329040  0.659200  0.978500  1.0  0.0265
  C  C1921  1  0.330820  0.657590  0.007310  1.0  0.1548
  C  C1922  1  0.316950  0.639790  0.021000  1.0  -0.0456
  C  C1923  1  0.318870  0.638190  0.047440  1.0  -0.0007
  C  C1924  1  0.334700  0.654570  0.060390  1.0  -0.0069
  C  C1925  1  0.347400  0.673200  0.047110  1.0  0.0435
  C  C1926  1  0.362000  0.692800  0.061200  1.0  0.7071
  C  C1927  1  0.345300  0.674700  0.021240  1.0  -0.0739
  C  C1928  1  0.431000  0.701200  0.870500  1.0  0.7274
  C  C1929  1  0.445100  0.683100  0.853300  1.0  -0.048
  C  C1930  1  0.431220  0.667800  0.836900  1.0  0.007
  C  C1931  1  0.444330  0.654000  0.818500  1.0  -0.0425
  C  C1932  1  0.430150  0.639500  0.798500  1.0  0.7309
  C  C1933  1  0.470950  0.654900  0.817900  1.0  -0.0713
  C  C1934  1  0.471820  0.683800  0.852180  1.0  -0.0378
  C  C1935  1  0.484950  0.669200  0.835010  1.0  0.0729
  C  C1936  1  0.513760  0.669700  0.833560  1.0  0.0665
  C  C1937  1  0.528350  0.684230  0.850220  1.0  -0.0696
  C  C1938  1  0.554640  0.684720  0.848840  1.0  -0.1297
  C  C1939  1  0.569790  0.702200  0.865150  1.0  0.7182
  C  C1940  1  0.567150  0.670390  0.830800  1.0  0.0036
  C  C1941  1  0.552460  0.656390  0.813380  1.0  -0.1389
  C  C1942  1  0.565860  0.642590  0.792140  1.0  0.7545
  C  C1943  1  0.526260  0.656500  0.814680  1.0  -0.067
  C  C1944  1  0.246300  0.543040  0.931510  1.0  0.7413
  C  C1945  1  0.247200  0.518660  0.946240  1.0  -0.1535
  C  C1946  1  0.247500  0.495790  0.933140  1.0  -0.0539
  C  C1947  1  0.249000  0.473570  0.946320  1.0  -0.1121
  C  C1948  1  0.249200  0.449310  0.931620  1.0  0.7285
  C  C1949  1  0.250000  0.473380  0.972500  1.0  -0.0971
  C  C1950  1  0.249000  0.496170  0.985980  1.0  0.0465
  C  C1951  1  0.248400  0.518820  0.972400  1.0  -0.0985
  C  C1952  1  0.302200  0.619950  0.061760  1.0  0.7443
  C  C1953  1  0.331720  0.238300  0.624200  1.0  0.6615
  C  C1954  1  0.303780  0.231700  0.623300  1.0  -0.1652
  C  C1955  1  0.296710  0.206200  0.624200  1.0  -0.0059
  C  C1956  1  0.271350  0.199740  0.622700  1.0  -0.129
  C  C1957  1  0.264900  0.171820  0.622200  1.0  0.7115
  C  C1958  1  0.253010  0.218600  0.621100  1.0  -0.0511
  C  C1959  1  0.285240  0.250420  0.621200  1.0  -0.0627
  C  C1960  1  0.259660  0.244270  0.620600  1.0  -0.0823
  C  C1961  1  0.239800  0.264540  0.619500  1.0  0.0344
  C  C1962  1  0.214330  0.258580  0.618100  1.0  -0.1016
  C  C1963  1  0.245900  0.290450  0.619300  1.0  -0.0949
  C  C1964  1  0.227300  0.308930  0.617000  1.0  -0.1293
  C  C1965  1  0.233700  0.336800  0.616600  1.0  0.7253
  C  C1966  1  0.202600  0.302200  0.615500  1.0  -0.0697
  C  C1967  1  0.195690  0.277050  0.617000  1.0  -0.1446
  C  C1968  1  0.168020  0.270100  0.616400  1.0  0.7218
  C  C1969  1  0.355890  0.302180  0.575470  1.0  0.7228
  C  C1970  1  0.341540  0.322380  0.561340  1.0  -0.1472
  C  C1971  1  0.325840  0.338910  0.574520  1.0  0.0052
  C  C1972  1  0.310990  0.355890  0.560730  1.0  -0.1471
  C  C1973  1  0.292290  0.372510  0.574290  1.0  0.7572
  C  C1974  1  0.312910  0.357110  0.534540  1.0  -0.0616
  C  C1975  1  0.343030  0.323340  0.534950  1.0  -0.074
  C  C1976  1  0.329040  0.340800  0.521500  1.0  0.0265
  C  C1977  1  0.330820  0.342410  0.492690  1.0  0.1635
  C  C1978  1  0.316950  0.360210  0.479000  1.0  -0.0386
  C  C1979  1  0.318870  0.361810  0.452560  1.0  -0.0006
  C  C1980  1  0.334700  0.345430  0.439610  1.0  -0.0063
  C  C1981  1  0.347400  0.326800  0.452890  1.0  0.0437
  C  C1982  1  0.362000  0.307200  0.438800  1.0  0.7063
  C  C1983  1  0.345300  0.325300  0.478760  1.0  -0.0732
  C  C1984  1  0.431000  0.298800  0.629500  1.0  0.7275
  C  C1985  1  0.445100  0.316900  0.646700  1.0  -0.0476
  C  C1986  1  0.431220  0.332200  0.663100  1.0  0.006
  C  C1987  1  0.444330  0.346000  0.681500  1.0  -0.0424
  C  C1988  1  0.430150  0.360500  0.701500  1.0  0.7313
  C  C1989  1  0.470950  0.345100  0.682100  1.0  -0.0712
  C  C1990  1  0.471820  0.316200  0.647820  1.0  -0.0374
  C  C1991  1  0.484950  0.330800  0.664990  1.0  0.0733
  C  C1992  1  0.513760  0.330300  0.666440  1.0  0.067
  C  C1993  1  0.528350  0.315770  0.649780  1.0  -0.0701
  C  C1994  1  0.554640  0.315280  0.651160  1.0  -0.1304
  C  C1995  1  0.569790  0.297800  0.634850  1.0  0.7181
  C  C1996  1  0.567150  0.329610  0.669200  1.0  0.0039
  C  C1997  1  0.552460  0.343610  0.686620  1.0  -0.1394
  C  C1998  1  0.565860  0.357410  0.707860  1.0  0.7546
  C  C1999  1  0.526260  0.343500  0.685320  1.0  -0.0677
  C  C2000  1  0.246300  0.456960  0.568490  1.0  0.7421
  C  C2001  1  0.247200  0.481340  0.553760  1.0  -0.1539
  C  C2002  1  0.247500  0.504210  0.566860  1.0  -0.0542
  C  C2003  1  0.249000  0.526430  0.553680  1.0  -0.1121
  C  C2004  1  0.249200  0.550690  0.568380  1.0  0.7282
  C  C2005  1  0.250000  0.526620  0.527500  1.0  -0.0979
  C  C2006  1  0.249000  0.503830  0.514020  1.0  0.0467
  C  C2007  1  0.248400  0.481180  0.527600  1.0  -0.0972
  C  C2008  1  0.302200  0.380050  0.438240  1.0  0.7432
  C  C2009  1  0.831720  0.738300  0.124200  1.0  0.6615
  C  C2010  1  0.803780  0.731700  0.123300  1.0  -0.1652
  C  C2011  1  0.796710  0.706200  0.124200  1.0  -0.0059
  C  C2012  1  0.771350  0.699740  0.122700  1.0  -0.129
  C  C2013  1  0.764900  0.671820  0.122200  1.0  0.7115
  C  C2014  1  0.753010  0.718600  0.121100  1.0  -0.0511
  C  C2015  1  0.785240  0.750420  0.121200  1.0  -0.0627
  C  C2016  1  0.759660  0.744270  0.120600  1.0  -0.0823
  C  C2017  1  0.739800  0.764540  0.119500  1.0  0.0344
  C  C2018  1  0.714330  0.758580  0.118100  1.0  -0.1016
  C  C2019  1  0.745900  0.790450  0.119300  1.0  -0.0949
  C  C2020  1  0.727300  0.808930  0.117000  1.0  -0.1293
  C  C2021  1  0.733700  0.836800  0.116600  1.0  0.7253
  C  C2022  1  0.702600  0.802200  0.115500  1.0  -0.0697
  C  C2023  1  0.695690  0.777050  0.117000  1.0  -0.1446
  C  C2024  1  0.668020  0.770100  0.116400  1.0  0.7218
  C  C2025  1  0.855890  0.802180  0.075470  1.0  0.7228
  C  C2026  1  0.841540  0.822380  0.061340  1.0  -0.1472
  C  C2027  1  0.825840  0.838910  0.074520  1.0  0.0052
  C  C2028  1  0.810990  0.855890  0.060730  1.0  -0.1471
  C  C2029  1  0.792290  0.872510  0.074290  1.0  0.7572
  C  C2030  1  0.812910  0.857110  0.034540  1.0  -0.0616
  C  C2031  1  0.843030  0.823340  0.034950  1.0  -0.074
  C  C2032  1  0.829040  0.840800  0.021500  1.0  0.0265
  C  C2033  1  0.830820  0.842410  0.992690  1.0  0.1552
  C  C2034  1  0.816950  0.860210  0.979000  1.0  -0.0357
  C  C2035  1  0.818870  0.861810  0.952560  1.0  -0.0006
  C  C2036  1  0.834700  0.845430  0.939610  1.0  -0.0063
  C  C2037  1  0.847400  0.826800  0.952890  1.0  0.0437
  C  C2038  1  0.862000  0.807200  0.938800  1.0  0.7063
  C  C2039  1  0.845300  0.825300  0.978760  1.0  -0.0732
  C  C2040  1  0.931000  0.798800  0.129500  1.0  0.7275
  C  C2041  1  0.945100  0.816900  0.146700  1.0  -0.0476
  C  C2042  1  0.931220  0.832200  0.163100  1.0  0.006
  C  C2043  1  0.944330  0.846000  0.181500  1.0  -0.0424
  C  C2044  1  0.930150  0.860500  0.201500  1.0  0.7313
  C  C2045  1  0.970950  0.845100  0.182100  1.0  -0.0712
  C  C2046  1  0.971820  0.816200  0.147820  1.0  -0.0374
  C  C2047  1  0.984950  0.830800  0.164990  1.0  0.0766
  C  C2048  1  0.013760  0.830300  0.166440  1.0  0.067
  C  C2049  1  0.028350  0.815770  0.149780  1.0  -0.0701
  C  C2050  1  0.054640  0.815280  0.151160  1.0  -0.1304
  C  C2051  1  0.069790  0.797800  0.134850  1.0  0.7181
  C  C2052  1  0.067150  0.829610  0.169200  1.0  0.0039
  C  C2053  1  0.052460  0.843610  0.186620  1.0  -0.1394
  C  C2054  1  0.065860  0.857410  0.207860  1.0  0.7546
  C  C2055  1  0.026260  0.843500  0.185320  1.0  -0.0677
  C  C2056  1  0.746300  0.956960  0.068490  1.0  0.7421
  C  C2057  1  0.747200  0.981340  0.053760  1.0  -0.1539
  C  C2058  1  0.747500  0.004210  0.066860  1.0  -0.0542
  C  C2059  1  0.749000  0.026430  0.053680  1.0  -0.1121
  C  C2060  1  0.749200  0.050690  0.068380  1.0  0.7282
  C  C2061  1  0.750000  0.026620  0.027500  1.0  -0.0979
  C  C2062  1  0.749000  0.003830  0.014020  1.0  0.0467
  C  C2063  1  0.748400  0.981180  0.027600  1.0  -0.0972
  C  C2064  1  0.802200  0.880050  0.938240  1.0  0.7432
  C  C2065  1  0.668280  0.738300  0.875800  1.0  0.6613
  C  C2066  1  0.696220  0.731700  0.876700  1.0  -0.1655
  C  C2067  1  0.703290  0.706200  0.875800  1.0  -0.0056
  C  C2068  1  0.728650  0.699740  0.877300  1.0  -0.1297
  C  C2069  1  0.735100  0.671820  0.877800  1.0  0.7107
  C  C2070  1  0.746990  0.718600  0.878900  1.0  -0.0518
  C  C2071  1  0.714760  0.750420  0.878800  1.0  -0.0627
  C  C2072  1  0.740340  0.744270  0.879400  1.0  -0.083
  C  C2073  1  0.760200  0.764540  0.880500  1.0  0.0341
  C  C2074  1  0.785670  0.758580  0.881900  1.0  -0.101
  C  C2075  1  0.754100  0.790450  0.880700  1.0  -0.0946
  C  C2076  1  0.772700  0.808930  0.883000  1.0  -0.1278
  C  C2077  1  0.766300  0.836800  0.883400  1.0  0.724
  C  C2078  1  0.797400  0.802200  0.884500  1.0  -0.0691
  C  C2079  1  0.804310  0.777050  0.883000  1.0  -0.1442
  C  C2080  1  0.831980  0.770100  0.883600  1.0  0.7217
  C  C2081  1  0.644110  0.802180  0.924530  1.0  0.7227
  C  C2082  1  0.658460  0.822380  0.938660  1.0  -0.1479
  C  C2083  1  0.674160  0.838910  0.925480  1.0  0.0087
  C  C2084  1  0.689010  0.855890  0.939270  1.0  -0.1467
  C  C2085  1  0.707710  0.872510  0.925710  1.0  0.7566
  C  C2086  1  0.687090  0.857110  0.965460  1.0  -0.0619
  C  C2087  1  0.656970  0.823340  0.965050  1.0  -0.0758
  C  C2088  1  0.670960  0.840800  0.978500  1.0  0.0261
  C  C2089  1  0.669180  0.842410  0.007310  1.0  0.1535
  C  C2090  1  0.683050  0.860210  0.021000  1.0  -0.0368
  C  C2091  1  0.681130  0.861810  0.047440  1.0  -0.0
  C  C2092  1  0.665300  0.845430  0.060390  1.0  -0.0073
  C  C2093  1  0.652600  0.826800  0.047110  1.0  0.0433
  C  C2094  1  0.638000  0.807200  0.061200  1.0  0.7052
  C  C2095  1  0.654700  0.825300  0.021240  1.0  -0.0727
  C  C2096  1  0.569000  0.798800  0.870500  1.0  0.726
  C  C2097  1  0.554900  0.816900  0.853300  1.0  -0.048
  C  C2098  1  0.568780  0.832200  0.836900  1.0  0.0081
  C  C2099  1  0.555670  0.846000  0.818500  1.0  -0.0427
  C  C2100  1  0.569850  0.860500  0.798500  1.0  0.7307
  C  C2101  1  0.529050  0.845100  0.817900  1.0  -0.0717
  C  C2102  1  0.528180  0.816200  0.852180  1.0  -0.0375
  C  C2103  1  0.515050  0.830800  0.835010  1.0  0.0723
  C  C2104  1  0.486240  0.830300  0.833560  1.0  0.0671
  C  C2105  1  0.471650  0.815770  0.850220  1.0  -0.0702
  C  C2106  1  0.445360  0.815280  0.848840  1.0  -0.1293
  C  C2107  1  0.430210  0.797800  0.865150  1.0  0.7173
  C  C2108  1  0.432850  0.829610  0.830800  1.0  0.0019
  C  C2109  1  0.447540  0.843610  0.813380  1.0  -0.1398
  C  C2110  1  0.434140  0.857410  0.792140  1.0  0.7555
  C  C2111  1  0.473740  0.843500  0.814680  1.0  -0.0659
  C  C2112  1  0.753700  0.956960  0.931510  1.0  0.7416
  C  C2113  1  0.752800  0.981340  0.946240  1.0  -0.1537
  C  C2114  1  0.752500  0.004210  0.933140  1.0  -0.0537
  C  C2115  1  0.751000  0.026430  0.946320  1.0  -0.1123
  C  C2116  1  0.750800  0.050690  0.931620  1.0  0.7285
  C  C2117  1  0.750000  0.026620  0.972500  1.0  -0.0981
  C  C2118  1  0.751000  0.003830  0.985980  1.0  0.0465
  C  C2119  1  0.751600  0.981180  0.972400  1.0  -0.0976
  C  C2120  1  0.697800  0.880050  0.061760  1.0  0.7431
  C  C2121  1  0.168280  0.238300  0.375800  1.0  0.6613
  C  C2122  1  0.196220  0.231700  0.376700  1.0  -0.1655
  C  C2123  1  0.203290  0.206200  0.375800  1.0  -0.0056
  C  C2124  1  0.228650  0.199740  0.377300  1.0  -0.1297
  C  C2125  1  0.235100  0.171820  0.377800  1.0  0.7107
  C  C2126  1  0.246990  0.218600  0.378900  1.0  -0.0518
  C  C2127  1  0.214760  0.250420  0.378800  1.0  -0.0627
  C  C2128  1  0.240340  0.244270  0.379400  1.0  -0.083
  C  C2129  1  0.260200  0.264540  0.380500  1.0  0.0341
  C  C2130  1  0.285670  0.258580  0.381900  1.0  -0.101
  C  C2131  1  0.254100  0.290450  0.380700  1.0  -0.0946
  C  C2132  1  0.272700  0.308930  0.383000  1.0  -0.1278
  C  C2133  1  0.266300  0.336800  0.383400  1.0  0.724
  C  C2134  1  0.297400  0.302200  0.384500  1.0  -0.0691
  C  C2135  1  0.304310  0.277050  0.383000  1.0  -0.1442
  C  C2136  1  0.331980  0.270100  0.383600  1.0  0.7217
  C  C2137  1  0.144110  0.302180  0.424530  1.0  0.7227
  C  C2138  1  0.158460  0.322380  0.438660  1.0  -0.1479
  C  C2139  1  0.174160  0.338910  0.425480  1.0  0.0087
  C  C2140  1  0.189010  0.355890  0.439270  1.0  -0.1467
  C  C2141  1  0.207710  0.372510  0.425710  1.0  0.7566
  C  C2142  1  0.187090  0.357110  0.465460  1.0  -0.0619
  C  C2143  1  0.156970  0.323340  0.465050  1.0  -0.0758
  C  C2144  1  0.170960  0.340800  0.478500  1.0  0.0261
  C  C2145  1  0.169180  0.342410  0.507310  1.0  0.1637
  C  C2146  1  0.183050  0.360210  0.521000  1.0  -0.0376
  C  C2147  1  0.181130  0.361810  0.547440  1.0  -0.0
  C  C2148  1  0.165300  0.345430  0.560390  1.0  -0.0073
  C  C2149  1  0.152600  0.326800  0.547110  1.0  0.0433
  C  C2150  1  0.138000  0.307200  0.561200  1.0  0.7052
  C  C2151  1  0.154700  0.325300  0.521240  1.0  -0.0727
  C  C2152  1  0.069000  0.298800  0.370500  1.0  0.726
  C  C2153  1  0.054900  0.316900  0.353300  1.0  -0.048
  C  C2154  1  0.068780  0.332200  0.336900  1.0  0.0081
  C  C2155  1  0.055670  0.346000  0.318500  1.0  -0.0427
  C  C2156  1  0.069850  0.360500  0.298500  1.0  0.7307
  C  C2157  1  0.029050  0.345100  0.317900  1.0  -0.0717
  C  C2158  1  0.028180  0.316200  0.352180  1.0  -0.0375
  C  C2159  1  0.015050  0.330800  0.335010  1.0  0.0758
  C  C2160  1  0.986240  0.330300  0.333560  1.0  0.0671
  C  C2161  1  0.971650  0.315770  0.350220  1.0  -0.0702
  C  C2162  1  0.945360  0.315280  0.348840  1.0  -0.1293
  C  C2163  1  0.930210  0.297800  0.365150  1.0  0.7173
  C  C2164  1  0.932850  0.329610  0.330800  1.0  0.0019
  C  C2165  1  0.947540  0.343610  0.313380  1.0  -0.1398
  C  C2166  1  0.934140  0.357410  0.292140  1.0  0.7555
  C  C2167  1  0.973740  0.343500  0.314680  1.0  -0.0659
  C  C2168  1  0.253700  0.456960  0.431510  1.0  0.7416
  C  C2169  1  0.252800  0.481340  0.446240  1.0  -0.1537
  C  C2170  1  0.252500  0.504210  0.433140  1.0  -0.0537
  C  C2171  1  0.251000  0.526430  0.446320  1.0  -0.1123
  C  C2172  1  0.250800  0.550690  0.431620  1.0  0.7285
  C  C2173  1  0.250000  0.526620  0.472500  1.0  -0.0981
  C  C2174  1  0.251000  0.503830  0.485980  1.0  0.0465
  C  C2175  1  0.251600  0.481180  0.472400  1.0  -0.0976
  C  C2176  1  0.197800  0.380050  0.561760  1.0  0.7431
  C  C2177  1  0.168280  0.761700  0.124200  1.0  0.6608
  C  C2178  1  0.196220  0.768300  0.123300  1.0  -0.1652
  C  C2179  1  0.203290  0.793800  0.124200  1.0  -0.0049
  C  C2180  1  0.228650  0.800260  0.122700  1.0  -0.1299
  C  C2181  1  0.235100  0.828180  0.122200  1.0  0.7113
  C  C2182  1  0.246990  0.781400  0.121100  1.0  -0.0526
  C  C2183  1  0.214760  0.749580  0.121200  1.0  -0.0646
  C  C2184  1  0.240340  0.755730  0.120600  1.0  -0.0829
  C  C2185  1  0.260200  0.735460  0.119500  1.0  0.0337
  C  C2186  1  0.285670  0.741420  0.118100  1.0  -0.1015
  C  C2187  1  0.254100  0.709550  0.119300  1.0  -0.0945
  C  C2188  1  0.272700  0.691070  0.117000  1.0  -0.1279
  C  C2189  1  0.266300  0.663200  0.116600  1.0  0.7241
  C  C2190  1  0.297400  0.697800  0.115500  1.0  -0.0682
  C  C2191  1  0.304310  0.722950  0.117000  1.0  -0.1442
  C  C2192  1  0.331980  0.729900  0.116400  1.0  0.721
  C  C2193  1  0.144110  0.697820  0.075470  1.0  0.7228
  C  C2194  1  0.158460  0.677620  0.061340  1.0  -0.1471
  C  C2195  1  0.174160  0.661090  0.074520  1.0  0.0061
  C  C2196  1  0.189010  0.644110  0.060730  1.0  -0.1467
  C  C2197  1  0.207710  0.627490  0.074290  1.0  0.7568
  C  C2198  1  0.187090  0.642890  0.034540  1.0  -0.0609
  C  C2199  1  0.156970  0.676660  0.034950  1.0  -0.0748
  C  C2200  1  0.170960  0.659200  0.021500  1.0  0.0262
  C  C2201  1  0.169180  0.657590  0.992690  1.0  0.1564
  C  C2202  1  0.183050  0.639790  0.979000  1.0  -0.0457
  C  C2203  1  0.181130  0.638190  0.952560  1.0  -0.0006
  C  C2204  1  0.165300  0.654570  0.939610  1.0  -0.0062
  C  C2205  1  0.152600  0.673200  0.952890  1.0  0.0437
  C  C2206  1  0.138000  0.692800  0.938800  1.0  0.7067
  C  C2207  1  0.154700  0.674700  0.978760  1.0  -0.0737
  C  C2208  1  0.069000  0.701200  0.129500  1.0  0.7261
  C  C2209  1  0.054900  0.683100  0.146700  1.0  -0.0472
  C  C2210  1  0.068780  0.667800  0.163100  1.0  0.0084
  C  C2211  1  0.055670  0.654000  0.181500  1.0  -0.0427
  C  C2212  1  0.069850  0.639500  0.201500  1.0  0.731
  C  C2213  1  0.029050  0.654900  0.182100  1.0  -0.0722
  C  C2214  1  0.028180  0.683800  0.147820  1.0  -0.0363
  C  C2215  1  0.015050  0.669200  0.164990  1.0  0.0762
  C  C2216  1  0.986240  0.669700  0.166440  1.0  0.0675
  C  C2217  1  0.971650  0.684230  0.149780  1.0  -0.07
  C  C2218  1  0.945360  0.684720  0.151160  1.0  -0.1304
  C  C2219  1  0.930210  0.702200  0.134850  1.0  0.7187
  C  C2220  1  0.932850  0.670390  0.169200  1.0  0.002
  C  C2221  1  0.947540  0.656390  0.186620  1.0  -0.1396
  C  C2222  1  0.934140  0.642590  0.207860  1.0  0.7549
  C  C2223  1  0.973740  0.656500  0.185320  1.0  -0.0681
  C  C2224  1  0.253700  0.543040  0.068490  1.0  0.7412
  C  C2225  1  0.252800  0.518660  0.053760  1.0  -0.1534
  C  C2226  1  0.252500  0.495790  0.066860  1.0  -0.0538
  C  C2227  1  0.251000  0.473570  0.053680  1.0  -0.112
  C  C2228  1  0.250800  0.449310  0.068380  1.0  0.7286
  C  C2229  1  0.250000  0.473380  0.027500  1.0  -0.0968
  C  C2230  1  0.251000  0.496170  0.014020  1.0  0.0467
  C  C2231  1  0.251600  0.518820  0.027600  1.0  -0.0989
  C  C2232  1  0.197800  0.619950  0.938240  1.0  0.7429
  C  C2233  1  0.668280  0.261700  0.624200  1.0  0.6608
  C  C2234  1  0.696220  0.268300  0.623300  1.0  -0.1652
  C  C2235  1  0.703290  0.293800  0.624200  1.0  -0.0049
  C  C2236  1  0.728650  0.300260  0.622700  1.0  -0.1299
  C  C2237  1  0.735100  0.328180  0.622200  1.0  0.7113
  C  C2238  1  0.746990  0.281400  0.621100  1.0  -0.0526
  C  C2239  1  0.714760  0.249580  0.621200  1.0  -0.0646
  C  C2240  1  0.740340  0.255730  0.620600  1.0  -0.0829
  C  C2241  1  0.760200  0.235460  0.619500  1.0  0.0337
  C  C2242  1  0.785670  0.241420  0.618100  1.0  -0.1015
  C  C2243  1  0.754100  0.209550  0.619300  1.0  -0.0945
  C  C2244  1  0.772700  0.191070  0.617000  1.0  -0.1279
  C  C2245  1  0.766300  0.163200  0.616600  1.0  0.7241
  C  C2246  1  0.797400  0.197800  0.615500  1.0  -0.0682
  C  C2247  1  0.804310  0.222950  0.617000  1.0  -0.1442
  C  C2248  1  0.831980  0.229900  0.616400  1.0  0.721
  C  C2249  1  0.644110  0.197820  0.575470  1.0  0.7228
  C  C2250  1  0.658460  0.177620  0.561340  1.0  -0.1471
  C  C2251  1  0.674160  0.161090  0.574520  1.0  0.0061
  C  C2252  1  0.689010  0.144110  0.560730  1.0  -0.1467
  C  C2253  1  0.707710  0.127490  0.574290  1.0  0.7568
  C  C2254  1  0.687090  0.142890  0.534540  1.0  -0.0609
  C  C2255  1  0.656970  0.176660  0.534950  1.0  -0.0748
  C  C2256  1  0.670960  0.159200  0.521500  1.0  0.0262
  C  C2257  1  0.669180  0.157590  0.492690  1.0  0.1638
  C  C2258  1  0.683050  0.139790  0.479000  1.0  -0.0366
  C  C2259  1  0.681130  0.138190  0.452560  1.0  -0.0006
  C  C2260  1  0.665300  0.154570  0.439610  1.0  -0.0062
  C  C2261  1  0.652600  0.173200  0.452890  1.0  0.0437
  C  C2262  1  0.638000  0.192800  0.438800  1.0  0.7067
  C  C2263  1  0.654700  0.174700  0.478760  1.0  -0.0737
  C  C2264  1  0.569000  0.201200  0.629500  1.0  0.7261
  C  C2265  1  0.554900  0.183100  0.646700  1.0  -0.0472
  C  C2266  1  0.568780  0.167800  0.663100  1.0  0.0084
  C  C2267  1  0.555670  0.154000  0.681500  1.0  -0.0427
  C  C2268  1  0.569850  0.139500  0.701500  1.0  0.731
  C  C2269  1  0.529050  0.154900  0.682100  1.0  -0.0722
  C  C2270  1  0.528180  0.183800  0.647820  1.0  -0.0363
  C  C2271  1  0.515050  0.169200  0.664990  1.0  0.0727
  C  C2272  1  0.486240  0.169700  0.666440  1.0  0.0675
  C  C2273  1  0.471650  0.184230  0.649780  1.0  -0.07
  C  C2274  1  0.445360  0.184720  0.651160  1.0  -0.1304
  C  C2275  1  0.430210  0.202200  0.634850  1.0  0.7187
  C  C2276  1  0.432850  0.170390  0.669200  1.0  0.002
  C  C2277  1  0.447540  0.156390  0.686620  1.0  -0.1396
  C  C2278  1  0.434140  0.142590  0.707860  1.0  0.7549
  C  C2279  1  0.473740  0.156500  0.685320  1.0  -0.0681
  C  C2280  1  0.753700  0.043040  0.568490  1.0  0.7412
  C  C2281  1  0.752800  0.018660  0.553760  1.0  -0.1534
  C  C2282  1  0.752500  0.995790  0.566860  1.0  -0.0538
  C  C2283  1  0.751000  0.973570  0.553680  1.0  -0.112
  C  C2284  1  0.750800  0.949310  0.568380  1.0  0.7286
  C  C2285  1  0.750000  0.973380  0.527500  1.0  -0.0968
  C  C2286  1  0.751000  0.996170  0.514020  1.0  0.0467
  C  C2287  1  0.751600  0.018820  0.527600  1.0  -0.0989
  C  C2288  1  0.697800  0.119950  0.438240  1.0  0.7429
  C  C2289  1  0.375800  0.831720  0.261700  1.0  0.6632
  C  C2290  1  0.376700  0.803780  0.268300  1.0  -0.1652
  C  C2291  1  0.375800  0.796710  0.293800  1.0  -0.0076
  C  C2292  1  0.377300  0.771350  0.300260  1.0  -0.1307
  C  C2293  1  0.377800  0.764900  0.328180  1.0  0.7116
  C  C2294  1  0.378900  0.753010  0.281400  1.0  -0.0512
  C  C2295  1  0.378800  0.785240  0.249580  1.0  -0.065
  C  C2296  1  0.379400  0.759660  0.255730  1.0  -0.0817
  C  C2297  1  0.380500  0.739800  0.235460  1.0  0.0341
  C  C2298  1  0.381900  0.714330  0.241420  1.0  -0.1016
  C  C2299  1  0.380700  0.745900  0.209550  1.0  -0.0946
  C  C2300  1  0.383000  0.727300  0.191070  1.0  -0.1271
  C  C2301  1  0.383400  0.733700  0.163200  1.0  0.7243
  C  C2302  1  0.384500  0.702600  0.197800  1.0  -0.0695
  C  C2303  1  0.383000  0.695690  0.222950  1.0  -0.1458
  C  C2304  1  0.383600  0.668020  0.229900  1.0  0.7222
  C  C2305  1  0.424530  0.855890  0.197820  1.0  0.722
  C  C2306  1  0.438660  0.841540  0.177620  1.0  -0.1463
  C  C2307  1  0.425480  0.825840  0.161090  1.0  0.0068
  C  C2308  1  0.439270  0.810990  0.144110  1.0  -0.1482
  C  C2309  1  0.425710  0.792290  0.127490  1.0  0.7566
  C  C2310  1  0.465460  0.812910  0.142890  1.0  -0.0609
  C  C2311  1  0.465050  0.843030  0.176660  1.0  -0.075
  C  C2312  1  0.478500  0.829040  0.159200  1.0  0.026
  C  C2313  1  0.507310  0.830820  0.157590  1.0  0.1639
  C  C2314  1  0.521000  0.816950  0.139790  1.0  -0.0363
  C  C2315  1  0.547440  0.818870  0.138190  1.0  -0.0011
  C  C2316  1  0.560390  0.834700  0.154570  1.0  -0.0046
  C  C2317  1  0.547110  0.847400  0.173200  1.0  0.0441
  C  C2318  1  0.561200  0.862000  0.192800  1.0  0.7049
  C  C2319  1  0.521240  0.845300  0.174700  1.0  -0.0739
  C  C2320  1  0.370500  0.931000  0.201200  1.0  0.7296
  C  C2321  1  0.353300  0.945100  0.183100  1.0  -0.0453
  C  C2322  1  0.336900  0.931220  0.167800  1.0  0.0078
  C  C2323  1  0.318500  0.944330  0.154000  1.0  -0.0438
  C  C2324  1  0.298500  0.930150  0.139500  1.0  0.731
  C  C2325  1  0.317900  0.970950  0.154900  1.0  -0.0722
  C  C2326  1  0.352180  0.971820  0.183800  1.0  -0.0394
  C  C2327  1  0.335010  0.984950  0.169200  1.0  0.0754
  C  C2328  1  0.333560  0.013760  0.169700  1.0  0.0673
  C  C2329  1  0.350220  0.028350  0.184230  1.0  -0.0698
  C  C2330  1  0.348840  0.054640  0.184720  1.0  -0.1291
  C  C2331  1  0.365150  0.069790  0.202200  1.0  0.7169
  C  C2332  1  0.330800  0.067150  0.170390  1.0  0.0016
  C  C2333  1  0.313380  0.052460  0.156390  1.0  -0.1408
  C  C2334  1  0.292140  0.065860  0.142590  1.0  0.7556
  C  C2335  1  0.314680  0.026260  0.156500  1.0  -0.0682
  C  C2336  1  0.431510  0.746300  0.043040  1.0  0.7425
  C  C2337  1  0.446240  0.747200  0.018660  1.0  -0.1567
  C  C2338  1  0.433140  0.747500  0.995790  1.0  -0.0547
  C  C2339  1  0.446320  0.749000  0.973570  1.0  -0.1138
  C  C2340  1  0.431620  0.749200  0.949310  1.0  0.7306
  C  C2341  1  0.472500  0.750000  0.973380  1.0  -0.099
  C  C2342  1  0.485980  0.749000  0.996170  1.0  0.0463
  C  C2343  1  0.472400  0.748400  0.018820  1.0  -0.0978
  C  C2344  1  0.561760  0.802200  0.119950  1.0  0.7473
  C  C2345  1  0.875800  0.331720  0.761700  1.0  0.6632
  C  C2346  1  0.876700  0.303780  0.768300  1.0  -0.1652
  C  C2347  1  0.875800  0.296710  0.793800  1.0  -0.0076
  C  C2348  1  0.877300  0.271350  0.800260  1.0  -0.1307
  C  C2349  1  0.877800  0.264900  0.828180  1.0  0.7116
  C  C2350  1  0.878900  0.253010  0.781400  1.0  -0.0512
  C  C2351  1  0.878800  0.285240  0.749580  1.0  -0.065
  C  C2352  1  0.879400  0.259660  0.755730  1.0  -0.0817
  C  C2353  1  0.880500  0.239800  0.735460  1.0  0.0341
  C  C2354  1  0.881900  0.214330  0.741420  1.0  -0.1016
  C  C2355  1  0.880700  0.245900  0.709550  1.0  -0.0946
  C  C2356  1  0.883000  0.227300  0.691070  1.0  -0.1271
  C  C2357  1  0.883400  0.233700  0.663200  1.0  0.7243
  C  C2358  1  0.884500  0.202600  0.697800  1.0  -0.0695
  C  C2359  1  0.883000  0.195690  0.722950  1.0  -0.1458
  C  C2360  1  0.883600  0.168020  0.729900  1.0  0.7222
  C  C2361  1  0.924530  0.355890  0.697820  1.0  0.722
  C  C2362  1  0.938660  0.341540  0.677620  1.0  -0.1463
  C  C2363  1  0.925480  0.325840  0.661090  1.0  0.0068
  C  C2364  1  0.939270  0.310990  0.644110  1.0  -0.1482
  C  C2365  1  0.925710  0.292290  0.627490  1.0  0.7566
  C  C2366  1  0.965460  0.312910  0.642890  1.0  -0.0609
  C  C2367  1  0.965050  0.343030  0.676660  1.0  -0.075
  C  C2368  1  0.978500  0.329040  0.659200  1.0  0.026
  C  C2369  1  0.007310  0.330820  0.657590  1.0  0.1546
  C  C2370  1  0.021000  0.316950  0.639790  1.0  -0.0455
  C  C2371  1  0.047440  0.318870  0.638190  1.0  -0.0011
  C  C2372  1  0.060390  0.334700  0.654570  1.0  -0.0046
  C  C2373  1  0.047110  0.347400  0.673200  1.0  0.0441
  C  C2374  1  0.061200  0.362000  0.692800  1.0  0.7049
  C  C2375  1  0.021240  0.345300  0.674700  1.0  -0.0739
  C  C2376  1  0.870500  0.431000  0.701200  1.0  0.7296
  C  C2377  1  0.853300  0.445100  0.683100  1.0  -0.0453
  C  C2378  1  0.836900  0.431220  0.667800  1.0  0.0078
  C  C2379  1  0.818500  0.444330  0.654000  1.0  -0.0438
  C  C2380  1  0.798500  0.430150  0.639500  1.0  0.731
  C  C2381  1  0.817900  0.470950  0.654900  1.0  -0.0722
  C  C2382  1  0.852180  0.471820  0.683800  1.0  -0.0394
  C  C2383  1  0.835010  0.484950  0.669200  1.0  0.0717
  C  C2384  1  0.833560  0.513760  0.669700  1.0  0.0673
  C  C2385  1  0.850220  0.528350  0.684230  1.0  -0.0698
  C  C2386  1  0.848840  0.554640  0.684720  1.0  -0.1291
  C  C2387  1  0.865150  0.569790  0.702200  1.0  0.7169
  C  C2388  1  0.830800  0.567150  0.670390  1.0  0.0016
  C  C2389  1  0.813380  0.552460  0.656390  1.0  -0.1408
  C  C2390  1  0.792140  0.565860  0.642590  1.0  0.7556
  C  C2391  1  0.814680  0.526260  0.656500  1.0  -0.0682
  C  C2392  1  0.931510  0.246300  0.543040  1.0  0.7425
  C  C2393  1  0.946240  0.247200  0.518660  1.0  -0.1567
  C  C2394  1  0.933140  0.247500  0.495790  1.0  -0.0547
  C  C2395  1  0.946320  0.249000  0.473570  1.0  -0.1138
  C  C2396  1  0.931620  0.249200  0.449310  1.0  0.7306
  C  C2397  1  0.972500  0.250000  0.473380  1.0  -0.099
  C  C2398  1  0.985980  0.249000  0.496170  1.0  0.0463
  C  C2399  1  0.972400  0.248400  0.518820  1.0  -0.0978
  C  C2400  1  0.061760  0.302200  0.619950  1.0  0.7473
  C  C2401  1  0.624200  0.331720  0.238300  1.0  0.6639
  C  C2402  1  0.623300  0.303780  0.231700  1.0  -0.1664
  C  C2403  1  0.624200  0.296710  0.206200  1.0  -0.0068
  C  C2404  1  0.622700  0.271350  0.199740  1.0  -0.1329
  C  C2405  1  0.622200  0.264900  0.171820  1.0  0.7119
  C  C2406  1  0.621100  0.253010  0.218600  1.0  -0.0508
  C  C2407  1  0.621200  0.285240  0.250420  1.0  -0.0654
  C  C2408  1  0.620600  0.259660  0.244270  1.0  -0.0816
  C  C2409  1  0.619500  0.239800  0.264540  1.0  0.0338
  C  C2410  1  0.618100  0.214330  0.258580  1.0  -0.1008
  C  C2411  1  0.619300  0.245900  0.290450  1.0  -0.095
  C  C2412  1  0.617000  0.227300  0.308930  1.0  -0.1283
  C  C2413  1  0.616600  0.233700  0.336800  1.0  0.7259
  C  C2414  1  0.615500  0.202600  0.302200  1.0  -0.0697
  C  C2415  1  0.617000  0.195690  0.277050  1.0  -0.1458
  C  C2416  1  0.616400  0.168020  0.270100  1.0  0.7218
  C  C2417  1  0.575470  0.355890  0.302180  1.0  0.7227
  C  C2418  1  0.561340  0.341540  0.322380  1.0  -0.1467
  C  C2419  1  0.574520  0.325840  0.338910  1.0  0.0087
  C  C2420  1  0.560730  0.310990  0.355890  1.0  -0.1474
  C  C2421  1  0.574290  0.292290  0.372510  1.0  0.7548
  C  C2422  1  0.534540  0.312910  0.357110  1.0  -0.0607
  C  C2423  1  0.534950  0.343030  0.323340  1.0  -0.075
  C  C2424  1  0.521500  0.329040  0.340800  1.0  0.0265
  C  C2425  1  0.492690  0.330820  0.342410  1.0  0.1629
  C  C2426  1  0.479000  0.316950  0.360210  1.0  -0.0366
  C  C2427  1  0.452560  0.318870  0.361810  1.0  -0.0006
  C  C2428  1  0.439610  0.334700  0.345430  1.0  -0.0072
  C  C2429  1  0.452890  0.347400  0.326800  1.0  0.0442
  C  C2430  1  0.438800  0.362000  0.307200  1.0  0.7065
  C  C2431  1  0.478760  0.345300  0.325300  1.0  -0.0736
  C  C2432  1  0.629500  0.431000  0.298800  1.0  0.7289
  C  C2433  1  0.646700  0.445100  0.316900  1.0  -0.0462
  C  C2434  1  0.663100  0.431220  0.332200  1.0  0.0068
  C  C2435  1  0.681500  0.444330  0.346000  1.0  -0.0436
  C  C2436  1  0.701500  0.430150  0.360500  1.0  0.7316
  C  C2437  1  0.682100  0.470950  0.345100  1.0  -0.0708
  C  C2438  1  0.647820  0.471820  0.316200  1.0  -0.0389
  C  C2439  1  0.664990  0.484950  0.330800  1.0  0.0731
  C  C2440  1  0.666440  0.513760  0.330300  1.0  0.0671
  C  C2441  1  0.649780  0.528350  0.315770  1.0  -0.0696
  C  C2442  1  0.651160  0.554640  0.315280  1.0  -0.1292
  C  C2443  1  0.634850  0.569790  0.297800  1.0  0.7177
  C  C2444  1  0.669200  0.567150  0.329610  1.0  0.0024
  C  C2445  1  0.686620  0.552460  0.343610  1.0  -0.1416
  C  C2446  1  0.707860  0.565860  0.357410  1.0  0.7549
  C  C2447  1  0.685320  0.526260  0.343500  1.0  -0.07
  C  C2448  1  0.568490  0.246300  0.456960  1.0  0.741
  C  C2449  1  0.553760  0.247200  0.481340  1.0  -0.1553
  C  C2450  1  0.566860  0.247500  0.504210  1.0  -0.0499
  C  C2451  1  0.553680  0.249000  0.526430  1.0  -0.1145
  C  C2452  1  0.568380  0.249200  0.550690  1.0  0.7329
  C  C2453  1  0.527500  0.250000  0.526620  1.0  -0.1011
  C  C2454  1  0.514020  0.249000  0.503830  1.0  0.0468
  C  C2455  1  0.527600  0.248400  0.481180  1.0  -0.0998
  C  C2456  1  0.438240  0.302200  0.380050  1.0  0.7489
  C  C2457  1  0.124200  0.831720  0.738300  1.0  0.6639
  C  C2458  1  0.123300  0.803780  0.731700  1.0  -0.1664
  C  C2459  1  0.124200  0.796710  0.706200  1.0  -0.0068
  C  C2460  1  0.122700  0.771350  0.699740  1.0  -0.1329
  C  C2461  1  0.122200  0.764900  0.671820  1.0  0.7119
  C  C2462  1  0.121100  0.753010  0.718600  1.0  -0.0508
  C  C2463  1  0.121200  0.785240  0.750420  1.0  -0.0654
  C  C2464  1  0.120600  0.759660  0.744270  1.0  -0.0816
  C  C2465  1  0.119500  0.739800  0.764540  1.0  0.0338
  C  C2466  1  0.118100  0.714330  0.758580  1.0  -0.1008
  C  C2467  1  0.119300  0.745900  0.790450  1.0  -0.095
  C  C2468  1  0.117000  0.727300  0.808930  1.0  -0.1283
  C  C2469  1  0.116600  0.733700  0.836800  1.0  0.7259
  C  C2470  1  0.115500  0.702600  0.802200  1.0  -0.0697
  C  C2471  1  0.117000  0.695690  0.777050  1.0  -0.1458
  C  C2472  1  0.116400  0.668020  0.770100  1.0  0.7218
  C  C2473  1  0.075470  0.855890  0.802180  1.0  0.7227
  C  C2474  1  0.061340  0.841540  0.822380  1.0  -0.1467
  C  C2475  1  0.074520  0.825840  0.838910  1.0  0.0087
  C  C2476  1  0.060730  0.810990  0.855890  1.0  -0.1474
  C  C2477  1  0.074290  0.792290  0.872510  1.0  0.7548
  C  C2478  1  0.034540  0.812910  0.857110  1.0  -0.0607
  C  C2479  1  0.034950  0.843030  0.823340  1.0  -0.075
  C  C2480  1  0.021500  0.829040  0.840800  1.0  0.0265
  C  C2481  1  0.992690  0.830820  0.842410  1.0  0.1535
  C  C2482  1  0.979000  0.816950  0.860210  1.0  -0.0345
  C  C2483  1  0.952560  0.818870  0.861810  1.0  -0.0006
  C  C2484  1  0.939610  0.834700  0.845430  1.0  -0.0072
  C  C2485  1  0.952890  0.847400  0.826800  1.0  0.0442
  C  C2486  1  0.938800  0.862000  0.807200  1.0  0.7065
  C  C2487  1  0.978760  0.845300  0.825300  1.0  -0.0736
  C  C2488  1  0.129500  0.931000  0.798800  1.0  0.7289
  C  C2489  1  0.146700  0.945100  0.816900  1.0  -0.0462
  C  C2490  1  0.163100  0.931220  0.832200  1.0  0.0068
  C  C2491  1  0.181500  0.944330  0.846000  1.0  -0.0436
  C  C2492  1  0.201500  0.930150  0.860500  1.0  0.7316
  C  C2493  1  0.182100  0.970950  0.845100  1.0  -0.0708
  C  C2494  1  0.147820  0.971820  0.816200  1.0  -0.0389
  C  C2495  1  0.164990  0.984950  0.830800  1.0  0.0767
  C  C2496  1  0.166440  0.013760  0.830300  1.0  0.0671
  C  C2497  1  0.149780  0.028350  0.815770  1.0  -0.0696
  C  C2498  1  0.151160  0.054640  0.815280  1.0  -0.1292
  C  C2499  1  0.134850  0.069790  0.797800  1.0  0.7177
  C  C2500  1  0.169200  0.067150  0.829610  1.0  0.0024
  C  C2501  1  0.186620  0.052460  0.843610  1.0  -0.1416
  C  C2502  1  0.207860  0.065860  0.857410  1.0  0.7549
  C  C2503  1  0.185320  0.026260  0.843500  1.0  -0.07
  C  C2504  1  0.068490  0.746300  0.956960  1.0  0.741
  C  C2505  1  0.053760  0.747200  0.981340  1.0  -0.1553
  C  C2506  1  0.066860  0.747500  0.004210  1.0  -0.0499
  C  C2507  1  0.053680  0.749000  0.026430  1.0  -0.1145
  C  C2508  1  0.068380  0.749200  0.050690  1.0  0.7329
  C  C2509  1  0.027500  0.750000  0.026620  1.0  -0.1011
  C  C2510  1  0.014020  0.749000  0.003830  1.0  0.0468
  C  C2511  1  0.027600  0.748400  0.981180  1.0  -0.0998
  C  C2512  1  0.938240  0.802200  0.880050  1.0  0.7489
  C  C2513  1  0.875800  0.668280  0.738300  1.0  0.6626
  C  C2514  1  0.876700  0.696220  0.731700  1.0  -0.1656
  C  C2515  1  0.875800  0.703290  0.706200  1.0  -0.0072
  C  C2516  1  0.877300  0.728650  0.699740  1.0  -0.1325
  C  C2517  1  0.877800  0.735100  0.671820  1.0  0.7119
  C  C2518  1  0.878900  0.746990  0.718600  1.0  -0.0506
  C  C2519  1  0.878800  0.714760  0.750420  1.0  -0.0666
  C  C2520  1  0.879400  0.740340  0.744270  1.0  -0.0822
  C  C2521  1  0.880500  0.760200  0.764540  1.0  0.0346
  C  C2522  1  0.881900  0.785670  0.758580  1.0  -0.101
  C  C2523  1  0.880700  0.754100  0.790450  1.0  -0.0943
  C  C2524  1  0.883000  0.772700  0.808930  1.0  -0.1273
  C  C2525  1  0.883400  0.766300  0.836800  1.0  0.7246
  C  C2526  1  0.884500  0.797400  0.802200  1.0  -0.0711
  C  C2527  1  0.883000  0.804310  0.777050  1.0  -0.1458
  C  C2528  1  0.883600  0.831980  0.770100  1.0  0.7224
  C  C2529  1  0.924530  0.644110  0.802180  1.0  0.7223
  C  C2530  1  0.938660  0.658460  0.822380  1.0  -0.1473
  C  C2531  1  0.925480  0.674160  0.838910  1.0  0.0068
  C  C2532  1  0.939270  0.689010  0.855890  1.0  -0.1475
  C  C2533  1  0.925710  0.707710  0.872510  1.0  0.7554
  C  C2534  1  0.965460  0.687090  0.857110  1.0  -0.0597
  C  C2535  1  0.965050  0.656970  0.823340  1.0  -0.075
  C  C2536  1  0.978500  0.670960  0.840800  1.0  0.026
  C  C2537  1  0.007310  0.669180  0.842410  1.0  0.1537
  C  C2538  1  0.021000  0.683050  0.860210  1.0  -0.0363
  C  C2539  1  0.047440  0.681130  0.861810  1.0  -0.001
  C  C2540  1  0.060390  0.665300  0.845430  1.0  -0.0048
  C  C2541  1  0.047110  0.652600  0.826800  1.0  0.0439
  C  C2542  1  0.061200  0.638000  0.807200  1.0  0.7049
  C  C2543  1  0.021240  0.654700  0.825300  1.0  -0.0743
  C  C2544  1  0.870500  0.569000  0.798800  1.0  0.7293
  C  C2545  1  0.853300  0.554900  0.816900  1.0  -0.0452
  C  C2546  1  0.836900  0.568780  0.832200  1.0  0.0076
  C  C2547  1  0.818500  0.555670  0.846000  1.0  -0.044
  C  C2548  1  0.798500  0.569850  0.860500  1.0  0.732
  C  C2549  1  0.817900  0.529050  0.845100  1.0  -0.0727
  C  C2550  1  0.852180  0.528180  0.816200  1.0  -0.0391
  C  C2551  1  0.835010  0.515050  0.830800  1.0  0.0714
  C  C2552  1  0.833560  0.486240  0.830300  1.0  0.0664
  C  C2553  1  0.850220  0.471650  0.815770  1.0  -0.0698
  C  C2554  1  0.848840  0.445360  0.815280  1.0  -0.1287
  C  C2555  1  0.865150  0.430210  0.797800  1.0  0.7166
  C  C2556  1  0.830800  0.432850  0.829610  1.0  0.0029
  C  C2557  1  0.813380  0.447540  0.843610  1.0  -0.1413
  C  C2558  1  0.792140  0.434140  0.857410  1.0  0.7553
  C  C2559  1  0.814680  0.473740  0.843500  1.0  -0.0692
  C  C2560  1  0.931510  0.753700  0.956960  1.0  0.7416
  C  C2561  1  0.946240  0.752800  0.981340  1.0  -0.1554
  C  C2562  1  0.933140  0.752500  0.004210  1.0  -0.0546
  C  C2563  1  0.946320  0.751000  0.026430  1.0  -0.1144
  C  C2564  1  0.931620  0.750800  0.050690  1.0  0.7331
  C  C2565  1  0.972500  0.750000  0.026620  1.0  -0.0995
  C  C2566  1  0.985980  0.751000  0.003830  1.0  0.0462
  C  C2567  1  0.972400  0.751600  0.981180  1.0  -0.0995
  C  C2568  1  0.061760  0.697800  0.880050  1.0  0.7494
  C  C2569  1  0.375800  0.168280  0.238300  1.0  0.6626
  C  C2570  1  0.376700  0.196220  0.231700  1.0  -0.1656
  C  C2571  1  0.375800  0.203290  0.206200  1.0  -0.0072
  C  C2572  1  0.377300  0.228650  0.199740  1.0  -0.1325
  C  C2573  1  0.377800  0.235100  0.171820  1.0  0.7119
  C  C2574  1  0.378900  0.246990  0.218600  1.0  -0.0506
  C  C2575  1  0.378800  0.214760  0.250420  1.0  -0.0666
  C  C2576  1  0.379400  0.240340  0.244270  1.0  -0.0822
  C  C2577  1  0.380500  0.260200  0.264540  1.0  0.0346
  C  C2578  1  0.381900  0.285670  0.258580  1.0  -0.101
  C  C2579  1  0.380700  0.254100  0.290450  1.0  -0.0943
  C  C2580  1  0.383000  0.272700  0.308930  1.0  -0.1273
  C  C2581  1  0.383400  0.266300  0.336800  1.0  0.7246
  C  C2582  1  0.384500  0.297400  0.302200  1.0  -0.0711
  C  C2583  1  0.383000  0.304310  0.277050  1.0  -0.1458
  C  C2584  1  0.383600  0.331980  0.270100  1.0  0.7224
  C  C2585  1  0.424530  0.144110  0.302180  1.0  0.7223
  C  C2586  1  0.438660  0.158460  0.322380  1.0  -0.1473
  C  C2587  1  0.425480  0.174160  0.338910  1.0  0.0068
  C  C2588  1  0.439270  0.189010  0.355890  1.0  -0.1475
  C  C2589  1  0.425710  0.207710  0.372510  1.0  0.7554
  C  C2590  1  0.465460  0.187090  0.357110  1.0  -0.0597
  C  C2591  1  0.465050  0.156970  0.323340  1.0  -0.075
  C  C2592  1  0.478500  0.170960  0.340800  1.0  0.026
  C  C2593  1  0.507310  0.169180  0.342410  1.0  0.1636
  C  C2594  1  0.521000  0.183050  0.360210  1.0  -0.0368
  C  C2595  1  0.547440  0.181130  0.361810  1.0  -0.001
  C  C2596  1  0.560390  0.165300  0.345430  1.0  -0.0048
  C  C2597  1  0.547110  0.152600  0.326800  1.0  0.0439
  C  C2598  1  0.561200  0.138000  0.307200  1.0  0.7049
  C  C2599  1  0.521240  0.154700  0.325300  1.0  -0.0743
  C  C2600  1  0.370500  0.069000  0.298800  1.0  0.7293
  C  C2601  1  0.353300  0.054900  0.316900  1.0  -0.0452
  C  C2602  1  0.336900  0.068780  0.332200  1.0  0.0076
  C  C2603  1  0.318500  0.055670  0.346000  1.0  -0.044
  C  C2604  1  0.298500  0.069850  0.360500  1.0  0.732
  C  C2605  1  0.317900  0.029050  0.345100  1.0  -0.0727
  C  C2606  1  0.352180  0.028180  0.316200  1.0  -0.0391
  C  C2607  1  0.335010  0.015050  0.330800  1.0  0.0749
  C  C2608  1  0.333560  0.986240  0.330300  1.0  0.0664
  C  C2609  1  0.350220  0.971650  0.315770  1.0  -0.0698
  C  C2610  1  0.348840  0.945360  0.315280  1.0  -0.1287
  C  C2611  1  0.365150  0.930210  0.297800  1.0  0.7166
  C  C2612  1  0.330800  0.932850  0.329610  1.0  0.0029
  C  C2613  1  0.313380  0.947540  0.343610  1.0  -0.1413
  C  C2614  1  0.292140  0.934140  0.357410  1.0  0.7553
  C  C2615  1  0.314680  0.973740  0.343500  1.0  -0.0692
  C  C2616  1  0.431510  0.253700  0.456960  1.0  0.7416
  C  C2617  1  0.446240  0.252800  0.481340  1.0  -0.1554
  C  C2618  1  0.433140  0.252500  0.504210  1.0  -0.0546
  C  C2619  1  0.446320  0.251000  0.526430  1.0  -0.1144
  C  C2620  1  0.431620  0.250800  0.550690  1.0  0.7331
  C  C2621  1  0.472500  0.250000  0.526620  1.0  -0.0995
  C  C2622  1  0.485980  0.251000  0.503830  1.0  0.0462
  C  C2623  1  0.472400  0.251600  0.481180  1.0  -0.0995
  C  C2624  1  0.561760  0.197800  0.380050  1.0  0.7494
  C  C2625  1  0.124200  0.168280  0.761700  1.0  0.6633
  C  C2626  1  0.123300  0.196220  0.768300  1.0  -0.1666
  C  C2627  1  0.124200  0.203290  0.793800  1.0  -0.0081
  C  C2628  1  0.122700  0.228650  0.800260  1.0  -0.1317
  C  C2629  1  0.122200  0.235100  0.828180  1.0  0.7123
  C  C2630  1  0.121100  0.246990  0.781400  1.0  -0.0508
  C  C2631  1  0.121200  0.214760  0.749580  1.0  -0.0648
  C  C2632  1  0.120600  0.240340  0.755730  1.0  -0.0817
  C  C2633  1  0.119500  0.260200  0.735460  1.0  0.0334
  C  C2634  1  0.118100  0.285670  0.741420  1.0  -0.1011
  C  C2635  1  0.119300  0.254100  0.709550  1.0  -0.0933
  C  C2636  1  0.117000  0.272700  0.691070  1.0  -0.1284
  C  C2637  1  0.116600  0.266300  0.663200  1.0  0.7254
  C  C2638  1  0.115500  0.297400  0.697800  1.0  -0.0698
  C  C2639  1  0.117000  0.304310  0.722950  1.0  -0.146
  C  C2640  1  0.116400  0.331980  0.729900  1.0  0.7222
  C  C2641  1  0.075470  0.144110  0.697820  1.0  0.7219
  C  C2642  1  0.061340  0.158460  0.677620  1.0  -0.1472
  C  C2643  1  0.074520  0.174160  0.661090  1.0  0.0091
  C  C2644  1  0.060730  0.189010  0.644110  1.0  -0.1479
  C  C2645  1  0.074290  0.207710  0.627490  1.0  0.7557
  C  C2646  1  0.034540  0.187090  0.642890  1.0  -0.0607
  C  C2647  1  0.034950  0.156970  0.676660  1.0  -0.0762
  C  C2648  1  0.021500  0.170960  0.659200  1.0  0.0263
  C  C2649  1  0.992690  0.169180  0.657590  1.0  0.1555
  C  C2650  1  0.979000  0.183050  0.639790  1.0  -0.045
  C  C2651  1  0.952560  0.181130  0.638190  1.0  -0.0011
  C  C2652  1  0.939610  0.165300  0.654570  1.0  -0.0069
  C  C2653  1  0.952890  0.152600  0.673200  1.0  0.0443
  C  C2654  1  0.938800  0.138000  0.692800  1.0  0.7063
  C  C2655  1  0.978760  0.154700  0.674700  1.0  -0.074
  C  C2656  1  0.129500  0.069000  0.701200  1.0  0.7282
  C  C2657  1  0.146700  0.054900  0.683100  1.0  -0.0463
  C  C2658  1  0.163100  0.068780  0.667800  1.0  0.0064
  C  C2659  1  0.181500  0.055670  0.654000  1.0  -0.043
  C  C2660  1  0.201500  0.069850  0.639500  1.0  0.7318
  C  C2661  1  0.182100  0.029050  0.654900  1.0  -0.0715
  C  C2662  1  0.147820  0.028180  0.683800  1.0  -0.0397
  C  C2663  1  0.164990  0.015050  0.669200  1.0  0.0765
  C  C2664  1  0.166440  0.986240  0.669700  1.0  0.067
  C  C2665  1  0.149780  0.971650  0.684230  1.0  -0.0699
  C  C2666  1  0.151160  0.945360  0.684720  1.0  -0.1292
  C  C2667  1  0.134850  0.930210  0.702200  1.0  0.7174
  C  C2668  1  0.169200  0.932850  0.670390  1.0  0.0036
  C  C2669  1  0.186620  0.947540  0.656390  1.0  -0.1407
  C  C2670  1  0.207860  0.934140  0.642590  1.0  0.7549
  C  C2671  1  0.185320  0.973740  0.656500  1.0  -0.0678
  C  C2672  1  0.068490  0.253700  0.543040  1.0  0.7421
  C  C2673  1  0.053760  0.252800  0.518660  1.0  -0.1568
  C  C2674  1  0.066860  0.252500  0.495790  1.0  -0.0499
  C  C2675  1  0.053680  0.251000  0.473570  1.0  -0.1136
  C  C2676  1  0.068380  0.250800  0.449310  1.0  0.7304
  C  C2677  1  0.027500  0.250000  0.473380  1.0  -0.1007
  C  C2678  1  0.014020  0.251000  0.496170  1.0  0.0466
  C  C2679  1  0.027600  0.251600  0.518820  1.0  -0.0997
  C  C2680  1  0.938240  0.197800  0.619950  1.0  0.7477
  C  C2681  1  0.624200  0.668280  0.261700  1.0  0.6633
  C  C2682  1  0.623300  0.696220  0.268300  1.0  -0.1666
  C  C2683  1  0.624200  0.703290  0.293800  1.0  -0.0081
  C  C2684  1  0.622700  0.728650  0.300260  1.0  -0.1317
  C  C2685  1  0.622200  0.735100  0.328180  1.0  0.7123
  C  C2686  1  0.621100  0.746990  0.281400  1.0  -0.0508
  C  C2687  1  0.621200  0.714760  0.249580  1.0  -0.0648
  C  C2688  1  0.620600  0.740340  0.255730  1.0  -0.0817
  C  C2689  1  0.619500  0.760200  0.235460  1.0  0.0334
  C  C2690  1  0.618100  0.785670  0.241420  1.0  -0.1011
  C  C2691  1  0.619300  0.754100  0.209550  1.0  -0.0933
  C  C2692  1  0.617000  0.772700  0.191070  1.0  -0.1284
  C  C2693  1  0.616600  0.766300  0.163200  1.0  0.7254
  C  C2694  1  0.615500  0.797400  0.197800  1.0  -0.0698
  C  C2695  1  0.617000  0.804310  0.222950  1.0  -0.146
  C  C2696  1  0.616400  0.831980  0.229900  1.0  0.7222
  C  C2697  1  0.575470  0.644110  0.197820  1.0  0.7219
  C  C2698  1  0.561340  0.658460  0.177620  1.0  -0.1472
  C  C2699  1  0.574520  0.674160  0.161090  1.0  0.0091
  C  C2700  1  0.560730  0.689010  0.144110  1.0  -0.1479
  C  C2701  1  0.574290  0.707710  0.127490  1.0  0.7557
  C  C2702  1  0.534540  0.687090  0.142890  1.0  -0.0607
  C  C2703  1  0.534950  0.656970  0.176660  1.0  -0.0762
  C  C2704  1  0.521500  0.670960  0.159200  1.0  0.0263
  C  C2705  1  0.492690  0.669180  0.157590  1.0  0.1629
  C  C2706  1  0.479000  0.683050  0.139790  1.0  -0.0361
  C  C2707  1  0.452560  0.681130  0.138190  1.0  -0.0011
  C  C2708  1  0.439610  0.665300  0.154570  1.0  -0.0069
  C  C2709  1  0.452890  0.652600  0.173200  1.0  0.0443
  C  C2710  1  0.438800  0.638000  0.192800  1.0  0.7063
  C  C2711  1  0.478760  0.654700  0.174700  1.0  -0.074
  C  C2712  1  0.629500  0.569000  0.201200  1.0  0.7282
  C  C2713  1  0.646700  0.554900  0.183100  1.0  -0.0463
  C  C2714  1  0.663100  0.568780  0.167800  1.0  0.0064
  C  C2715  1  0.681500  0.555670  0.154000  1.0  -0.043
  C  C2716  1  0.701500  0.569850  0.139500  1.0  0.7318
  C  C2717  1  0.682100  0.529050  0.154900  1.0  -0.0715
  C  C2718  1  0.647820  0.528180  0.183800  1.0  -0.0397
  C  C2719  1  0.664990  0.515050  0.169200  1.0  0.073
  C  C2720  1  0.666440  0.486240  0.169700  1.0  0.067
  C  C2721  1  0.649780  0.471650  0.184230  1.0  -0.0699
  C  C2722  1  0.651160  0.445360  0.184720  1.0  -0.1292
  C  C2723  1  0.634850  0.430210  0.202200  1.0  0.7174
  C  C2724  1  0.669200  0.432850  0.170390  1.0  0.0036
  C  C2725  1  0.686620  0.447540  0.156390  1.0  -0.1407
  C  C2726  1  0.707860  0.434140  0.142590  1.0  0.7549
  C  C2727  1  0.685320  0.473740  0.156500  1.0  -0.0678
  C  C2728  1  0.568490  0.753700  0.043040  1.0  0.7421
  C  C2729  1  0.553760  0.752800  0.018660  1.0  -0.1568
  C  C2730  1  0.566860  0.752500  0.995790  1.0  -0.0499
  C  C2731  1  0.553680  0.751000  0.973570  1.0  -0.1136
  C  C2732  1  0.568380  0.750800  0.949310  1.0  0.7304
  C  C2733  1  0.527500  0.750000  0.973380  1.0  -0.1007
  C  C2734  1  0.514020  0.751000  0.996170  1.0  0.0466
  C  C2735  1  0.527600  0.751600  0.018820  1.0  -0.0997
  C  C2736  1  0.438240  0.697800  0.119950  1.0  0.7477
  C  C2737  1  0.738300  0.624200  0.168280  1.0  0.6638
  C  C2738  1  0.731700  0.623300  0.196220  1.0  -0.1675
  C  C2739  1  0.706200  0.624200  0.203290  1.0  -0.0059
  C  C2740  1  0.699740  0.622700  0.228650  1.0  -0.1291
  C  C2741  1  0.671820  0.622200  0.235100  1.0  0.7101
  C  C2742  1  0.718600  0.621100  0.246990  1.0  -0.0513
  C  C2743  1  0.750420  0.621200  0.214760  1.0  -0.0636
  C  C2744  1  0.744270  0.620600  0.240340  1.0  -0.082
  C  C2745  1  0.764540  0.619500  0.260200  1.0  0.0342
  C  C2746  1  0.758580  0.618100  0.285670  1.0  -0.0999
  C  C2747  1  0.790450  0.619300  0.254100  1.0  -0.0938
  C  C2748  1  0.808930  0.617000  0.272700  1.0  -0.1262
  C  C2749  1  0.836800  0.616600  0.266300  1.0  0.7226
  C  C2750  1  0.802200  0.615500  0.297400  1.0  -0.0669
  C  C2751  1  0.777050  0.617000  0.304310  1.0  -0.1476
  C  C2752  1  0.770100  0.616400  0.331980  1.0  0.7234
  C  C2753  1  0.802180  0.575470  0.144110  1.0  0.7219
  C  C2754  1  0.822380  0.561340  0.158460  1.0  -0.1487
  C  C2755  1  0.838910  0.574520  0.174160  1.0  0.0051
  C  C2756  1  0.855890  0.560730  0.189010  1.0  -0.1472
  C  C2757  1  0.872510  0.574290  0.207710  1.0  0.7565
  C  C2758  1  0.857110  0.534540  0.187090  1.0  -0.0621
  C  C2759  1  0.823340  0.534950  0.156970  1.0  -0.0768
  C  C2760  1  0.840800  0.521500  0.170960  1.0  0.0269
  C  C2761  1  0.842410  0.492690  0.169180  1.0  0.1636
  C  C2762  1  0.860210  0.479000  0.183050  1.0  -0.036
  C  C2763  1  0.861810  0.452560  0.181130  1.0  -0.0012
  C  C2764  1  0.845430  0.439610  0.165300  1.0  -0.0058
  C  C2765  1  0.826800  0.452890  0.152600  1.0  0.0433
  C  C2766  1  0.807200  0.438800  0.138000  1.0  0.7071
  C  C2767  1  0.825300  0.478760  0.154700  1.0  -0.0745
  C  C2768  1  0.798800  0.629500  0.069000  1.0  0.728
  C  C2769  1  0.816900  0.646700  0.054900  1.0  -0.047
  C  C2770  1  0.832200  0.663100  0.068780  1.0  0.0035
  C  C2771  1  0.846000  0.681500  0.055670  1.0  -0.0424
  C  C2772  1  0.860500  0.701500  0.069850  1.0  0.7334
  C  C2773  1  0.845100  0.682100  0.029050  1.0  -0.0704
  C  C2774  1  0.816200  0.647820  0.028180  1.0  -0.0374
  C  C2775  1  0.830800  0.664990  0.015050  1.0  0.0759
  C  C2776  1  0.830300  0.666440  0.986240  1.0  0.0668
  C  C2777  1  0.815770  0.649780  0.971650  1.0  -0.0699
  C  C2778  1  0.815280  0.651160  0.945360  1.0  -0.1297
  C  C2779  1  0.797800  0.634850  0.930210  1.0  0.718
  C  C2780  1  0.829610  0.669200  0.932850  1.0  0.0045
  C  C2781  1  0.843610  0.686620  0.947540  1.0  -0.1398
  C  C2782  1  0.857410  0.707860  0.934140  1.0  0.7557
  C  C2783  1  0.843500  0.685320  0.973740  1.0  -0.0672
  C  C2784  1  0.956960  0.568490  0.253700  1.0  0.7416
  C  C2785  1  0.981340  0.553760  0.252800  1.0  -0.1551
  C  C2786  1  0.004210  0.566860  0.252500  1.0  -0.0539
  C  C2787  1  0.026430  0.553680  0.251000  1.0  -0.1132
  C  C2788  1  0.050690  0.568380  0.250800  1.0  0.7281
  C  C2789  1  0.026620  0.527500  0.250000  1.0  -0.0984
  C  C2790  1  0.003830  0.514020  0.251000  1.0  0.047
  C  C2791  1  0.981180  0.527600  0.251600  1.0  -0.0987
  C  C2792  1  0.880050  0.438240  0.197800  1.0  0.746
  C  C2793  1  0.238300  0.124200  0.668280  1.0  0.6638
  C  C2794  1  0.231700  0.123300  0.696220  1.0  -0.1675
  C  C2795  1  0.206200  0.124200  0.703290  1.0  -0.0059
  C  C2796  1  0.199740  0.122700  0.728650  1.0  -0.1291
  C  C2797  1  0.171820  0.122200  0.735100  1.0  0.7101
  C  C2798  1  0.218600  0.121100  0.746990  1.0  -0.0513
  C  C2799  1  0.250420  0.121200  0.714760  1.0  -0.0636
  C  C2800  1  0.244270  0.120600  0.740340  1.0  -0.082
  C  C2801  1  0.264540  0.119500  0.760200  1.0  0.0342
  C  C2802  1  0.258580  0.118100  0.785670  1.0  -0.0999
  C  C2803  1  0.290450  0.119300  0.754100  1.0  -0.0938
  C  C2804  1  0.308930  0.117000  0.772700  1.0  -0.1262
  C  C2805  1  0.336800  0.116600  0.766300  1.0  0.7226
  C  C2806  1  0.302200  0.115500  0.797400  1.0  -0.0669
  C  C2807  1  0.277050  0.117000  0.804310  1.0  -0.1476
  C  C2808  1  0.270100  0.116400  0.831980  1.0  0.7234
  C  C2809  1  0.302180  0.075470  0.644110  1.0  0.7219
  C  C2810  1  0.322380  0.061340  0.658460  1.0  -0.1487
  C  C2811  1  0.338910  0.074520  0.674160  1.0  0.0051
  C  C2812  1  0.355890  0.060730  0.689010  1.0  -0.1472
  C  C2813  1  0.372510  0.074290  0.707710  1.0  0.7565
  C  C2814  1  0.357110  0.034540  0.687090  1.0  -0.0621
  C  C2815  1  0.323340  0.034950  0.656970  1.0  -0.0768
  C  C2816  1  0.340800  0.021500  0.670960  1.0  0.0269
  C  C2817  1  0.342410  0.992690  0.669180  1.0  0.1541
  C  C2818  1  0.360210  0.979000  0.683050  1.0  -0.0454
  C  C2819  1  0.361810  0.952560  0.681130  1.0  -0.0012
  C  C2820  1  0.345430  0.939610  0.665300  1.0  -0.0058
  C  C2821  1  0.326800  0.952890  0.652600  1.0  0.0433
  C  C2822  1  0.307200  0.938800  0.638000  1.0  0.7071
  C  C2823  1  0.325300  0.978760  0.654700  1.0  -0.0745
  C  C2824  1  0.298800  0.129500  0.569000  1.0  0.728
  C  C2825  1  0.316900  0.146700  0.554900  1.0  -0.047
  C  C2826  1  0.332200  0.163100  0.568780  1.0  0.0035
  C  C2827  1  0.346000  0.181500  0.555670  1.0  -0.0424
  C  C2828  1  0.360500  0.201500  0.569850  1.0  0.7334
  C  C2829  1  0.345100  0.182100  0.529050  1.0  -0.0704
  C  C2830  1  0.316200  0.147820  0.528180  1.0  -0.0374
  C  C2831  1  0.330800  0.164990  0.515050  1.0  0.0726
  C  C2832  1  0.330300  0.166440  0.486240  1.0  0.0668
  C  C2833  1  0.315770  0.149780  0.471650  1.0  -0.0699
  C  C2834  1  0.315280  0.151160  0.445360  1.0  -0.1297
  C  C2835  1  0.297800  0.134850  0.430210  1.0  0.718
  C  C2836  1  0.329610  0.169200  0.432850  1.0  0.0045
  C  C2837  1  0.343610  0.186620  0.447540  1.0  -0.1398
  C  C2838  1  0.357410  0.207860  0.434140  1.0  0.7557
  C  C2839  1  0.343500  0.185320  0.473740  1.0  -0.0672
  C  C2840  1  0.456960  0.068490  0.753700  1.0  0.7416
  C  C2841  1  0.481340  0.053760  0.752800  1.0  -0.1551
  C  C2842  1  0.504210  0.066860  0.752500  1.0  -0.0539
  C  C2843  1  0.526430  0.053680  0.751000  1.0  -0.1132
  C  C2844  1  0.550690  0.068380  0.750800  1.0  0.7281
  C  C2845  1  0.526620  0.027500  0.750000  1.0  -0.0984
  C  C2846  1  0.503830  0.014020  0.751000  1.0  0.047
  C  C2847  1  0.481180  0.027600  0.751600  1.0  -0.0987
  C  C2848  1  0.380050  0.938240  0.697800  1.0  0.746
  C  C2849  1  0.761700  0.375800  0.668280  1.0  0.6636
  C  C2850  1  0.768300  0.376700  0.696220  1.0  -0.167
  C  C2851  1  0.793800  0.375800  0.703290  1.0  -0.0057
  C  C2852  1  0.800260  0.377300  0.728650  1.0  -0.1288
  C  C2853  1  0.828180  0.377800  0.735100  1.0  0.7102
  C  C2854  1  0.781400  0.378900  0.746990  1.0  -0.0516
  C  C2855  1  0.749580  0.378800  0.714760  1.0  -0.0639
  C  C2856  1  0.755730  0.379400  0.740340  1.0  -0.0819
  C  C2857  1  0.735460  0.380500  0.760200  1.0  0.0345
  C  C2858  1  0.741420  0.381900  0.785670  1.0  -0.1003
  C  C2859  1  0.709550  0.380700  0.754100  1.0  -0.0947
  C  C2860  1  0.691070  0.383000  0.772700  1.0  -0.1266
  C  C2861  1  0.663200  0.383400  0.766300  1.0  0.7239
  C  C2862  1  0.697800  0.384500  0.797400  1.0  -0.0678
  C  C2863  1  0.722950  0.383000  0.804310  1.0  -0.1473
  C  C2864  1  0.729900  0.383600  0.831980  1.0  0.7241
  C  C2865  1  0.697820  0.424530  0.644110  1.0  0.7211
  C  C2866  1  0.677620  0.438660  0.658460  1.0  -0.1486
  C  C2867  1  0.661090  0.425480  0.674160  1.0  0.0063
  C  C2868  1  0.644110  0.439270  0.689010  1.0  -0.1478
  C  C2869  1  0.627490  0.425710  0.707710  1.0  0.7563
  C  C2870  1  0.642890  0.465460  0.687090  1.0  -0.0621
  C  C2871  1  0.676660  0.465050  0.656970  1.0  -0.0759
  C  C2872  1  0.659200  0.478500  0.670960  1.0  0.0268
  C  C2873  1  0.657590  0.507310  0.669180  1.0  0.1644
  C  C2874  1  0.639790  0.521000  0.683050  1.0  -0.0382
  C  C2875  1  0.638190  0.547440  0.681130  1.0  -0.0012
  C  C2876  1  0.654570  0.560390  0.665300  1.0  -0.006
  C  C2877  1  0.673200  0.547110  0.652600  1.0  0.0439
  C  C2878  1  0.692800  0.561200  0.638000  1.0  0.7076
  C  C2879  1  0.674700  0.521240  0.654700  1.0  -0.0748
  C  C2880  1  0.701200  0.370500  0.569000  1.0  0.7281
  C  C2881  1  0.683100  0.353300  0.554900  1.0  -0.0477
  C  C2882  1  0.667800  0.336900  0.568780  1.0  0.0025
  C  C2883  1  0.654000  0.318500  0.555670  1.0  -0.0431
  C  C2884  1  0.639500  0.298500  0.569850  1.0  0.7321
  C  C2885  1  0.654900  0.317900  0.529050  1.0  -0.0702
  C  C2886  1  0.683800  0.352180  0.528180  1.0  -0.0373
  C  C2887  1  0.669200  0.335010  0.515050  1.0  0.0723
  C  C2888  1  0.669700  0.333560  0.486240  1.0  0.0667
  C  C2889  1  0.684230  0.350220  0.471650  1.0  -0.0708
  C  C2890  1  0.684720  0.348840  0.445360  1.0  -0.1292
  C  C2891  1  0.702200  0.365150  0.430210  1.0  0.7174
  C  C2892  1  0.670390  0.330800  0.432850  1.0  0.0053
  C  C2893  1  0.656390  0.313380  0.447540  1.0  -0.1406
  C  C2894  1  0.642590  0.292140  0.434140  1.0  0.7556
  C  C2895  1  0.656500  0.314680  0.473740  1.0  -0.0666
  C  C2896  1  0.543040  0.431510  0.753700  1.0  0.7405
  C  C2897  1  0.518660  0.446240  0.752800  1.0  -0.154
  C  C2898  1  0.495790  0.433140  0.752500  1.0  -0.0522
  C  C2899  1  0.473570  0.446320  0.751000  1.0  -0.1139
  C  C2900  1  0.449310  0.431620  0.750800  1.0  0.7278
  C  C2901  1  0.473380  0.472500  0.750000  1.0  -0.0991
  C  C2902  1  0.496170  0.485980  0.751000  1.0  0.047
  C  C2903  1  0.518820  0.472400  0.751600  1.0  -0.0992
  C  C2904  1  0.619950  0.561760  0.697800  1.0  0.7464
  C  C2905  1  0.261700  0.875800  0.168280  1.0  0.6636
  C  C2906  1  0.268300  0.876700  0.196220  1.0  -0.167
  C  C2907  1  0.293800  0.875800  0.203290  1.0  -0.0057
  C  C2908  1  0.300260  0.877300  0.228650  1.0  -0.1288
  C  C2909  1  0.328180  0.877800  0.235100  1.0  0.7102
  C  C2910  1  0.281400  0.878900  0.246990  1.0  -0.0516
  C  C2911  1  0.249580  0.878800  0.214760  1.0  -0.0639
  C  C2912  1  0.255730  0.879400  0.240340  1.0  -0.0819
  C  C2913  1  0.235460  0.880500  0.260200  1.0  0.0345
  C  C2914  1  0.241420  0.881900  0.285670  1.0  -0.1003
  C  C2915  1  0.209550  0.880700  0.254100  1.0  -0.0947
  C  C2916  1  0.191070  0.883000  0.272700  1.0  -0.1266
  C  C2917  1  0.163200  0.883400  0.266300  1.0  0.7239
  C  C2918  1  0.197800  0.884500  0.297400  1.0  -0.0678
  C  C2919  1  0.222950  0.883000  0.304310  1.0  -0.1473
  C  C2920  1  0.229900  0.883600  0.331980  1.0  0.7241
  C  C2921  1  0.197820  0.924530  0.144110  1.0  0.7211
  C  C2922  1  0.177620  0.938660  0.158460  1.0  -0.1486
  C  C2923  1  0.161090  0.925480  0.174160  1.0  0.0063
  C  C2924  1  0.144110  0.939270  0.189010  1.0  -0.1478
  C  C2925  1  0.127490  0.925710  0.207710  1.0  0.7563
  C  C2926  1  0.142890  0.965460  0.187090  1.0  -0.0621
  C  C2927  1  0.176660  0.965050  0.156970  1.0  -0.0759
  C  C2928  1  0.159200  0.978500  0.170960  1.0  0.0268
  C  C2929  1  0.157590  0.007310  0.169180  1.0  0.1561
  C  C2930  1  0.139790  0.021000  0.183050  1.0  -0.0363
  C  C2931  1  0.138190  0.047440  0.181130  1.0  -0.0012
  C  C2932  1  0.154570  0.060390  0.165300  1.0  -0.006
  C  C2933  1  0.173200  0.047110  0.152600  1.0  0.0439
  C  C2934  1  0.192800  0.061200  0.138000  1.0  0.7076
  C  C2935  1  0.174700  0.021240  0.154700  1.0  -0.0748
  C  C2936  1  0.201200  0.870500  0.069000  1.0  0.7281
  C  C2937  1  0.183100  0.853300  0.054900  1.0  -0.0477
  C  C2938  1  0.167800  0.836900  0.068780  1.0  0.0025
  C  C2939  1  0.154000  0.818500  0.055670  1.0  -0.0431
  C  C2940  1  0.139500  0.798500  0.069850  1.0  0.7321
  C  C2941  1  0.154900  0.817900  0.029050  1.0  -0.0702
  C  C2942  1  0.183800  0.852180  0.028180  1.0  -0.0373
  C  C2943  1  0.169200  0.835010  0.015050  1.0  0.0756
  C  C2944  1  0.169700  0.833560  0.986240  1.0  0.0667
  C  C2945  1  0.184230  0.850220  0.971650  1.0  -0.0708
  C  C2946  1  0.184720  0.848840  0.945360  1.0  -0.1292
  C  C2947  1  0.202200  0.865150  0.930210  1.0  0.7174
  C  C2948  1  0.170390  0.830800  0.932850  1.0  0.0053
  C  C2949  1  0.156390  0.813380  0.947540  1.0  -0.1406
  C  C2950  1  0.142590  0.792140  0.934140  1.0  0.7556
  C  C2951  1  0.156500  0.814680  0.973740  1.0  -0.0666
  C  C2952  1  0.043040  0.931510  0.253700  1.0  0.7405
  C  C2953  1  0.018660  0.946240  0.252800  1.0  -0.154
  C  C2954  1  0.995790  0.933140  0.252500  1.0  -0.0522
  C  C2955  1  0.973570  0.946320  0.251000  1.0  -0.1139
  C  C2956  1  0.949310  0.931620  0.250800  1.0  0.7278
  C  C2957  1  0.973380  0.972500  0.250000  1.0  -0.0991
  C  C2958  1  0.996170  0.985980  0.251000  1.0  0.047
  C  C2959  1  0.018820  0.972400  0.251600  1.0  -0.0992
  C  C2960  1  0.119950  0.061760  0.197800  1.0  0.7464
  C  C2961  1  0.261700  0.124200  0.331720  1.0  0.6637
  C  C2962  1  0.268300  0.123300  0.303780  1.0  -0.1672
  C  C2963  1  0.293800  0.124200  0.296710  1.0  -0.0065
  C  C2964  1  0.300260  0.122700  0.271350  1.0  -0.1288
  C  C2965  1  0.328180  0.122200  0.264900  1.0  0.7101
  C  C2966  1  0.281400  0.121100  0.253010  1.0  -0.0516
  C  C2967  1  0.249580  0.121200  0.285240  1.0  -0.0639
  C  C2968  1  0.255730  0.120600  0.259660  1.0  -0.0814
  C  C2969  1  0.235460  0.119500  0.239800  1.0  0.0337
  C  C2970  1  0.241420  0.118100  0.214330  1.0  -0.1004
  C  C2971  1  0.209550  0.119300  0.245900  1.0  -0.0952
  C  C2972  1  0.191070  0.117000  0.227300  1.0  -0.1264
  C  C2973  1  0.163200  0.116600  0.233700  1.0  0.7235
  C  C2974  1  0.197800  0.115500  0.202600  1.0  -0.0673
  C  C2975  1  0.222950  0.117000  0.195690  1.0  -0.1472
  C  C2976  1  0.229900  0.116400  0.168020  1.0  0.7236
  C  C2977  1  0.197820  0.075470  0.355890  1.0  0.7222
  C  C2978  1  0.177620  0.061340  0.341540  1.0  -0.1496
  C  C2979  1  0.161090  0.074520  0.325840  1.0  0.0065
  C  C2980  1  0.144110  0.060730  0.310990  1.0  -0.1478
  C  C2981  1  0.127490  0.074290  0.292290  1.0  0.7554
  C  C2982  1  0.142890  0.034540  0.312910  1.0  -0.0625
  C  C2983  1  0.176660  0.034950  0.343030  1.0  -0.0772
  C  C2984  1  0.159200  0.021500  0.329040  1.0  0.0265
  C  C2985  1  0.157590  0.992690  0.330820  1.0  0.1541
  C  C2986  1  0.139790  0.979000  0.316950  1.0  -0.037
  C  C2987  1  0.138190  0.952560  0.318870  1.0  -0.0011
  C  C2988  1  0.154570  0.939610  0.334700  1.0  -0.0073
  C  C2989  1  0.173200  0.952890  0.347400  1.0  0.0444
  C  C2990  1  0.192800  0.938800  0.362000  1.0  0.7061
  C  C2991  1  0.174700  0.978760  0.345300  1.0  -0.0738
  C  C2992  1  0.201200  0.129500  0.431000  1.0  0.7273
  C  C2993  1  0.183100  0.146700  0.445100  1.0  -0.0472
  C  C2994  1  0.167800  0.163100  0.431220  1.0  0.0053
  C  C2995  1  0.154000  0.181500  0.444330  1.0  -0.043
  C  C2996  1  0.139500  0.201500  0.430150  1.0  0.7328
  C  C2997  1  0.154900  0.182100  0.470950  1.0  -0.0716
  C  C2998  1  0.183800  0.147820  0.471820  1.0  -0.0376
  C  C2999  1  0.169200  0.164990  0.484950  1.0  0.0727
  C  C3000  1  0.169700  0.166440  0.513760  1.0  0.0663
  C  C3001  1  0.184230  0.149780  0.528350  1.0  -0.0693
  C  C3002  1  0.184720  0.151160  0.554640  1.0  -0.1291
  C  C3003  1  0.202200  0.134850  0.569790  1.0  0.7175
  C  C3004  1  0.170390  0.169200  0.567150  1.0  0.0036
  C  C3005  1  0.156390  0.186620  0.552460  1.0  -0.1401
  C  C3006  1  0.142590  0.207860  0.565860  1.0  0.7558
  C  C3007  1  0.156500  0.185320  0.526260  1.0  -0.0666
  C  C3008  1  0.043040  0.068490  0.246300  1.0  0.7411
  C  C3009  1  0.018660  0.053760  0.247200  1.0  -0.1543
  C  C3010  1  0.995790  0.066860  0.247500  1.0  -0.0538
  C  C3011  1  0.973570  0.053680  0.249000  1.0  -0.1137
  C  C3012  1  0.949310  0.068380  0.249200  1.0  0.7282
  C  C3013  1  0.973380  0.027500  0.250000  1.0  -0.0994
  C  C3014  1  0.996170  0.014020  0.249000  1.0  0.0471
  C  C3015  1  0.018820  0.027600  0.248400  1.0  -0.0992
  C  C3016  1  0.119950  0.938240  0.302200  1.0  0.7468
  C  C3017  1  0.761700  0.624200  0.831720  1.0  0.6637
  C  C3018  1  0.768300  0.623300  0.803780  1.0  -0.1672
  C  C3019  1  0.793800  0.624200  0.796710  1.0  -0.0065
  C  C3020  1  0.800260  0.622700  0.771350  1.0  -0.1288
  C  C3021  1  0.828180  0.622200  0.764900  1.0  0.7101
  C  C3022  1  0.781400  0.621100  0.753010  1.0  -0.0516
  C  C3023  1  0.749580  0.621200  0.785240  1.0  -0.0639
  C  C3024  1  0.755730  0.620600  0.759660  1.0  -0.0814
  C  C3025  1  0.735460  0.619500  0.739800  1.0  0.0337
  C  C3026  1  0.741420  0.618100  0.714330  1.0  -0.1004
  C  C3027  1  0.709550  0.619300  0.745900  1.0  -0.0952
  C  C3028  1  0.691070  0.617000  0.727300  1.0  -0.1264
  C  C3029  1  0.663200  0.616600  0.733700  1.0  0.7235
  C  C3030  1  0.697800  0.615500  0.702600  1.0  -0.0673
  C  C3031  1  0.722950  0.617000  0.695690  1.0  -0.1472
  C  C3032  1  0.729900  0.616400  0.668020  1.0  0.7236
  C  C3033  1  0.697820  0.575470  0.855890  1.0  0.7222
  C  C3034  1  0.677620  0.561340  0.841540  1.0  -0.1496
  C  C3035  1  0.661090  0.574520  0.825840  1.0  0.0065
  C  C3036  1  0.644110  0.560730  0.810990  1.0  -0.1478
  C  C3037  1  0.627490  0.574290  0.792290  1.0  0.7554
  C  C3038  1  0.642890  0.534540  0.812910  1.0  -0.0625
  C  C3039  1  0.676660  0.534950  0.843030  1.0  -0.0772
  C  C3040  1  0.659200  0.521500  0.829040  1.0  0.0265
  C  C3041  1  0.657590  0.492690  0.830820  1.0  0.1644
  C  C3042  1  0.639790  0.479000  0.816950  1.0  -0.0375
  C  C3043  1  0.638190  0.452560  0.818870  1.0  -0.0011
  C  C3044  1  0.654570  0.439610  0.834700  1.0  -0.0073
  C  C3045  1  0.673200  0.452890  0.847400  1.0  0.0444
  C  C3046  1  0.692800  0.438800  0.862000  1.0  0.7061
  C  C3047  1  0.674700  0.478760  0.845300  1.0  -0.0738
  C  C3048  1  0.701200  0.629500  0.931000  1.0  0.7273
  C  C3049  1  0.683100  0.646700  0.945100  1.0  -0.0472
  C  C3050  1  0.667800  0.663100  0.931220  1.0  0.0053
  C  C3051  1  0.654000  0.681500  0.944330  1.0  -0.043
  C  C3052  1  0.639500  0.701500  0.930150  1.0  0.7328
  C  C3053  1  0.654900  0.682100  0.970950  1.0  -0.0716
  C  C3054  1  0.683800  0.647820  0.971820  1.0  -0.0376
  C  C3055  1  0.669200  0.664990  0.984950  1.0  0.076
  C  C3056  1  0.669700  0.666440  0.013760  1.0  0.0663
  C  C3057  1  0.684230  0.649780  0.028350  1.0  -0.0693
  C  C3058  1  0.684720  0.651160  0.054640  1.0  -0.1291
  C  C3059  1  0.702200  0.634850  0.069790  1.0  0.7175
  C  C3060  1  0.670390  0.669200  0.067150  1.0  0.0036
  C  C3061  1  0.656390  0.686620  0.052460  1.0  -0.1401
  C  C3062  1  0.642590  0.707860  0.065860  1.0  0.7558
  C  C3063  1  0.656500  0.685320  0.026260  1.0  -0.0666
  C  C3064  1  0.543040  0.568490  0.746300  1.0  0.7411
  C  C3065  1  0.518660  0.553760  0.747200  1.0  -0.1543
  C  C3066  1  0.495790  0.566860  0.747500  1.0  -0.0538
  C  C3067  1  0.473570  0.553680  0.749000  1.0  -0.1137
  C  C3068  1  0.449310  0.568380  0.749200  1.0  0.7282
  C  C3069  1  0.473380  0.527500  0.750000  1.0  -0.0994
  C  C3070  1  0.496170  0.514020  0.749000  1.0  0.0471
  C  C3071  1  0.518820  0.527600  0.748400  1.0  -0.0992
  C  C3072  1  0.619950  0.438240  0.802200  1.0  0.7468
  C  C3073  1  0.238300  0.875800  0.831720  1.0  0.6638
  C  C3074  1  0.231700  0.876700  0.803780  1.0  -0.1677
  C  C3075  1  0.206200  0.875800  0.796710  1.0  -0.0063
  C  C3076  1  0.199740  0.877300  0.771350  1.0  -0.1292
  C  C3077  1  0.171820  0.877800  0.764900  1.0  0.7105
  C  C3078  1  0.218600  0.878900  0.753010  1.0  -0.0511
  C  C3079  1  0.250420  0.878800  0.785240  1.0  -0.0638
  C  C3080  1  0.244270  0.879400  0.759660  1.0  -0.0814
  C  C3081  1  0.264540  0.880500  0.739800  1.0  0.0334
  C  C3082  1  0.258580  0.881900  0.714330  1.0  -0.1001
  C  C3083  1  0.290450  0.880700  0.745900  1.0  -0.0943
  C  C3084  1  0.308930  0.883000  0.727300  1.0  -0.1268
  C  C3085  1  0.336800  0.883400  0.733700  1.0  0.7231
  C  C3086  1  0.302200  0.884500  0.702600  1.0  -0.0665
  C  C3087  1  0.277050  0.883000  0.695690  1.0  -0.1478
  C  C3088  1  0.270100  0.883600  0.668020  1.0  0.7237
  C  C3089  1  0.302180  0.924530  0.855890  1.0  0.7217
  C  C3090  1  0.322380  0.938660  0.841540  1.0  -0.1499
  C  C3091  1  0.338910  0.925480  0.825840  1.0  0.0057
  C  C3092  1  0.355890  0.939270  0.810990  1.0  -0.1464
  C  C3093  1  0.372510  0.925710  0.792290  1.0  0.7559
  C  C3094  1  0.357110  0.965460  0.812910  1.0  -0.0617
  C  C3095  1  0.323340  0.965050  0.843030  1.0  -0.0772
  C  C3096  1  0.340800  0.978500  0.829040  1.0  0.027
  C  C3097  1  0.342410  0.007310  0.830820  1.0  0.1558
  C  C3098  1  0.360210  0.021000  0.816950  1.0  -0.0458
  C  C3099  1  0.361810  0.047440  0.818870  1.0  -0.0013
  C  C3100  1  0.345430  0.060390  0.834700  1.0  -0.0055
  C  C3101  1  0.326800  0.047110  0.847400  1.0  0.0441
  C  C3102  1  0.307200  0.061200  0.862000  1.0  0.7066
  C  C3103  1  0.325300  0.021240  0.845300  1.0  -0.0736
  C  C3104  1  0.298800  0.870500  0.931000  1.0  0.7291
  C  C3105  1  0.316900  0.853300  0.945100  1.0  -0.0474
  C  C3106  1  0.332200  0.836900  0.931220  1.0  0.0058
  C  C3107  1  0.346000  0.818500  0.944330  1.0  -0.0426
  C  C3108  1  0.360500  0.798500  0.930150  1.0  0.7324
  C  C3109  1  0.345100  0.817900  0.970950  1.0  -0.0703
  C  C3110  1  0.316200  0.852180  0.971820  1.0  -0.038
  C  C3111  1  0.330800  0.835010  0.984950  1.0  0.0763
  C  C3112  1  0.330300  0.833560  0.013760  1.0  0.0668
  C  C3113  1  0.315770  0.850220  0.028350  1.0  -0.0706
  C  C3114  1  0.315280  0.848840  0.054640  1.0  -0.1294
  C  C3115  1  0.297800  0.865150  0.069790  1.0  0.7179
  C  C3116  1  0.329610  0.830800  0.067150  1.0  0.0036
  C  C3117  1  0.343610  0.813380  0.052460  1.0  -0.1401
  C  C3118  1  0.357410  0.792140  0.065860  1.0  0.7557
  C  C3119  1  0.343500  0.814680  0.026260  1.0  -0.0667
  C  C3120  1  0.456960  0.931510  0.746300  1.0  0.7411
  C  C3121  1  0.481340  0.946240  0.747200  1.0  -0.1549
  C  C3122  1  0.504210  0.933140  0.747500  1.0  -0.0523
  C  C3123  1  0.526430  0.946320  0.749000  1.0  -0.113
  C  C3124  1  0.550690  0.931620  0.749200  1.0  0.7275
  C  C3125  1  0.526620  0.972500  0.750000  1.0  -0.0985
  C  C3126  1  0.503830  0.985980  0.749000  1.0  0.0472
  C  C3127  1  0.481180  0.972400  0.748400  1.0  -0.0984
  C  C3128  1  0.380050  0.061760  0.802200  1.0  0.7458
  C  C3129  1  0.738300  0.375800  0.331720  1.0  0.6638
  C  C3130  1  0.731700  0.376700  0.303780  1.0  -0.1677
  C  C3131  1  0.706200  0.375800  0.296710  1.0  -0.0063
  C  C3132  1  0.699740  0.377300  0.271350  1.0  -0.1292
  C  C3133  1  0.671820  0.377800  0.264900  1.0  0.7105
  C  C3134  1  0.718600  0.378900  0.253010  1.0  -0.0511
  C  C3135  1  0.750420  0.378800  0.285240  1.0  -0.0638
  C  C3136  1  0.744270  0.379400  0.259660  1.0  -0.0814
  C  C3137  1  0.764540  0.380500  0.239800  1.0  0.0334
  C  C3138  1  0.758580  0.381900  0.214330  1.0  -0.1001
  C  C3139  1  0.790450  0.380700  0.245900  1.0  -0.0943
  C  C3140  1  0.808930  0.383000  0.227300  1.0  -0.1268
  C  C3141  1  0.836800  0.383400  0.233700  1.0  0.7231
  C  C3142  1  0.802200  0.384500  0.202600  1.0  -0.0665
  C  C3143  1  0.777050  0.383000  0.195690  1.0  -0.1478
  C  C3144  1  0.770100  0.383600  0.168020  1.0  0.7237
  C  C3145  1  0.802180  0.424530  0.355890  1.0  0.7217
  C  C3146  1  0.822380  0.438660  0.341540  1.0  -0.1499
  C  C3147  1  0.838910  0.425480  0.325840  1.0  0.0057
  C  C3148  1  0.855890  0.439270  0.310990  1.0  -0.1464
  C  C3149  1  0.872510  0.425710  0.292290  1.0  0.7559
  C  C3150  1  0.857110  0.465460  0.312910  1.0  -0.0617
  C  C3151  1  0.823340  0.465050  0.343030  1.0  -0.0772
  C  C3152  1  0.840800  0.478500  0.329040  1.0  0.027
  C  C3153  1  0.842410  0.507310  0.330820  1.0  0.163
  C  C3154  1  0.860210  0.521000  0.316950  1.0  -0.0364
  C  C3155  1  0.861810  0.547440  0.318870  1.0  -0.0013
  C  C3156  1  0.845430  0.560390  0.334700  1.0  -0.0055
  C  C3157  1  0.826800  0.547110  0.347400  1.0  0.0441
  C  C3158  1  0.807200  0.561200  0.362000  1.0  0.7066
  C  C3159  1  0.825300  0.521240  0.345300  1.0  -0.0736
  C  C3160  1  0.798800  0.370500  0.431000  1.0  0.7291
  C  C3161  1  0.816900  0.353300  0.445100  1.0  -0.0474
  C  C3162  1  0.832200  0.336900  0.431220  1.0  0.0058
  C  C3163  1  0.846000  0.318500  0.444330  1.0  -0.0426
  C  C3164  1  0.860500  0.298500  0.430150  1.0  0.7324
  C  C3165  1  0.845100  0.317900  0.470950  1.0  -0.0703
  C  C3166  1  0.816200  0.352180  0.471820  1.0  -0.038
  C  C3167  1  0.830800  0.335010  0.484950  1.0  0.0729
  C  C3168  1  0.830300  0.333560  0.513760  1.0  0.0668
  C  C3169  1  0.815770  0.350220  0.528350  1.0  -0.0706
  C  C3170  1  0.815280  0.348840  0.554640  1.0  -0.1294
  C  C3171  1  0.797800  0.365150  0.569790  1.0  0.7179
  C  C3172  1  0.829610  0.330800  0.567150  1.0  0.0036
  C  C3173  1  0.843610  0.313380  0.552460  1.0  -0.1401
  C  C3174  1  0.857410  0.292140  0.565860  1.0  0.7557
  C  C3175  1  0.843500  0.314680  0.526260  1.0  -0.0667
  C  C3176  1  0.956960  0.431510  0.246300  1.0  0.7411
  C  C3177  1  0.981340  0.446240  0.247200  1.0  -0.1549
  C  C3178  1  0.004210  0.433140  0.247500  1.0  -0.0523
  C  C3179  1  0.026430  0.446320  0.249000  1.0  -0.113
  C  C3180  1  0.050690  0.431620  0.249200  1.0  0.7275
  C  C3181  1  0.026620  0.472500  0.250000  1.0  -0.0985
  C  C3182  1  0.003830  0.485980  0.249000  1.0  0.0472
  C  C3183  1  0.981180  0.472400  0.248400  1.0  -0.0984
  C  C3184  1  0.880050  0.561760  0.302200  1.0  0.7458
  C  C3185  1  0.168280  0.738300  0.624200  1.0  0.6612
  C  C3186  1  0.196220  0.731700  0.623300  1.0  -0.165
  C  C3187  1  0.203290  0.706200  0.624200  1.0  -0.0056
  C  C3188  1  0.228650  0.699740  0.622700  1.0  -0.1291
  C  C3189  1  0.235100  0.671820  0.622200  1.0  0.7109
  C  C3190  1  0.246990  0.718600  0.621100  1.0  -0.0524
  C  C3191  1  0.214760  0.750420  0.621200  1.0  -0.0632
  C  C3192  1  0.240340  0.744270  0.620600  1.0  -0.083
  C  C3193  1  0.260200  0.764540  0.619500  1.0  0.0339
  C  C3194  1  0.285670  0.758580  0.618100  1.0  -0.101
  C  C3195  1  0.254100  0.790450  0.619300  1.0  -0.0946
  C  C3196  1  0.272700  0.808930  0.617000  1.0  -0.128
  C  C3197  1  0.266300  0.836800  0.616600  1.0  0.7238
  C  C3198  1  0.297400  0.802200  0.615500  1.0  -0.0687
  C  C3199  1  0.304310  0.777050  0.617000  1.0  -0.144
  C  C3200  1  0.331980  0.770100  0.616400  1.0  0.7214
  C  C3201  1  0.144110  0.802180  0.575470  1.0  0.7228
  C  C3202  1  0.158460  0.822380  0.561340  1.0  -0.1474
  C  C3203  1  0.174160  0.838910  0.574520  1.0  0.0061
  C  C3204  1  0.189010  0.855890  0.560730  1.0  -0.1468
  C  C3205  1  0.207710  0.872510  0.574290  1.0  0.7569
  C  C3206  1  0.187090  0.857110  0.534540  1.0  -0.0613
  C  C3207  1  0.156970  0.823340  0.534950  1.0  -0.0752
  C  C3208  1  0.170960  0.840800  0.521500  1.0  0.0261
  C  C3209  1  0.169180  0.842410  0.492690  1.0  0.1638
  C  C3210  1  0.183050  0.860210  0.479000  1.0  -0.0375
  C  C3211  1  0.181130  0.861810  0.452560  1.0  -0.0003
  C  C3212  1  0.165300  0.845430  0.439610  1.0  -0.0061
  C  C3213  1  0.152600  0.826800  0.452890  1.0  0.0433
  C  C3214  1  0.138000  0.807200  0.438800  1.0  0.7057
  C  C3215  1  0.154700  0.825300  0.478760  1.0  -0.073
  C  C3216  1  0.069000  0.798800  0.629500  1.0  0.7267
  C  C3217  1  0.054900  0.816900  0.646700  1.0  -0.0476
  C  C3218  1  0.068780  0.832200  0.663100  1.0  0.008
  C  C3219  1  0.055670  0.846000  0.681500  1.0  -0.0428
  C  C3220  1  0.069850  0.860500  0.701500  1.0  0.7309
  C  C3221  1  0.029050  0.845100  0.682100  1.0  -0.0723
  C  C3222  1  0.028180  0.816200  0.647820  1.0  -0.0367
  C  C3223  1  0.015050  0.830800  0.664990  1.0  0.0763
  C  C3224  1  0.986240  0.830300  0.666440  1.0  0.0675
  C  C3225  1  0.971650  0.815770  0.649780  1.0  -0.0706
  C  C3226  1  0.945360  0.815280  0.651160  1.0  -0.1305
  C  C3227  1  0.930210  0.797800  0.634850  1.0  0.7181
  C  C3228  1  0.932850  0.829610  0.669200  1.0  0.0021
  C  C3229  1  0.947540  0.843610  0.686620  1.0  -0.1398
  C  C3230  1  0.934140  0.857410  0.707860  1.0  0.7551
  C  C3231  1  0.973740  0.843500  0.685320  1.0  -0.0671
  C  C3232  1  0.253700  0.956960  0.568490  1.0  0.7417
  C  C3233  1  0.252800  0.981340  0.553760  1.0  -0.1538
  C  C3234  1  0.252500  0.004210  0.566860  1.0  -0.0539
  C  C3235  1  0.251000  0.026430  0.553680  1.0  -0.1123
  C  C3236  1  0.250800  0.050690  0.568380  1.0  0.7283
  C  C3237  1  0.250000  0.026620  0.527500  1.0  -0.0981
  C  C3238  1  0.251000  0.003830  0.514020  1.0  0.0467
  C  C3239  1  0.251600  0.981180  0.527600  1.0  -0.0973
  C  C3240  1  0.197800  0.880050  0.438240  1.0  0.7421
  C  C3241  1  0.668280  0.238300  0.124200  1.0  0.6612
  C  C3242  1  0.696220  0.231700  0.123300  1.0  -0.165
  C  C3243  1  0.703290  0.206200  0.124200  1.0  -0.0056
  C  C3244  1  0.728650  0.199740  0.122700  1.0  -0.1291
  C  C3245  1  0.735100  0.171820  0.122200  1.0  0.7109
  C  C3246  1  0.746990  0.218600  0.121100  1.0  -0.0524
  C  C3247  1  0.714760  0.250420  0.121200  1.0  -0.0632
  C  C3248  1  0.740340  0.244270  0.120600  1.0  -0.083
  C  C3249  1  0.760200  0.264540  0.119500  1.0  0.0339
  C  C3250  1  0.785670  0.258580  0.118100  1.0  -0.101
  C  C3251  1  0.754100  0.290450  0.119300  1.0  -0.0946
  C  C3252  1  0.772700  0.308930  0.117000  1.0  -0.128
  C  C3253  1  0.766300  0.336800  0.116600  1.0  0.7238
  C  C3254  1  0.797400  0.302200  0.115500  1.0  -0.0687
  C  C3255  1  0.804310  0.277050  0.117000  1.0  -0.144
  C  C3256  1  0.831980  0.270100  0.116400  1.0  0.7214
  C  C3257  1  0.644110  0.302180  0.075470  1.0  0.7228
  C  C3258  1  0.658460  0.322380  0.061340  1.0  -0.1474
  C  C3259  1  0.674160  0.338910  0.074520  1.0  0.0061
  C  C3260  1  0.689010  0.355890  0.060730  1.0  -0.1468
  C  C3261  1  0.707710  0.372510  0.074290  1.0  0.7569
  C  C3262  1  0.687090  0.357110  0.034540  1.0  -0.0613
  C  C3263  1  0.656970  0.323340  0.034950  1.0  -0.0752
  C  C3264  1  0.670960  0.340800  0.021500  1.0  0.0261
  C  C3265  1  0.669180  0.342410  0.992690  1.0  0.1543
  C  C3266  1  0.683050  0.360210  0.979000  1.0  -0.0456
  C  C3267  1  0.681130  0.361810  0.952560  1.0  -0.0003
  C  C3268  1  0.665300  0.345430  0.939610  1.0  -0.0061
  C  C3269  1  0.652600  0.326800  0.952890  1.0  0.0433
  C  C3270  1  0.638000  0.307200  0.938800  1.0  0.7057
  C  C3271  1  0.654700  0.325300  0.978760  1.0  -0.073
  C  C3272  1  0.569000  0.298800  0.129500  1.0  0.7267
  C  C3273  1  0.554900  0.316900  0.146700  1.0  -0.0476
  C  C3274  1  0.568780  0.332200  0.163100  1.0  0.008
  C  C3275  1  0.555670  0.346000  0.181500  1.0  -0.0428
  C  C3276  1  0.569850  0.360500  0.201500  1.0  0.7309
  C  C3277  1  0.529050  0.345100  0.182100  1.0  -0.0723
  C  C3278  1  0.528180  0.316200  0.147820  1.0  -0.0367
  C  C3279  1  0.515050  0.330800  0.164990  1.0  0.0728
  C  C3280  1  0.486240  0.330300  0.166440  1.0  0.0675
  C  C3281  1  0.471650  0.315770  0.149780  1.0  -0.0706
  C  C3282  1  0.445360  0.315280  0.151160  1.0  -0.1305
  C  C3283  1  0.430210  0.297800  0.134850  1.0  0.7181
  C  C3284  1  0.432850  0.329610  0.169200  1.0  0.0021
  C  C3285  1  0.447540  0.343610  0.186620  1.0  -0.1398
  C  C3286  1  0.434140  0.357410  0.207860  1.0  0.7551
  C  C3287  1  0.473740  0.343500  0.185320  1.0  -0.0671
  C  C3288  1  0.753700  0.456960  0.068490  1.0  0.7417
  C  C3289  1  0.752800  0.481340  0.053760  1.0  -0.1538
  C  C3290  1  0.752500  0.504210  0.066860  1.0  -0.0539
  C  C3291  1  0.751000  0.526430  0.053680  1.0  -0.1123
  C  C3292  1  0.750800  0.550690  0.068380  1.0  0.7283
  C  C3293  1  0.750000  0.526620  0.027500  1.0  -0.0981
  C  C3294  1  0.751000  0.503830  0.014020  1.0  0.0467
  C  C3295  1  0.751600  0.481180  0.027600  1.0  -0.0973
  C  C3296  1  0.697800  0.380050  0.938240  1.0  0.7421
  C  C3297  1  0.668280  0.761700  0.375800  1.0  0.6609
  C  C3298  1  0.696220  0.768300  0.376700  1.0  -0.1659
  C  C3299  1  0.703290  0.793800  0.375800  1.0  -0.0048
  C  C3300  1  0.728650  0.800260  0.377300  1.0  -0.1302
  C  C3301  1  0.735100  0.828180  0.377800  1.0  0.7109
  C  C3302  1  0.746990  0.781400  0.378900  1.0  -0.052
  C  C3303  1  0.714760  0.749580  0.378800  1.0  -0.0642
  C  C3304  1  0.740340  0.755730  0.379400  1.0  -0.0827
  C  C3305  1  0.760200  0.735460  0.380500  1.0  0.034
  C  C3306  1  0.785670  0.741420  0.381900  1.0  -0.1016
  C  C3307  1  0.754100  0.709550  0.380700  1.0  -0.0946
  C  C3308  1  0.772700  0.691070  0.383000  1.0  -0.1278
  C  C3309  1  0.766300  0.663200  0.383400  1.0  0.7243
  C  C3310  1  0.797400  0.697800  0.384500  1.0  -0.0681
  C  C3311  1  0.804310  0.722950  0.383000  1.0  -0.1445
  C  C3312  1  0.831980  0.729900  0.383600  1.0  0.7214
  C  C3313  1  0.644110  0.697820  0.424530  1.0  0.7228
  C  C3314  1  0.658460  0.677620  0.438660  1.0  -0.1474
  C  C3315  1  0.674160  0.661090  0.425480  1.0  0.0087
  C  C3316  1  0.689010  0.644110  0.439270  1.0  -0.1468
  C  C3317  1  0.707710  0.627490  0.425710  1.0  0.7565
  C  C3318  1  0.687090  0.642890  0.465460  1.0  -0.0614
  C  C3319  1  0.656970  0.676660  0.465050  1.0  -0.0757
  C  C3320  1  0.670960  0.659200  0.478500  1.0  0.0261
  C  C3321  1  0.669180  0.657590  0.507310  1.0  0.1638
  C  C3322  1  0.683050  0.639790  0.521000  1.0  -0.037
  C  C3323  1  0.681130  0.638190  0.547440  1.0  -0.0003
  C  C3324  1  0.665300  0.654570  0.560390  1.0  -0.0071
  C  C3325  1  0.652600  0.673200  0.547110  1.0  0.0436
  C  C3326  1  0.638000  0.692800  0.561200  1.0  0.706
  C  C3327  1  0.654700  0.674700  0.521240  1.0  -0.0735
  C  C3328  1  0.569000  0.701200  0.370500  1.0  0.7259
  C  C3329  1  0.554900  0.683100  0.353300  1.0  -0.0478
  C  C3330  1  0.568780  0.667800  0.336900  1.0  0.0083
  C  C3331  1  0.555670  0.654000  0.318500  1.0  -0.0426
  C  C3332  1  0.569850  0.639500  0.298500  1.0  0.7307
  C  C3333  1  0.529050  0.654900  0.317900  1.0  -0.072
  C  C3334  1  0.528180  0.683800  0.352180  1.0  -0.0374
  C  C3335  1  0.515050  0.669200  0.335010  1.0  0.0724
  C  C3336  1  0.486240  0.669700  0.333560  1.0  0.0672
  C  C3337  1  0.471650  0.684230  0.350220  1.0  -0.0696
  C  C3338  1  0.445360  0.684720  0.348840  1.0  -0.1294
  C  C3339  1  0.430210  0.702200  0.365150  1.0  0.7179
  C  C3340  1  0.432850  0.670390  0.330800  1.0  0.0019
  C  C3341  1  0.447540  0.656390  0.313380  1.0  -0.1398
  C  C3342  1  0.434140  0.642590  0.292140  1.0  0.7552
  C  C3343  1  0.473740  0.656500  0.314680  1.0  -0.0669
  C  C3344  1  0.753700  0.543040  0.431510  1.0  0.7411
  C  C3345  1  0.752800  0.518660  0.446240  1.0  -0.1532
  C  C3346  1  0.752500  0.495790  0.433140  1.0  -0.0536
  C  C3347  1  0.751000  0.473570  0.446320  1.0  -0.1122
  C  C3348  1  0.750800  0.449310  0.431620  1.0  0.7286
  C  C3349  1  0.750000  0.473380  0.472500  1.0  -0.0969
  C  C3350  1  0.751000  0.496170  0.485980  1.0  0.0465
  C  C3351  1  0.751600  0.518820  0.472400  1.0  -0.0986
  C  C3352  1  0.697800  0.619950  0.561760  1.0  0.7438
  C  C3353  1  0.168280  0.261700  0.875800  1.0  0.6609
  C  C3354  1  0.196220  0.268300  0.876700  1.0  -0.1659
  C  C3355  1  0.203290  0.293800  0.875800  1.0  -0.0048
  C  C3356  1  0.228650  0.300260  0.877300  1.0  -0.1302
  C  C3357  1  0.235100  0.328180  0.877800  1.0  0.7109
  C  C3358  1  0.246990  0.281400  0.878900  1.0  -0.052
  C  C3359  1  0.214760  0.249580  0.878800  1.0  -0.0642
  C  C3360  1  0.240340  0.255730  0.879400  1.0  -0.0827
  C  C3361  1  0.260200  0.235460  0.880500  1.0  0.034
  C  C3362  1  0.285670  0.241420  0.881900  1.0  -0.1016
  C  C3363  1  0.254100  0.209550  0.880700  1.0  -0.0946
  C  C3364  1  0.272700  0.191070  0.883000  1.0  -0.1278
  C  C3365  1  0.266300  0.163200  0.883400  1.0  0.7243
  C  C3366  1  0.297400  0.197800  0.884500  1.0  -0.0681
  C  C3367  1  0.304310  0.222950  0.883000  1.0  -0.1445
  C  C3368  1  0.331980  0.229900  0.883600  1.0  0.7214
  C  C3369  1  0.144110  0.197820  0.924530  1.0  0.7228
  C  C3370  1  0.158460  0.177620  0.938660  1.0  -0.1474
  C  C3371  1  0.174160  0.161090  0.925480  1.0  0.0087
  C  C3372  1  0.189010  0.144110  0.939270  1.0  -0.1468
  C  C3373  1  0.207710  0.127490  0.925710  1.0  0.7565
  C  C3374  1  0.187090  0.142890  0.965460  1.0  -0.0614
  C  C3375  1  0.156970  0.176660  0.965050  1.0  -0.0757
  C  C3376  1  0.170960  0.159200  0.978500  1.0  0.0261
  C  C3377  1  0.169180  0.157590  0.007310  1.0  0.1553
  C  C3378  1  0.183050  0.139790  0.021000  1.0  -0.0347
  C  C3379  1  0.181130  0.138190  0.047440  1.0  -0.0003
  C  C3380  1  0.165300  0.154570  0.060390  1.0  -0.0071
  C  C3381  1  0.152600  0.173200  0.047110  1.0  0.0436
  C  C3382  1  0.138000  0.192800  0.061200  1.0  0.706
  C  C3383  1  0.154700  0.174700  0.021240  1.0  -0.0735
  C  C3384  1  0.069000  0.201200  0.870500  1.0  0.7259
  C  C3385  1  0.054900  0.183100  0.853300  1.0  -0.0478
  C  C3386  1  0.068780  0.167800  0.836900  1.0  0.0083
  C  C3387  1  0.055670  0.154000  0.818500  1.0  -0.0426
  C  C3388  1  0.069850  0.139500  0.798500  1.0  0.7307
  C  C3389  1  0.029050  0.154900  0.817900  1.0  -0.072
  C  C3390  1  0.028180  0.183800  0.852180  1.0  -0.0374
  C  C3391  1  0.015050  0.169200  0.835010  1.0  0.0758
  C  C3392  1  0.986240  0.169700  0.833560  1.0  0.0672
  C  C3393  1  0.971650  0.184230  0.850220  1.0  -0.0696
  C  C3394  1  0.945360  0.184720  0.848840  1.0  -0.1294
  C  C3395  1  0.930210  0.202200  0.865150  1.0  0.7179
  C  C3396  1  0.932850  0.170390  0.830800  1.0  0.0019
  C  C3397  1  0.947540  0.156390  0.813380  1.0  -0.1398
  C  C3398  1  0.934140  0.142590  0.792140  1.0  0.7552
  C  C3399  1  0.973740  0.156500  0.814680  1.0  -0.0669
  C  C3400  1  0.253700  0.043040  0.931510  1.0  0.7411
  C  C3401  1  0.252800  0.018660  0.946240  1.0  -0.1532
  C  C3402  1  0.252500  0.995790  0.933140  1.0  -0.0536
  C  C3403  1  0.251000  0.973570  0.946320  1.0  -0.1122
  C  C3404  1  0.250800  0.949310  0.931620  1.0  0.7286
  C  C3405  1  0.250000  0.973380  0.972500  1.0  -0.0969
  C  C3406  1  0.251000  0.996170  0.985980  1.0  0.0465
  C  C3407  1  0.251600  0.018820  0.972400  1.0  -0.0986
  C  C3408  1  0.197800  0.119950  0.061760  1.0  0.7438
  C  C3409  1  0.331720  0.261700  0.124200  1.0  0.6612
  C  C3410  1  0.303780  0.268300  0.123300  1.0  -0.1652
  C  C3411  1  0.296710  0.293800  0.124200  1.0  -0.0053
  C  C3412  1  0.271350  0.300260  0.122700  1.0  -0.1294
  C  C3413  1  0.264900  0.328180  0.122200  1.0  0.7116
  C  C3414  1  0.253010  0.281400  0.121100  1.0  -0.0514
  C  C3415  1  0.285240  0.249580  0.121200  1.0  -0.0635
  C  C3416  1  0.259660  0.255730  0.120600  1.0  -0.0822
  C  C3417  1  0.239800  0.235460  0.119500  1.0  0.0342
  C  C3418  1  0.214330  0.241420  0.118100  1.0  -0.1014
  C  C3419  1  0.245900  0.209550  0.119300  1.0  -0.0948
  C  C3420  1  0.227300  0.191070  0.117000  1.0  -0.1286
  C  C3421  1  0.233700  0.163200  0.116600  1.0  0.7254
  C  C3422  1  0.202600  0.197800  0.115500  1.0  -0.0688
  C  C3423  1  0.195690  0.222950  0.117000  1.0  -0.1448
  C  C3424  1  0.168020  0.229900  0.116400  1.0  0.7211
  C  C3425  1  0.355890  0.197820  0.075470  1.0  0.7229
  C  C3426  1  0.341540  0.177620  0.061340  1.0  -0.1469
  C  C3427  1  0.325840  0.161090  0.074520  1.0  0.0052
  C  C3428  1  0.310990  0.144110  0.060730  1.0  -0.1475
  C  C3429  1  0.292290  0.127490  0.074290  1.0  0.7571
  C  C3430  1  0.312910  0.142890  0.034540  1.0  -0.0613
  C  C3431  1  0.343030  0.176660  0.034950  1.0  -0.0736
  C  C3432  1  0.329040  0.159200  0.021500  1.0  0.0265
  C  C3433  1  0.330820  0.157590  0.992690  1.0  0.1539
  C  C3434  1  0.316950  0.139790  0.979000  1.0  -0.0374
  C  C3435  1  0.318870  0.138190  0.952560  1.0  -0.0009
  C  C3436  1  0.334700  0.154570  0.939610  1.0  -0.0063
  C  C3437  1  0.347400  0.173200  0.952890  1.0  0.0438
  C  C3438  1  0.362000  0.192800  0.938800  1.0  0.7075
  C  C3439  1  0.345300  0.174700  0.978760  1.0  -0.074
  C  C3440  1  0.431000  0.201200  0.129500  1.0  0.7272
  C  C3441  1  0.445100  0.183100  0.146700  1.0  -0.0473
  C  C3442  1  0.431220  0.167800  0.163100  1.0  0.0064
  C  C3443  1  0.444330  0.154000  0.181500  1.0  -0.0425
  C  C3444  1  0.430150  0.139500  0.201500  1.0  0.7313
  C  C3445  1  0.470950  0.154900  0.182100  1.0  -0.0712
  C  C3446  1  0.471820  0.183800  0.147820  1.0  -0.0371
  C  C3447  1  0.484950  0.169200  0.164990  1.0  0.0732
  C  C3448  1  0.513760  0.169700  0.166440  1.0  0.0669
  C  C3449  1  0.528350  0.184230  0.149780  1.0  -0.0694
  C  C3450  1  0.554640  0.184720  0.151160  1.0  -0.1305
  C  C3451  1  0.569790  0.202200  0.134850  1.0  0.7189
  C  C3452  1  0.567150  0.170390  0.169200  1.0  0.004
  C  C3453  1  0.552460  0.156390  0.186620  1.0  -0.1389
  C  C3454  1  0.565860  0.142590  0.207860  1.0  0.7543
  C  C3455  1  0.526260  0.156500  0.185320  1.0  -0.0685
  C  C3456  1  0.246300  0.043040  0.068490  1.0  0.7413
  C  C3457  1  0.247200  0.018660  0.053760  1.0  -0.1537
  C  C3458  1  0.247500  0.995790  0.066860  1.0  -0.0542
  C  C3459  1  0.249000  0.973570  0.053680  1.0  -0.1119
  C  C3460  1  0.249200  0.949310  0.068380  1.0  0.7285
  C  C3461  1  0.250000  0.973380  0.027500  1.0  -0.097
  C  C3462  1  0.249000  0.996170  0.014020  1.0  0.0467
  C  C3463  1  0.248400  0.018820  0.027600  1.0  -0.0988
  C  C3464  1  0.302200  0.119950  0.938240  1.0  0.7439
  C  C3465  1  0.831720  0.761700  0.624200  1.0  0.6612
  C  C3466  1  0.803780  0.768300  0.623300  1.0  -0.1652
  C  C3467  1  0.796710  0.793800  0.624200  1.0  -0.0053
  C  C3468  1  0.771350  0.800260  0.622700  1.0  -0.1294
  C  C3469  1  0.764900  0.828180  0.622200  1.0  0.7116
  C  C3470  1  0.753010  0.781400  0.621100  1.0  -0.0514
  C  C3471  1  0.785240  0.749580  0.621200  1.0  -0.0635
  C  C3472  1  0.759660  0.755730  0.620600  1.0  -0.0822
  C  C3473  1  0.739800  0.735460  0.619500  1.0  0.0342
  C  C3474  1  0.714330  0.741420  0.618100  1.0  -0.1014
  C  C3475  1  0.745900  0.709550  0.619300  1.0  -0.0948
  C  C3476  1  0.727300  0.691070  0.617000  1.0  -0.1286
  C  C3477  1  0.733700  0.663200  0.616600  1.0  0.7254
  C  C3478  1  0.702600  0.697800  0.615500  1.0  -0.0688
  C  C3479  1  0.695690  0.722950  0.617000  1.0  -0.1448
  C  C3480  1  0.668020  0.729900  0.616400  1.0  0.7211
  C  C3481  1  0.855890  0.697820  0.575470  1.0  0.7229
  C  C3482  1  0.841540  0.677620  0.561340  1.0  -0.1469
  C  C3483  1  0.825840  0.661090  0.574520  1.0  0.0052
  C  C3484  1  0.810990  0.644110  0.560730  1.0  -0.1475
  C  C3485  1  0.792290  0.627490  0.574290  1.0  0.7571
  C  C3486  1  0.812910  0.642890  0.534540  1.0  -0.0613
  C  C3487  1  0.843030  0.676660  0.534950  1.0  -0.0736
  C  C3488  1  0.829040  0.659200  0.521500  1.0  0.0265
  C  C3489  1  0.830820  0.657590  0.492690  1.0  0.1636
  C  C3490  1  0.816950  0.639790  0.479000  1.0  -0.0377
  C  C3491  1  0.818870  0.638190  0.452560  1.0  -0.0009
  C  C3492  1  0.834700  0.654570  0.439610  1.0  -0.0063
  C  C3493  1  0.847400  0.673200  0.452890  1.0  0.0438
  C  C3494  1  0.862000  0.692800  0.438800  1.0  0.7075
  C  C3495  1  0.845300  0.674700  0.478760  1.0  -0.074
  C  C3496  1  0.931000  0.701200  0.629500  1.0  0.7272
  C  C3497  1  0.945100  0.683100  0.646700  1.0  -0.0473
  C  C3498  1  0.931220  0.667800  0.663100  1.0  0.0064
  C  C3499  1  0.944330  0.654000  0.681500  1.0  -0.0425
  C  C3500  1  0.930150  0.639500  0.701500  1.0  0.7313
  C  C3501  1  0.970950  0.654900  0.682100  1.0  -0.0712
  C  C3502  1  0.971820  0.683800  0.647820  1.0  -0.0371
  C  C3503  1  0.984950  0.669200  0.664990  1.0  0.0765
  C  C3504  1  0.013760  0.669700  0.666440  1.0  0.0669
  C  C3505  1  0.028350  0.684230  0.649780  1.0  -0.0694
  C  C3506  1  0.054640  0.684720  0.651160  1.0  -0.1305
  C  C3507  1  0.069790  0.702200  0.634850  1.0  0.7189
  C  C3508  1  0.067150  0.670390  0.669200  1.0  0.004
  C  C3509  1  0.052460  0.656390  0.686620  1.0  -0.1389
  C  C3510  1  0.065860  0.642590  0.707860  1.0  0.7543
  C  C3511  1  0.026260  0.656500  0.685320  1.0  -0.0685
  C  C3512  1  0.746300  0.543040  0.568490  1.0  0.7413
  C  C3513  1  0.747200  0.518660  0.553760  1.0  -0.1537
  C  C3514  1  0.747500  0.495790  0.566860  1.0  -0.0542
  C  C3515  1  0.749000  0.473570  0.553680  1.0  -0.1119
  C  C3516  1  0.749200  0.449310  0.568380  1.0  0.7285
  C  C3517  1  0.750000  0.473380  0.527500  1.0  -0.097
  C  C3518  1  0.749000  0.496170  0.514020  1.0  0.0467
  C  C3519  1  0.748400  0.518820  0.527600  1.0  -0.0988
  C  C3520  1  0.802200  0.619950  0.438240  1.0  0.7439
  C  C3521  1  0.831720  0.238300  0.875800  1.0  0.6613
  C  C3522  1  0.803780  0.231700  0.876700  1.0  -0.1653
  C  C3523  1  0.796710  0.206200  0.875800  1.0  -0.0059
  C  C3524  1  0.771350  0.199740  0.877300  1.0  -0.1296
  C  C3525  1  0.764900  0.171820  0.877800  1.0  0.7113
  C  C3526  1  0.753010  0.218600  0.878900  1.0  -0.0506
  C  C3527  1  0.785240  0.250420  0.878800  1.0  -0.0622
  C  C3528  1  0.759660  0.244270  0.879400  1.0  -0.0823
  C  C3529  1  0.739800  0.264540  0.880500  1.0  0.0345
  C  C3530  1  0.714330  0.258580  0.881900  1.0  -0.1016
  C  C3531  1  0.745900  0.290450  0.880700  1.0  -0.0949
  C  C3532  1  0.727300  0.308930  0.883000  1.0  -0.1292
  C  C3533  1  0.733700  0.336800  0.883400  1.0  0.7254
  C  C3534  1  0.702600  0.302200  0.884500  1.0  -0.0701
  C  C3535  1  0.695690  0.277050  0.883000  1.0  -0.1453
  C  C3536  1  0.668020  0.270100  0.883600  1.0  0.7221
  C  C3537  1  0.855890  0.302180  0.924530  1.0  0.7226
  C  C3538  1  0.841540  0.322380  0.938660  1.0  -0.1474
  C  C3539  1  0.825840  0.338910  0.925480  1.0  0.0077
  C  C3540  1  0.810990  0.355890  0.939270  1.0  -0.1471
  C  C3541  1  0.792290  0.372510  0.925710  1.0  0.7567
  C  C3542  1  0.812910  0.357110  0.965460  1.0  -0.0622
  C  C3543  1  0.843030  0.323340  0.965050  1.0  -0.0746
  C  C3544  1  0.829040  0.340800  0.978500  1.0  0.0264
  C  C3545  1  0.830820  0.342410  0.007310  1.0  0.1568
  C  C3546  1  0.816950  0.360210  0.021000  1.0  -0.0458
  C  C3547  1  0.818870  0.361810  0.047440  1.0  -0.0003
  C  C3548  1  0.834700  0.345430  0.060390  1.0  -0.0072
  C  C3549  1  0.847400  0.326800  0.047110  1.0  0.0433
  C  C3550  1  0.862000  0.307200  0.061200  1.0  0.706
  C  C3551  1  0.845300  0.325300  0.021240  1.0  -0.0729
  C  C3552  1  0.931000  0.298800  0.870500  1.0  0.7273
  C  C3553  1  0.945100  0.316900  0.853300  1.0  -0.0482
  C  C3554  1  0.931220  0.332200  0.836900  1.0  0.0066
  C  C3555  1  0.944330  0.346000  0.818500  1.0  -0.0424
  C  C3556  1  0.930150  0.360500  0.798500  1.0  0.731
  C  C3557  1  0.970950  0.345100  0.817900  1.0  -0.0709
  C  C3558  1  0.971820  0.316200  0.852180  1.0  -0.038
  C  C3559  1  0.984950  0.330800  0.835010  1.0  0.0762
  C  C3560  1  0.013760  0.330300  0.833560  1.0  0.0666
  C  C3561  1  0.028350  0.315770  0.850220  1.0  -0.0703
  C  C3562  1  0.054640  0.315280  0.848840  1.0  -0.1294
  C  C3563  1  0.069790  0.297800  0.865150  1.0  0.7176
  C  C3564  1  0.067150  0.329610  0.830800  1.0  0.0034
  C  C3565  1  0.052460  0.343610  0.813380  1.0  -0.1393
  C  C3566  1  0.065860  0.357410  0.792140  1.0  0.7549
  C  C3567  1  0.026260  0.343500  0.814680  1.0  -0.0661
  C  C3568  1  0.746300  0.456960  0.931510  1.0  0.7419
  C  C3569  1  0.747200  0.481340  0.946240  1.0  -0.1539
  C  C3570  1  0.747500  0.504210  0.933140  1.0  -0.054
  C  C3571  1  0.749000  0.526430  0.946320  1.0  -0.1122
  C  C3572  1  0.749200  0.550690  0.931620  1.0  0.7285
  C  C3573  1  0.750000  0.526620  0.972500  1.0  -0.0983
  C  C3574  1  0.749000  0.503830  0.985980  1.0  0.0465
  C  C3575  1  0.748400  0.481180  0.972400  1.0  -0.0975
  C  C3576  1  0.802200  0.380050  0.061760  1.0  0.7436
  C  C3577  1  0.331720  0.738300  0.375800  1.0  0.6613
  C  C3578  1  0.303780  0.731700  0.376700  1.0  -0.1653
  C  C3579  1  0.296710  0.706200  0.375800  1.0  -0.0059
  C  C3580  1  0.271350  0.699740  0.377300  1.0  -0.1296
  C  C3581  1  0.264900  0.671820  0.377800  1.0  0.7113
  C  C3582  1  0.253010  0.718600  0.378900  1.0  -0.0506
  C  C3583  1  0.285240  0.750420  0.378800  1.0  -0.0622
  C  C3584  1  0.259660  0.744270  0.379400  1.0  -0.0823
  C  C3585  1  0.239800  0.764540  0.380500  1.0  0.0345
  C  C3586  1  0.214330  0.758580  0.381900  1.0  -0.1016
  C  C3587  1  0.245900  0.790450  0.380700  1.0  -0.0949
  C  C3588  1  0.227300  0.808930  0.383000  1.0  -0.1292
  C  C3589  1  0.233700  0.836800  0.383400  1.0  0.7254
  C  C3590  1  0.202600  0.802200  0.384500  1.0  -0.0701
  C  C3591  1  0.195690  0.777050  0.383000  1.0  -0.1453
  C  C3592  1  0.168020  0.770100  0.383600  1.0  0.7221
  C  C3593  1  0.355890  0.802180  0.424530  1.0  0.7226
  C  C3594  1  0.341540  0.822380  0.438660  1.0  -0.1474
  C  C3595  1  0.325840  0.838910  0.425480  1.0  0.0077
  C  C3596  1  0.310990  0.855890  0.439270  1.0  -0.1471
  C  C3597  1  0.292290  0.872510  0.425710  1.0  0.7567
  C  C3598  1  0.312910  0.857110  0.465460  1.0  -0.0622
  C  C3599  1  0.343030  0.823340  0.465050  1.0  -0.0746
  C  C3600  1  0.329040  0.840800  0.478500  1.0  0.0264
  C  C3601  1  0.330820  0.842410  0.507310  1.0  0.1638
  C  C3602  1  0.316950  0.860210  0.521000  1.0  -0.0376
  C  C3603  1  0.318870  0.861810  0.547440  1.0  -0.0003
  C  C3604  1  0.334700  0.845430  0.560390  1.0  -0.0072
  C  C3605  1  0.347400  0.826800  0.547110  1.0  0.0433
  C  C3606  1  0.362000  0.807200  0.561200  1.0  0.706
  C  C3607  1  0.345300  0.825300  0.521240  1.0  -0.0729
  C  C3608  1  0.431000  0.798800  0.370500  1.0  0.7273
  C  C3609  1  0.445100  0.816900  0.353300  1.0  -0.0482
  C  C3610  1  0.431220  0.832200  0.336900  1.0  0.0066
  C  C3611  1  0.444330  0.846000  0.318500  1.0  -0.0424
  C  C3612  1  0.430150  0.860500  0.298500  1.0  0.731
  C  C3613  1  0.470950  0.845100  0.317900  1.0  -0.0709
  C  C3614  1  0.471820  0.816200  0.352180  1.0  -0.038
  C  C3615  1  0.484950  0.830800  0.335010  1.0  0.0729
  C  C3616  1  0.513760  0.830300  0.333560  1.0  0.0666
  C  C3617  1  0.528350  0.815770  0.350220  1.0  -0.0703
  C  C3618  1  0.554640  0.815280  0.348840  1.0  -0.1294
  C  C3619  1  0.569790  0.797800  0.365150  1.0  0.7176
  C  C3620  1  0.567150  0.829610  0.330800  1.0  0.0034
  C  C3621  1  0.552460  0.843610  0.313380  1.0  -0.1393
  C  C3622  1  0.565860  0.857410  0.292140  1.0  0.7549
  C  C3623  1  0.526260  0.843500  0.314680  1.0  -0.0661
  C  C3624  1  0.246300  0.956960  0.431510  1.0  0.7419
  C  C3625  1  0.247200  0.981340  0.446240  1.0  -0.1539
  C  C3626  1  0.247500  0.004210  0.433140  1.0  -0.054
  C  C3627  1  0.249000  0.026430  0.446320  1.0  -0.1122
  C  C3628  1  0.249200  0.050690  0.431620  1.0  0.7285
  C  C3629  1  0.250000  0.026620  0.472500  1.0  -0.0983
  C  C3630  1  0.249000  0.003830  0.485980  1.0  0.0465
  C  C3631  1  0.248400  0.981180  0.472400  1.0  -0.0975
  C  C3632  1  0.302200  0.880050  0.561760  1.0  0.7436
  C  C3633  1  0.624200  0.168280  0.738300  1.0  0.6633
  C  C3634  1  0.623300  0.196220  0.731700  1.0  -0.1666
  C  C3635  1  0.624200  0.203290  0.706200  1.0  -0.0074
  C  C3636  1  0.622700  0.228650  0.699740  1.0  -0.1329
  C  C3637  1  0.622200  0.235100  0.671820  1.0  0.7122
  C  C3638  1  0.621100  0.246990  0.718600  1.0  -0.0512
  C  C3639  1  0.621200  0.214760  0.750420  1.0  -0.0662
  C  C3640  1  0.620600  0.240340  0.744270  1.0  -0.0819
  C  C3641  1  0.619500  0.260200  0.764540  1.0  0.0338
  C  C3642  1  0.618100  0.285670  0.758580  1.0  -0.1007
  C  C3643  1  0.619300  0.254100  0.790450  1.0  -0.0944
  C  C3644  1  0.617000  0.272700  0.808930  1.0  -0.1281
  C  C3645  1  0.616600  0.266300  0.836800  1.0  0.726
  C  C3646  1  0.615500  0.297400  0.802200  1.0  -0.0709
  C  C3647  1  0.617000  0.304310  0.777050  1.0  -0.1459
  C  C3648  1  0.616400  0.331980  0.770100  1.0  0.722
  C  C3649  1  0.575470  0.144110  0.802180  1.0  0.7223
  C  C3650  1  0.561340  0.158460  0.822380  1.0  -0.1473
  C  C3651  1  0.574520  0.174160  0.838910  1.0  0.0089
  C  C3652  1  0.560730  0.189010  0.855890  1.0  -0.1475
  C  C3653  1  0.574290  0.207710  0.872510  1.0  0.7551
  C  C3654  1  0.534540  0.187090  0.857110  1.0  -0.0605
  C  C3655  1  0.534950  0.156970  0.823340  1.0  -0.0754
  C  C3656  1  0.521500  0.170960  0.840800  1.0  0.0263
  C  C3657  1  0.492690  0.169180  0.842410  1.0  0.1627
  C  C3658  1  0.479000  0.183050  0.860210  1.0  -0.0356
  C  C3659  1  0.452560  0.181130  0.861810  1.0  -0.0009
  C  C3660  1  0.439610  0.165300  0.845430  1.0  -0.0068
  C  C3661  1  0.452890  0.152600  0.826800  1.0  0.0439
  C  C3662  1  0.438800  0.138000  0.807200  1.0  0.7062
  C  C3663  1  0.478760  0.154700  0.825300  1.0  -0.0743
  C  C3664  1  0.629500  0.069000  0.798800  1.0  0.7284
  C  C3665  1  0.646700  0.054900  0.816900  1.0  -0.0463
  C  C3666  1  0.663100  0.068780  0.832200  1.0  0.007
  C  C3667  1  0.681500  0.055670  0.846000  1.0  -0.0439
  C  C3668  1  0.701500  0.069850  0.860500  1.0  0.732
  C  C3669  1  0.682100  0.029050  0.845100  1.0  -0.0716
  C  C3670  1  0.647820  0.028180  0.816200  1.0  -0.0392
  C  C3671  1  0.664990  0.015050  0.830800  1.0  0.0764
  C  C3672  1  0.666440  0.986240  0.830300  1.0  0.0665
  C  C3673  1  0.649780  0.971650  0.815770  1.0  -0.0696
  C  C3674  1  0.651160  0.945360  0.815280  1.0  -0.1295
  C  C3675  1  0.634850  0.930210  0.797800  1.0  0.7175
  C  C3676  1  0.669200  0.932850  0.829610  1.0  0.0032
  C  C3677  1  0.686620  0.947540  0.843610  1.0  -0.1412
  C  C3678  1  0.707860  0.934140  0.857410  1.0  0.7547
  C  C3679  1  0.685320  0.973740  0.843500  1.0  -0.0691
  C  C3680  1  0.568490  0.253700  0.956960  1.0  0.741
  C  C3681  1  0.553760  0.252800  0.981340  1.0  -0.1552
  C  C3682  1  0.566860  0.252500  0.004210  1.0  -0.0499
  C  C3683  1  0.553680  0.251000  0.026430  1.0  -0.1145
  C  C3684  1  0.568380  0.250800  0.050690  1.0  0.7329
  C  C3685  1  0.527500  0.250000  0.026620  1.0  -0.1009
  C  C3686  1  0.514020  0.251000  0.003830  1.0  0.0467
  C  C3687  1  0.527600  0.251600  0.981180  1.0  -0.0998
  C  C3688  1  0.438240  0.197800  0.880050  1.0  0.7496
  C  C3689  1  0.124200  0.668280  0.238300  1.0  0.6633
  C  C3690  1  0.123300  0.696220  0.231700  1.0  -0.1666
  C  C3691  1  0.124200  0.703290  0.206200  1.0  -0.0074
  C  C3692  1  0.122700  0.728650  0.199740  1.0  -0.1329
  C  C3693  1  0.122200  0.735100  0.171820  1.0  0.7122
  C  C3694  1  0.121100  0.746990  0.218600  1.0  -0.0512
  C  C3695  1  0.121200  0.714760  0.250420  1.0  -0.0662
  C  C3696  1  0.120600  0.740340  0.244270  1.0  -0.0819
  C  C3697  1  0.119500  0.760200  0.264540  1.0  0.0338
  C  C3698  1  0.118100  0.785670  0.258580  1.0  -0.1007
  C  C3699  1  0.119300  0.754100  0.290450  1.0  -0.0944
  C  C3700  1  0.117000  0.772700  0.308930  1.0  -0.1281
  C  C3701  1  0.116600  0.766300  0.336800  1.0  0.726
  C  C3702  1  0.115500  0.797400  0.302200  1.0  -0.0709
  C  C3703  1  0.117000  0.804310  0.277050  1.0  -0.1459
  C  C3704  1  0.116400  0.831980  0.270100  1.0  0.722
  C  C3705  1  0.075470  0.644110  0.302180  1.0  0.7223
  C  C3706  1  0.061340  0.658460  0.322380  1.0  -0.1473
  C  C3707  1  0.074520  0.674160  0.338910  1.0  0.0089
  C  C3708  1  0.060730  0.689010  0.355890  1.0  -0.1475
  C  C3709  1  0.074290  0.707710  0.372510  1.0  0.7551
  C  C3710  1  0.034540  0.687090  0.357110  1.0  -0.0605
  C  C3711  1  0.034950  0.656970  0.323340  1.0  -0.0754
  C  C3712  1  0.021500  0.670960  0.340800  1.0  0.0263
  C  C3713  1  0.992690  0.669180  0.342410  1.0  0.1532
  C  C3714  1  0.979000  0.683050  0.360210  1.0  -0.0449
  C  C3715  1  0.952560  0.681130  0.361810  1.0  -0.0009
  C  C3716  1  0.939610  0.665300  0.345430  1.0  -0.0068
  C  C3717  1  0.952890  0.652600  0.326800  1.0  0.0439
  C  C3718  1  0.938800  0.638000  0.307200  1.0  0.7062
  C  C3719  1  0.978760  0.654700  0.325300  1.0  -0.0743
  C  C3720  1  0.129500  0.569000  0.298800  1.0  0.7284
  C  C3721  1  0.146700  0.554900  0.316900  1.0  -0.0463
  C  C3722  1  0.163100  0.568780  0.332200  1.0  0.007
  C  C3723  1  0.181500  0.555670  0.346000  1.0  -0.0439
  C  C3724  1  0.201500  0.569850  0.360500  1.0  0.732
  C  C3725  1  0.182100  0.529050  0.345100  1.0  -0.0716
  C  C3726  1  0.147820  0.528180  0.316200  1.0  -0.0392
  C  C3727  1  0.164990  0.515050  0.330800  1.0  0.0729
  C  C3728  1  0.166440  0.486240  0.330300  1.0  0.0665
  C  C3729  1  0.149780  0.471650  0.315770  1.0  -0.0696
  C  C3730  1  0.151160  0.445360  0.315280  1.0  -0.1295
  C  C3731  1  0.134850  0.430210  0.297800  1.0  0.7175
  C  C3732  1  0.169200  0.432850  0.329610  1.0  0.0032
  C  C3733  1  0.186620  0.447540  0.343610  1.0  -0.1412
  C  C3734  1  0.207860  0.434140  0.357410  1.0  0.7547
  C  C3735  1  0.185320  0.473740  0.343500  1.0  -0.0691
  C  C3736  1  0.068490  0.753700  0.456960  1.0  0.741
  C  C3737  1  0.053760  0.752800  0.481340  1.0  -0.1552
  C  C3738  1  0.066860  0.752500  0.504210  1.0  -0.0499
  C  C3739  1  0.053680  0.751000  0.526430  1.0  -0.1145
  C  C3740  1  0.068380  0.750800  0.550690  1.0  0.7329
  C  C3741  1  0.027500  0.750000  0.526620  1.0  -0.1009
  C  C3742  1  0.014020  0.751000  0.503830  1.0  0.0467
  C  C3743  1  0.027600  0.751600  0.481180  1.0  -0.0998
  C  C3744  1  0.938240  0.697800  0.380050  1.0  0.7496
  C  C3745  1  0.375800  0.668280  0.761700  1.0  0.6626
  C  C3746  1  0.376700  0.696220  0.768300  1.0  -0.1659
  C  C3747  1  0.375800  0.703290  0.793800  1.0  -0.0081
  C  C3748  1  0.377300  0.728650  0.800260  1.0  -0.131
  C  C3749  1  0.377800  0.735100  0.828180  1.0  0.7119
  C  C3750  1  0.378900  0.746990  0.781400  1.0  -0.0504
  C  C3751  1  0.378800  0.714760  0.749580  1.0  -0.0652
  C  C3752  1  0.379400  0.740340  0.755730  1.0  -0.0819
  C  C3753  1  0.380500  0.760200  0.735460  1.0  0.0342
  C  C3754  1  0.381900  0.785670  0.741420  1.0  -0.1015
  C  C3755  1  0.380700  0.754100  0.709550  1.0  -0.093
  C  C3756  1  0.383000  0.772700  0.691070  1.0  -0.1277
  C  C3757  1  0.383400  0.766300  0.663200  1.0  0.7244
  C  C3758  1  0.384500  0.797400  0.697800  1.0  -0.07
  C  C3759  1  0.383000  0.804310  0.722950  1.0  -0.1456
  C  C3760  1  0.383600  0.831980  0.729900  1.0  0.7225
  C  C3761  1  0.424530  0.644110  0.697820  1.0  0.7217
  C  C3762  1  0.438660  0.658460  0.677620  1.0  -0.1471
  C  C3763  1  0.425480  0.674160  0.661090  1.0  0.0069
  C  C3764  1  0.439270  0.689010  0.644110  1.0  -0.1479
  C  C3765  1  0.425710  0.707710  0.627490  1.0  0.7566
  C  C3766  1  0.465460  0.687090  0.642890  1.0  -0.0605
  C  C3767  1  0.465050  0.656970  0.676660  1.0  -0.0754
  C  C3768  1  0.478500  0.670960  0.659200  1.0  0.026
  C  C3769  1  0.507310  0.669180  0.657590  1.0  0.1635
  C  C3770  1  0.521000  0.683050  0.639790  1.0  -0.0366
  C  C3771  1  0.547440  0.681130  0.638190  1.0  -0.001
  C  C3772  1  0.560390  0.665300  0.654570  1.0  -0.0044
  C  C3773  1  0.547110  0.652600  0.673200  1.0  0.0441
  C  C3774  1  0.561200  0.638000  0.692800  1.0  0.7049
  C  C3775  1  0.521240  0.654700  0.674700  1.0  -0.0745
  C  C3776  1  0.370500  0.569000  0.701200  1.0  0.7292
  C  C3777  1  0.353300  0.554900  0.683100  1.0  -0.0454
  C  C3778  1  0.336900  0.568780  0.667800  1.0  0.0068
  C  C3779  1  0.318500  0.555670  0.654000  1.0  -0.0432
  C  C3780  1  0.298500  0.569850  0.639500  1.0  0.7317
  C  C3781  1  0.317900  0.529050  0.654900  1.0  -0.0727
  C  C3782  1  0.352180  0.528180  0.683800  1.0  -0.0395
  C  C3783  1  0.335010  0.515050  0.669200  1.0  0.0714
  C  C3784  1  0.333560  0.486240  0.669700  1.0  0.0669
  C  C3785  1  0.350220  0.471650  0.684230  1.0  -0.0699
  C  C3786  1  0.348840  0.445360  0.684720  1.0  -0.1288
  C  C3787  1  0.365150  0.430210  0.702200  1.0  0.7167
  C  C3788  1  0.330800  0.432850  0.670390  1.0  0.0032
  C  C3789  1  0.313380  0.447540  0.656390  1.0  -0.1408
  C  C3790  1  0.292140  0.434140  0.642590  1.0  0.7556
  C  C3791  1  0.314680  0.473740  0.656500  1.0  -0.0679
  C  C3792  1  0.431510  0.753700  0.543040  1.0  0.7425
  C  C3793  1  0.446240  0.752800  0.518660  1.0  -0.1567
  C  C3794  1  0.433140  0.752500  0.495790  1.0  -0.0545
  C  C3795  1  0.446320  0.751000  0.473570  1.0  -0.1138
  C  C3796  1  0.431620  0.750800  0.449310  1.0  0.7305
  C  C3797  1  0.472500  0.750000  0.473380  1.0  -0.0992
  C  C3798  1  0.485980  0.751000  0.496170  1.0  0.0463
  C  C3799  1  0.472400  0.751600  0.518820  1.0  -0.0978
  C  C3800  1  0.561760  0.697800  0.619950  1.0  0.7475
  C  C3801  1  0.875800  0.168280  0.261700  1.0  0.6626
  C  C3802  1  0.876700  0.196220  0.268300  1.0  -0.1659
  C  C3803  1  0.875800  0.203290  0.293800  1.0  -0.0081
  C  C3804  1  0.877300  0.228650  0.300260  1.0  -0.131
  C  C3805  1  0.877800  0.235100  0.328180  1.0  0.7119
  C  C3806  1  0.878900  0.246990  0.281400  1.0  -0.0504
  C  C3807  1  0.878800  0.214760  0.249580  1.0  -0.0652
  C  C3808  1  0.879400  0.240340  0.255730  1.0  -0.0819
  C  C3809  1  0.880500  0.260200  0.235460  1.0  0.0342
  C  C3810  1  0.881900  0.285670  0.241420  1.0  -0.1015
  C  C3811  1  0.880700  0.254100  0.209550  1.0  -0.093
  C  C3812  1  0.883000  0.272700  0.191070  1.0  -0.1277
  C  C3813  1  0.883400  0.266300  0.163200  1.0  0.7244
  C  C3814  1  0.884500  0.297400  0.197800  1.0  -0.07
  C  C3815  1  0.883000  0.304310  0.222950  1.0  -0.1456
  C  C3816  1  0.883600  0.331980  0.229900  1.0  0.7225
  C  C3817  1  0.924530  0.144110  0.197820  1.0  0.7217
  C  C3818  1  0.938660  0.158460  0.177620  1.0  -0.1471
  C  C3819  1  0.925480  0.174160  0.161090  1.0  0.0069
  C  C3820  1  0.939270  0.189010  0.144110  1.0  -0.1479
  C  C3821  1  0.925710  0.207710  0.127490  1.0  0.7566
  C  C3822  1  0.965460  0.187090  0.142890  1.0  -0.0605
  C  C3823  1  0.965050  0.156970  0.176660  1.0  -0.0754
  C  C3824  1  0.978500  0.170960  0.159200  1.0  0.026
  C  C3825  1  0.007310  0.169180  0.157590  1.0  0.1554
  C  C3826  1  0.021000  0.183050  0.139790  1.0  -0.0346
  C  C3827  1  0.047440  0.181130  0.138190  1.0  -0.001
  C  C3828  1  0.060390  0.165300  0.154570  1.0  -0.0044
  C  C3829  1  0.047110  0.152600  0.173200  1.0  0.0441
  C  C3830  1  0.061200  0.138000  0.192800  1.0  0.7049
  C  C3831  1  0.021240  0.154700  0.174700  1.0  -0.0745
  C  C3832  1  0.870500  0.069000  0.201200  1.0  0.7292
  C  C3833  1  0.853300  0.054900  0.183100  1.0  -0.0454
  C  C3834  1  0.836900  0.068780  0.167800  1.0  0.0068
  C  C3835  1  0.818500  0.055670  0.154000  1.0  -0.0432
  C  C3836  1  0.798500  0.069850  0.139500  1.0  0.7317
  C  C3837  1  0.817900  0.029050  0.154900  1.0  -0.0727
  C  C3838  1  0.852180  0.028180  0.183800  1.0  -0.0395
  C  C3839  1  0.835010  0.015050  0.169200  1.0  0.075
  C  C3840  1  0.833560  0.986240  0.169700  1.0  0.0669
  C  C3841  1  0.850220  0.971650  0.184230  1.0  -0.0699
  C  C3842  1  0.848840  0.945360  0.184720  1.0  -0.1288
  C  C3843  1  0.865150  0.930210  0.202200  1.0  0.7167
  C  C3844  1  0.830800  0.932850  0.170390  1.0  0.0032
  C  C3845  1  0.813380  0.947540  0.156390  1.0  -0.1408
  C  C3846  1  0.792140  0.934140  0.142590  1.0  0.7556
  C  C3847  1  0.814680  0.973740  0.156500  1.0  -0.0679
  C  C3848  1  0.931510  0.253700  0.043040  1.0  0.7425
  C  C3849  1  0.946240  0.252800  0.018660  1.0  -0.1567
  C  C3850  1  0.933140  0.252500  0.995790  1.0  -0.0545
  C  C3851  1  0.946320  0.251000  0.973570  1.0  -0.1138
  C  C3852  1  0.931620  0.250800  0.949310  1.0  0.7305
  C  C3853  1  0.972500  0.250000  0.973380  1.0  -0.0992
  C  C3854  1  0.985980  0.251000  0.996170  1.0  0.0463
  C  C3855  1  0.972400  0.251600  0.018820  1.0  -0.0978
  C  C3856  1  0.061760  0.197800  0.119950  1.0  0.7475
  C  C3857  1  0.124200  0.331720  0.261700  1.0  0.6637
  C  C3858  1  0.123300  0.303780  0.268300  1.0  -0.1664
  C  C3859  1  0.124200  0.296710  0.293800  1.0  -0.0079
  C  C3860  1  0.122700  0.271350  0.300260  1.0  -0.1314
  C  C3861  1  0.122200  0.264900  0.328180  1.0  0.7121
  C  C3862  1  0.121100  0.253010  0.281400  1.0  -0.0512
  C  C3863  1  0.121200  0.285240  0.249580  1.0  -0.0646
  C  C3864  1  0.120600  0.259660  0.255730  1.0  -0.0813
  C  C3865  1  0.119500  0.239800  0.235460  1.0  0.0333
  C  C3866  1  0.118100  0.214330  0.241420  1.0  -0.1012
  C  C3867  1  0.119300  0.245900  0.209550  1.0  -0.0945
  C  C3868  1  0.117000  0.227300  0.191070  1.0  -0.1279
  C  C3869  1  0.116600  0.233700  0.163200  1.0  0.7254
  C  C3870  1  0.115500  0.202600  0.197800  1.0  -0.0691
  C  C3871  1  0.117000  0.195690  0.222950  1.0  -0.1458
  C  C3872  1  0.116400  0.168020  0.229900  1.0  0.722
  C  C3873  1  0.075470  0.355890  0.197820  1.0  0.7222
  C  C3874  1  0.061340  0.341540  0.177620  1.0  -0.1468
  C  C3875  1  0.074520  0.325840  0.161090  1.0  0.009
  C  C3876  1  0.060730  0.310990  0.144110  1.0  -0.1481
  C  C3877  1  0.074290  0.292290  0.127490  1.0  0.7555
  C  C3878  1  0.034540  0.312910  0.142890  1.0  -0.0612
  C  C3879  1  0.034950  0.343030  0.176660  1.0  -0.076
  C  C3880  1  0.021500  0.329040  0.159200  1.0  0.0265
  C  C3881  1  0.992690  0.330820  0.157590  1.0  0.1524
  C  C3882  1  0.979000  0.316950  0.139790  1.0  -0.0363
  C  C3883  1  0.952560  0.318870  0.138190  1.0  -0.0011
  C  C3884  1  0.939610  0.334700  0.154570  1.0  -0.0075
  C  C3885  1  0.952890  0.347400  0.173200  1.0  0.0445
  C  C3886  1  0.938800  0.362000  0.192800  1.0  0.7065
  C  C3887  1  0.978760  0.345300  0.174700  1.0  -0.0735
  C  C3888  1  0.129500  0.431000  0.201200  1.0  0.7289
  C  C3889  1  0.146700  0.445100  0.183100  1.0  -0.0462
  C  C3890  1  0.163100  0.431220  0.167800  1.0  0.0075
  C  C3891  1  0.181500  0.444330  0.154000  1.0  -0.0435
  C  C3892  1  0.201500  0.430150  0.139500  1.0  0.731
  C  C3893  1  0.182100  0.470950  0.154900  1.0  -0.0709
  C  C3894  1  0.147820  0.471820  0.183800  1.0  -0.0396
  C  C3895  1  0.164990  0.484950  0.169200  1.0  0.0732
  C  C3896  1  0.166440  0.513760  0.169700  1.0  0.0675
  C  C3897  1  0.149780  0.528350  0.184230  1.0  -0.0701
  C  C3898  1  0.151160  0.554640  0.184720  1.0  -0.129
  C  C3899  1  0.134850  0.569790  0.202200  1.0  0.7174
  C  C3900  1  0.169200  0.567150  0.170390  1.0  0.0024
  C  C3901  1  0.186620  0.552460  0.156390  1.0  -0.1407
  C  C3902  1  0.207860  0.565860  0.142590  1.0  0.7552
  C  C3903  1  0.185320  0.526260  0.156500  1.0  -0.0682
  C  C3904  1  0.068490  0.246300  0.043040  1.0  0.742
  C  C3905  1  0.053760  0.247200  0.018660  1.0  -0.1568
  C  C3906  1  0.066860  0.247500  0.995790  1.0  -0.0499
  C  C3907  1  0.053680  0.249000  0.973570  1.0  -0.1135
  C  C3908  1  0.068380  0.249200  0.949310  1.0  0.7304
  C  C3909  1  0.027500  0.250000  0.973380  1.0  -0.1006
  C  C3910  1  0.014020  0.249000  0.996170  1.0  0.0466
  C  C3911  1  0.027600  0.248400  0.018820  1.0  -0.0998
  C  C3912  1  0.938240  0.302200  0.119950  1.0  0.7477
  C  C3913  1  0.624200  0.831720  0.761700  1.0  0.6637
  C  C3914  1  0.623300  0.803780  0.768300  1.0  -0.1664
  C  C3915  1  0.624200  0.796710  0.793800  1.0  -0.0079
  C  C3916  1  0.622700  0.771350  0.800260  1.0  -0.1314
  C  C3917  1  0.622200  0.764900  0.828180  1.0  0.7121
  C  C3918  1  0.621100  0.753010  0.781400  1.0  -0.0512
  C  C3919  1  0.621200  0.785240  0.749580  1.0  -0.0646
  C  C3920  1  0.620600  0.759660  0.755730  1.0  -0.0813
  C  C3921  1  0.619500  0.739800  0.735460  1.0  0.0333
  C  C3922  1  0.618100  0.714330  0.741420  1.0  -0.1012
  C  C3923  1  0.619300  0.745900  0.709550  1.0  -0.0945
  C  C3924  1  0.617000  0.727300  0.691070  1.0  -0.1279
  C  C3925  1  0.616600  0.733700  0.663200  1.0  0.7254
  C  C3926  1  0.615500  0.702600  0.697800  1.0  -0.0691
  C  C3927  1  0.617000  0.695690  0.722950  1.0  -0.1458
  C  C3928  1  0.616400  0.668020  0.729900  1.0  0.722
  C  C3929  1  0.575470  0.855890  0.697820  1.0  0.7222
  C  C3930  1  0.561340  0.841540  0.677620  1.0  -0.1468
  C  C3931  1  0.574520  0.825840  0.661090  1.0  0.009
  C  C3932  1  0.560730  0.810990  0.644110  1.0  -0.1481
  C  C3933  1  0.574290  0.792290  0.627490  1.0  0.7555
  C  C3934  1  0.534540  0.812910  0.642890  1.0  -0.0612
  C  C3935  1  0.534950  0.843030  0.676660  1.0  -0.076
  C  C3936  1  0.521500  0.829040  0.659200  1.0  0.0265
  C  C3937  1  0.492690  0.830820  0.657590  1.0  0.1628
  C  C3938  1  0.479000  0.816950  0.639790  1.0  -0.0368
  C  C3939  1  0.452560  0.818870  0.638190  1.0  -0.0011
  C  C3940  1  0.439610  0.834700  0.654570  1.0  -0.0075
  C  C3941  1  0.452890  0.847400  0.673200  1.0  0.0445
  C  C3942  1  0.438800  0.862000  0.692800  1.0  0.7065
  C  C3943  1  0.478760  0.845300  0.674700  1.0  -0.0735
  C  C3944  1  0.629500  0.931000  0.701200  1.0  0.7289
  C  C3945  1  0.646700  0.945100  0.683100  1.0  -0.0462
  C  C3946  1  0.663100  0.931220  0.667800  1.0  0.0075
  C  C3947  1  0.681500  0.944330  0.654000  1.0  -0.0435
  C  C3948  1  0.701500  0.930150  0.639500  1.0  0.731
  C  C3949  1  0.682100  0.970950  0.654900  1.0  -0.0709
  C  C3950  1  0.647820  0.971820  0.683800  1.0  -0.0396
  C  C3951  1  0.664990  0.984950  0.669200  1.0  0.0769
  C  C3952  1  0.666440  0.013760  0.669700  1.0  0.0675
  C  C3953  1  0.649780  0.028350  0.684230  1.0  -0.0701
  C  C3954  1  0.651160  0.054640  0.684720  1.0  -0.129
  C  C3955  1  0.634850  0.069790  0.702200  1.0  0.7174
  C  C3956  1  0.669200  0.067150  0.670390  1.0  0.0024
  C  C3957  1  0.686620  0.052460  0.656390  1.0  -0.1407
  C  C3958  1  0.707860  0.065860  0.642590  1.0  0.7552
  C  C3959  1  0.685320  0.026260  0.656500  1.0  -0.0682
  C  C3960  1  0.568490  0.746300  0.543040  1.0  0.742
  C  C3961  1  0.553760  0.747200  0.518660  1.0  -0.1568
  C  C3962  1  0.566860  0.747500  0.495790  1.0  -0.0499
  C  C3963  1  0.553680  0.749000  0.473570  1.0  -0.1135
  C  C3964  1  0.568380  0.749200  0.449310  1.0  0.7304
  C  C3965  1  0.527500  0.750000  0.473380  1.0  -0.1006
  C  C3966  1  0.514020  0.749000  0.496170  1.0  0.0466
  C  C3967  1  0.527600  0.748400  0.518820  1.0  -0.0998
  C  C3968  1  0.438240  0.802200  0.619950  1.0  0.7477
  C  C3969  1  0.875800  0.831720  0.238300  1.0  0.6634
  C  C3970  1  0.876700  0.803780  0.231700  1.0  -0.1651
  C  C3971  1  0.875800  0.796710  0.206200  1.0  -0.0064
  C  C3972  1  0.877300  0.771350  0.199740  1.0  -0.1327
  C  C3973  1  0.877800  0.764900  0.171820  1.0  0.7116
  C  C3974  1  0.878900  0.753010  0.218600  1.0  -0.0506
  C  C3975  1  0.878800  0.785240  0.250420  1.0  -0.0658
  C  C3976  1  0.879400  0.759660  0.244270  1.0  -0.0819
  C  C3977  1  0.880500  0.739800  0.264540  1.0  0.0346
  C  C3978  1  0.881900  0.714330  0.258580  1.0  -0.1011
  C  C3979  1  0.880700  0.745900  0.290450  1.0  -0.0951
  C  C3980  1  0.883000  0.727300  0.308930  1.0  -0.1277
  C  C3981  1  0.883400  0.733700  0.336800  1.0  0.7247
  C  C3982  1  0.884500  0.702600  0.302200  1.0  -0.0701
  C  C3983  1  0.883000  0.695690  0.277050  1.0  -0.1461
  C  C3984  1  0.883600  0.668020  0.270100  1.0  0.722
  C  C3985  1  0.924530  0.855890  0.302180  1.0  0.7226
  C  C3986  1  0.938660  0.841540  0.322380  1.0  -0.1463
  C  C3987  1  0.925480  0.825840  0.338910  1.0  0.0067
  C  C3988  1  0.939270  0.810990  0.355890  1.0  -0.1476
  C  C3989  1  0.925710  0.792290  0.372510  1.0  0.7555
  C  C3990  1  0.965460  0.812910  0.357110  1.0  -0.0599
  C  C3991  1  0.965050  0.843030  0.323340  1.0  -0.0744
  C  C3992  1  0.978500  0.829040  0.340800  1.0  0.0261
  C  C3993  1  0.007310  0.830820  0.342410  1.0  0.1566
  C  C3994  1  0.021000  0.816950  0.360210  1.0  -0.0459
  C  C3995  1  0.047440  0.818870  0.361810  1.0  -0.0008
  C  C3996  1  0.060390  0.834700  0.345430  1.0  -0.005
  C  C3997  1  0.047110  0.847400  0.326800  1.0  0.0439
  C  C3998  1  0.061200  0.862000  0.307200  1.0  0.705
  C  C3999  1  0.021240  0.845300  0.325300  1.0  -0.0736
  C  C4000  1  0.870500  0.931000  0.298800  1.0  0.7294
  C  C4001  1  0.853300  0.945100  0.316900  1.0  -0.0451
  C  C4002  1  0.836900  0.931220  0.332200  1.0  0.0075
  C  C4003  1  0.818500  0.944330  0.346000  1.0  -0.0436
  C  C4004  1  0.798500  0.930150  0.360500  1.0  0.7316
  C  C4005  1  0.817900  0.970950  0.345100  1.0  -0.0719
  C  C4006  1  0.852180  0.971820  0.316200  1.0  -0.0389
  C  C4007  1  0.835010  0.984950  0.330800  1.0  0.0752
  C  C4008  1  0.833560  0.013760  0.330300  1.0  0.0668
  C  C4009  1  0.850220  0.028350  0.315770  1.0  -0.0695
  C  C4010  1  0.848840  0.054640  0.315280  1.0  -0.1289
  C  C4011  1  0.865150  0.069790  0.297800  1.0  0.7169
  C  C4012  1  0.830800  0.067150  0.329610  1.0  0.0015
  C  C4013  1  0.813380  0.052460  0.343610  1.0  -0.1416
  C  C4014  1  0.792140  0.065860  0.357410  1.0  0.7553
  C  C4015  1  0.814680  0.026260  0.343500  1.0  -0.07
  C  C4016  1  0.931510  0.746300  0.456960  1.0  0.7416
  C  C4017  1  0.946240  0.747200  0.481340  1.0  -0.1555
  C  C4018  1  0.933140  0.747500  0.504210  1.0  -0.0548
  C  C4019  1  0.946320  0.749000  0.526430  1.0  -0.1143
  C  C4020  1  0.931620  0.749200  0.550690  1.0  0.7332
  C  C4021  1  0.972500  0.750000  0.526620  1.0  -0.0995
  C  C4022  1  0.985980  0.749000  0.503830  1.0  0.0463
  C  C4023  1  0.972400  0.748400  0.481180  1.0  -0.0996
  C  C4024  1  0.061760  0.802200  0.380050  1.0  0.7485
  C  C4025  1  0.375800  0.331720  0.738300  1.0  0.6634
  C  C4026  1  0.376700  0.303780  0.731700  1.0  -0.1651
  C  C4027  1  0.375800  0.296710  0.706200  1.0  -0.0064
  C  C4028  1  0.377300  0.271350  0.699740  1.0  -0.1327
  C  C4029  1  0.377800  0.264900  0.671820  1.0  0.7116
  C  C4030  1  0.378900  0.253010  0.718600  1.0  -0.0506
  C  C4031  1  0.378800  0.285240  0.750420  1.0  -0.0658
  C  C4032  1  0.379400  0.259660  0.744270  1.0  -0.0819
  C  C4033  1  0.380500  0.239800  0.764540  1.0  0.0346
  C  C4034  1  0.381900  0.214330  0.758580  1.0  -0.1011
  C  C4035  1  0.380700  0.245900  0.790450  1.0  -0.0951
  C  C4036  1  0.383000  0.227300  0.808930  1.0  -0.1277
  C  C4037  1  0.383400  0.233700  0.836800  1.0  0.7247
  C  C4038  1  0.384500  0.202600  0.802200  1.0  -0.0701
  C  C4039  1  0.383000  0.195690  0.777050  1.0  -0.1461
  C  C4040  1  0.383600  0.168020  0.770100  1.0  0.722
  C  C4041  1  0.424530  0.355890  0.802180  1.0  0.7226
  C  C4042  1  0.438660  0.341540  0.822380  1.0  -0.1463
  C  C4043  1  0.425480  0.325840  0.838910  1.0  0.0067
  C  C4044  1  0.439270  0.310990  0.855890  1.0  -0.1476
  C  C4045  1  0.425710  0.292290  0.872510  1.0  0.7555
  C  C4046  1  0.465460  0.312910  0.857110  1.0  -0.0599
  C  C4047  1  0.465050  0.343030  0.823340  1.0  -0.0744
  C  C4048  1  0.478500  0.329040  0.840800  1.0  0.0261
  C  C4049  1  0.507310  0.330820  0.842410  1.0  0.1637
  C  C4050  1  0.521000  0.316950  0.860210  1.0  -0.0368
  C  C4051  1  0.547440  0.318870  0.861810  1.0  -0.0008
  C  C4052  1  0.560390  0.334700  0.845430  1.0  -0.005
  C  C4053  1  0.547110  0.347400  0.826800  1.0  0.0439
  C  C4054  1  0.561200  0.362000  0.807200  1.0  0.705
  C  C4055  1  0.521240  0.345300  0.825300  1.0  -0.0736
  C  C4056  1  0.370500  0.431000  0.798800  1.0  0.7294
  C  C4057  1  0.353300  0.445100  0.816900  1.0  -0.0451
  C  C4058  1  0.336900  0.431220  0.832200  1.0  0.0075
  C  C4059  1  0.318500  0.444330  0.846000  1.0  -0.0436
  C  C4060  1  0.298500  0.430150  0.860500  1.0  0.7316
  C  C4061  1  0.317900  0.470950  0.845100  1.0  -0.0719
  C  C4062  1  0.352180  0.471820  0.816200  1.0  -0.0389
  C  C4063  1  0.335010  0.484950  0.830800  1.0  0.0715
  C  C4064  1  0.333560  0.513760  0.830300  1.0  0.0668
  C  C4065  1  0.350220  0.528350  0.815770  1.0  -0.0695
  C  C4066  1  0.348840  0.554640  0.815280  1.0  -0.1289
  C  C4067  1  0.365150  0.569790  0.797800  1.0  0.7169
  C  C4068  1  0.330800  0.567150  0.829610  1.0  0.0015
  C  C4069  1  0.313380  0.552460  0.843610  1.0  -0.1416
  C  C4070  1  0.292140  0.565860  0.857410  1.0  0.7553
  C  C4071  1  0.314680  0.526260  0.843500  1.0  -0.07
  C  C4072  1  0.431510  0.246300  0.956960  1.0  0.7416
  C  C4073  1  0.446240  0.247200  0.981340  1.0  -0.1555
  C  C4074  1  0.433140  0.247500  0.004210  1.0  -0.0548
  C  C4075  1  0.446320  0.249000  0.026430  1.0  -0.1143
  C  C4076  1  0.431620  0.249200  0.050690  1.0  0.7332
  C  C4077  1  0.472500  0.250000  0.026620  1.0  -0.0995
  C  C4078  1  0.485980  0.249000  0.003830  1.0  0.0463
  C  C4079  1  0.472400  0.248400  0.981180  1.0  -0.0996
  C  C4080  1  0.561760  0.302200  0.880050  1.0  0.7485
  O  O4081  1  0.240890  0.383020  0.838310  1.0  -0.6098
  O  O4082  1  0.342900  0.370230  0.781850  1.0  -0.572
  O  O4083  1  0.334660  0.384670  0.742990  1.0  -0.6533
  O  O4084  1  0.155730  0.376040  0.755240  1.0  -0.6157
  O  O4085  1  0.149110  0.393100  0.716700  1.0  -0.5947
  O  O4086  1  0.252710  0.386460  0.662190  1.0  -0.5824
  O  O4087  1  0.211800  0.379600  0.653160  1.0  -0.5722
  O  O4088  1  0.194400  0.401020  0.859690  1.0  -0.5782
  O  O4089  1  0.216540  0.437100  0.863450  1.0  -0.6028
  O  O4090  1  0.126920  0.402070  0.793650  1.0  -0.6169
  O  O4091  1  0.115580  0.439390  0.776800  1.0  -0.5869
  O  O4092  1  0.114750  0.552460  0.781070  1.0  -0.5824
  O  O4093  1  0.187000  0.581220  0.872880  1.0  -0.5923
  O  O4094  1  0.215230  0.551700  0.860700  1.0  -0.5974
  O  O4095  1  0.196940  0.374790  0.908510  1.0  -0.5966
  O  O4096  1  0.220690  0.377930  0.943620  1.0  -0.5941
  O  O4097  1  0.139000  0.276570  0.940780  1.0  -0.5982
  O  O4098  1  0.130260  0.303550  0.909190  1.0  -0.6543
  O  O4099  1  0.198740  0.364380  0.093920  1.0  -0.5544
  O  O4100  1  0.218820  0.377450  0.058120  1.0  -0.5886
  O  O4101  1  0.137460  0.273340  0.052110  1.0  -0.5817
  O  O4102  1  0.137330  0.294390  0.088410  1.0  -0.6474
  O  O4103  1  0.040680  0.408360  0.743300  1.0  -0.5889
  O  O4104  1  0.063460  0.443360  0.747810  1.0  -0.5824
  O  O4105  1  0.951190  0.407820  0.746780  1.0  -0.6114
  O  O4106  1  0.928650  0.443780  0.751550  1.0  -0.5873
  O  O4107  1  0.098210  0.392430  0.743000  1.0  -1.2145
  O  O4108  1  0.249120  0.394010  0.893060  1.0  -1.2095
  O  O4109  1  0.111700  0.582710  0.810340  1.0  -0.6265
  O  O4110  1  0.279180  0.367070  0.845330  1.0  -0.5792
  O  O4111  1  0.740890  0.883020  0.338310  1.0  -0.6098
  O  O4112  1  0.842900  0.870230  0.281850  1.0  -0.572
  O  O4113  1  0.834660  0.884670  0.242990  1.0  -0.6533
  O  O4114  1  0.655730  0.876040  0.255240  1.0  -0.6157
  O  O4115  1  0.649110  0.893100  0.216700  1.0  -0.5947
  O  O4116  1  0.752710  0.886460  0.162190  1.0  -0.5824
  O  O4117  1  0.711800  0.879600  0.153160  1.0  -0.5722
  O  O4118  1  0.694400  0.901020  0.359690  1.0  -0.5782
  O  O4119  1  0.716540  0.937100  0.363450  1.0  -0.6028
  O  O4120  1  0.626920  0.902070  0.293650  1.0  -0.6169
  O  O4121  1  0.615580  0.939390  0.276800  1.0  -0.5869
  O  O4122  1  0.614750  0.052460  0.281070  1.0  -0.5824
  O  O4123  1  0.687000  0.081220  0.372880  1.0  -0.5923
  O  O4124  1  0.715230  0.051700  0.360700  1.0  -0.5974
  O  O4125  1  0.696940  0.874790  0.408510  1.0  -0.5966
  O  O4126  1  0.720690  0.877930  0.443620  1.0  -0.5941
  O  O4127  1  0.639000  0.776570  0.440780  1.0  -0.5982
  O  O4128  1  0.630260  0.803550  0.409190  1.0  -0.6543
  O  O4129  1  0.698740  0.864380  0.593920  1.0  -0.5544
  O  O4130  1  0.718820  0.877450  0.558120  1.0  -0.5886
  O  O4131  1  0.637460  0.773340  0.552110  1.0  -0.5817
  O  O4132  1  0.637330  0.794390  0.588410  1.0  -0.6474
  O  O4133  1  0.540680  0.908360  0.243300  1.0  -0.5889
  O  O4134  1  0.563460  0.943360  0.247810  1.0  -0.5824
  O  O4135  1  0.451190  0.907820  0.246780  1.0  -0.6114
  O  O4136  1  0.428650  0.943780  0.251550  1.0  -0.5873
  O  O4137  1  0.598210  0.892430  0.243000  1.0  -1.2145
  O  O4138  1  0.749120  0.894010  0.393060  1.0  -1.2095
  O  O4139  1  0.611700  0.082710  0.310340  1.0  -0.6265
  O  O4140  1  0.779180  0.867070  0.345330  1.0  -0.5792
  O  O4141  1  0.259110  0.616980  0.338310  1.0  -0.6102
  O  O4142  1  0.157100  0.629770  0.281850  1.0  -0.5737
  O  O4143  1  0.165340  0.615330  0.242990  1.0  -0.6532
  O  O4144  1  0.344270  0.623960  0.255240  1.0  -0.6179
  O  O4145  1  0.350890  0.606900  0.216700  1.0  -0.5948
  O  O4146  1  0.247290  0.613540  0.162190  1.0  -0.5817
  O  O4147  1  0.288200  0.620400  0.153160  1.0  -0.5718
  O  O4148  1  0.305600  0.598980  0.359690  1.0  -0.5769
  O  O4149  1  0.283460  0.562900  0.363450  1.0  -0.6009
  O  O4150  1  0.373080  0.597930  0.293650  1.0  -0.6176
  O  O4151  1  0.384420  0.560610  0.276800  1.0  -0.5867
  O  O4152  1  0.385250  0.447540  0.281070  1.0  -0.5827
  O  O4153  1  0.313000  0.418780  0.372880  1.0  -0.5943
  O  O4154  1  0.284770  0.448300  0.360700  1.0  -0.5977
  O  O4155  1  0.303060  0.625210  0.408510  1.0  -0.5954
  O  O4156  1  0.279310  0.622070  0.443620  1.0  -0.594
  O  O4157  1  0.361000  0.723430  0.440780  1.0  -0.5991
  O  O4158  1  0.369740  0.696450  0.409190  1.0  -0.6562
  O  O4159  1  0.301260  0.635620  0.593920  1.0  -0.5536
  O  O4160  1  0.281180  0.622550  0.558120  1.0  -0.5883
  O  O4161  1  0.362540  0.726660  0.552110  1.0  -0.581
  O  O4162  1  0.362670  0.705610  0.588410  1.0  -0.6466
  O  O4163  1  0.459320  0.591640  0.243300  1.0  -0.5882
  O  O4164  1  0.436540  0.556640  0.247810  1.0  -0.5831
  O  O4165  1  0.548810  0.592180  0.246780  1.0  -0.6128
  O  O4166  1  0.571350  0.556220  0.251550  1.0  -0.5863
  O  O4167  1  0.401790  0.607570  0.243000  1.0  -1.2145
  O  O4168  1  0.250880  0.605990  0.393060  1.0  -1.2092
  O  O4169  1  0.388300  0.417290  0.310340  1.0  -0.625
  O  O4170  1  0.220820  0.632930  0.345330  1.0  -0.5793
  O  O4171  1  0.759110  0.116980  0.838310  1.0  -0.6102
  O  O4172  1  0.657100  0.129770  0.781850  1.0  -0.5737
  O  O4173  1  0.665340  0.115330  0.742990  1.0  -0.6532
  O  O4174  1  0.844270  0.123960  0.755240  1.0  -0.6179
  O  O4175  1  0.850890  0.106900  0.716700  1.0  -0.5948
  O  O4176  1  0.747290  0.113540  0.662190  1.0  -0.5817
  O  O4177  1  0.788200  0.120400  0.653160  1.0  -0.5718
  O  O4178  1  0.805600  0.098980  0.859690  1.0  -0.5769
  O  O4179  1  0.783460  0.062900  0.863450  1.0  -0.6009
  O  O4180  1  0.873080  0.097930  0.793650  1.0  -0.6176
  O  O4181  1  0.884420  0.060610  0.776800  1.0  -0.5867
  O  O4182  1  0.885250  0.947540  0.781070  1.0  -0.5827
  O  O4183  1  0.813000  0.918780  0.872880  1.0  -0.5943
  O  O4184  1  0.784770  0.948300  0.860700  1.0  -0.5977
  O  O4185  1  0.803060  0.125210  0.908510  1.0  -0.5954
  O  O4186  1  0.779310  0.122070  0.943620  1.0  -0.594
  O  O4187  1  0.861000  0.223430  0.940780  1.0  -0.5991
  O  O4188  1  0.869740  0.196450  0.909190  1.0  -0.6562
  O  O4189  1  0.801260  0.135620  0.093920  1.0  -0.5536
  O  O4190  1  0.781180  0.122550  0.058120  1.0  -0.5883
  O  O4191  1  0.862540  0.226660  0.052110  1.0  -0.581
  O  O4192  1  0.862670  0.205610  0.088410  1.0  -0.6466
  O  O4193  1  0.959320  0.091640  0.743300  1.0  -0.5882
  O  O4194  1  0.936540  0.056640  0.747810  1.0  -0.5831
  O  O4195  1  0.048810  0.092180  0.746780  1.0  -0.6128
  O  O4196  1  0.071350  0.056220  0.751550  1.0  -0.5863
  O  O4197  1  0.901790  0.107570  0.743000  1.0  -1.2145
  O  O4198  1  0.750880  0.105990  0.893060  1.0  -1.2092
  O  O4199  1  0.888300  0.917290  0.810340  1.0  -0.625
  O  O4200  1  0.720820  0.132930  0.845330  1.0  -0.5793
  O  O4201  1  0.759110  0.883020  0.661690  1.0  -0.6102
  O  O4202  1  0.657100  0.870230  0.718150  1.0  -0.5723
  O  O4203  1  0.665340  0.884670  0.757010  1.0  -0.6523
  O  O4204  1  0.844270  0.876040  0.744760  1.0  -0.6163
  O  O4205  1  0.850890  0.893100  0.783300  1.0  -0.5951
  O  O4206  1  0.747290  0.886460  0.837810  1.0  -0.5819
  O  O4207  1  0.788200  0.879600  0.846840  1.0  -0.5722
  O  O4208  1  0.805600  0.901020  0.640310  1.0  -0.5777
  O  O4209  1  0.783460  0.937100  0.636550  1.0  -0.6015
  O  O4210  1  0.873080  0.902070  0.706350  1.0  -0.6164
  O  O4211  1  0.884420  0.939390  0.723200  1.0  -0.5868
  O  O4212  1  0.885250  0.052460  0.718930  1.0  -0.5813
  O  O4213  1  0.813000  0.081220  0.627120  1.0  -0.5924
  O  O4214  1  0.784770  0.051700  0.639300  1.0  -0.5966
  O  O4215  1  0.803060  0.874790  0.591490  1.0  -0.5944
  O  O4216  1  0.779310  0.877930  0.556380  1.0  -0.5928
  O  O4217  1  0.861000  0.776570  0.559220  1.0  -0.5976
  O  O4218  1  0.869740  0.803550  0.590810  1.0  -0.6547
  O  O4219  1  0.801260  0.864380  0.406080  1.0  -0.5525
  O  O4220  1  0.781180  0.877450  0.441880  1.0  -0.5889
  O  O4221  1  0.862540  0.773340  0.447890  1.0  -0.5814
  O  O4222  1  0.862670  0.794390  0.411590  1.0  -0.646
  O  O4223  1  0.959320  0.908360  0.756700  1.0  -0.5882
  O  O4224  1  0.936540  0.943360  0.752190  1.0  -0.5821
  O  O4225  1  0.048810  0.907820  0.753220  1.0  -0.6124
  O  O4226  1  0.071350  0.943780  0.748450  1.0  -0.5865
  O  O4227  1  0.901790  0.892430  0.757000  1.0  -1.2141
  O  O4228  1  0.750880  0.894010  0.606940  1.0  -1.209
  O  O4229  1  0.888300  0.082710  0.689660  1.0  -0.6242
  O  O4230  1  0.720820  0.867070  0.654670  1.0  -0.5801
  O  O4231  1  0.259110  0.383020  0.161690  1.0  -0.6102
  O  O4232  1  0.157100  0.370230  0.218150  1.0  -0.5723
  O  O4233  1  0.165340  0.384670  0.257010  1.0  -0.6523
  O  O4234  1  0.344270  0.376040  0.244760  1.0  -0.6163
  O  O4235  1  0.350890  0.393100  0.283300  1.0  -0.5951
  O  O4236  1  0.247290  0.386460  0.337810  1.0  -0.5819
  O  O4237  1  0.288200  0.379600  0.346840  1.0  -0.5722
  O  O4238  1  0.305600  0.401020  0.140310  1.0  -0.5777
  O  O4239  1  0.283460  0.437100  0.136550  1.0  -0.6015
  O  O4240  1  0.373080  0.402070  0.206350  1.0  -0.6164
  O  O4241  1  0.384420  0.439390  0.223200  1.0  -0.5868
  O  O4242  1  0.385250  0.552460  0.218930  1.0  -0.5813
  O  O4243  1  0.313000  0.581220  0.127120  1.0  -0.5924
  O  O4244  1  0.284770  0.551700  0.139300  1.0  -0.5966
  O  O4245  1  0.303060  0.374790  0.091490  1.0  -0.5944
  O  O4246  1  0.279310  0.377930  0.056380  1.0  -0.5928
  O  O4247  1  0.361000  0.276570  0.059220  1.0  -0.5976
  O  O4248  1  0.369740  0.303550  0.090810  1.0  -0.6547
  O  O4249  1  0.301260  0.364380  0.906080  1.0  -0.5525
  O  O4250  1  0.281180  0.377450  0.941880  1.0  -0.5889
  O  O4251  1  0.362540  0.273340  0.947890  1.0  -0.5814
  O  O4252  1  0.362670  0.294390  0.911590  1.0  -0.646
  O  O4253  1  0.459320  0.408360  0.256700  1.0  -0.5882
  O  O4254  1  0.436540  0.443360  0.252190  1.0  -0.5821
  O  O4255  1  0.548810  0.407820  0.253220  1.0  -0.6124
  O  O4256  1  0.571350  0.443780  0.248450  1.0  -0.5865
  O  O4257  1  0.401790  0.392430  0.257000  1.0  -1.2141
  O  O4258  1  0.250880  0.394010  0.106940  1.0  -1.209
  O  O4259  1  0.388300  0.582710  0.189660  1.0  -0.6242
  O  O4260  1  0.220820  0.367070  0.154670  1.0  -0.5801
  O  O4261  1  0.740890  0.116980  0.161690  1.0  -0.6096
  O  O4262  1  0.842900  0.129770  0.218150  1.0  -0.574
  O  O4263  1  0.834660  0.115330  0.257010  1.0  -0.6532
  O  O4264  1  0.655730  0.123960  0.244760  1.0  -0.6164
  O  O4265  1  0.649110  0.106900  0.283300  1.0  -0.5949
  O  O4266  1  0.752710  0.113540  0.337810  1.0  -0.5828
  O  O4267  1  0.711800  0.120400  0.346840  1.0  -0.5715
  O  O4268  1  0.694400  0.098980  0.140310  1.0  -0.5788
  O  O4269  1  0.716540  0.062900  0.136550  1.0  -0.6011
  O  O4270  1  0.626920  0.097930  0.206350  1.0  -0.6172
  O  O4271  1  0.615580  0.060610  0.223200  1.0  -0.5862
  O  O4272  1  0.614750  0.947540  0.218930  1.0  -0.5818
  O  O4273  1  0.687000  0.918780  0.127120  1.0  -0.5929
  O  O4274  1  0.715230  0.948300  0.139300  1.0  -0.5983
  O  O4275  1  0.696940  0.125210  0.091490  1.0  -0.5955
  O  O4276  1  0.720690  0.122070  0.056380  1.0  -0.5935
  O  O4277  1  0.639000  0.223430  0.059220  1.0  -0.6003
  O  O4278  1  0.630260  0.196450  0.090810  1.0  -0.6547
  O  O4279  1  0.698740  0.135620  0.906080  1.0  -0.5536
  O  O4280  1  0.718820  0.122550  0.941880  1.0  -0.5891
  O  O4281  1  0.637460  0.226660  0.947890  1.0  -0.583
  O  O4282  1  0.637330  0.205610  0.911590  1.0  -0.6465
  O  O4283  1  0.540680  0.091640  0.256700  1.0  -0.5886
  O  O4284  1  0.563460  0.056640  0.252190  1.0  -0.583
  O  O4285  1  0.451190  0.092180  0.253220  1.0  -0.6123
  O  O4286  1  0.428650  0.056220  0.248450  1.0  -0.5874
  O  O4287  1  0.598210  0.107570  0.257000  1.0  -1.214
  O  O4288  1  0.749120  0.105990  0.106940  1.0  -1.2089
  O  O4289  1  0.611700  0.917290  0.189660  1.0  -0.6255
  O  O4290  1  0.779180  0.132930  0.154670  1.0  -0.5795
  O  O4291  1  0.240890  0.616980  0.661690  1.0  -0.6096
  O  O4292  1  0.342900  0.629770  0.718150  1.0  -0.574
  O  O4293  1  0.334660  0.615330  0.757010  1.0  -0.6532
  O  O4294  1  0.155730  0.623960  0.744760  1.0  -0.6164
  O  O4295  1  0.149110  0.606900  0.783300  1.0  -0.5949
  O  O4296  1  0.252710  0.613540  0.837810  1.0  -0.5828
  O  O4297  1  0.211800  0.620400  0.846840  1.0  -0.5715
  O  O4298  1  0.194400  0.598980  0.640310  1.0  -0.5788
  O  O4299  1  0.216540  0.562900  0.636550  1.0  -0.6011
  O  O4300  1  0.126920  0.597930  0.706350  1.0  -0.6172
  O  O4301  1  0.115580  0.560610  0.723200  1.0  -0.5862
  O  O4302  1  0.114750  0.447540  0.718930  1.0  -0.5818
  O  O4303  1  0.187000  0.418780  0.627120  1.0  -0.5929
  O  O4304  1  0.215230  0.448300  0.639300  1.0  -0.5983
  O  O4305  1  0.196940  0.625210  0.591490  1.0  -0.5955
  O  O4306  1  0.220690  0.622070  0.556380  1.0  -0.5935
  O  O4307  1  0.139000  0.723430  0.559220  1.0  -0.6003
  O  O4308  1  0.130260  0.696450  0.590810  1.0  -0.6547
  O  O4309  1  0.198740  0.635620  0.406080  1.0  -0.5536
  O  O4310  1  0.218820  0.622550  0.441880  1.0  -0.5891
  O  O4311  1  0.137460  0.726660  0.447890  1.0  -0.583
  O  O4312  1  0.137330  0.705610  0.411590  1.0  -0.6465
  O  O4313  1  0.040680  0.591640  0.756700  1.0  -0.5886
  O  O4314  1  0.063460  0.556640  0.752190  1.0  -0.583
  O  O4315  1  0.951190  0.592180  0.753220  1.0  -0.6123
  O  O4316  1  0.928650  0.556220  0.748450  1.0  -0.5874
  O  O4317  1  0.098210  0.607570  0.757000  1.0  -1.214
  O  O4318  1  0.249120  0.605990  0.606940  1.0  -1.2089
  O  O4319  1  0.111700  0.417290  0.689660  1.0  -0.6255
  O  O4320  1  0.279180  0.632930  0.654670  1.0  -0.5795
  O  O4321  1  0.838310  0.240890  0.383020  1.0  -0.6117
  O  O4322  1  0.781850  0.342900  0.370230  1.0  -0.5733
  O  O4323  1  0.742990  0.334660  0.384670  1.0  -0.6483
  O  O4324  1  0.755240  0.155730  0.376040  1.0  -0.6144
  O  O4325  1  0.716700  0.149110  0.393100  1.0  -0.5957
  O  O4326  1  0.662190  0.252710  0.386460  1.0  -0.584
  O  O4327  1  0.653160  0.211800  0.379600  1.0  -0.5711
  O  O4328  1  0.859690  0.194400  0.401020  1.0  -0.5751
  O  O4329  1  0.863450  0.216540  0.437100  1.0  -0.6026
  O  O4330  1  0.793650  0.126920  0.402070  1.0  -0.6171
  O  O4331  1  0.776800  0.115580  0.439390  1.0  -0.5851
  O  O4332  1  0.781070  0.114750  0.552460  1.0  -0.5797
  O  O4333  1  0.872880  0.187000  0.581220  1.0  -0.5924
  O  O4334  1  0.860700  0.215230  0.551700  1.0  -0.5972
  O  O4335  1  0.908510  0.196940  0.374790  1.0  -0.5927
  O  O4336  1  0.943620  0.220690  0.377930  1.0  -0.5975
  O  O4337  1  0.940780  0.139000  0.276570  1.0  -0.5984
  O  O4338  1  0.909190  0.130260  0.303550  1.0  -0.6551
  O  O4339  1  0.093920  0.198740  0.364380  1.0  -0.5532
  O  O4340  1  0.058120  0.218820  0.377450  1.0  -0.5901
  O  O4341  1  0.052110  0.137460  0.273340  1.0  -0.5812
  O  O4342  1  0.088410  0.137330  0.294390  1.0  -0.6483
  O  O4343  1  0.743300  0.040680  0.408360  1.0  -0.5825
  O  O4344  1  0.747810  0.063460  0.443360  1.0  -0.5822
  O  O4345  1  0.746780  0.951190  0.407820  1.0  -0.6073
  O  O4346  1  0.751550  0.928650  0.443780  1.0  -0.5871
  O  O4347  1  0.743000  0.098210  0.392430  1.0  -1.2144
  O  O4348  1  0.893060  0.249120  0.394010  1.0  -1.2112
  O  O4349  1  0.810340  0.111700  0.582710  1.0  -0.6253
  O  O4350  1  0.845330  0.279180  0.367070  1.0  -0.5783
  O  O4351  1  0.338310  0.740890  0.883020  1.0  -0.6117
  O  O4352  1  0.281850  0.842900  0.870230  1.0  -0.5733
  O  O4353  1  0.242990  0.834660  0.884670  1.0  -0.6483
  O  O4354  1  0.255240  0.655730  0.876040  1.0  -0.6144
  O  O4355  1  0.216700  0.649110  0.893100  1.0  -0.5957
  O  O4356  1  0.162190  0.752710  0.886460  1.0  -0.584
  O  O4357  1  0.153160  0.711800  0.879600  1.0  -0.5711
  O  O4358  1  0.359690  0.694400  0.901020  1.0  -0.5751
  O  O4359  1  0.363450  0.716540  0.937100  1.0  -0.6026
  O  O4360  1  0.293650  0.626920  0.902070  1.0  -0.6171
  O  O4361  1  0.276800  0.615580  0.939390  1.0  -0.5851
  O  O4362  1  0.281070  0.614750  0.052460  1.0  -0.5797
  O  O4363  1  0.372880  0.687000  0.081220  1.0  -0.5924
  O  O4364  1  0.360700  0.715230  0.051700  1.0  -0.5972
  O  O4365  1  0.408510  0.696940  0.874790  1.0  -0.5927
  O  O4366  1  0.443620  0.720690  0.877930  1.0  -0.5975
  O  O4367  1  0.440780  0.639000  0.776570  1.0  -0.5984
  O  O4368  1  0.409190  0.630260  0.803550  1.0  -0.6551
  O  O4369  1  0.593920  0.698740  0.864380  1.0  -0.5532
  O  O4370  1  0.558120  0.718820  0.877450  1.0  -0.5901
  O  O4371  1  0.552110  0.637460  0.773340  1.0  -0.5812
  O  O4372  1  0.588410  0.637330  0.794390  1.0  -0.6483
  O  O4373  1  0.243300  0.540680  0.908360  1.0  -0.5825
  O  O4374  1  0.247810  0.563460  0.943360  1.0  -0.5822
  O  O4375  1  0.246780  0.451190  0.907820  1.0  -0.6073
  O  O4376  1  0.251550  0.428650  0.943780  1.0  -0.5871
  O  O4377  1  0.243000  0.598210  0.892430  1.0  -1.2144
  O  O4378  1  0.393060  0.749120  0.894010  1.0  -1.2112
  O  O4379  1  0.310340  0.611700  0.082710  1.0  -0.6253
  O  O4380  1  0.345330  0.779180  0.867070  1.0  -0.5783
  O  O4381  1  0.338310  0.259110  0.616980  1.0  -0.6122
  O  O4382  1  0.281850  0.157100  0.629770  1.0  -0.573
  O  O4383  1  0.242990  0.165340  0.615330  1.0  -0.649
  O  O4384  1  0.255240  0.344270  0.623960  1.0  -0.6152
  O  O4385  1  0.216700  0.350890  0.606900  1.0  -0.5953
  O  O4386  1  0.162190  0.247290  0.613540  1.0  -0.5841
  O  O4387  1  0.153160  0.288200  0.620400  1.0  -0.5703
  O  O4388  1  0.359690  0.305600  0.598980  1.0  -0.5745
  O  O4389  1  0.363450  0.283460  0.562900  1.0  -0.6003
  O  O4390  1  0.293650  0.373080  0.597930  1.0  -0.6183
  O  O4391  1  0.276800  0.384420  0.560610  1.0  -0.5861
  O  O4392  1  0.281070  0.385250  0.447540  1.0  -0.5787
  O  O4393  1  0.372880  0.313000  0.418780  1.0  -0.5912
  O  O4394  1  0.360700  0.284770  0.448300  1.0  -0.5983
  O  O4395  1  0.408510  0.303060  0.625210  1.0  -0.5928
  O  O4396  1  0.443620  0.279310  0.622070  1.0  -0.5969
  O  O4397  1  0.440780  0.361000  0.723430  1.0  -0.5986
  O  O4398  1  0.409190  0.369740  0.696450  1.0  -0.6561
  O  O4399  1  0.593920  0.301260  0.635620  1.0  -0.5529
  O  O4400  1  0.558120  0.281180  0.622550  1.0  -0.5898
  O  O4401  1  0.552110  0.362540  0.726660  1.0  -0.5812
  O  O4402  1  0.588410  0.362670  0.705610  1.0  -0.6476
  O  O4403  1  0.243300  0.459320  0.591640  1.0  -0.5832
  O  O4404  1  0.247810  0.436540  0.556640  1.0  -0.5815
  O  O4405  1  0.246780  0.548810  0.592180  1.0  -0.6079
  O  O4406  1  0.251550  0.571350  0.556220  1.0  -0.5882
  O  O4407  1  0.243000  0.401790  0.607570  1.0  -1.2142
  O  O4408  1  0.393060  0.250880  0.605990  1.0  -1.2113
  O  O4409  1  0.310340  0.388300  0.417290  1.0  -0.6253
  O  O4410  1  0.345330  0.220820  0.632930  1.0  -0.5773
  O  O4411  1  0.838310  0.759110  0.116980  1.0  -0.6122
  O  O4412  1  0.781850  0.657100  0.129770  1.0  -0.573
  O  O4413  1  0.742990  0.665340  0.115330  1.0  -0.649
  O  O4414  1  0.755240  0.844270  0.123960  1.0  -0.6152
  O  O4415  1  0.716700  0.850890  0.106900  1.0  -0.5953
  O  O4416  1  0.662190  0.747290  0.113540  1.0  -0.5841
  O  O4417  1  0.653160  0.788200  0.120400  1.0  -0.5703
  O  O4418  1  0.859690  0.805600  0.098980  1.0  -0.5745
  O  O4419  1  0.863450  0.783460  0.062900  1.0  -0.6003
  O  O4420  1  0.793650  0.873080  0.097930  1.0  -0.6183
  O  O4421  1  0.776800  0.884420  0.060610  1.0  -0.5861
  O  O4422  1  0.781070  0.885250  0.947540  1.0  -0.5787
  O  O4423  1  0.872880  0.813000  0.918780  1.0  -0.5912
  O  O4424  1  0.860700  0.784770  0.948300  1.0  -0.5983
  O  O4425  1  0.908510  0.803060  0.125210  1.0  -0.5928
  O  O4426  1  0.943620  0.779310  0.122070  1.0  -0.5969
  O  O4427  1  0.940780  0.861000  0.223430  1.0  -0.5986
  O  O4428  1  0.909190  0.869740  0.196450  1.0  -0.6561
  O  O4429  1  0.093920  0.801260  0.135620  1.0  -0.5529
  O  O4430  1  0.058120  0.781180  0.122550  1.0  -0.5898
  O  O4431  1  0.052110  0.862540  0.226660  1.0  -0.5812
  O  O4432  1  0.088410  0.862670  0.205610  1.0  -0.6476
  O  O4433  1  0.743300  0.959320  0.091640  1.0  -0.5832
  O  O4434  1  0.747810  0.936540  0.056640  1.0  -0.5815
  O  O4435  1  0.746780  0.048810  0.092180  1.0  -0.6079
  O  O4436  1  0.751550  0.071350  0.056220  1.0  -0.5882
  O  O4437  1  0.743000  0.901790  0.107570  1.0  -1.2142
  O  O4438  1  0.893060  0.750880  0.105990  1.0  -1.2113
  O  O4439  1  0.810340  0.888300  0.917290  1.0  -0.6253
  O  O4440  1  0.845330  0.720820  0.132930  1.0  -0.5773
  O  O4441  1  0.661690  0.759110  0.883020  1.0  -0.6107
  O  O4442  1  0.718150  0.657100  0.870230  1.0  -0.5729
  O  O4443  1  0.757010  0.665340  0.884670  1.0  -0.6497
  O  O4444  1  0.744760  0.844270  0.876040  1.0  -0.6145
  O  O4445  1  0.783300  0.850890  0.893100  1.0  -0.5951
  O  O4446  1  0.837810  0.747290  0.886460  1.0  -0.5851
  O  O4447  1  0.846840  0.788200  0.879600  1.0  -0.5707
  O  O4448  1  0.640310  0.805600  0.901020  1.0  -0.5753
  O  O4449  1  0.636550  0.783460  0.937100  1.0  -0.6015
  O  O4450  1  0.706350  0.873080  0.902070  1.0  -0.6178
  O  O4451  1  0.723200  0.884420  0.939390  1.0  -0.5857
  O  O4452  1  0.718930  0.885250  0.052460  1.0  -0.5807
  O  O4453  1  0.627120  0.813000  0.081220  1.0  -0.592
  O  O4454  1  0.639300  0.784770  0.051700  1.0  -0.5976
  O  O4455  1  0.591490  0.803060  0.874790  1.0  -0.5932
  O  O4456  1  0.556380  0.779310  0.877930  1.0  -0.5968
  O  O4457  1  0.559220  0.861000  0.776570  1.0  -0.5993
  O  O4458  1  0.590810  0.869740  0.803550  1.0  -0.6549
  O  O4459  1  0.406080  0.801260  0.864380  1.0  -0.5521
  O  O4460  1  0.441880  0.781180  0.877450  1.0  -0.5904
  O  O4461  1  0.447890  0.862540  0.773340  1.0  -0.5815
  O  O4462  1  0.411590  0.862670  0.794390  1.0  -0.6481
  O  O4463  1  0.756700  0.959320  0.908360  1.0  -0.5819
  O  O4464  1  0.752190  0.936540  0.943360  1.0  -0.582
  O  O4465  1  0.753220  0.048810  0.907820  1.0  -0.6067
  O  O4466  1  0.748450  0.071350  0.943780  1.0  -0.5867
  O  O4467  1  0.757000  0.901790  0.892430  1.0  -1.2148
  O  O4468  1  0.606940  0.750880  0.894010  1.0  -1.2113
  O  O4469  1  0.689660  0.888300  0.082710  1.0  -0.6262
  O  O4470  1  0.654670  0.720820  0.867070  1.0  -0.5786
  O  O4471  1  0.161690  0.259110  0.383020  1.0  -0.6107
  O  O4472  1  0.218150  0.157100  0.370230  1.0  -0.5729
  O  O4473  1  0.257010  0.165340  0.384670  1.0  -0.6497
  O  O4474  1  0.244760  0.344270  0.376040  1.0  -0.6145
  O  O4475  1  0.283300  0.350890  0.393100  1.0  -0.5951
  O  O4476  1  0.337810  0.247290  0.386460  1.0  -0.5851
  O  O4477  1  0.346840  0.288200  0.379600  1.0  -0.5707
  O  O4478  1  0.140310  0.305600  0.401020  1.0  -0.5753
  O  O4479  1  0.136550  0.283460  0.437100  1.0  -0.6015
  O  O4480  1  0.206350  0.373080  0.402070  1.0  -0.6178
  O  O4481  1  0.223200  0.384420  0.439390  1.0  -0.5857
  O  O4482  1  0.218930  0.385250  0.552460  1.0  -0.5807
  O  O4483  1  0.127120  0.313000  0.581220  1.0  -0.592
  O  O4484  1  0.139300  0.284770  0.551700  1.0  -0.5976
  O  O4485  1  0.091490  0.303060  0.374790  1.0  -0.5932
  O  O4486  1  0.056380  0.279310  0.377930  1.0  -0.5968
  O  O4487  1  0.059220  0.361000  0.276570  1.0  -0.5993
  O  O4488  1  0.090810  0.369740  0.303550  1.0  -0.6549
  O  O4489  1  0.906080  0.301260  0.364380  1.0  -0.5521
  O  O4490  1  0.941880  0.281180  0.377450  1.0  -0.5904
  O  O4491  1  0.947890  0.362540  0.273340  1.0  -0.5815
  O  O4492  1  0.911590  0.362670  0.294390  1.0  -0.6481
  O  O4493  1  0.256700  0.459320  0.408360  1.0  -0.5819
  O  O4494  1  0.252190  0.436540  0.443360  1.0  -0.582
  O  O4495  1  0.253220  0.548810  0.407820  1.0  -0.6067
  O  O4496  1  0.248450  0.571350  0.443780  1.0  -0.5867
  O  O4497  1  0.257000  0.401790  0.392430  1.0  -1.2148
  O  O4498  1  0.106940  0.250880  0.394010  1.0  -1.2113
  O  O4499  1  0.189660  0.388300  0.582710  1.0  -0.6262
  O  O4500  1  0.154670  0.220820  0.367070  1.0  -0.5786
  O  O4501  1  0.161690  0.740890  0.116980  1.0  -0.6107
  O  O4502  1  0.218150  0.842900  0.129770  1.0  -0.5738
  O  O4503  1  0.257010  0.834660  0.115330  1.0  -0.6493
  O  O4504  1  0.244760  0.655730  0.123960  1.0  -0.6151
  O  O4505  1  0.283300  0.649110  0.106900  1.0  -0.5951
  O  O4506  1  0.337810  0.752710  0.113540  1.0  -0.5855
  O  O4507  1  0.346840  0.711800  0.120400  1.0  -0.5717
  O  O4508  1  0.140310  0.694400  0.098980  1.0  -0.5753
  O  O4509  1  0.136550  0.716540  0.062900  1.0  -0.6014
  O  O4510  1  0.206350  0.626920  0.097930  1.0  -0.618
  O  O4511  1  0.223200  0.615580  0.060610  1.0  -0.5853
  O  O4512  1  0.218930  0.614750  0.947540  1.0  -0.5787
  O  O4513  1  0.127120  0.687000  0.918780  1.0  -0.5925
  O  O4514  1  0.139300  0.715230  0.948300  1.0  -0.597
  O  O4515  1  0.091490  0.696940  0.125210  1.0  -0.5931
  O  O4516  1  0.056380  0.720690  0.122070  1.0  -0.5962
  O  O4517  1  0.059220  0.639000  0.223430  1.0  -0.5984
  O  O4518  1  0.090810  0.630260  0.196450  1.0  -0.657
  O  O4519  1  0.906080  0.698740  0.135620  1.0  -0.5517
  O  O4520  1  0.941880  0.718820  0.122550  1.0  -0.5904
  O  O4521  1  0.947890  0.637460  0.226660  1.0  -0.5817
  O  O4522  1  0.911590  0.637330  0.205610  1.0  -0.6468
  O  O4523  1  0.256700  0.540680  0.091640  1.0  -0.5815
  O  O4524  1  0.252190  0.563460  0.056640  1.0  -0.5812
  O  O4525  1  0.253220  0.451190  0.092180  1.0  -0.6071
  O  O4526  1  0.248450  0.428650  0.056220  1.0  -0.5858
  O  O4527  1  0.257000  0.598210  0.107570  1.0  -1.2139
  O  O4528  1  0.106940  0.749120  0.105990  1.0  -1.2112
  O  O4529  1  0.189660  0.611700  0.917290  1.0  -0.6247
  O  O4530  1  0.154670  0.779180  0.132930  1.0  -0.5775
  O  O4531  1  0.661690  0.240890  0.616980  1.0  -0.6107
  O  O4532  1  0.718150  0.342900  0.629770  1.0  -0.5738
  O  O4533  1  0.757010  0.334660  0.615330  1.0  -0.6493
  O  O4534  1  0.744760  0.155730  0.623960  1.0  -0.6151
  O  O4535  1  0.783300  0.149110  0.606900  1.0  -0.5951
  O  O4536  1  0.837810  0.252710  0.613540  1.0  -0.5855
  O  O4537  1  0.846840  0.211800  0.620400  1.0  -0.5717
  O  O4538  1  0.640310  0.194400  0.598980  1.0  -0.5753
  O  O4539  1  0.636550  0.216540  0.562900  1.0  -0.6014
  O  O4540  1  0.706350  0.126920  0.597930  1.0  -0.618
  O  O4541  1  0.723200  0.115580  0.560610  1.0  -0.5853
  O  O4542  1  0.718930  0.114750  0.447540  1.0  -0.5787
  O  O4543  1  0.627120  0.187000  0.418780  1.0  -0.5925
  O  O4544  1  0.639300  0.215230  0.448300  1.0  -0.597
  O  O4545  1  0.591490  0.196940  0.625210  1.0  -0.5931
  O  O4546  1  0.556380  0.220690  0.622070  1.0  -0.5962
  O  O4547  1  0.559220  0.139000  0.723430  1.0  -0.5984
  O  O4548  1  0.590810  0.130260  0.696450  1.0  -0.657
  O  O4549  1  0.406080  0.198740  0.635620  1.0  -0.5517
  O  O4550  1  0.441880  0.218820  0.622550  1.0  -0.5904
  O  O4551  1  0.447890  0.137460  0.726660  1.0  -0.5817
  O  O4552  1  0.411590  0.137330  0.705610  1.0  -0.6468
  O  O4553  1  0.756700  0.040680  0.591640  1.0  -0.5815
  O  O4554  1  0.752190  0.063460  0.556640  1.0  -0.5812
  O  O4555  1  0.753220  0.951190  0.592180  1.0  -0.6071
  O  O4556  1  0.748450  0.928650  0.556220  1.0  -0.5858
  O  O4557  1  0.757000  0.098210  0.607570  1.0  -1.2139
  O  O4558  1  0.606940  0.249120  0.605990  1.0  -1.2112
  O  O4559  1  0.689660  0.111700  0.417290  1.0  -0.6247
  O  O4560  1  0.654670  0.279180  0.632930  1.0  -0.5775
  O  O4561  1  0.383020  0.838310  0.240890  1.0  -0.6069
  O  O4562  1  0.370230  0.781850  0.342900  1.0  -0.5744
  O  O4563  1  0.384670  0.742990  0.334660  1.0  -0.648
  O  O4564  1  0.376040  0.755240  0.155730  1.0  -0.6192
  O  O4565  1  0.393100  0.716700  0.149110  1.0  -0.5942
  O  O4566  1  0.386460  0.662190  0.252710  1.0  -0.5834
  O  O4567  1  0.379600  0.653160  0.211800  1.0  -0.572
  O  O4568  1  0.401020  0.859690  0.194400  1.0  -0.5758
  O  O4569  1  0.437100  0.863450  0.216540  1.0  -0.6012
  O  O4570  1  0.402070  0.793650  0.126920  1.0  -0.6194
  O  O4571  1  0.439390  0.776800  0.115580  1.0  -0.5856
  O  O4572  1  0.552460  0.781070  0.114750  1.0  -0.5829
  O  O4573  1  0.581220  0.872880  0.187000  1.0  -0.5894
  O  O4574  1  0.551700  0.860700  0.215230  1.0  -0.5986
  O  O4575  1  0.374790  0.908510  0.196940  1.0  -0.5978
  O  O4576  1  0.377930  0.943620  0.220690  1.0  -0.5963
  O  O4577  1  0.276570  0.940780  0.139000  1.0  -0.5976
  O  O4578  1  0.303550  0.909190  0.130260  1.0  -0.6602
  O  O4579  1  0.364380  0.093920  0.198740  1.0  -0.5521
  O  O4580  1  0.377450  0.058120  0.218820  1.0  -0.5901
  O  O4581  1  0.273340  0.052110  0.137460  1.0  -0.5801
  O  O4582  1  0.294390  0.088410  0.137330  1.0  -0.6496
  O  O4583  1  0.408360  0.743300  0.040680  1.0  -0.586
  O  O4584  1  0.443360  0.747810  0.063460  1.0  -0.5826
  O  O4585  1  0.407820  0.746780  0.951190  1.0  -0.6084
  O  O4586  1  0.443780  0.751550  0.928650  1.0  -0.5883
  O  O4587  1  0.392430  0.743000  0.098210  1.0  -1.2148
  O  O4588  1  0.394010  0.893060  0.249120  1.0  -1.2106
  O  O4589  1  0.582710  0.810340  0.111700  1.0  -0.6253
  O  O4590  1  0.367070  0.845330  0.279180  1.0  -0.5784
  O  O4591  1  0.883020  0.338310  0.740890  1.0  -0.6069
  O  O4592  1  0.870230  0.281850  0.842900  1.0  -0.5744
  O  O4593  1  0.884670  0.242990  0.834660  1.0  -0.648
  O  O4594  1  0.876040  0.255240  0.655730  1.0  -0.6192
  O  O4595  1  0.893100  0.216700  0.649110  1.0  -0.5942
  O  O4596  1  0.886460  0.162190  0.752710  1.0  -0.5834
  O  O4597  1  0.879600  0.153160  0.711800  1.0  -0.572
  O  O4598  1  0.901020  0.359690  0.694400  1.0  -0.5758
  O  O4599  1  0.937100  0.363450  0.716540  1.0  -0.6012
  O  O4600  1  0.902070  0.293650  0.626920  1.0  -0.6194
  O  O4601  1  0.939390  0.276800  0.615580  1.0  -0.5856
  O  O4602  1  0.052460  0.281070  0.614750  1.0  -0.5829
  O  O4603  1  0.081220  0.372880  0.687000  1.0  -0.5894
  O  O4604  1  0.051700  0.360700  0.715230  1.0  -0.5986
  O  O4605  1  0.874790  0.408510  0.696940  1.0  -0.5978
  O  O4606  1  0.877930  0.443620  0.720690  1.0  -0.5963
  O  O4607  1  0.776570  0.440780  0.639000  1.0  -0.5976
  O  O4608  1  0.803550  0.409190  0.630260  1.0  -0.6602
  O  O4609  1  0.864380  0.593920  0.698740  1.0  -0.5521
  O  O4610  1  0.877450  0.558120  0.718820  1.0  -0.5901
  O  O4611  1  0.773340  0.552110  0.637460  1.0  -0.5801
  O  O4612  1  0.794390  0.588410  0.637330  1.0  -0.6496
  O  O4613  1  0.908360  0.243300  0.540680  1.0  -0.586
  O  O4614  1  0.943360  0.247810  0.563460  1.0  -0.5826
  O  O4615  1  0.907820  0.246780  0.451190  1.0  -0.6084
  O  O4616  1  0.943780  0.251550  0.428650  1.0  -0.5883
  O  O4617  1  0.892430  0.243000  0.598210  1.0  -1.2148
  O  O4618  1  0.894010  0.393060  0.749120  1.0  -1.2106
  O  O4619  1  0.082710  0.310340  0.611700  1.0  -0.6253
  O  O4620  1  0.867070  0.345330  0.779180  1.0  -0.5784
  O  O4621  1  0.616980  0.338310  0.259110  1.0  -0.6069
  O  O4622  1  0.629770  0.281850  0.157100  1.0  -0.5738
  O  O4623  1  0.615330  0.242990  0.165340  1.0  -0.6478
  O  O4624  1  0.623960  0.255240  0.344270  1.0  -0.6194
  O  O4625  1  0.606900  0.216700  0.350890  1.0  -0.5943
  O  O4626  1  0.613540  0.162190  0.247290  1.0  -0.5832
  O  O4627  1  0.620400  0.153160  0.288200  1.0  -0.5721
  O  O4628  1  0.598980  0.359690  0.305600  1.0  -0.5765
  O  O4629  1  0.562900  0.363450  0.283460  1.0  -0.601
  O  O4630  1  0.597930  0.293650  0.373080  1.0  -0.6184
  O  O4631  1  0.560610  0.276800  0.384420  1.0  -0.5857
  O  O4632  1  0.447540  0.281070  0.385250  1.0  -0.5814
  O  O4633  1  0.418780  0.372880  0.313000  1.0  -0.5886
  O  O4634  1  0.448300  0.360700  0.284770  1.0  -0.5981
  O  O4635  1  0.625210  0.408510  0.303060  1.0  -0.5967
  O  O4636  1  0.622070  0.443620  0.279310  1.0  -0.5967
  O  O4637  1  0.723430  0.440780  0.361000  1.0  -0.5991
  O  O4638  1  0.696450  0.409190  0.369740  1.0  -0.6611
  O  O4639  1  0.635620  0.593920  0.301260  1.0  -0.5527
  O  O4640  1  0.622550  0.558120  0.281180  1.0  -0.5891
  O  O4641  1  0.726660  0.552110  0.362540  1.0  -0.5806
  O  O4642  1  0.705610  0.588410  0.362670  1.0  -0.6518
  O  O4643  1  0.591640  0.243300  0.459320  1.0  -0.5857
  O  O4644  1  0.556640  0.247810  0.436540  1.0  -0.583
  O  O4645  1  0.592180  0.246780  0.548810  1.0  -0.6096
  O  O4646  1  0.556220  0.251550  0.571350  1.0  -0.5877
  O  O4647  1  0.607570  0.243000  0.401790  1.0  -1.2147
  O  O4648  1  0.605990  0.393060  0.250880  1.0  -1.2107
  O  O4649  1  0.417290  0.310340  0.388300  1.0  -0.6251
  O  O4650  1  0.632930  0.345330  0.220820  1.0  -0.5779
  O  O4651  1  0.116980  0.838310  0.759110  1.0  -0.6069
  O  O4652  1  0.129770  0.781850  0.657100  1.0  -0.5738
  O  O4653  1  0.115330  0.742990  0.665340  1.0  -0.6478
  O  O4654  1  0.123960  0.755240  0.844270  1.0  -0.6194
  O  O4655  1  0.106900  0.716700  0.850890  1.0  -0.5943
  O  O4656  1  0.113540  0.662190  0.747290  1.0  -0.5832
  O  O4657  1  0.120400  0.653160  0.788200  1.0  -0.5721
  O  O4658  1  0.098980  0.859690  0.805600  1.0  -0.5765
  O  O4659  1  0.062900  0.863450  0.783460  1.0  -0.601
  O  O4660  1  0.097930  0.793650  0.873080  1.0  -0.6184
  O  O4661  1  0.060610  0.776800  0.884420  1.0  -0.5857
  O  O4662  1  0.947540  0.781070  0.885250  1.0  -0.5814
  O  O4663  1  0.918780  0.872880  0.813000  1.0  -0.5886
  O  O4664  1  0.948300  0.860700  0.784770  1.0  -0.5981
  O  O4665  1  0.125210  0.908510  0.803060  1.0  -0.5967
  O  O4666  1  0.122070  0.943620  0.779310  1.0  -0.5967
  O  O4667  1  0.223430  0.940780  0.861000  1.0  -0.5991
  O  O4668  1  0.196450  0.909190  0.869740  1.0  -0.6611
  O  O4669  1  0.135620  0.093920  0.801260  1.0  -0.5527
  O  O4670  1  0.122550  0.058120  0.781180  1.0  -0.5891
  O  O4671  1  0.226660  0.052110  0.862540  1.0  -0.5806
  O  O4672  1  0.205610  0.088410  0.862670  1.0  -0.6518
  O  O4673  1  0.091640  0.743300  0.959320  1.0  -0.5857
  O  O4674  1  0.056640  0.747810  0.936540  1.0  -0.583
  O  O4675  1  0.092180  0.746780  0.048810  1.0  -0.6096
  O  O4676  1  0.056220  0.751550  0.071350  1.0  -0.5877
  O  O4677  1  0.107570  0.743000  0.901790  1.0  -1.2147
  O  O4678  1  0.105990  0.893060  0.750880  1.0  -1.2107
  O  O4679  1  0.917290  0.810340  0.888300  1.0  -0.6251
  O  O4680  1  0.132930  0.845330  0.720820  1.0  -0.5779
  O  O4681  1  0.883020  0.661690  0.759110  1.0  -0.6062
  O  O4682  1  0.870230  0.718150  0.657100  1.0  -0.5734
  O  O4683  1  0.884670  0.757010  0.665340  1.0  -0.6476
  O  O4684  1  0.876040  0.744760  0.844270  1.0  -0.6175
  O  O4685  1  0.893100  0.783300  0.850890  1.0  -0.5935
  O  O4686  1  0.886460  0.837810  0.747290  1.0  -0.5832
  O  O4687  1  0.879600  0.846840  0.788200  1.0  -0.5718
  O  O4688  1  0.901020  0.640310  0.805600  1.0  -0.5757
  O  O4689  1  0.937100  0.636550  0.783460  1.0  -0.6012
  O  O4690  1  0.902070  0.706350  0.873080  1.0  -0.6187
  O  O4691  1  0.939390  0.723200  0.884420  1.0  -0.5854
  O  O4692  1  0.052460  0.718930  0.885250  1.0  -0.5829
  O  O4693  1  0.081220  0.627120  0.813000  1.0  -0.5909
  O  O4694  1  0.051700  0.639300  0.784770  1.0  -0.5978
  O  O4695  1  0.874790  0.591490  0.803060  1.0  -0.5953
  O  O4696  1  0.877930  0.556380  0.779310  1.0  -0.5969
  O  O4697  1  0.776570  0.559220  0.861000  1.0  -0.5965
  O  O4698  1  0.803550  0.590810  0.869740  1.0  -0.6598
  O  O4699  1  0.864380  0.406080  0.801260  1.0  -0.5542
  O  O4700  1  0.877450  0.441880  0.781180  1.0  -0.5899
  O  O4701  1  0.773340  0.447890  0.862540  1.0  -0.581
  O  O4702  1  0.794390  0.411590  0.862670  1.0  -0.6508
  O  O4703  1  0.908360  0.756700  0.959320  1.0  -0.5855
  O  O4704  1  0.943360  0.752190  0.936540  1.0  -0.5829
  O  O4705  1  0.907820  0.753220  0.048810  1.0  -0.6087
  O  O4706  1  0.943780  0.748450  0.071350  1.0  -0.5874
  O  O4707  1  0.892430  0.757000  0.901790  1.0  -1.2149
  O  O4708  1  0.894010  0.606940  0.750880  1.0  -1.2101
  O  O4709  1  0.082710  0.689660  0.888300  1.0  -0.6251
  O  O4710  1  0.867070  0.654670  0.720820  1.0  -0.5778
  O  O4711  1  0.383020  0.161690  0.259110  1.0  -0.6062
  O  O4712  1  0.370230  0.218150  0.157100  1.0  -0.5734
  O  O4713  1  0.384670  0.257010  0.165340  1.0  -0.6476
  O  O4714  1  0.376040  0.244760  0.344270  1.0  -0.6175
  O  O4715  1  0.393100  0.283300  0.350890  1.0  -0.5935
  O  O4716  1  0.386460  0.337810  0.247290  1.0  -0.5832
  O  O4717  1  0.379600  0.346840  0.288200  1.0  -0.5718
  O  O4718  1  0.401020  0.140310  0.305600  1.0  -0.5757
  O  O4719  1  0.437100  0.136550  0.283460  1.0  -0.6012
  O  O4720  1  0.402070  0.206350  0.373080  1.0  -0.6187
  O  O4721  1  0.439390  0.223200  0.384420  1.0  -0.5854
  O  O4722  1  0.552460  0.218930  0.385250  1.0  -0.5829
  O  O4723  1  0.581220  0.127120  0.313000  1.0  -0.5909
  O  O4724  1  0.551700  0.139300  0.284770  1.0  -0.5978
  O  O4725  1  0.374790  0.091490  0.303060  1.0  -0.5953
  O  O4726  1  0.377930  0.056380  0.279310  1.0  -0.5969
  O  O4727  1  0.276570  0.059220  0.361000  1.0  -0.5965
  O  O4728  1  0.303550  0.090810  0.369740  1.0  -0.6598
  O  O4729  1  0.364380  0.906080  0.301260  1.0  -0.5542
  O  O4730  1  0.377450  0.941880  0.281180  1.0  -0.5899
  O  O4731  1  0.273340  0.947890  0.362540  1.0  -0.581
  O  O4732  1  0.294390  0.911590  0.362670  1.0  -0.6508
  O  O4733  1  0.408360  0.256700  0.459320  1.0  -0.5855
  O  O4734  1  0.443360  0.252190  0.436540  1.0  -0.5829
  O  O4735  1  0.407820  0.253220  0.548810  1.0  -0.6087
  O  O4736  1  0.443780  0.248450  0.571350  1.0  -0.5874
  O  O4737  1  0.392430  0.257000  0.401790  1.0  -1.2149
  O  O4738  1  0.394010  0.106940  0.250880  1.0  -1.2101
  O  O4739  1  0.582710  0.189660  0.388300  1.0  -0.6251
  O  O4740  1  0.367070  0.154670  0.220820  1.0  -0.5778
  O  O4741  1  0.116980  0.161690  0.740890  1.0  -0.6069
  O  O4742  1  0.129770  0.218150  0.842900  1.0  -0.5737
  O  O4743  1  0.115330  0.257010  0.834660  1.0  -0.6484
  O  O4744  1  0.123960  0.244760  0.655730  1.0  -0.6167
  O  O4745  1  0.106900  0.283300  0.649110  1.0  -0.5941
  O  O4746  1  0.113540  0.337810  0.752710  1.0  -0.5827
  O  O4747  1  0.120400  0.346840  0.711800  1.0  -0.5721
  O  O4748  1  0.098980  0.140310  0.694400  1.0  -0.5774
  O  O4749  1  0.062900  0.136550  0.716540  1.0  -0.6014
  O  O4750  1  0.097930  0.206350  0.626920  1.0  -0.6173
  O  O4751  1  0.060610  0.223200  0.615580  1.0  -0.5861
  O  O4752  1  0.947540  0.218930  0.614750  1.0  -0.5839
  O  O4753  1  0.918780  0.127120  0.687000  1.0  -0.5899
  O  O4754  1  0.948300  0.139300  0.715230  1.0  -0.5986
  O  O4755  1  0.125210  0.091490  0.696940  1.0  -0.5977
  O  O4756  1  0.122070  0.056380  0.720690  1.0  -0.5969
  O  O4757  1  0.223430  0.059220  0.639000  1.0  -0.5974
  O  O4758  1  0.196450  0.090810  0.630260  1.0  -0.6586
  O  O4759  1  0.135620  0.906080  0.698740  1.0  -0.5534
  O  O4760  1  0.122550  0.941880  0.718820  1.0  -0.5902
  O  O4761  1  0.226660  0.947890  0.637460  1.0  -0.5812
  O  O4762  1  0.205610  0.911590  0.637330  1.0  -0.6503
  O  O4763  1  0.091640  0.256700  0.540680  1.0  -0.5861
  O  O4764  1  0.056640  0.252190  0.563460  1.0  -0.5829
  O  O4765  1  0.092180  0.253220  0.451190  1.0  -0.6087
  O  O4766  1  0.056220  0.248450  0.428650  1.0  -0.589
  O  O4767  1  0.107570  0.257000  0.598210  1.0  -1.2148
  O  O4768  1  0.105990  0.106940  0.749120  1.0  -1.2104
  O  O4769  1  0.917290  0.189660  0.611700  1.0  -0.6233
  O  O4770  1  0.132930  0.154670  0.779180  1.0  -0.5786
  O  O4771  1  0.616980  0.661690  0.240890  1.0  -0.6069
  O  O4772  1  0.629770  0.718150  0.342900  1.0  -0.5737
  O  O4773  1  0.615330  0.757010  0.334660  1.0  -0.6484
  O  O4774  1  0.623960  0.744760  0.155730  1.0  -0.6167
  O  O4775  1  0.606900  0.783300  0.149110  1.0  -0.5941
  O  O4776  1  0.613540  0.837810  0.252710  1.0  -0.5827
  O  O4777  1  0.620400  0.846840  0.211800  1.0  -0.5721
  O  O4778  1  0.598980  0.640310  0.194400  1.0  -0.5774
  O  O4779  1  0.562900  0.636550  0.216540  1.0  -0.6014
  O  O4780  1  0.597930  0.706350  0.126920  1.0  -0.6173
  O  O4781  1  0.560610  0.723200  0.115580  1.0  -0.5861
  O  O4782  1  0.447540  0.718930  0.114750  1.0  -0.5839
  O  O4783  1  0.418780  0.627120  0.187000  1.0  -0.5899
  O  O4784  1  0.448300  0.639300  0.215230  1.0  -0.5986
  O  O4785  1  0.625210  0.591490  0.196940  1.0  -0.5977
  O  O4786  1  0.622070  0.556380  0.220690  1.0  -0.5969
  O  O4787  1  0.723430  0.559220  0.139000  1.0  -0.5974
  O  O4788  1  0.696450  0.590810  0.130260  1.0  -0.6586
  O  O4789  1  0.635620  0.406080  0.198740  1.0  -0.5534
  O  O4790  1  0.622550  0.441880  0.218820  1.0  -0.5902
  O  O4791  1  0.726660  0.447890  0.137460  1.0  -0.5812
  O  O4792  1  0.705610  0.411590  0.137330  1.0  -0.6503
  O  O4793  1  0.591640  0.756700  0.040680  1.0  -0.5861
  O  O4794  1  0.556640  0.752190  0.063460  1.0  -0.5829
  O  O4795  1  0.592180  0.753220  0.951190  1.0  -0.6087
  O  O4796  1  0.556220  0.748450  0.928650  1.0  -0.589
  O  O4797  1  0.607570  0.757000  0.098210  1.0  -1.2148
  O  O4798  1  0.605990  0.606940  0.249120  1.0  -1.2104
  O  O4799  1  0.417290  0.689660  0.111700  1.0  -0.6233
  O  O4800  1  0.632930  0.654670  0.279180  1.0  -0.5786
  O  O4801  1  0.759110  0.616980  0.161690  1.0  -0.6103
  O  O4802  1  0.657100  0.629770  0.218150  1.0  -0.5738
  O  O4803  1  0.665340  0.615330  0.257010  1.0  -0.652
  O  O4804  1  0.844270  0.623960  0.244760  1.0  -0.6179
  O  O4805  1  0.850890  0.606900  0.283300  1.0  -0.5953
  O  O4806  1  0.747290  0.613540  0.337810  1.0  -0.5819
  O  O4807  1  0.788200  0.620400  0.346840  1.0  -0.5718
  O  O4808  1  0.805600  0.598980  0.140310  1.0  -0.5767
  O  O4809  1  0.783460  0.562900  0.136550  1.0  -0.6005
  O  O4810  1  0.873080  0.597930  0.206350  1.0  -0.6169
  O  O4811  1  0.884420  0.560610  0.223200  1.0  -0.5864
  O  O4812  1  0.885250  0.447540  0.218930  1.0  -0.5803
  O  O4813  1  0.813000  0.418780  0.127120  1.0  -0.5929
  O  O4814  1  0.784770  0.448300  0.139300  1.0  -0.596
  O  O4815  1  0.803060  0.625210  0.091490  1.0  -0.5934
  O  O4816  1  0.779310  0.622070  0.056380  1.0  -0.5931
  O  O4817  1  0.861000  0.723430  0.059220  1.0  -0.5989
  O  O4818  1  0.869740  0.696450  0.090810  1.0  -0.6549
  O  O4819  1  0.801260  0.635620  0.906080  1.0  -0.5525
  O  O4820  1  0.781180  0.622550  0.941880  1.0  -0.5889
  O  O4821  1  0.862540  0.726660  0.947890  1.0  -0.5816
  O  O4822  1  0.862670  0.705610  0.911590  1.0  -0.6468
  O  O4823  1  0.959320  0.591640  0.256700  1.0  -0.5882
  O  O4824  1  0.936540  0.556640  0.252190  1.0  -0.5832
  O  O4825  1  0.048810  0.592180  0.253220  1.0  -0.6128
  O  O4826  1  0.071350  0.556220  0.248450  1.0  -0.5862
  O  O4827  1  0.901790  0.607570  0.257000  1.0  -1.214
  O  O4828  1  0.750880  0.605990  0.106940  1.0  -1.2089
  O  O4829  1  0.888300  0.417290  0.189660  1.0  -0.6249
  O  O4830  1  0.720820  0.632930  0.154670  1.0  -0.5794
  O  O4831  1  0.259110  0.116980  0.661690  1.0  -0.6103
  O  O4832  1  0.157100  0.129770  0.718150  1.0  -0.5738
  O  O4833  1  0.165340  0.115330  0.757010  1.0  -0.652
  O  O4834  1  0.344270  0.123960  0.744760  1.0  -0.6179
  O  O4835  1  0.350890  0.106900  0.783300  1.0  -0.5953
  O  O4836  1  0.247290  0.113540  0.837810  1.0  -0.5819
  O  O4837  1  0.288200  0.120400  0.846840  1.0  -0.5718
  O  O4838  1  0.305600  0.098980  0.640310  1.0  -0.5767
  O  O4839  1  0.283460  0.062900  0.636550  1.0  -0.6005
  O  O4840  1  0.373080  0.097930  0.706350  1.0  -0.6169
  O  O4841  1  0.384420  0.060610  0.723200  1.0  -0.5864
  O  O4842  1  0.385250  0.947540  0.718930  1.0  -0.5803
  O  O4843  1  0.313000  0.918780  0.627120  1.0  -0.5929
  O  O4844  1  0.284770  0.948300  0.639300  1.0  -0.596
  O  O4845  1  0.303060  0.125210  0.591490  1.0  -0.5934
  O  O4846  1  0.279310  0.122070  0.556380  1.0  -0.5931
  O  O4847  1  0.361000  0.223430  0.559220  1.0  -0.5989
  O  O4848  1  0.369740  0.196450  0.590810  1.0  -0.6549
  O  O4849  1  0.301260  0.135620  0.406080  1.0  -0.5525
  O  O4850  1  0.281180  0.122550  0.441880  1.0  -0.5889
  O  O4851  1  0.362540  0.226660  0.447890  1.0  -0.5816
  O  O4852  1  0.362670  0.205610  0.411590  1.0  -0.6468
  O  O4853  1  0.459320  0.091640  0.756700  1.0  -0.5882
  O  O4854  1  0.436540  0.056640  0.752190  1.0  -0.5832
  O  O4855  1  0.548810  0.092180  0.753220  1.0  -0.6128
  O  O4856  1  0.571350  0.056220  0.748450  1.0  -0.5862
  O  O4857  1  0.401790  0.107570  0.757000  1.0  -1.214
  O  O4858  1  0.250880  0.105990  0.606940  1.0  -1.2089
  O  O4859  1  0.388300  0.917290  0.689660  1.0  -0.6249
  O  O4860  1  0.220820  0.132930  0.654670  1.0  -0.5794
  O  O4861  1  0.740890  0.383020  0.661690  1.0  -0.6094
  O  O4862  1  0.842900  0.370230  0.718150  1.0  -0.5718
  O  O4863  1  0.834660  0.384670  0.757010  1.0  -0.6533
  O  O4864  1  0.655730  0.376040  0.744760  1.0  -0.6151
  O  O4865  1  0.649110  0.393100  0.783300  1.0  -0.595
  O  O4866  1  0.752710  0.386460  0.837810  1.0  -0.5827
  O  O4867  1  0.711800  0.379600  0.846840  1.0  -0.5722
  O  O4868  1  0.694400  0.401020  0.640310  1.0  -0.578
  O  O4869  1  0.716540  0.437100  0.636550  1.0  -0.6025
  O  O4870  1  0.626920  0.402070  0.706350  1.0  -0.6169
  O  O4871  1  0.615580  0.439390  0.723200  1.0  -0.5864
  O  O4872  1  0.614750  0.552460  0.718930  1.0  -0.5812
  O  O4873  1  0.687000  0.581220  0.627120  1.0  -0.5924
  O  O4874  1  0.715230  0.551700  0.639300  1.0  -0.5956
  O  O4875  1  0.696940  0.374790  0.591490  1.0  -0.5957
  O  O4876  1  0.720690  0.377930  0.556380  1.0  -0.5936
  O  O4877  1  0.639000  0.276570  0.559220  1.0  -0.5974
  O  O4878  1  0.630260  0.303550  0.590810  1.0  -0.6542
  O  O4879  1  0.698740  0.364380  0.406080  1.0  -0.5538
  O  O4880  1  0.718820  0.377450  0.441880  1.0  -0.5889
  O  O4881  1  0.637460  0.273340  0.447890  1.0  -0.5826
  O  O4882  1  0.637330  0.294390  0.411590  1.0  -0.6465
  O  O4883  1  0.540680  0.408360  0.756700  1.0  -0.5888
  O  O4884  1  0.563460  0.443360  0.752190  1.0  -0.5823
  O  O4885  1  0.451190  0.407820  0.753220  1.0  -0.6115
  O  O4886  1  0.428650  0.443780  0.748450  1.0  -0.5875
  O  O4887  1  0.598210  0.392430  0.757000  1.0  -1.214
  O  O4888  1  0.749120  0.394010  0.606940  1.0  -1.209
  O  O4889  1  0.611700  0.582710  0.689660  1.0  -0.6259
  O  O4890  1  0.779180  0.367070  0.654670  1.0  -0.5794
  O  O4891  1  0.240890  0.883020  0.161690  1.0  -0.6094
  O  O4892  1  0.342900  0.870230  0.218150  1.0  -0.5718
  O  O4893  1  0.334660  0.884670  0.257010  1.0  -0.6533
  O  O4894  1  0.155730  0.876040  0.244760  1.0  -0.6151
  O  O4895  1  0.149110  0.893100  0.283300  1.0  -0.595
  O  O4896  1  0.252710  0.886460  0.337810  1.0  -0.5827
  O  O4897  1  0.211800  0.879600  0.346840  1.0  -0.5722
  O  O4898  1  0.194400  0.901020  0.140310  1.0  -0.578
  O  O4899  1  0.216540  0.937100  0.136550  1.0  -0.6025
  O  O4900  1  0.126920  0.902070  0.206350  1.0  -0.6169
  O  O4901  1  0.115580  0.939390  0.223200  1.0  -0.5864
  O  O4902  1  0.114750  0.052460  0.218930  1.0  -0.5812
  O  O4903  1  0.187000  0.081220  0.127120  1.0  -0.5924
  O  O4904  1  0.215230  0.051700  0.139300  1.0  -0.5956
  O  O4905  1  0.196940  0.874790  0.091490  1.0  -0.5957
  O  O4906  1  0.220690  0.877930  0.056380  1.0  -0.5936
  O  O4907  1  0.139000  0.776570  0.059220  1.0  -0.5974
  O  O4908  1  0.130260  0.803550  0.090810  1.0  -0.6542
  O  O4909  1  0.198740  0.864380  0.906080  1.0  -0.5538
  O  O4910  1  0.218820  0.877450  0.941880  1.0  -0.5889
  O  O4911  1  0.137460  0.773340  0.947890  1.0  -0.5826
  O  O4912  1  0.137330  0.794390  0.911590  1.0  -0.6465
  O  O4913  1  0.040680  0.908360  0.256700  1.0  -0.5888
  O  O4914  1  0.063460  0.943360  0.252190  1.0  -0.5823
  O  O4915  1  0.951190  0.907820  0.253220  1.0  -0.6115
  O  O4916  1  0.928650  0.943780  0.248450  1.0  -0.5875
  O  O4917  1  0.098210  0.892430  0.257000  1.0  -1.214
  O  O4918  1  0.249120  0.894010  0.106940  1.0  -1.209
  O  O4919  1  0.111700  0.082710  0.189660  1.0  -0.6259
  O  O4920  1  0.279180  0.867070  0.154670  1.0  -0.5794
  O  O4921  1  0.240890  0.116980  0.338310  1.0  -0.6097
  O  O4922  1  0.342900  0.129770  0.281850  1.0  -0.5735
  O  O4923  1  0.334660  0.115330  0.242990  1.0  -0.654
  O  O4924  1  0.155730  0.123960  0.255240  1.0  -0.6165
  O  O4925  1  0.149110  0.106900  0.216700  1.0  -0.5945
  O  O4926  1  0.252710  0.113540  0.162190  1.0  -0.5826
  O  O4927  1  0.211800  0.120400  0.153160  1.0  -0.5716
  O  O4928  1  0.194400  0.098980  0.359690  1.0  -0.579
  O  O4929  1  0.216540  0.062900  0.363450  1.0  -0.6015
  O  O4930  1  0.126920  0.097930  0.293650  1.0  -0.6179
  O  O4931  1  0.115580  0.060610  0.276800  1.0  -0.5868
  O  O4932  1  0.114750  0.947540  0.281070  1.0  -0.5838
  O  O4933  1  0.187000  0.918780  0.372880  1.0  -0.5931
  O  O4934  1  0.215230  0.948300  0.360700  1.0  -0.5961
  O  O4935  1  0.196940  0.125210  0.408510  1.0  -0.5967
  O  O4936  1  0.220690  0.122070  0.443620  1.0  -0.594
  O  O4937  1  0.139000  0.223430  0.440780  1.0  -0.599
  O  O4938  1  0.130260  0.196450  0.409190  1.0  -0.6561
  O  O4939  1  0.198740  0.135620  0.593920  1.0  -0.5545
  O  O4940  1  0.218820  0.122550  0.558120  1.0  -0.5884
  O  O4941  1  0.137460  0.226660  0.552110  1.0  -0.5825
  O  O4942  1  0.137330  0.205610  0.588410  1.0  -0.6477
  O  O4943  1  0.040680  0.091640  0.243300  1.0  -0.5887
  O  O4944  1  0.063460  0.056640  0.247810  1.0  -0.5829
  O  O4945  1  0.951190  0.092180  0.246780  1.0  -0.6122
  O  O4946  1  0.928650  0.056220  0.251550  1.0  -0.5873
  O  O4947  1  0.098210  0.107570  0.243000  1.0  -1.2145
  O  O4948  1  0.249120  0.105990  0.393060  1.0  -1.2093
  O  O4949  1  0.111700  0.917290  0.310340  1.0  -0.6266
  O  O4950  1  0.279180  0.132930  0.345330  1.0  -0.5789
  O  O4951  1  0.740890  0.616980  0.838310  1.0  -0.6097
  O  O4952  1  0.842900  0.629770  0.781850  1.0  -0.5735
  O  O4953  1  0.834660  0.615330  0.742990  1.0  -0.654
  O  O4954  1  0.655730  0.623960  0.755240  1.0  -0.6165
  O  O4955  1  0.649110  0.606900  0.716700  1.0  -0.5945
  O  O4956  1  0.752710  0.613540  0.662190  1.0  -0.5826
  O  O4957  1  0.711800  0.620400  0.653160  1.0  -0.5716
  O  O4958  1  0.694400  0.598980  0.859690  1.0  -0.579
  O  O4959  1  0.716540  0.562900  0.863450  1.0  -0.6015
  O  O4960  1  0.626920  0.597930  0.793650  1.0  -0.6179
  O  O4961  1  0.615580  0.560610  0.776800  1.0  -0.5868
  O  O4962  1  0.614750  0.447540  0.781070  1.0  -0.5838
  O  O4963  1  0.687000  0.418780  0.872880  1.0  -0.5931
  O  O4964  1  0.715230  0.448300  0.860700  1.0  -0.5961
  O  O4965  1  0.696940  0.625210  0.908510  1.0  -0.5967
  O  O4966  1  0.720690  0.622070  0.943620  1.0  -0.594
  O  O4967  1  0.639000  0.723430  0.940780  1.0  -0.599
  O  O4968  1  0.630260  0.696450  0.909190  1.0  -0.6561
  O  O4969  1  0.698740  0.635620  0.093920  1.0  -0.5545
  O  O4970  1  0.718820  0.622550  0.058120  1.0  -0.5884
  O  O4971  1  0.637460  0.726660  0.052110  1.0  -0.5825
  O  O4972  1  0.637330  0.705610  0.088410  1.0  -0.6477
  O  O4973  1  0.540680  0.591640  0.743300  1.0  -0.5887
  O  O4974  1  0.563460  0.556640  0.747810  1.0  -0.5829
  O  O4975  1  0.451190  0.592180  0.746780  1.0  -0.6122
  O  O4976  1  0.428650  0.556220  0.751550  1.0  -0.5873
  O  O4977  1  0.598210  0.607570  0.743000  1.0  -1.2145
  O  O4978  1  0.749120  0.605990  0.893060  1.0  -1.2093
  O  O4979  1  0.611700  0.417290  0.810340  1.0  -0.6266
  O  O4980  1  0.779180  0.632930  0.845330  1.0  -0.5789
  O  O4981  1  0.259110  0.883020  0.838310  1.0  -0.6104
  O  O4982  1  0.157100  0.870230  0.781850  1.0  -0.5726
  O  O4983  1  0.165340  0.884670  0.742990  1.0  -0.6525
  O  O4984  1  0.344270  0.876040  0.755240  1.0  -0.617
  O  O4985  1  0.350890  0.893100  0.716700  1.0  -0.5948
  O  O4986  1  0.247290  0.886460  0.662190  1.0  -0.5814
  O  O4987  1  0.288200  0.879600  0.653160  1.0  -0.5722
  O  O4988  1  0.305600  0.901020  0.859690  1.0  -0.5778
  O  O4989  1  0.283460  0.937100  0.863450  1.0  -0.6017
  O  O4990  1  0.373080  0.902070  0.793650  1.0  -0.6165
  O  O4991  1  0.384420  0.939390  0.776800  1.0  -0.5871
  O  O4992  1  0.385250  0.052460  0.781070  1.0  -0.583
  O  O4993  1  0.313000  0.081220  0.872880  1.0  -0.5935
  O  O4994  1  0.284770  0.051700  0.860700  1.0  -0.5947
  O  O4995  1  0.303060  0.874790  0.908510  1.0  -0.595
  O  O4996  1  0.279310  0.877930  0.943620  1.0  -0.5938
  O  O4997  1  0.361000  0.776570  0.940780  1.0  -0.5968
  O  O4998  1  0.369740  0.803550  0.909190  1.0  -0.6547
  O  O4999  1  0.301260  0.864380  0.093920  1.0  -0.5534
  O  O5000  1  0.281180  0.877450  0.058120  1.0  -0.5883
  O  O5001  1  0.362540  0.773340  0.052110  1.0  -0.5803
  O  O5002  1  0.362670  0.794390  0.088410  1.0  -0.6472
  O  O5003  1  0.459320  0.908360  0.743300  1.0  -0.5881
  O  O5004  1  0.436540  0.943360  0.747810  1.0  -0.5821
  O  O5005  1  0.548810  0.907820  0.746780  1.0  -0.6125
  O  O5006  1  0.571350  0.943780  0.751550  1.0  -0.5864
  O  O5007  1  0.401790  0.892430  0.743000  1.0  -1.2146
  O  O5008  1  0.250880  0.894010  0.893060  1.0  -1.2095
  O  O5009  1  0.388300  0.082710  0.810340  1.0  -0.6237
  O  O5010  1  0.220820  0.867070  0.845330  1.0  -0.5795
  O  O5011  1  0.759110  0.383020  0.338310  1.0  -0.6104
  O  O5012  1  0.657100  0.370230  0.281850  1.0  -0.5726
  O  O5013  1  0.665340  0.384670  0.242990  1.0  -0.6525
  O  O5014  1  0.844270  0.376040  0.255240  1.0  -0.617
  O  O5015  1  0.850890  0.393100  0.216700  1.0  -0.5948
  O  O5016  1  0.747290  0.386460  0.162190  1.0  -0.5814
  O  O5017  1  0.788200  0.379600  0.153160  1.0  -0.5722
  O  O5018  1  0.805600  0.401020  0.359690  1.0  -0.5778
  O  O5019  1  0.783460  0.437100  0.363450  1.0  -0.6017
  O  O5020  1  0.873080  0.402070  0.293650  1.0  -0.6165
  O  O5021  1  0.884420  0.439390  0.276800  1.0  -0.5871
  O  O5022  1  0.885250  0.552460  0.281070  1.0  -0.583
  O  O5023  1  0.813000  0.581220  0.372880  1.0  -0.5935
  O  O5024  1  0.784770  0.551700  0.360700  1.0  -0.5947
  O  O5025  1  0.803060  0.374790  0.408510  1.0  -0.595
  O  O5026  1  0.779310  0.377930  0.443620  1.0  -0.5938
  O  O5027  1  0.861000  0.276570  0.440780  1.0  -0.5968
  O  O5028  1  0.869740  0.303550  0.409190  1.0  -0.6547
  O  O5029  1  0.801260  0.364380  0.593920  1.0  -0.5534
  O  O5030  1  0.781180  0.377450  0.558120  1.0  -0.5883
  O  O5031  1  0.862540  0.273340  0.552110  1.0  -0.5803
  O  O5032  1  0.862670  0.294390  0.588410  1.0  -0.6472
  O  O5033  1  0.959320  0.408360  0.243300  1.0  -0.5881
  O  O5034  1  0.936540  0.443360  0.247810  1.0  -0.5821
  O  O5035  1  0.048810  0.407820  0.246780  1.0  -0.6125
  O  O5036  1  0.071350  0.443780  0.251550  1.0  -0.5864
  O  O5037  1  0.901790  0.392430  0.243000  1.0  -1.2146
  O  O5038  1  0.750880  0.394010  0.393060  1.0  -1.2095
  O  O5039  1  0.888300  0.582710  0.310340  1.0  -0.6237
  O  O5040  1  0.720820  0.367070  0.345330  1.0  -0.5795
  O  O5041  1  0.161690  0.759110  0.616980  1.0  -0.6107
  O  O5042  1  0.218150  0.657100  0.629770  1.0  -0.5738
  O  O5043  1  0.257010  0.665340  0.615330  1.0  -0.6495
  O  O5044  1  0.244760  0.844270  0.623960  1.0  -0.6152
  O  O5045  1  0.283300  0.850890  0.606900  1.0  -0.5951
  O  O5046  1  0.337810  0.747290  0.613540  1.0  -0.5851
  O  O5047  1  0.346840  0.788200  0.620400  1.0  -0.5712
  O  O5048  1  0.140310  0.805600  0.598980  1.0  -0.5744
  O  O5049  1  0.136550  0.783460  0.562900  1.0  -0.6001
  O  O5050  1  0.206350  0.873080  0.597930  1.0  -0.6181
  O  O5051  1  0.223200  0.884420  0.560610  1.0  -0.5862
  O  O5052  1  0.218930  0.885250  0.447540  1.0  -0.5782
  O  O5053  1  0.127120  0.813000  0.418780  1.0  -0.5913
  O  O5054  1  0.139300  0.784770  0.448300  1.0  -0.5963
  O  O5055  1  0.091490  0.803060  0.625210  1.0  -0.5933
  O  O5056  1  0.056380  0.779310  0.622070  1.0  -0.5964
  O  O5057  1  0.059220  0.861000  0.723430  1.0  -0.5988
  O  O5058  1  0.090810  0.869740  0.696450  1.0  -0.6565
  O  O5059  1  0.906080  0.801260  0.635620  1.0  -0.552
  O  O5060  1  0.941880  0.781180  0.622550  1.0  -0.5898
  O  O5061  1  0.947890  0.862540  0.726660  1.0  -0.5818
  O  O5062  1  0.911590  0.862670  0.705610  1.0  -0.6475
  O  O5063  1  0.256700  0.959320  0.591640  1.0  -0.5825
  O  O5064  1  0.252190  0.936540  0.556640  1.0  -0.5809
  O  O5065  1  0.253220  0.048810  0.592180  1.0  -0.6072
  O  O5066  1  0.248450  0.071350  0.556220  1.0  -0.5873
  O  O5067  1  0.257000  0.901790  0.607570  1.0  -1.2142
  O  O5068  1  0.106940  0.750880  0.605990  1.0  -1.2115
  O  O5069  1  0.189660  0.888300  0.417290  1.0  -0.6263
  O  O5070  1  0.154670  0.720820  0.632930  1.0  -0.5779
  O  O5071  1  0.661690  0.259110  0.116980  1.0  -0.6107
  O  O5072  1  0.718150  0.157100  0.129770  1.0  -0.5738
  O  O5073  1  0.757010  0.165340  0.115330  1.0  -0.6495
  O  O5074  1  0.744760  0.344270  0.123960  1.0  -0.6152
  O  O5075  1  0.783300  0.350890  0.106900  1.0  -0.5951
  O  O5076  1  0.837810  0.247290  0.113540  1.0  -0.5851
  O  O5077  1  0.846840  0.288200  0.120400  1.0  -0.5712
  O  O5078  1  0.640310  0.305600  0.098980  1.0  -0.5744
  O  O5079  1  0.636550  0.283460  0.062900  1.0  -0.6001
  O  O5080  1  0.706350  0.373080  0.097930  1.0  -0.6181
  O  O5081  1  0.723200  0.384420  0.060610  1.0  -0.5862
  O  O5082  1  0.718930  0.385250  0.947540  1.0  -0.5782
  O  O5083  1  0.627120  0.313000  0.918780  1.0  -0.5913
  O  O5084  1  0.639300  0.284770  0.948300  1.0  -0.5963
  O  O5085  1  0.591490  0.303060  0.125210  1.0  -0.5933
  O  O5086  1  0.556380  0.279310  0.122070  1.0  -0.5964
  O  O5087  1  0.559220  0.361000  0.223430  1.0  -0.5988
  O  O5088  1  0.590810  0.369740  0.196450  1.0  -0.6565
  O  O5089  1  0.406080  0.301260  0.135620  1.0  -0.552
  O  O5090  1  0.441880  0.281180  0.122550  1.0  -0.5898
  O  O5091  1  0.447890  0.362540  0.226660  1.0  -0.5818
  O  O5092  1  0.411590  0.362670  0.205610  1.0  -0.6475
  O  O5093  1  0.756700  0.459320  0.091640  1.0  -0.5825
  O  O5094  1  0.752190  0.436540  0.056640  1.0  -0.5809
  O  O5095  1  0.753220  0.548810  0.092180  1.0  -0.6072
  O  O5096  1  0.748450  0.571350  0.056220  1.0  -0.5873
  O  O5097  1  0.757000  0.401790  0.107570  1.0  -1.2142
  O  O5098  1  0.606940  0.250880  0.105990  1.0  -1.2115
  O  O5099  1  0.689660  0.388300  0.917290  1.0  -0.6263
  O  O5100  1  0.654670  0.220820  0.132930  1.0  -0.5779
  O  O5101  1  0.661690  0.740890  0.383020  1.0  -0.6108
  O  O5102  1  0.718150  0.842900  0.370230  1.0  -0.5731
  O  O5103  1  0.757010  0.834660  0.384670  1.0  -0.6492
  O  O5104  1  0.744760  0.655730  0.376040  1.0  -0.6145
  O  O5105  1  0.783300  0.649110  0.393100  1.0  -0.5956
  O  O5106  1  0.837810  0.752710  0.386460  1.0  -0.5856
  O  O5107  1  0.846840  0.711800  0.379600  1.0  -0.5714
  O  O5108  1  0.640310  0.694400  0.401020  1.0  -0.5753
  O  O5109  1  0.636550  0.716540  0.437100  1.0  -0.602
  O  O5110  1  0.706350  0.626920  0.402070  1.0  -0.6176
  O  O5111  1  0.723200  0.615580  0.439390  1.0  -0.5851
  O  O5112  1  0.718930  0.614750  0.552460  1.0  -0.5796
  O  O5113  1  0.627120  0.687000  0.581220  1.0  -0.5928
  O  O5114  1  0.639300  0.715230  0.551700  1.0  -0.5951
  O  O5115  1  0.591490  0.696940  0.374790  1.0  -0.5927
  O  O5116  1  0.556380  0.720690  0.377930  1.0  -0.5963
  O  O5117  1  0.559220  0.639000  0.276570  1.0  -0.5987
  O  O5118  1  0.590810  0.630260  0.303550  1.0  -0.6547
  O  O5119  1  0.406080  0.698740  0.364380  1.0  -0.5518
  O  O5120  1  0.441880  0.718820  0.377450  1.0  -0.5904
  O  O5121  1  0.447890  0.637460  0.273340  1.0  -0.5819
  O  O5122  1  0.411590  0.637330  0.294390  1.0  -0.6484
  O  O5123  1  0.756700  0.540680  0.408360  1.0  -0.5813
  O  O5124  1  0.752190  0.563460  0.443360  1.0  -0.5812
  O  O5125  1  0.753220  0.451190  0.407820  1.0  -0.6064
  O  O5126  1  0.748450  0.428650  0.443780  1.0  -0.5861
  O  O5127  1  0.757000  0.598210  0.392430  1.0  -1.2145
  O  O5128  1  0.606940  0.749120  0.394010  1.0  -1.211
  O  O5129  1  0.689660  0.611700  0.582710  1.0  -0.6262
  O  O5130  1  0.654670  0.779180  0.367070  1.0  -0.5782
  O  O5131  1  0.161690  0.240890  0.883020  1.0  -0.6108
  O  O5132  1  0.218150  0.342900  0.870230  1.0  -0.5731
  O  O5133  1  0.257010  0.334660  0.884670  1.0  -0.6492
  O  O5134  1  0.244760  0.155730  0.876040  1.0  -0.6145
  O  O5135  1  0.283300  0.149110  0.893100  1.0  -0.5956
  O  O5136  1  0.337810  0.252710  0.886460  1.0  -0.5856
  O  O5137  1  0.346840  0.211800  0.879600  1.0  -0.5714
  O  O5138  1  0.140310  0.194400  0.901020  1.0  -0.5753
  O  O5139  1  0.136550  0.216540  0.937100  1.0  -0.602
  O  O5140  1  0.206350  0.126920  0.902070  1.0  -0.6176
  O  O5141  1  0.223200  0.115580  0.939390  1.0  -0.5851
  O  O5142  1  0.218930  0.114750  0.052460  1.0  -0.5796
  O  O5143  1  0.127120  0.187000  0.081220  1.0  -0.5928
  O  O5144  1  0.139300  0.215230  0.051700  1.0  -0.5951
  O  O5145  1  0.091490  0.196940  0.874790  1.0  -0.5927
  O  O5146  1  0.056380  0.220690  0.877930  1.0  -0.5963
  O  O5147  1  0.059220  0.139000  0.776570  1.0  -0.5987
  O  O5148  1  0.090810  0.130260  0.803550  1.0  -0.6547
  O  O5149  1  0.906080  0.198740  0.864380  1.0  -0.5518
  O  O5150  1  0.941880  0.218820  0.877450  1.0  -0.5904
  O  O5151  1  0.947890  0.137460  0.773340  1.0  -0.5819
  O  O5152  1  0.911590  0.137330  0.794390  1.0  -0.6484
  O  O5153  1  0.256700  0.040680  0.908360  1.0  -0.5813
  O  O5154  1  0.252190  0.063460  0.943360  1.0  -0.5812
  O  O5155  1  0.253220  0.951190  0.907820  1.0  -0.6064
  O  O5156  1  0.248450  0.928650  0.943780  1.0  -0.5861
  O  O5157  1  0.257000  0.098210  0.892430  1.0  -1.2145
  O  O5158  1  0.106940  0.249120  0.894010  1.0  -1.211
  O  O5159  1  0.189660  0.111700  0.082710  1.0  -0.6262
  O  O5160  1  0.154670  0.279180  0.867070  1.0  -0.5782
  O  O5161  1  0.338310  0.240890  0.116980  1.0  -0.6117
  O  O5162  1  0.281850  0.342900  0.129770  1.0  -0.5731
  O  O5163  1  0.242990  0.334660  0.115330  1.0  -0.6484
  O  O5164  1  0.255240  0.155730  0.123960  1.0  -0.615
  O  O5165  1  0.216700  0.149110  0.106900  1.0  -0.595
  O  O5166  1  0.162190  0.252710  0.113540  1.0  -0.5838
  O  O5167  1  0.153160  0.211800  0.120400  1.0  -0.5712
  O  O5168  1  0.359690  0.194400  0.098980  1.0  -0.5751
  O  O5169  1  0.363450  0.216540  0.062900  1.0  -0.6018
  O  O5170  1  0.293650  0.126920  0.097930  1.0  -0.6181
  O  O5171  1  0.276800  0.115580  0.060610  1.0  -0.5854
  O  O5172  1  0.281070  0.114750  0.947540  1.0  -0.5792
  O  O5173  1  0.372880  0.187000  0.918780  1.0  -0.5925
  O  O5174  1  0.360700  0.215230  0.948300  1.0  -0.5956
  O  O5175  1  0.408510  0.196940  0.125210  1.0  -0.593
  O  O5176  1  0.443620  0.220690  0.122070  1.0  -0.5977
  O  O5177  1  0.440780  0.139000  0.223430  1.0  -0.598
  O  O5178  1  0.409190  0.130260  0.196450  1.0  -0.657
  O  O5179  1  0.593920  0.198740  0.135620  1.0  -0.5531
  O  O5180  1  0.558120  0.218820  0.122550  1.0  -0.5905
  O  O5181  1  0.552110  0.137460  0.226660  1.0  -0.5812
  O  O5182  1  0.588410  0.137330  0.205610  1.0  -0.648
  O  O5183  1  0.243300  0.040680  0.091640  1.0  -0.5823
  O  O5184  1  0.247810  0.063460  0.056640  1.0  -0.5823
  O  O5185  1  0.246780  0.951190  0.092180  1.0  -0.6077
  O  O5186  1  0.251550  0.928650  0.056220  1.0  -0.5866
  O  O5187  1  0.243000  0.098210  0.107570  1.0  -1.2139
  O  O5188  1  0.393060  0.249120  0.105990  1.0  -1.2111
  O  O5189  1  0.310340  0.111700  0.917290  1.0  -0.624
  O  O5190  1  0.345330  0.279180  0.132930  1.0  -0.578
  O  O5191  1  0.838310  0.740890  0.616980  1.0  -0.6117
  O  O5192  1  0.781850  0.842900  0.629770  1.0  -0.5731
  O  O5193  1  0.742990  0.834660  0.615330  1.0  -0.6484
  O  O5194  1  0.755240  0.655730  0.623960  1.0  -0.615
  O  O5195  1  0.716700  0.649110  0.606900  1.0  -0.595
  O  O5196  1  0.662190  0.752710  0.613540  1.0  -0.5838
  O  O5197  1  0.653160  0.711800  0.620400  1.0  -0.5712
  O  O5198  1  0.859690  0.694400  0.598980  1.0  -0.5751
  O  O5199  1  0.863450  0.716540  0.562900  1.0  -0.6018
  O  O5200  1  0.793650  0.626920  0.597930  1.0  -0.6181
  O  O5201  1  0.776800  0.615580  0.560610  1.0  -0.5854
  O  O5202  1  0.781070  0.614750  0.447540  1.0  -0.5792
  O  O5203  1  0.872880  0.687000  0.418780  1.0  -0.5925
  O  O5204  1  0.860700  0.715230  0.448300  1.0  -0.5956
  O  O5205  1  0.908510  0.696940  0.625210  1.0  -0.593
  O  O5206  1  0.943620  0.720690  0.622070  1.0  -0.5977
  O  O5207  1  0.940780  0.639000  0.723430  1.0  -0.598
  O  O5208  1  0.909190  0.630260  0.696450  1.0  -0.657
  O  O5209  1  0.093920  0.698740  0.635620  1.0  -0.5531
  O  O5210  1  0.058120  0.718820  0.622550  1.0  -0.5905
  O  O5211  1  0.052110  0.637460  0.726660  1.0  -0.5812
  O  O5212  1  0.088410  0.637330  0.705610  1.0  -0.648
  O  O5213  1  0.743300  0.540680  0.591640  1.0  -0.5823
  O  O5214  1  0.747810  0.563460  0.556640  1.0  -0.5823
  O  O5215  1  0.746780  0.451190  0.592180  1.0  -0.6077
  O  O5216  1  0.751550  0.428650  0.556220  1.0  -0.5866
  O  O5217  1  0.743000  0.598210  0.607570  1.0  -1.2139
  O  O5218  1  0.893060  0.749120  0.605990  1.0  -1.2111
  O  O5219  1  0.810340  0.611700  0.417290  1.0  -0.624
  O  O5220  1  0.845330  0.779180  0.632930  1.0  -0.578
  O  O5221  1  0.838310  0.259110  0.883020  1.0  -0.612
  O  O5222  1  0.781850  0.157100  0.870230  1.0  -0.5729
  O  O5223  1  0.742990  0.165340  0.884670  1.0  -0.649
  O  O5224  1  0.755240  0.344270  0.876040  1.0  -0.6147
  O  O5225  1  0.716700  0.350890  0.893100  1.0  -0.5951
  O  O5226  1  0.662190  0.247290  0.886460  1.0  -0.5842
  O  O5227  1  0.653160  0.288200  0.879600  1.0  -0.5698
  O  O5228  1  0.859690  0.305600  0.901020  1.0  -0.5754
  O  O5229  1  0.863450  0.283460  0.937100  1.0  -0.6018
  O  O5230  1  0.793650  0.373080  0.902070  1.0  -0.6176
  O  O5231  1  0.776800  0.384420  0.939390  1.0  -0.5853
  O  O5232  1  0.781070  0.385250  0.052460  1.0  -0.5806
  O  O5233  1  0.872880  0.313000  0.081220  1.0  -0.5914
  O  O5234  1  0.860700  0.284770  0.051700  1.0  -0.5955
  O  O5235  1  0.908510  0.303060  0.874790  1.0  -0.593
  O  O5236  1  0.943620  0.279310  0.877930  1.0  -0.5968
  O  O5237  1  0.940780  0.361000  0.776570  1.0  -0.599
  O  O5238  1  0.909190  0.369740  0.803550  1.0  -0.6551
  O  O5239  1  0.093920  0.301260  0.864380  1.0  -0.553
  O  O5240  1  0.058120  0.281180  0.877450  1.0  -0.5902
  O  O5241  1  0.052110  0.362540  0.773340  1.0  -0.5808
  O  O5242  1  0.088410  0.362670  0.794390  1.0  -0.6492
  O  O5243  1  0.743300  0.459320  0.908360  1.0  -0.5828
  O  O5244  1  0.747810  0.436540  0.943360  1.0  -0.5827
  O  O5245  1  0.746780  0.548810  0.907820  1.0  -0.6077
  O  O5246  1  0.751550  0.571350  0.943780  1.0  -0.5877
  O  O5247  1  0.743000  0.401790  0.892430  1.0  -1.2148
  O  O5248  1  0.893060  0.250880  0.894010  1.0  -1.2114
  O  O5249  1  0.810340  0.388300  0.082710  1.0  -0.6252
  O  O5250  1  0.845330  0.220820  0.867070  1.0  -0.5784
  O  O5251  1  0.338310  0.759110  0.383020  1.0  -0.612
  O  O5252  1  0.281850  0.657100  0.370230  1.0  -0.5729
  O  O5253  1  0.242990  0.665340  0.384670  1.0  -0.649
  O  O5254  1  0.255240  0.844270  0.376040  1.0  -0.6147
  O  O5255  1  0.216700  0.850890  0.393100  1.0  -0.5951
  O  O5256  1  0.162190  0.747290  0.386460  1.0  -0.5842
  O  O5257  1  0.153160  0.788200  0.379600  1.0  -0.5698
  O  O5258  1  0.359690  0.805600  0.401020  1.0  -0.5754
  O  O5259  1  0.363450  0.783460  0.437100  1.0  -0.6018
  O  O5260  1  0.293650  0.873080  0.402070  1.0  -0.6176
  O  O5261  1  0.276800  0.884420  0.439390  1.0  -0.5853
  O  O5262  1  0.281070  0.885250  0.552460  1.0  -0.5806
  O  O5263  1  0.372880  0.813000  0.581220  1.0  -0.5914
  O  O5264  1  0.360700  0.784770  0.551700  1.0  -0.5955
  O  O5265  1  0.408510  0.803060  0.374790  1.0  -0.593
  O  O5266  1  0.443620  0.779310  0.377930  1.0  -0.5968
  O  O5267  1  0.440780  0.861000  0.276570  1.0  -0.599
  O  O5268  1  0.409190  0.869740  0.303550  1.0  -0.6551
  O  O5269  1  0.593920  0.801260  0.364380  1.0  -0.553
  O  O5270  1  0.558120  0.781180  0.377450  1.0  -0.5902
  O  O5271  1  0.552110  0.862540  0.273340  1.0  -0.5808
  O  O5272  1  0.588410  0.862670  0.294390  1.0  -0.6492
  O  O5273  1  0.243300  0.959320  0.408360  1.0  -0.5828
  O  O5274  1  0.247810  0.936540  0.443360  1.0  -0.5827
  O  O5275  1  0.246780  0.048810  0.407820  1.0  -0.6077
  O  O5276  1  0.251550  0.071350  0.443780  1.0  -0.5877
  O  O5277  1  0.243000  0.901790  0.392430  1.0  -1.2148
  O  O5278  1  0.393060  0.750880  0.394010  1.0  -1.2114
  O  O5279  1  0.310340  0.888300  0.582710  1.0  -0.6252
  O  O5280  1  0.345330  0.720820  0.367070  1.0  -0.5784
  O  O5281  1  0.616980  0.161690  0.759110  1.0  -0.6066
  O  O5282  1  0.629770  0.218150  0.657100  1.0  -0.5735
  O  O5283  1  0.615330  0.257010  0.665340  1.0  -0.6478
  O  O5284  1  0.623960  0.244760  0.844270  1.0  -0.6175
  O  O5285  1  0.606900  0.283300  0.850890  1.0  -0.5942
  O  O5286  1  0.613540  0.337810  0.747290  1.0  -0.583
  O  O5287  1  0.620400  0.346840  0.788200  1.0  -0.5717
  O  O5288  1  0.598980  0.140310  0.805600  1.0  -0.5764
  O  O5289  1  0.562900  0.136550  0.783460  1.0  -0.6009
  O  O5290  1  0.597930  0.206350  0.873080  1.0  -0.6177
  O  O5291  1  0.560610  0.223200  0.884420  1.0  -0.5856
  O  O5292  1  0.447540  0.218930  0.885250  1.0  -0.582
  O  O5293  1  0.418780  0.127120  0.813000  1.0  -0.5902
  O  O5294  1  0.448300  0.139300  0.784770  1.0  -0.5962
  O  O5295  1  0.625210  0.091490  0.803060  1.0  -0.5965
  O  O5296  1  0.622070  0.056380  0.779310  1.0  -0.5966
  O  O5297  1  0.723430  0.059220  0.861000  1.0  -0.5969
  O  O5298  1  0.696450  0.090810  0.869740  1.0  -0.6599
  O  O5299  1  0.635620  0.906080  0.801260  1.0  -0.5544
  O  O5300  1  0.622550  0.941880  0.781180  1.0  -0.5897
  O  O5301  1  0.726660  0.947890  0.862540  1.0  -0.5817
  O  O5302  1  0.705610  0.911590  0.862670  1.0  -0.6519
  O  O5303  1  0.591640  0.256700  0.959320  1.0  -0.5858
  O  O5304  1  0.556640  0.252190  0.936540  1.0  -0.5831
  O  O5305  1  0.592180  0.253220  0.048810  1.0  -0.6094
  O  O5306  1  0.556220  0.248450  0.071350  1.0  -0.5878
  O  O5307  1  0.607570  0.257000  0.901790  1.0  -1.2147
  O  O5308  1  0.605990  0.106940  0.750880  1.0  -1.2103
  O  O5309  1  0.417290  0.189660  0.888300  1.0  -0.626
  O  O5310  1  0.632930  0.154670  0.720820  1.0  -0.5782
  O  O5311  1  0.116980  0.661690  0.259110  1.0  -0.6066
  O  O5312  1  0.129770  0.718150  0.157100  1.0  -0.5735
  O  O5313  1  0.115330  0.757010  0.165340  1.0  -0.6478
  O  O5314  1  0.123960  0.744760  0.344270  1.0  -0.6175
  O  O5315  1  0.106900  0.783300  0.350890  1.0  -0.5942
  O  O5316  1  0.113540  0.837810  0.247290  1.0  -0.583
  O  O5317  1  0.120400  0.846840  0.288200  1.0  -0.5717
  O  O5318  1  0.098980  0.640310  0.305600  1.0  -0.5764
  O  O5319  1  0.062900  0.636550  0.283460  1.0  -0.6009
  O  O5320  1  0.097930  0.706350  0.373080  1.0  -0.6177
  O  O5321  1  0.060610  0.723200  0.384420  1.0  -0.5856
  O  O5322  1  0.947540  0.718930  0.385250  1.0  -0.582
  O  O5323  1  0.918780  0.627120  0.313000  1.0  -0.5902
  O  O5324  1  0.948300  0.639300  0.284770  1.0  -0.5962
  O  O5325  1  0.125210  0.591490  0.303060  1.0  -0.5965
  O  O5326  1  0.122070  0.556380  0.279310  1.0  -0.5966
  O  O5327  1  0.223430  0.559220  0.361000  1.0  -0.5969
  O  O5328  1  0.196450  0.590810  0.369740  1.0  -0.6599
  O  O5329  1  0.135620  0.406080  0.301260  1.0  -0.5544
  O  O5330  1  0.122550  0.441880  0.281180  1.0  -0.5897
  O  O5331  1  0.226660  0.447890  0.362540  1.0  -0.5817
  O  O5332  1  0.205610  0.411590  0.362670  1.0  -0.6519
  O  O5333  1  0.091640  0.756700  0.459320  1.0  -0.5858
  O  O5334  1  0.056640  0.752190  0.436540  1.0  -0.5831
  O  O5335  1  0.092180  0.753220  0.548810  1.0  -0.6094
  O  O5336  1  0.056220  0.748450  0.571350  1.0  -0.5878
  O  O5337  1  0.107570  0.757000  0.401790  1.0  -1.2147
  O  O5338  1  0.105990  0.606940  0.250880  1.0  -1.2103
  O  O5339  1  0.917290  0.689660  0.388300  1.0  -0.626
  O  O5340  1  0.132930  0.654670  0.220820  1.0  -0.5782
  O  O5341  1  0.383020  0.661690  0.740890  1.0  -0.6064
  O  O5342  1  0.370230  0.718150  0.842900  1.0  -0.5736
  O  O5343  1  0.384670  0.757010  0.834660  1.0  -0.648
  O  O5344  1  0.376040  0.744760  0.655730  1.0  -0.6168
  O  O5345  1  0.393100  0.783300  0.649110  1.0  -0.5941
  O  O5346  1  0.386460  0.837810  0.752710  1.0  -0.5833
  O  O5347  1  0.379600  0.846840  0.711800  1.0  -0.5716
  O  O5348  1  0.401020  0.640310  0.694400  1.0  -0.576
  O  O5349  1  0.437100  0.636550  0.716540  1.0  -0.6013
  O  O5350  1  0.402070  0.706350  0.626920  1.0  -0.6188
  O  O5351  1  0.439390  0.723200  0.615580  1.0  -0.586
  O  O5352  1  0.552460  0.718930  0.614750  1.0  -0.5827
  O  O5353  1  0.581220  0.627120  0.687000  1.0  -0.5906
  O  O5354  1  0.551700  0.639300  0.715230  1.0  -0.5973
  O  O5355  1  0.374790  0.591490  0.696940  1.0  -0.5972
  O  O5356  1  0.377930  0.556380  0.720690  1.0  -0.5971
  O  O5357  1  0.276570  0.559220  0.639000  1.0  -0.5953
  O  O5358  1  0.303550  0.590810  0.630260  1.0  -0.6587
  O  O5359  1  0.364380  0.406080  0.698740  1.0  -0.5532
  O  O5360  1  0.377450  0.441880  0.718820  1.0  -0.5904
  O  O5361  1  0.273340  0.447890  0.637460  1.0  -0.5804
  O  O5362  1  0.294390  0.411590  0.637330  1.0  -0.6501
  O  O5363  1  0.408360  0.756700  0.540680  1.0  -0.5859
  O  O5364  1  0.443360  0.752190  0.563460  1.0  -0.5826
  O  O5365  1  0.407820  0.753220  0.451190  1.0  -0.6079
  O  O5366  1  0.443780  0.748450  0.428650  1.0  -0.5883
  O  O5367  1  0.392430  0.757000  0.598210  1.0  -1.2149
  O  O5368  1  0.394010  0.606940  0.749120  1.0  -1.2101
  O  O5369  1  0.582710  0.689660  0.611700  1.0  -0.623
  O  O5370  1  0.367070  0.654670  0.779180  1.0  -0.5781
  O  O5371  1  0.883020  0.161690  0.240890  1.0  -0.6064
  O  O5372  1  0.870230  0.218150  0.342900  1.0  -0.5736
  O  O5373  1  0.884670  0.257010  0.334660  1.0  -0.648
  O  O5374  1  0.876040  0.244760  0.155730  1.0  -0.6168
  O  O5375  1  0.893100  0.283300  0.149110  1.0  -0.5941
  O  O5376  1  0.886460  0.337810  0.252710  1.0  -0.5833
  O  O5377  1  0.879600  0.346840  0.211800  1.0  -0.5716
  O  O5378  1  0.901020  0.140310  0.194400  1.0  -0.576
  O  O5379  1  0.937100  0.136550  0.216540  1.0  -0.6013
  O  O5380  1  0.902070  0.206350  0.126920  1.0  -0.6188
  O  O5381  1  0.939390  0.223200  0.115580  1.0  -0.586
  O  O5382  1  0.052460  0.218930  0.114750  1.0  -0.5827
  O  O5383  1  0.081220  0.127120  0.187000  1.0  -0.5906
  O  O5384  1  0.051700  0.139300  0.215230  1.0  -0.5973
  O  O5385  1  0.874790  0.091490  0.196940  1.0  -0.5972
  O  O5386  1  0.877930  0.056380  0.220690  1.0  -0.5971
  O  O5387  1  0.776570  0.059220  0.139000  1.0  -0.5953
  O  O5388  1  0.803550  0.090810  0.130260  1.0  -0.6587
  O  O5389  1  0.864380  0.906080  0.198740  1.0  -0.5532
  O  O5390  1  0.877450  0.941880  0.218820  1.0  -0.5904
  O  O5391  1  0.773340  0.947890  0.137460  1.0  -0.5804
  O  O5392  1  0.794390  0.911590  0.137330  1.0  -0.6501
  O  O5393  1  0.908360  0.256700  0.040680  1.0  -0.5859
  O  O5394  1  0.943360  0.252190  0.063460  1.0  -0.5826
  O  O5395  1  0.907820  0.253220  0.951190  1.0  -0.6079
  O  O5396  1  0.943780  0.248450  0.928650  1.0  -0.5883
  O  O5397  1  0.892430  0.257000  0.098210  1.0  -1.2149
  O  O5398  1  0.894010  0.106940  0.249120  1.0  -1.2101
  O  O5399  1  0.082710  0.189660  0.111700  1.0  -0.623
  O  O5400  1  0.867070  0.154670  0.279180  1.0  -0.5781
  O  O5401  1  0.116980  0.338310  0.240890  1.0  -0.6079
  O  O5402  1  0.129770  0.281850  0.342900  1.0  -0.5742
  O  O5403  1  0.115330  0.242990  0.334660  1.0  -0.648
  O  O5404  1  0.123960  0.255240  0.155730  1.0  -0.6185
  O  O5405  1  0.106900  0.216700  0.149110  1.0  -0.5941
  O  O5406  1  0.113540  0.162190  0.252710  1.0  -0.5827
  O  O5407  1  0.120400  0.153160  0.211800  1.0  -0.5726
  O  O5408  1  0.098980  0.359690  0.194400  1.0  -0.5773
  O  O5409  1  0.062900  0.363450  0.216540  1.0  -0.6015
  O  O5410  1  0.097930  0.293650  0.126920  1.0  -0.6181
  O  O5411  1  0.060610  0.276800  0.115580  1.0  -0.5857
  O  O5412  1  0.947540  0.281070  0.114750  1.0  -0.5827
  O  O5413  1  0.918780  0.372880  0.187000  1.0  -0.5882
  O  O5414  1  0.948300  0.360700  0.215230  1.0  -0.5964
  O  O5415  1  0.125210  0.408510  0.196940  1.0  -0.597
  O  O5416  1  0.122070  0.443620  0.220690  1.0  -0.5964
  O  O5417  1  0.223430  0.440780  0.139000  1.0  -0.5981
  O  O5418  1  0.196450  0.409190  0.130260  1.0  -0.6599
  O  O5419  1  0.135620  0.593920  0.198740  1.0  -0.5524
  O  O5420  1  0.122550  0.558120  0.218820  1.0  -0.5899
  O  O5421  1  0.226660  0.552110  0.137460  1.0  -0.58
  O  O5422  1  0.205610  0.588410  0.137330  1.0  -0.6517
  O  O5423  1  0.091640  0.243300  0.040680  1.0  -0.586
  O  O5424  1  0.056640  0.247810  0.063460  1.0  -0.5829
  O  O5425  1  0.092180  0.246780  0.951190  1.0  -0.609
  O  O5426  1  0.056220  0.251550  0.928650  1.0  -0.5888
  O  O5427  1  0.107570  0.243000  0.098210  1.0  -1.2146
  O  O5428  1  0.105990  0.393060  0.249120  1.0  -1.2108
  O  O5429  1  0.917290  0.310340  0.111700  1.0  -0.6249
  O  O5430  1  0.132930  0.345330  0.279180  1.0  -0.5783
  O  O5431  1  0.616980  0.838310  0.740890  1.0  -0.6079
  O  O5432  1  0.629770  0.781850  0.842900  1.0  -0.5742
  O  O5433  1  0.615330  0.742990  0.834660  1.0  -0.648
  O  O5434  1  0.623960  0.755240  0.655730  1.0  -0.6185
  O  O5435  1  0.606900  0.716700  0.649110  1.0  -0.5941
  O  O5436  1  0.613540  0.662190  0.752710  1.0  -0.5827
  O  O5437  1  0.620400  0.653160  0.711800  1.0  -0.5726
  O  O5438  1  0.598980  0.859690  0.694400  1.0  -0.5773
  O  O5439  1  0.562900  0.863450  0.716540  1.0  -0.6015
  O  O5440  1  0.597930  0.793650  0.626920  1.0  -0.6181
  O  O5441  1  0.560610  0.776800  0.615580  1.0  -0.5857
  O  O5442  1  0.447540  0.781070  0.614750  1.0  -0.5827
  O  O5443  1  0.418780  0.872880  0.687000  1.0  -0.5882
  O  O5444  1  0.448300  0.860700  0.715230  1.0  -0.5964
  O  O5445  1  0.625210  0.908510  0.696940  1.0  -0.597
  O  O5446  1  0.622070  0.943620  0.720690  1.0  -0.5964
  O  O5447  1  0.723430  0.940780  0.639000  1.0  -0.5981
  O  O5448  1  0.696450  0.909190  0.630260  1.0  -0.6599
  O  O5449  1  0.635620  0.093920  0.698740  1.0  -0.5524
  O  O5450  1  0.622550  0.058120  0.718820  1.0  -0.5899
  O  O5451  1  0.726660  0.052110  0.637460  1.0  -0.58
  O  O5452  1  0.705610  0.088410  0.637330  1.0  -0.6517
  O  O5453  1  0.591640  0.743300  0.540680  1.0  -0.586
  O  O5454  1  0.556640  0.747810  0.563460  1.0  -0.5829
  O  O5455  1  0.592180  0.746780  0.451190  1.0  -0.609
  O  O5456  1  0.556220  0.751550  0.428650  1.0  -0.5888
  O  O5457  1  0.607570  0.743000  0.598210  1.0  -1.2146
  O  O5458  1  0.605990  0.893060  0.749120  1.0  -1.2108
  O  O5459  1  0.417290  0.810340  0.611700  1.0  -0.6249
  O  O5460  1  0.632930  0.845330  0.779180  1.0  -0.5783
  O  O5461  1  0.883020  0.838310  0.259110  1.0  -0.6062
  O  O5462  1  0.870230  0.781850  0.157100  1.0  -0.574
  O  O5463  1  0.884670  0.742990  0.165340  1.0  -0.6479
  O  O5464  1  0.876040  0.755240  0.344270  1.0  -0.6198
  O  O5465  1  0.893100  0.716700  0.350890  1.0  -0.5937
  O  O5466  1  0.886460  0.662190  0.247290  1.0  -0.5836
  O  O5467  1  0.879600  0.653160  0.288200  1.0  -0.5721
  O  O5468  1  0.901020  0.859690  0.305600  1.0  -0.576
  O  O5469  1  0.937100  0.863450  0.283460  1.0  -0.6011
  O  O5470  1  0.902070  0.793650  0.373080  1.0  -0.6195
  O  O5471  1  0.939390  0.776800  0.384420  1.0  -0.5855
  O  O5472  1  0.052460  0.781070  0.385250  1.0  -0.5835
  O  O5473  1  0.081220  0.872880  0.313000  1.0  -0.5897
  O  O5474  1  0.051700  0.860700  0.284770  1.0  -0.5964
  O  O5475  1  0.874790  0.908510  0.303060  1.0  -0.5961
  O  O5476  1  0.877930  0.943620  0.279310  1.0  -0.5969
  O  O5477  1  0.776570  0.940780  0.361000  1.0  -0.5975
  O  O5478  1  0.803550  0.909190  0.369740  1.0  -0.6622
  O  O5479  1  0.864380  0.093920  0.301260  1.0  -0.5524
  O  O5480  1  0.877450  0.058120  0.281180  1.0  -0.5893
  O  O5481  1  0.773340  0.052110  0.362540  1.0  -0.5807
  O  O5482  1  0.794390  0.088410  0.362670  1.0  -0.6515
  O  O5483  1  0.908360  0.743300  0.459320  1.0  -0.5857
  O  O5484  1  0.943360  0.747810  0.436540  1.0  -0.583
  O  O5485  1  0.907820  0.746780  0.548810  1.0  -0.609
  O  O5486  1  0.943780  0.751550  0.571350  1.0  -0.5873
  O  O5487  1  0.892430  0.743000  0.401790  1.0  -1.2149
  O  O5488  1  0.894010  0.893060  0.250880  1.0  -1.2105
  O  O5489  1  0.082710  0.810340  0.388300  1.0  -0.6248
  O  O5490  1  0.867070  0.845330  0.220820  1.0  -0.577
  O  O5491  1  0.383020  0.338310  0.759110  1.0  -0.6062
  O  O5492  1  0.370230  0.281850  0.657100  1.0  -0.574
  O  O5493  1  0.384670  0.242990  0.665340  1.0  -0.6479
  O  O5494  1  0.376040  0.255240  0.844270  1.0  -0.6198
  O  O5495  1  0.393100  0.216700  0.850890  1.0  -0.5937
  O  O5496  1  0.386460  0.162190  0.747290  1.0  -0.5836
  O  O5497  1  0.379600  0.153160  0.788200  1.0  -0.5721
  O  O5498  1  0.401020  0.359690  0.805600  1.0  -0.576
  O  O5499  1  0.437100  0.363450  0.783460  1.0  -0.6011
  O  O5500  1  0.402070  0.293650  0.873080  1.0  -0.6195
  O  O5501  1  0.439390  0.276800  0.884420  1.0  -0.5855
  O  O5502  1  0.552460  0.281070  0.885250  1.0  -0.5835
  O  O5503  1  0.581220  0.372880  0.813000  1.0  -0.5897
  O  O5504  1  0.551700  0.360700  0.784770  1.0  -0.5964
  O  O5505  1  0.374790  0.408510  0.803060  1.0  -0.5961
  O  O5506  1  0.377930  0.443620  0.779310  1.0  -0.5969
  O  O5507  1  0.276570  0.440780  0.861000  1.0  -0.5975
  O  O5508  1  0.303550  0.409190  0.869740  1.0  -0.6622
  O  O5509  1  0.364380  0.593920  0.801260  1.0  -0.5524
  O  O5510  1  0.377450  0.558120  0.781180  1.0  -0.5893
  O  O5511  1  0.273340  0.552110  0.862540  1.0  -0.5807
  O  O5512  1  0.294390  0.588410  0.862670  1.0  -0.6515
  O  O5513  1  0.408360  0.243300  0.959320  1.0  -0.5857
  O  O5514  1  0.443360  0.247810  0.936540  1.0  -0.583
  O  O5515  1  0.407820  0.246780  0.048810  1.0  -0.609
  O  O5516  1  0.443780  0.251550  0.071350  1.0  -0.5873
  O  O5517  1  0.392430  0.243000  0.901790  1.0  -1.2149
  O  O5518  1  0.394010  0.393060  0.750880  1.0  -1.2105
  O  O5519  1  0.582710  0.310340  0.888300  1.0  -0.6248
  O  O5520  1  0.367070  0.345330  0.720820  1.0  -0.577
