# generated using pymatgen
data_Ni12P2H60W21C18(N3O17)4
_symmetry_space_group_name_H-M   'P 1'
_cell_length_a   24.92390000
_cell_length_b   24.92390000
_cell_length_c   24.92390000
_cell_angle_alpha   90.00000000
_cell_angle_beta   90.00000000
_cell_angle_gamma   90.00000000
_symmetry_Int_Tables_number   1
_chemical_formula_structural   Ni12P2H60W21C18(N3O17)4
_chemical_formula_sum   'Ni48 P8 H240 W84 C72 N48 O272'
_cell_volume   15482.74640004
_cell_formula_units_Z   4
loop_
 _symmetry_equiv_pos_site_id
 _symmetry_equiv_pos_as_xyz
  1  'x, y, z'
loop_
 _atom_site_type_symbol
 _atom_site_label
 _atom_site_symmetry_multiplicity
 _atom_site_fract_x
 _atom_site_fract_y
 _atom_site_fract_z
 _atom_site_occupancy
 _atom_site_charge
  Ni  Ni1  1  0.080480  0.089870  0.173190  1.0  1.0187
  Ni  Ni2  1  0.167170  0.000130  0.184670  1.0  0.8449
  Ni  Ni3  1  0.129290  0.070220  0.435450  1.0  0.9103
  Ni  Ni4  1  0.027730  0.004380  0.403570  1.0  1.0195
  Ni  Ni5  1  0.419520  0.910130  0.673190  1.0  1.0184
  Ni  Ni6  1  0.332830  0.999870  0.684670  1.0  0.8432
  Ni  Ni7  1  0.370710  0.929780  0.935450  1.0  0.9096
  Ni  Ni8  1  0.472270  0.995620  0.903570  1.0  1.0211
  Ni  Ni9  1  0.919520  0.589870  0.326810  1.0  1.0169
  Ni  Ni10  1  0.832830  0.500130  0.315330  1.0  0.8411
  Ni  Ni11  1  0.870710  0.570220  0.064550  1.0  0.9099
  Ni  Ni12  1  0.972270  0.504380  0.096430  1.0  1.0231
  Ni  Ni13  1  0.580480  0.410130  0.826810  1.0  1.0158
  Ni  Ni14  1  0.667170  0.499870  0.815330  1.0  0.8431
  Ni  Ni15  1  0.629290  0.429780  0.564550  1.0  0.9107
  Ni  Ni16  1  0.527730  0.495620  0.596430  1.0  1.0217
  Ni  Ni17  1  0.173190  0.080480  0.089870  1.0  1.0169
  Ni  Ni18  1  0.184670  0.167170  0.000130  1.0  0.8415
  Ni  Ni19  1  0.435450  0.129290  0.070220  1.0  0.9102
  Ni  Ni20  1  0.403570  0.027730  0.004380  1.0  1.021
  Ni  Ni21  1  0.673190  0.419520  0.910130  1.0  1.0161
  Ni  Ni22  1  0.684670  0.332830  0.999870  1.0  0.8422
  Ni  Ni23  1  0.935450  0.370710  0.929780  1.0  0.9093
  Ni  Ni24  1  0.903570  0.472270  0.995620  1.0  1.0218
  Ni  Ni25  1  0.326810  0.919520  0.589870  1.0  1.0188
  Ni  Ni26  1  0.315330  0.832830  0.500130  1.0  0.8427
  Ni  Ni27  1  0.064550  0.870710  0.570220  1.0  0.908
  Ni  Ni28  1  0.096430  0.972270  0.504380  1.0  1.0191
  Ni  Ni29  1  0.826810  0.580480  0.410130  1.0  1.0168
  Ni  Ni30  1  0.815330  0.667170  0.499870  1.0  0.8419
  Ni  Ni31  1  0.564550  0.629290  0.429780  1.0  0.9079
  Ni  Ni32  1  0.596430  0.527730  0.495620  1.0  1.0191
  Ni  Ni33  1  0.089870  0.173190  0.080480  1.0  1.0155
  Ni  Ni34  1  0.000130  0.184670  0.167170  1.0  0.8409
  Ni  Ni35  1  0.070220  0.435450  0.129290  1.0  0.9078
  Ni  Ni36  1  0.004380  0.403570  0.027730  1.0  1.0201
  Ni  Ni37  1  0.910130  0.673190  0.419520  1.0  1.015
  Ni  Ni38  1  0.999870  0.684670  0.332830  1.0  0.8416
  Ni  Ni39  1  0.929780  0.935450  0.370710  1.0  0.9071
  Ni  Ni40  1  0.995620  0.903570  0.472270  1.0  1.0163
  Ni  Ni41  1  0.589870  0.326810  0.919520  1.0  1.0141
  Ni  Ni42  1  0.500130  0.315330  0.832830  1.0  0.8408
  Ni  Ni43  1  0.570220  0.064550  0.870710  1.0  0.9074
  Ni  Ni44  1  0.504380  0.096430  0.972270  1.0  1.0196
  Ni  Ni45  1  0.410130  0.826810  0.580480  1.0  1.0166
  Ni  Ni46  1  0.499870  0.815330  0.667170  1.0  0.8412
  Ni  Ni47  1  0.429780  0.564550  0.629290  1.0  0.9079
  Ni  Ni48  1  0.495620  0.596430  0.527730  1.0  1.0201
  P  P49  1  0.050540  0.050540  0.050540  1.0  1.4381
  P  P50  1  0.449460  0.949460  0.550540  1.0  1.4387
  P  P51  1  0.949460  0.550540  0.449460  1.0  1.4387
  P  P52  1  0.550540  0.449460  0.949460  1.0  1.4368
  P  P53  1  0.976010  0.023990  0.523990  1.0  1.5306
  P  P54  1  0.523990  0.976010  0.023990  1.0  1.5326
  P  P55  1  0.023990  0.523990  0.976010  1.0  1.5319
  P  P56  1  0.476010  0.476010  0.476010  1.0  1.5311
  H  H57  1  0.153600  0.905800  0.220300  1.0  0.3351
  H  H58  1  0.166200  0.900600  0.163400  1.0  0.334
  H  H59  1  0.263200  0.020600  0.160300  1.0  0.3124
  H  H60  1  0.262300  0.009500  0.217900  1.0  0.3065
  H  H61  1  0.214400  0.029100  0.469900  1.0  0.3177
  H  H62  1  0.223400  0.042300  0.413500  1.0  0.3366
  H  H63  1  0.143800  0.170300  0.421100  1.0  0.3319
  H  H64  1  0.137300  0.162300  0.478700  1.0  0.3232
  H  H65  1  0.237700  0.912300  0.245800  1.0  0.099
  H  H66  1  0.304100  0.938500  0.185500  1.0  0.1035
  H  H67  1  0.263400  0.935100  0.137400  1.0  0.104
  H  H68  1  0.224200  0.824100  0.218800  1.0  0.1231
  H  H69  1  0.282900  0.840700  0.203300  1.0  0.1372
  H  H70  1  0.238000  0.838900  0.159200  1.0  0.1303
  H  H71  1  0.218400  0.153300  0.417100  1.0  0.0929
  H  H72  1  0.244300  0.101100  0.497800  1.0  0.0908
  H  H73  1  0.267900  0.107300  0.440400  1.0  0.116
  H  H74  1  0.274800  0.198000  0.472300  1.0  0.1126
  H  H75  1  0.222800  0.215000  0.503400  1.0  0.1283
  H  H76  1  0.228800  0.228500  0.442200  1.0  0.1153
  H  H77  1  0.346400  0.094200  0.720300  1.0  0.335
  H  H78  1  0.333800  0.099400  0.663400  1.0  0.3335
  H  H79  1  0.236800  0.979400  0.660300  1.0  0.3136
  H  H80  1  0.237700  0.990500  0.717900  1.0  0.3081
  H  H81  1  0.285600  0.970900  0.969900  1.0  0.3169
  H  H82  1  0.276600  0.957700  0.913500  1.0  0.3352
  H  H83  1  0.356200  0.829700  0.921100  1.0  0.329
  H  H84  1  0.362700  0.837700  0.978700  1.0  0.3203
  H  H85  1  0.262300  0.087700  0.745800  1.0  0.0993
  H  H86  1  0.195900  0.061500  0.685500  1.0  0.1054
  H  H87  1  0.236600  0.064900  0.637400  1.0  0.1028
  H  H88  1  0.275800  0.175900  0.718800  1.0  0.121
  H  H89  1  0.217100  0.159300  0.703300  1.0  0.1332
  H  H90  1  0.262000  0.161100  0.659200  1.0  0.1301
  H  H91  1  0.281600  0.846700  0.917100  1.0  0.0908
  H  H92  1  0.255700  0.898900  0.997800  1.0  0.0898
  H  H93  1  0.232100  0.892700  0.940400  1.0  0.1167
  H  H94  1  0.225200  0.802000  0.972300  1.0  0.1135
  H  H95  1  0.277200  0.785000  0.003400  1.0  0.1302
  H  H96  1  0.271200  0.771500  0.942200  1.0  0.1154
  H  H97  1  0.846400  0.405800  0.279700  1.0  0.335
  H  H98  1  0.833800  0.400600  0.336600  1.0  0.3324
  H  H99  1  0.736800  0.520600  0.339700  1.0  0.3138
  H  H100  1  0.737700  0.509500  0.282100  1.0  0.3056
  H  H101  1  0.785600  0.529100  0.030100  1.0  0.3179
  H  H102  1  0.776600  0.542300  0.086500  1.0  0.3374
  H  H103  1  0.856200  0.670300  0.078900  1.0  0.3317
  H  H104  1  0.862700  0.662300  0.021300  1.0  0.3214
  H  H105  1  0.762300  0.412300  0.254200  1.0  0.0973
  H  H106  1  0.695900  0.438500  0.314500  1.0  0.1056
  H  H107  1  0.736600  0.435100  0.362600  1.0  0.1024
  H  H108  1  0.775800  0.324100  0.281200  1.0  0.123
  H  H109  1  0.717100  0.340700  0.296700  1.0  0.1336
  H  H110  1  0.762000  0.338900  0.340800  1.0  0.1304
  H  H111  1  0.781600  0.653300  0.082900  1.0  0.0895
  H  H112  1  0.755700  0.601100  0.002200  1.0  0.0922
  H  H113  1  0.732100  0.607300  0.059600  1.0  0.1157
  H  H114  1  0.725200  0.698000  0.027700  1.0  0.1121
  H  H115  1  0.777200  0.715000  0.996600  1.0  0.1285
  H  H116  1  0.771200  0.728500  0.057800  1.0  0.115
  H  H117  1  0.653600  0.594200  0.779700  1.0  0.3338
  H  H118  1  0.666200  0.599400  0.836600  1.0  0.3337
  H  H119  1  0.763200  0.479400  0.839700  1.0  0.3131
  H  H120  1  0.762300  0.490500  0.782100  1.0  0.3068
  H  H121  1  0.714400  0.470900  0.530100  1.0  0.3179
  H  H122  1  0.723400  0.457700  0.586500  1.0  0.3362
  H  H123  1  0.643800  0.329700  0.578900  1.0  0.3326
  H  H124  1  0.637300  0.337700  0.521300  1.0  0.3214
  H  H125  1  0.737700  0.587700  0.754200  1.0  0.0974
  H  H126  1  0.804100  0.561500  0.814500  1.0  0.104
  H  H127  1  0.763400  0.564900  0.862600  1.0  0.1023
  H  H128  1  0.724200  0.675900  0.781200  1.0  0.1234
  H  H129  1  0.782900  0.659300  0.796700  1.0  0.1376
  H  H130  1  0.738000  0.661100  0.840800  1.0  0.1301
  H  H131  1  0.718400  0.346700  0.582900  1.0  0.0925
  H  H132  1  0.744300  0.398900  0.502200  1.0  0.0928
  H  H133  1  0.767900  0.392700  0.559600  1.0  0.1143
  H  H134  1  0.774800  0.302000  0.527700  1.0  0.1127
  H  H135  1  0.722800  0.285000  0.496600  1.0  0.129
  H  H136  1  0.728800  0.271500  0.557800  1.0  0.1164
  H  H137  1  0.220300  0.153600  0.905800  1.0  0.337
  H  H138  1  0.163400  0.166200  0.900600  1.0  0.3354
  H  H139  1  0.160300  0.263200  0.020600  1.0  0.3147
  H  H140  1  0.217900  0.262300  0.009500  1.0  0.3015
  H  H141  1  0.469900  0.214400  0.029100  1.0  0.3185
  H  H142  1  0.413500  0.223400  0.042300  1.0  0.3325
  H  H143  1  0.421100  0.143800  0.170300  1.0  0.3329
  H  H144  1  0.478700  0.137300  0.162300  1.0  0.3228
  H  H145  1  0.245800  0.237700  0.912300  1.0  0.0929
  H  H146  1  0.185500  0.304100  0.938500  1.0  0.1041
  H  H147  1  0.137400  0.263400  0.935100  1.0  0.098
  H  H148  1  0.218800  0.224200  0.824100  1.0  0.1227
  H  H149  1  0.203300  0.282900  0.840700  1.0  0.1327
  H  H150  1  0.159200  0.238000  0.838900  1.0  0.1304
  H  H151  1  0.417100  0.218400  0.153300  1.0  0.0918
  H  H152  1  0.497800  0.244300  0.101100  1.0  0.0863
  H  H153  1  0.440400  0.267900  0.107300  1.0  0.1146
  H  H154  1  0.472300  0.274800  0.198000  1.0  0.1111
  H  H155  1  0.503400  0.222800  0.215000  1.0  0.1266
  H  H156  1  0.442200  0.228800  0.228500  1.0  0.1178
  H  H157  1  0.720300  0.346400  0.094200  1.0  0.3369
  H  H158  1  0.663400  0.333800  0.099400  1.0  0.3378
  H  H159  1  0.660300  0.236800  0.979400  1.0  0.315
  H  H160  1  0.717900  0.237700  0.990500  1.0  0.3006
  H  H161  1  0.969900  0.285600  0.970900  1.0  0.3188
  H  H162  1  0.913500  0.276600  0.957700  1.0  0.3327
  H  H163  1  0.921100  0.356200  0.829700  1.0  0.3311
  H  H164  1  0.978700  0.362700  0.837700  1.0  0.3241
  H  H165  1  0.745800  0.262300  0.087700  1.0  0.0928
  H  H166  1  0.685500  0.195900  0.061500  1.0  0.1036
  H  H167  1  0.637400  0.236600  0.064900  1.0  0.0973
  H  H168  1  0.718800  0.275800  0.175900  1.0  0.1228
  H  H169  1  0.703300  0.217100  0.159300  1.0  0.1334
  H  H170  1  0.659200  0.262000  0.161100  1.0  0.1319
  H  H171  1  0.917100  0.281600  0.846700  1.0  0.09
  H  H172  1  0.997800  0.255700  0.898900  1.0  0.0864
  H  H173  1  0.940400  0.232100  0.892700  1.0  0.1155
  H  H174  1  0.972300  0.225200  0.802000  1.0  0.1115
  H  H175  1  0.003400  0.277200  0.785000  1.0  0.1276
  H  H176  1  0.942200  0.271200  0.771500  1.0  0.1165
  H  H177  1  0.279700  0.846400  0.405800  1.0  0.3374
  H  H178  1  0.336600  0.833800  0.400600  1.0  0.3345
  H  H179  1  0.339700  0.736800  0.520600  1.0  0.3164
  H  H180  1  0.282100  0.737700  0.509500  1.0  0.3027
  H  H181  1  0.030100  0.785600  0.529100  1.0  0.3192
  H  H182  1  0.086500  0.776600  0.542300  1.0  0.3396
  H  H183  1  0.078900  0.856200  0.670300  1.0  0.3308
  H  H184  1  0.021300  0.862700  0.662300  1.0  0.3271
  H  H185  1  0.254200  0.762300  0.412300  1.0  0.0961
  H  H186  1  0.314500  0.695900  0.438500  1.0  0.1029
  H  H187  1  0.362600  0.736600  0.435100  1.0  0.0973
  H  H188  1  0.281200  0.775800  0.324100  1.0  0.123
  H  H189  1  0.296700  0.717100  0.340700  1.0  0.1324
  H  H190  1  0.340800  0.762000  0.338900  1.0  0.1251
  H  H191  1  0.082900  0.781600  0.653300  1.0  0.0935
  H  H192  1  0.002200  0.755700  0.601100  1.0  0.085
  H  H193  1  0.059600  0.732100  0.607300  1.0  0.1164
  H  H194  1  0.027700  0.725200  0.698000  1.0  0.1107
  H  H195  1  0.996600  0.777200  0.715000  1.0  0.1302
  H  H196  1  0.057800  0.771200  0.728500  1.0  0.1179
  H  H197  1  0.779700  0.653600  0.594200  1.0  0.3383
  H  H198  1  0.836600  0.666200  0.599400  1.0  0.3339
  H  H199  1  0.839700  0.763200  0.479400  1.0  0.3147
  H  H200  1  0.782100  0.762300  0.490500  1.0  0.3017
  H  H201  1  0.530100  0.714400  0.470900  1.0  0.318
  H  H202  1  0.586500  0.723400  0.457700  1.0  0.3378
  H  H203  1  0.578900  0.643800  0.329700  1.0  0.328
  H  H204  1  0.521300  0.637300  0.337700  1.0  0.3261
  H  H205  1  0.754200  0.737700  0.587700  1.0  0.0962
  H  H206  1  0.814500  0.804100  0.561500  1.0  0.1043
  H  H207  1  0.862600  0.763400  0.564900  1.0  0.0983
  H  H208  1  0.781200  0.724200  0.675900  1.0  0.1236
  H  H209  1  0.796700  0.782900  0.659300  1.0  0.133
  H  H210  1  0.840800  0.738000  0.661100  1.0  0.1231
  H  H211  1  0.582900  0.718400  0.346700  1.0  0.0969
  H  H212  1  0.502200  0.744300  0.398900  1.0  0.085
  H  H213  1  0.559600  0.767900  0.392700  1.0  0.1138
  H  H214  1  0.527700  0.774800  0.302000  1.0  0.1106
  H  H215  1  0.496600  0.722800  0.285000  1.0  0.1278
  H  H216  1  0.557800  0.728800  0.271500  1.0  0.1166
  H  H217  1  0.905800  0.220300  0.153600  1.0  0.3371
  H  H218  1  0.900600  0.163400  0.166200  1.0  0.3365
  H  H219  1  0.020600  0.160300  0.263200  1.0  0.3146
  H  H220  1  0.009500  0.217900  0.262300  1.0  0.3068
  H  H221  1  0.029100  0.469900  0.214400  1.0  0.3194
  H  H222  1  0.042300  0.413500  0.223400  1.0  0.328
  H  H223  1  0.170300  0.421100  0.143800  1.0  0.3303
  H  H224  1  0.162300  0.478700  0.137300  1.0  0.3237
  H  H225  1  0.912300  0.245800  0.237700  1.0  0.0958
  H  H226  1  0.938500  0.185500  0.304100  1.0  0.1076
  H  H227  1  0.935100  0.137400  0.263400  1.0  0.0977
  H  H228  1  0.824100  0.218800  0.224200  1.0  0.1243
  H  H229  1  0.840700  0.203300  0.282900  1.0  0.1353
  H  H230  1  0.838900  0.159200  0.238000  1.0  0.1281
  H  H231  1  0.153300  0.417100  0.218400  1.0  0.0929
  H  H232  1  0.101100  0.497800  0.244300  1.0  0.0863
  H  H233  1  0.107300  0.440400  0.267900  1.0  0.1226
  H  H234  1  0.198000  0.472300  0.274800  1.0  0.1151
  H  H235  1  0.215000  0.503400  0.222800  1.0  0.1309
  H  H236  1  0.228500  0.442200  0.228800  1.0  0.1189
  H  H237  1  0.094200  0.720300  0.346400  1.0  0.3365
  H  H238  1  0.099400  0.663400  0.333800  1.0  0.3341
  H  H239  1  0.979400  0.660300  0.236800  1.0  0.3151
  H  H240  1  0.990500  0.717900  0.237700  1.0  0.308
  H  H241  1  0.970900  0.969900  0.285600  1.0  0.319
  H  H242  1  0.957700  0.913500  0.276600  1.0  0.3276
  H  H243  1  0.829700  0.921100  0.356200  1.0  0.3319
  H  H244  1  0.837700  0.978700  0.362700  1.0  0.3235
  H  H245  1  0.087700  0.745800  0.262300  1.0  0.0957
  H  H246  1  0.061500  0.685500  0.195900  1.0  0.1072
  H  H247  1  0.064900  0.637400  0.236600  1.0  0.0989
  H  H248  1  0.175900  0.718800  0.275800  1.0  0.1229
  H  H249  1  0.159300  0.703300  0.217100  1.0  0.1343
  H  H250  1  0.161100  0.659200  0.262000  1.0  0.1291
  H  H251  1  0.846700  0.917100  0.281600  1.0  0.0909
  H  H252  1  0.898900  0.997800  0.255700  1.0  0.0867
  H  H253  1  0.892700  0.940400  0.232100  1.0  0.1227
  H  H254  1  0.802000  0.972300  0.225200  1.0  0.1126
  H  H255  1  0.785000  0.003400  0.277200  1.0  0.1307
  H  H256  1  0.771500  0.942200  0.271200  1.0  0.1158
  H  H257  1  0.405800  0.279700  0.846400  1.0  0.3378
  H  H258  1  0.400600  0.336600  0.833800  1.0  0.3371
  H  H259  1  0.520600  0.339700  0.736800  1.0  0.3159
  H  H260  1  0.509500  0.282100  0.737700  1.0  0.3048
  H  H261  1  0.529100  0.030100  0.785600  1.0  0.3179
  H  H262  1  0.542300  0.086500  0.776600  1.0  0.3314
  H  H263  1  0.670300  0.078900  0.856200  1.0  0.3316
  H  H264  1  0.662300  0.021300  0.862700  1.0  0.3223
  H  H265  1  0.412300  0.254200  0.762300  1.0  0.0908
  H  H266  1  0.438500  0.314500  0.695900  1.0  0.1065
  H  H267  1  0.435100  0.362600  0.736600  1.0  0.0974
  H  H268  1  0.324100  0.281200  0.775800  1.0  0.1237
  H  H269  1  0.340700  0.296700  0.717100  1.0  0.133
  H  H270  1  0.338900  0.340800  0.762000  1.0  0.1272
  H  H271  1  0.653300  0.082900  0.781600  1.0  0.0917
  H  H272  1  0.601100  0.002200  0.755700  1.0  0.0825
  H  H273  1  0.607300  0.059600  0.732100  1.0  0.1228
  H  H274  1  0.698000  0.027700  0.725200  1.0  0.1148
  H  H275  1  0.715000  0.996600  0.777200  1.0  0.1316
  H  H276  1  0.728500  0.057800  0.771200  1.0  0.1199
  H  H277  1  0.594200  0.779700  0.653600  1.0  0.3372
  H  H278  1  0.599400  0.836600  0.666200  1.0  0.3367
  H  H279  1  0.479400  0.839700  0.763200  1.0  0.3157
  H  H280  1  0.490500  0.782100  0.762300  1.0  0.3061
  H  H281  1  0.470900  0.530100  0.714400  1.0  0.3186
  H  H282  1  0.457700  0.586500  0.723400  1.0  0.3303
  H  H283  1  0.329700  0.578900  0.643800  1.0  0.3331
  H  H284  1  0.337700  0.521300  0.637300  1.0  0.3239
  H  H285  1  0.587700  0.754200  0.737700  1.0  0.0917
  H  H286  1  0.561500  0.814500  0.804100  1.0  0.1076
  H  H287  1  0.564900  0.862600  0.763400  1.0  0.0966
  H  H288  1  0.675900  0.781200  0.724200  1.0  0.1237
  H  H289  1  0.659300  0.796700  0.782900  1.0  0.1352
  H  H290  1  0.661100  0.840800  0.738000  1.0  0.1273
  H  H291  1  0.346700  0.582900  0.718400  1.0  0.0917
  H  H292  1  0.398900  0.502200  0.744300  1.0  0.0813
  H  H293  1  0.392700  0.559600  0.767900  1.0  0.121
  H  H294  1  0.302000  0.527700  0.774800  1.0  0.1137
  H  H295  1  0.285000  0.496600  0.722800  1.0  0.1312
  H  H296  1  0.271500  0.557800  0.728800  1.0  0.1158
  W  W297  1  0.146320  0.945590  0.053440  1.0  1.5163
  W  W298  1  0.052620  0.942900  0.951880  1.0  1.3391
  W  W299  1  0.154080  0.037580  0.953380  1.0  1.4034
  W  W300  1  0.974850  0.106820  0.644310  1.0  1.4539
  W  W301  1  0.089920  0.099620  0.568660  1.0  1.4505
  W  W302  1  0.050220  0.990480  0.639980  1.0  1.4543
  W  W303  1  0.105070  0.049080  0.299430  1.0  1.6652
  W  W304  1  0.353680  0.054410  0.553440  1.0  1.5216
  W  W305  1  0.447380  0.057100  0.451880  1.0  1.3375
  W  W306  1  0.345920  0.962420  0.453380  1.0  1.4036
  W  W307  1  0.525150  0.893180  0.144310  1.0  1.4512
  W  W308  1  0.410080  0.900380  0.068660  1.0  1.448
  W  W309  1  0.449780  0.009520  0.139980  1.0  1.4534
  W  W310  1  0.394930  0.950920  0.799430  1.0  1.6654
  W  W311  1  0.853680  0.445590  0.446560  1.0  1.5153
  W  W312  1  0.947380  0.442900  0.548110  1.0  1.3365
  W  W313  1  0.845920  0.537580  0.546620  1.0  1.4008
  W  W314  1  0.025150  0.606820  0.855690  1.0  1.4551
  W  W315  1  0.910080  0.599620  0.931340  1.0  1.4533
  W  W316  1  0.949780  0.490480  0.860020  1.0  1.4508
  W  W317  1  0.894930  0.549080  0.200570  1.0  1.6655
  W  W318  1  0.646320  0.554410  0.946560  1.0  1.5202
  W  W319  1  0.552620  0.557100  0.048110  1.0  1.3394
  W  W320  1  0.654080  0.462420  0.046620  1.0  1.402
  W  W321  1  0.474850  0.393180  0.355690  1.0  1.4537
  W  W322  1  0.589920  0.400380  0.431340  1.0  1.449
  W  W323  1  0.550220  0.509520  0.360020  1.0  1.4511
  W  W324  1  0.605070  0.450920  0.700570  1.0  1.6653
  W  W325  1  0.053440  0.146320  0.945590  1.0  1.5118
  W  W326  1  0.951880  0.052620  0.942900  1.0  1.3354
  W  W327  1  0.953380  0.154080  0.037580  1.0  1.4013
  W  W328  1  0.644310  0.974850  0.106820  1.0  1.4433
  W  W329  1  0.568660  0.089920  0.099620  1.0  1.4485
  W  W330  1  0.639980  0.050220  0.990480  1.0  1.4553
  W  W331  1  0.299430  0.105070  0.049080  1.0  1.6657
  W  W332  1  0.553440  0.353680  0.054410  1.0  1.5064
  W  W333  1  0.451890  0.447380  0.057100  1.0  1.3323
  W  W334  1  0.453380  0.345920  0.962420  1.0  1.3996
  W  W335  1  0.144310  0.525150  0.893180  1.0  1.4459
  W  W336  1  0.068660  0.410080  0.900380  1.0  1.4456
  W  W337  1  0.139980  0.449780  0.009520  1.0  1.4557
  W  W338  1  0.799430  0.394930  0.950920  1.0  1.6671
  W  W339  1  0.446560  0.853680  0.445590  1.0  1.5085
  W  W340  1  0.548110  0.947380  0.442900  1.0  1.3327
  W  W341  1  0.546620  0.845920  0.537580  1.0  1.404
  W  W342  1  0.855690  0.025150  0.606820  1.0  1.4422
  W  W343  1  0.931340  0.910080  0.599620  1.0  1.448
  W  W344  1  0.860020  0.949780  0.490480  1.0  1.4552
  W  W345  1  0.200570  0.894930  0.549080  1.0  1.6666
  W  W346  1  0.946560  0.646320  0.554410  1.0  1.5084
  W  W347  1  0.048110  0.552620  0.557100  1.0  1.3339
  W  W348  1  0.046620  0.654080  0.462420  1.0  1.4038
  W  W349  1  0.355690  0.474850  0.393180  1.0  1.4448
  W  W350  1  0.431340  0.589920  0.400380  1.0  1.4512
  W  W351  1  0.360020  0.550220  0.509520  1.0  1.457
  W  W352  1  0.700570  0.605070  0.450920  1.0  1.6666
  W  W353  1  0.945590  0.053440  0.146320  1.0  1.5143
  W  W354  1  0.942900  0.951880  0.052620  1.0  1.3356
  W  W355  1  0.037580  0.953380  0.154080  1.0  1.4016
  W  W356  1  0.106820  0.644310  0.974850  1.0  1.4611
  W  W357  1  0.099620  0.568660  0.089920  1.0  1.4505
  W  W358  1  0.990480  0.639980  0.050220  1.0  1.4585
  W  W359  1  0.049080  0.299430  0.105070  1.0  1.6682
  W  W360  1  0.054410  0.553440  0.353680  1.0  1.5123
  W  W361  1  0.057100  0.451880  0.447380  1.0  1.3334
  W  W362  1  0.962420  0.453380  0.345920  1.0  1.4012
  W  W363  1  0.893180  0.144310  0.525150  1.0  1.4583
  W  W364  1  0.900380  0.068660  0.410080  1.0  1.4532
  W  W365  1  0.009520  0.139980  0.449780  1.0  1.46
  W  W366  1  0.950920  0.799430  0.394930  1.0  1.6675
  W  W367  1  0.445590  0.446560  0.853680  1.0  1.5138
  W  W368  1  0.442900  0.548110  0.947380  1.0  1.3382
  W  W369  1  0.537580  0.546620  0.845920  1.0  1.4092
  W  W370  1  0.606820  0.855690  0.025150  1.0  1.4533
  W  W371  1  0.599620  0.931340  0.910080  1.0  1.4496
  W  W372  1  0.490480  0.860020  0.949780  1.0  1.458
  W  W373  1  0.549080  0.200570  0.894930  1.0  1.667
  W  W374  1  0.554410  0.946560  0.646320  1.0  1.5133
  W  W375  1  0.557100  0.048110  0.552620  1.0  1.3396
  W  W376  1  0.462420  0.046620  0.654080  1.0  1.4071
  W  W377  1  0.393180  0.355690  0.474850  1.0  1.4528
  W  W378  1  0.400380  0.431340  0.589920  1.0  1.4521
  W  W379  1  0.509520  0.360020  0.550220  1.0  1.4572
  W  W380  1  0.450920  0.700570  0.605070  1.0  1.668
  C  C381  1  0.232000  0.905300  0.207600  1.0  0.1904
  C  C382  1  0.266800  0.943000  0.175400  1.0  0.0398
  C  C383  1  0.245500  0.846800  0.196200  1.0  -0.3355
  C  C384  1  0.211000  0.150100  0.455600  1.0  0.1154
  C  C385  1  0.234600  0.104700  0.460300  1.0  0.021
  C  C386  1  0.236700  0.202600  0.469700  1.0  -0.313
  C  C387  1  0.268000  0.094700  0.707600  1.0  0.1894
  C  C388  1  0.233200  0.057000  0.675400  1.0  0.0403
  C  C389  1  0.254500  0.153200  0.696200  1.0  -0.3359
  C  C390  1  0.289000  0.849900  0.955600  1.0  0.1138
  C  C391  1  0.265400  0.895300  0.960300  1.0  0.0221
  C  C392  1  0.263300  0.797400  0.969700  1.0  -0.3104
  C  C393  1  0.768000  0.405300  0.292400  1.0  0.1907
  C  C394  1  0.733200  0.443000  0.324600  1.0  0.0397
  C  C395  1  0.754500  0.346800  0.303800  1.0  -0.3342
  C  C396  1  0.789000  0.650100  0.044400  1.0  0.1191
  C  C397  1  0.765400  0.604700  0.039700  1.0  0.0211
  C  C398  1  0.763300  0.702600  0.030300  1.0  -0.3099
  C  C399  1  0.732000  0.594700  0.792400  1.0  0.1904
  C  C400  1  0.766800  0.557000  0.824600  1.0  0.0389
  C  C401  1  0.745500  0.653200  0.803800  1.0  -0.3378
  C  C402  1  0.711000  0.349900  0.544400  1.0  0.1187
  C  C403  1  0.734600  0.395300  0.539700  1.0  0.0221
  C  C404  1  0.736700  0.297400  0.530300  1.0  -0.3104
  C  C405  1  0.207600  0.232000  0.905300  1.0  0.1943
  C  C406  1  0.175400  0.266800  0.943000  1.0  0.0381
  C  C407  1  0.196200  0.245500  0.846800  1.0  -0.332
  C  C408  1  0.455600  0.211000  0.150100  1.0  0.1193
  C  C409  1  0.460300  0.234600  0.104700  1.0  0.02
  C  C410  1  0.469700  0.236700  0.202600  1.0  -0.3089
  C  C411  1  0.707600  0.268000  0.094700  1.0  0.1951
  C  C412  1  0.675400  0.233200  0.057000  1.0  0.0385
  C  C413  1  0.696200  0.254500  0.153200  1.0  -0.3315
  C  C414  1  0.955600  0.289000  0.849900  1.0  0.1195
  C  C415  1  0.960300  0.265400  0.895300  1.0  0.0204
  C  C416  1  0.969700  0.263300  0.797400  1.0  -0.3089
  C  C417  1  0.292400  0.768000  0.405300  1.0  0.1936
  C  C418  1  0.324600  0.733200  0.443000  1.0  0.0375
  C  C419  1  0.303800  0.754500  0.346800  1.0  -0.3325
  C  C420  1  0.044400  0.789000  0.650100  1.0  0.1196
  C  C421  1  0.039700  0.765400  0.604700  1.0  0.0204
  C  C422  1  0.030300  0.763300  0.702600  1.0  -0.3074
  C  C423  1  0.792400  0.732000  0.594700  1.0  0.1948
  C  C424  1  0.824600  0.766800  0.557000  1.0  0.0377
  C  C425  1  0.803800  0.745500  0.653200  1.0  -0.3323
  C  C426  1  0.544400  0.711000  0.349900  1.0  0.1194
  C  C427  1  0.539700  0.734600  0.395300  1.0  0.0203
  C  C428  1  0.530300  0.736700  0.297400  1.0  -0.3103
  C  C429  1  0.905300  0.207600  0.232000  1.0  0.1905
  C  C430  1  0.943000  0.175400  0.266800  1.0  0.0359
  C  C431  1  0.846800  0.196200  0.245500  1.0  -0.3365
  C  C432  1  0.150100  0.455600  0.211000  1.0  0.1208
  C  C433  1  0.104700  0.460300  0.234600  1.0  0.0199
  C  C434  1  0.202600  0.469700  0.236700  1.0  -0.3086
  C  C435  1  0.094700  0.707600  0.268000  1.0  0.1898
  C  C436  1  0.057000  0.675400  0.233200  1.0  0.0363
  C  C437  1  0.153200  0.696200  0.254500  1.0  -0.3358
  C  C438  1  0.849900  0.955600  0.289000  1.0  0.1191
  C  C439  1  0.895300  0.960300  0.265400  1.0  0.0205
  C  C440  1  0.797400  0.969700  0.263300  1.0  -0.3121
  C  C441  1  0.405300  0.292400  0.768000  1.0  0.191
  C  C442  1  0.443000  0.324600  0.733200  1.0  0.036
  C  C443  1  0.346800  0.303800  0.754500  1.0  -0.3368
  C  C444  1  0.650100  0.044400  0.789000  1.0  0.1188
  C  C445  1  0.604700  0.039700  0.765400  1.0  0.0222
  C  C446  1  0.702600  0.030300  0.763300  1.0  -0.309
  C  C447  1  0.594700  0.792400  0.732000  1.0  0.1909
  C  C448  1  0.557000  0.824600  0.766800  1.0  0.037
  C  C449  1  0.653200  0.803800  0.745500  1.0  -0.335
  C  C450  1  0.349900  0.544400  0.711000  1.0  0.1199
  C  C451  1  0.395300  0.539700  0.734600  1.0  0.0191
  C  C452  1  0.297400  0.530300  0.736700  1.0  -0.3105
  N  N453  1  0.175400  0.917400  0.194000  1.0  -0.6074
  N  N454  1  0.250000  0.998600  0.185700  1.0  -0.5767
  N  N455  1  0.209300  0.054200  0.444500  1.0  -0.6059
  N  N456  1  0.153300  0.149500  0.449000  1.0  -0.605
  N  N457  1  0.324600  0.082600  0.694000  1.0  -0.6058
  N  N458  1  0.250000  0.001400  0.685700  1.0  -0.5731
  N  N459  1  0.290700  0.945800  0.944500  1.0  -0.6061
  N  N460  1  0.346700  0.850500  0.949000  1.0  -0.6042
  N  N461  1  0.824600  0.417400  0.306000  1.0  -0.6067
  N  N462  1  0.750000  0.498600  0.314300  1.0  -0.5732
  N  N463  1  0.790700  0.554200  0.055500  1.0  -0.6057
  N  N464  1  0.846700  0.649500  0.051000  1.0  -0.6055
  N  N465  1  0.675400  0.582600  0.806000  1.0  -0.6086
  N  N466  1  0.750000  0.501400  0.814300  1.0  -0.5746
  N  N467  1  0.709300  0.445800  0.555500  1.0  -0.6059
  N  N468  1  0.653300  0.350500  0.551000  1.0  -0.6032
  N  N469  1  0.194000  0.175400  0.917400  1.0  -0.6166
  N  N470  1  0.185700  0.250000  0.998600  1.0  -0.5796
  N  N471  1  0.444500  0.209300  0.054200  1.0  -0.6094
  N  N472  1  0.449000  0.153300  0.149500  1.0  -0.6147
  N  N473  1  0.694000  0.324600  0.082600  1.0  -0.6176
  N  N474  1  0.685700  0.250000  0.001400  1.0  -0.5795
  N  N475  1  0.944500  0.290700  0.945800  1.0  -0.6093
  N  N476  1  0.949000  0.346700  0.850500  1.0  -0.6135
  N  N477  1  0.306000  0.824600  0.417400  1.0  -0.6182
  N  N478  1  0.314300  0.750000  0.498600  1.0  -0.58
  N  N479  1  0.055500  0.790700  0.554200  1.0  -0.6084
  N  N480  1  0.051000  0.846700  0.649500  1.0  -0.6142
  N  N481  1  0.806000  0.675400  0.582600  1.0  -0.6175
  N  N482  1  0.814300  0.750000  0.501400  1.0  -0.5797
  N  N483  1  0.555500  0.709300  0.445800  1.0  -0.6085
  N  N484  1  0.551000  0.653300  0.350500  1.0  -0.6159
  N  N485  1  0.917400  0.194000  0.175400  1.0  -0.6124
  N  N486  1  0.998600  0.185700  0.250000  1.0  -0.5814
  N  N487  1  0.054200  0.444500  0.209300  1.0  -0.6116
  N  N488  1  0.149500  0.449000  0.153300  1.0  -0.6065
  N  N489  1  0.082600  0.694000  0.324600  1.0  -0.6135
  N  N490  1  0.001400  0.685700  0.250000  1.0  -0.5775
  N  N491  1  0.945800  0.944500  0.290700  1.0  -0.6102
  N  N492  1  0.850500  0.949000  0.346700  1.0  -0.6072
  N  N493  1  0.417400  0.306000  0.824600  1.0  -0.6134
  N  N494  1  0.498600  0.314300  0.750000  1.0  -0.5784
  N  N495  1  0.554200  0.055500  0.790700  1.0  -0.6103
  N  N496  1  0.649500  0.051000  0.846700  1.0  -0.6086
  N  N497  1  0.582600  0.806000  0.675400  1.0  -0.6117
  N  N498  1  0.501400  0.814300  0.750000  1.0  -0.5794
  N  N499  1  0.445800  0.555500  0.709300  1.0  -0.6114
  N  N500  1  0.350500  0.551000  0.653300  1.0  -0.6059
  O  O501  1  0.168000  0.998200  0.098500  1.0  -0.752
  O  O502  1  0.104650  0.991920  0.426580  1.0  -0.7654
  O  O503  1  0.080600  0.097600  0.253800  1.0  -0.7702
  O  O504  1  0.161000  0.080020  0.169620  1.0  -0.7571
  O  O505  1  0.082500  0.006000  0.175300  1.0  -0.7731
  O  O506  1  0.085800  0.010700  0.016300  1.0  -0.7543
  O  O507  1  0.086500  0.930000  0.100100  1.0  -0.7066
  O  O508  1  0.045900  0.082380  0.424300  1.0  -0.7739
  O  O509  1  0.110900  0.052900  0.516900  1.0  -0.7807
  O  O510  1  0.100300  0.049200  0.623900  1.0  -0.6698
  O  O511  1  0.940300  0.143400  0.587500  1.0  -0.6737
  O  O512  1  0.999000  0.929700  0.005400  1.0  -0.6569
  O  O513  1  0.984700  0.952600  0.638900  1.0  -0.678
  O  O514  1  0.182200  0.977500  0.993500  1.0  -0.6836
  O  O515  1  0.137800  0.083400  0.352900  1.0  -0.6902
  O  O516  1  0.040200  0.134300  0.622000  1.0  -0.6761
  O  O517  1  0.011000  0.048800  0.677600  1.0  -0.724
  O  O518  1  0.103000  0.908100  0.996500  1.0  -0.6865
  O  O519  1  0.051600  0.011000  0.324700  1.0  -0.7069
  O  O520  1  0.109200  0.980600  0.917900  1.0  -0.7178
  O  O521  1  0.153900  0.008100  0.267500  1.0  -0.6911
  O  O522  1  0.007700  0.046000  0.573100  1.0  -0.7184
  O  O523  1  0.332000  0.001800  0.598500  1.0  -0.751
  O  O524  1  0.395350  0.008080  0.926580  1.0  -0.766
  O  O525  1  0.419400  0.902400  0.753800  1.0  -0.7722
  O  O526  1  0.339000  0.919980  0.669620  1.0  -0.7549
  O  O527  1  0.417500  0.994000  0.675300  1.0  -0.7735
  O  O528  1  0.414200  0.989300  0.516300  1.0  -0.7547
  O  O529  1  0.413500  0.070000  0.600100  1.0  -0.7036
  O  O530  1  0.454100  0.917620  0.924300  1.0  -0.7738
  O  O531  1  0.389100  0.947100  0.016900  1.0  -0.781
  O  O532  1  0.399700  0.950800  0.123900  1.0  -0.6702
  O  O533  1  0.559700  0.856600  0.087500  1.0  -0.6809
  O  O534  1  0.501000  0.070300  0.505400  1.0  -0.6535
  O  O535  1  0.515300  0.047400  0.138900  1.0  -0.6763
  O  O536  1  0.317800  0.022500  0.493500  1.0  -0.6835
  O  O537  1  0.362200  0.916600  0.852900  1.0  -0.6916
  O  O538  1  0.459800  0.865700  0.122000  1.0  -0.6857
  O  O539  1  0.489000  0.951200  0.177600  1.0  -0.7249
  O  O540  1  0.397000  0.091900  0.496500  1.0  -0.6827
  O  O541  1  0.448400  0.989000  0.824700  1.0  -0.7062
  O  O542  1  0.390800  0.019400  0.417900  1.0  -0.717
  O  O543  1  0.346100  0.991900  0.767500  1.0  -0.6903
  O  O544  1  0.492300  0.954000  0.073100  1.0  -0.7185
  O  O545  1  0.832000  0.498200  0.401500  1.0  -0.7511
  O  O546  1  0.895350  0.491920  0.073420  1.0  -0.7674
  O  O547  1  0.919400  0.597600  0.246200  1.0  -0.7714
  O  O548  1  0.839000  0.580020  0.330380  1.0  -0.7563
  O  O549  1  0.917500  0.506000  0.324700  1.0  -0.7714
  O  O550  1  0.914200  0.510700  0.483700  1.0  -0.7549
  O  O551  1  0.913500  0.430000  0.399900  1.0  -0.7069
  O  O552  1  0.954100  0.582380  0.075700  1.0  -0.7745
  O  O553  1  0.889100  0.552900  0.983100  1.0  -0.7811
  O  O554  1  0.899700  0.549200  0.876100  1.0  -0.671
  O  O555  1  0.059700  0.643400  0.912500  1.0  -0.6749
  O  O556  1  0.001000  0.429700  0.494600  1.0  -0.6573
  O  O557  1  0.015300  0.452600  0.861100  1.0  -0.683
  O  O558  1  0.817800  0.477500  0.506500  1.0  -0.6832
  O  O559  1  0.862200  0.583400  0.147100  1.0  -0.6923
  O  O560  1  0.959800  0.634300  0.878000  1.0  -0.6778
  O  O561  1  0.989000  0.548800  0.822400  1.0  -0.73
  O  O562  1  0.897000  0.408100  0.503500  1.0  -0.6856
  O  O563  1  0.948400  0.511000  0.175300  1.0  -0.7064
  O  O564  1  0.890800  0.480600  0.582100  1.0  -0.7112
  O  O565  1  0.846100  0.508100  0.232500  1.0  -0.6907
  O  O566  1  0.992300  0.546000  0.926900  1.0  -0.7162
  O  O567  1  0.668000  0.501800  0.901500  1.0  -0.7518
  O  O568  1  0.604650  0.508080  0.573420  1.0  -0.7661
  O  O569  1  0.580600  0.402400  0.746200  1.0  -0.7718
  O  O570  1  0.661000  0.419980  0.830380  1.0  -0.7543
  O  O571  1  0.582500  0.494000  0.824700  1.0  -0.7717
  O  O572  1  0.585800  0.489300  0.983700  1.0  -0.7538
  O  O573  1  0.586500  0.570000  0.899900  1.0  -0.7041
  O  O574  1  0.545900  0.417620  0.575700  1.0  -0.7754
  O  O575  1  0.610900  0.447100  0.483100  1.0  -0.7797
  O  O576  1  0.600300  0.450800  0.376100  1.0  -0.6718
  O  O577  1  0.440300  0.356600  0.412500  1.0  -0.6784
  O  O578  1  0.499000  0.570300  0.994600  1.0  -0.652
  O  O579  1  0.484700  0.547400  0.361100  1.0  -0.6819
  O  O580  1  0.682200  0.522500  0.006500  1.0  -0.6837
  O  O581  1  0.637800  0.416600  0.647100  1.0  -0.6923
  O  O582  1  0.540200  0.365700  0.378000  1.0  -0.6814
  O  O583  1  0.511000  0.451200  0.322400  1.0  -0.7294
  O  O584  1  0.603000  0.591900  0.003500  1.0  -0.683
  O  O585  1  0.551600  0.489000  0.675300  1.0  -0.706
  O  O586  1  0.609200  0.519400  0.082100  1.0  -0.7102
  O  O587  1  0.653900  0.491900  0.732500  1.0  -0.6895
  O  O588  1  0.507700  0.454000  0.426900  1.0  -0.7176
  O  O589  1  0.098500  0.168000  0.998200  1.0  -0.7512
  O  O590  1  0.426580  0.104650  0.991920  1.0  -0.7675
  O  O591  1  0.253800  0.080600  0.097600  1.0  -0.771
  O  O592  1  0.169620  0.161000  0.080020  1.0  -0.7559
  O  O593  1  0.175300  0.082500  0.006000  1.0  -0.772
  O  O594  1  0.016300  0.085800  0.010700  1.0  -0.7522
  O  O595  1  0.100100  0.086500  0.930000  1.0  -0.706
  O  O596  1  0.424300  0.045900  0.082380  1.0  -0.7758
  O  O597  1  0.516900  0.110900  0.052900  1.0  -0.7813
  O  O598  1  0.623900  0.100300  0.049200  1.0  -0.6686
  O  O599  1  0.587500  0.940300  0.143400  1.0  -0.6735
  O  O600  1  0.005400  0.999000  0.929700  1.0  -0.6557
  O  O601  1  0.638900  0.984700  0.952600  1.0  -0.6801
  O  O602  1  0.993500  0.182200  0.977500  1.0  -0.6824
  O  O603  1  0.352900  0.137800  0.083400  1.0  -0.6918
  O  O604  1  0.622000  0.040200  0.134300  1.0  -0.6811
  O  O605  1  0.677600  0.011000  0.048800  1.0  -0.7305
  O  O606  1  0.996500  0.103000  0.908100  1.0  -0.693
  O  O607  1  0.324700  0.051600  0.011000  1.0  -0.705
  O  O608  1  0.917900  0.109200  0.980600  1.0  -0.7039
  O  O609  1  0.267500  0.153900  0.008100  1.0  -0.6895
  O  O610  1  0.573100  0.007700  0.046000  1.0  -0.7175
  O  O611  1  0.598500  0.332000  0.001800  1.0  -0.752
  O  O612  1  0.926580  0.395350  0.008080  1.0  -0.7708
  O  O613  1  0.753800  0.419400  0.902400  1.0  -0.7712
  O  O614  1  0.669620  0.339000  0.919980  1.0  -0.7527
  O  O615  1  0.675300  0.417500  0.994000  1.0  -0.7724
  O  O616  1  0.516300  0.414200  0.989300  1.0  -0.7523
  O  O617  1  0.600100  0.413500  0.070000  1.0  -0.6987
  O  O618  1  0.924300  0.454100  0.917620  1.0  -0.775
  O  O619  1  0.016900  0.389100  0.947100  1.0  -0.7825
  O  O620  1  0.123900  0.399700  0.950800  1.0  -0.6693
  O  O621  1  0.087500  0.559700  0.856600  1.0  -0.6828
  O  O622  1  0.505400  0.501000  0.070300  1.0  -0.6539
  O  O623  1  0.138900  0.515300  0.047400  1.0  -0.6805
  O  O624  1  0.493500  0.317800  0.022500  1.0  -0.6827
  O  O625  1  0.852900  0.362200  0.916600  1.0  -0.6919
  O  O626  1  0.122000  0.459800  0.865700  1.0  -0.6786
  O  O627  1  0.177600  0.489000  0.951200  1.0  -0.7304
  O  O628  1  0.496500  0.397000  0.091900  1.0  -0.6841
  O  O629  1  0.824700  0.448400  0.989000  1.0  -0.7049
  O  O630  1  0.417900  0.390800  0.019400  1.0  -0.7037
  O  O631  1  0.767500  0.346100  0.991900  1.0  -0.6918
  O  O632  1  0.073100  0.492300  0.954000  1.0  -0.7171
  O  O633  1  0.401500  0.832000  0.498200  1.0  -0.752
  O  O634  1  0.073420  0.895350  0.491920  1.0  -0.7671
  O  O635  1  0.246200  0.919400  0.597600  1.0  -0.7712
  O  O636  1  0.330380  0.839000  0.580020  1.0  -0.754
  O  O637  1  0.324700  0.917500  0.506000  1.0  -0.7711
  O  O638  1  0.483700  0.914200  0.510700  1.0  -0.7536
  O  O639  1  0.399900  0.913500  0.430000  1.0  -0.7071
  O  O640  1  0.075700  0.954100  0.582380  1.0  -0.7742
  O  O641  1  0.983100  0.889100  0.552900  1.0  -0.7809
  O  O642  1  0.876100  0.899700  0.549200  1.0  -0.6715
  O  O643  1  0.912500  0.059700  0.643400  1.0  -0.6728
  O  O644  1  0.494600  0.001000  0.429700  1.0  -0.6592
  O  O645  1  0.861100  0.015300  0.452600  1.0  -0.6815
  O  O646  1  0.506500  0.817800  0.477500  1.0  -0.6813
  O  O647  1  0.147100  0.862200  0.583400  1.0  -0.6908
  O  O648  1  0.878000  0.959800  0.634300  1.0  -0.6794
  O  O649  1  0.822400  0.989000  0.548800  1.0  -0.7301
  O  O650  1  0.503500  0.897000  0.408100  1.0  -0.6935
  O  O651  1  0.175300  0.948400  0.511000  1.0  -0.7046
  O  O652  1  0.582100  0.890800  0.480600  1.0  -0.7048
  O  O653  1  0.232500  0.846100  0.508100  1.0  -0.6922
  O  O654  1  0.926900  0.992300  0.546000  1.0  -0.7174
  O  O655  1  0.901500  0.668000  0.501800  1.0  -0.7518
  O  O656  1  0.573420  0.604650  0.508080  1.0  -0.7688
  O  O657  1  0.746200  0.580600  0.402400  1.0  -0.7729
  O  O658  1  0.830380  0.661000  0.419980  1.0  -0.7542
  O  O659  1  0.824700  0.582500  0.494000  1.0  -0.772
  O  O660  1  0.983700  0.585800  0.489300  1.0  -0.7536
  O  O661  1  0.899900  0.586500  0.570000  1.0  -0.6983
  O  O662  1  0.575700  0.545900  0.417620  1.0  -0.7739
  O  O663  1  0.483100  0.610900  0.447100  1.0  -0.781
  O  O664  1  0.376100  0.600300  0.450800  1.0  -0.6692
  O  O665  1  0.412500  0.440300  0.356600  1.0  -0.6815
  O  O666  1  0.994600  0.499000  0.570300  1.0  -0.6563
  O  O667  1  0.361100  0.484700  0.547400  1.0  -0.6811
  O  O668  1  0.006500  0.682200  0.522500  1.0  -0.6814
  O  O669  1  0.647100  0.637800  0.416600  1.0  -0.6899
  O  O670  1  0.378000  0.540200  0.365700  1.0  -0.6807
  O  O671  1  0.322400  0.511000  0.451200  1.0  -0.7307
  O  O672  1  0.003500  0.603000  0.591900  1.0  -0.6827
  O  O673  1  0.675300  0.551600  0.489000  1.0  -0.706
  O  O674  1  0.082100  0.609200  0.519400  1.0  -0.7036
  O  O675  1  0.732500  0.653900  0.491900  1.0  -0.691
  O  O676  1  0.426900  0.507700  0.454000  1.0  -0.7172
  O  O677  1  0.998200  0.098500  0.168000  1.0  -0.7516
  O  O678  1  0.991920  0.426580  0.104650  1.0  -0.7676
  O  O679  1  0.097600  0.253800  0.080600  1.0  -0.7716
  O  O680  1  0.080020  0.169620  0.161000  1.0  -0.7512
  O  O681  1  0.006000  0.175300  0.082500  1.0  -0.7721
  O  O682  1  0.010700  0.016300  0.085800  1.0  -0.7532
  O  O683  1  0.930000  0.100100  0.086500  1.0  -0.7002
  O  O684  1  0.082380  0.424300  0.045900  1.0  -0.7755
  O  O685  1  0.052900  0.516900  0.110900  1.0  -0.7796
  O  O686  1  0.049200  0.623900  0.100300  1.0  -0.6722
  O  O687  1  0.143400  0.587500  0.940300  1.0  -0.6722
  O  O688  1  0.929700  0.005400  0.999000  1.0  -0.6553
  O  O689  1  0.952600  0.638900  0.984700  1.0  -0.6862
  O  O690  1  0.977500  0.993500  0.182200  1.0  -0.6832
  O  O691  1  0.083400  0.352900  0.137800  1.0  -0.6927
  O  O692  1  0.134300  0.622000  0.040200  1.0  -0.6843
  O  O693  1  0.048800  0.677600  0.011000  1.0  -0.732
  O  O694  1  0.908100  0.996500  0.103000  1.0  -0.6843
  O  O695  1  0.011000  0.324700  0.051600  1.0  -0.7059
  O  O696  1  0.980600  0.917900  0.109200  1.0  -0.7081
  O  O697  1  0.008100  0.267500  0.153900  1.0  -0.695
  O  O698  1  0.046000  0.573100  0.007700  1.0  -0.7188
  O  O699  1  0.001800  0.598500  0.332000  1.0  -0.752
  O  O700  1  0.008080  0.926580  0.395350  1.0  -0.7639
  O  O701  1  0.902400  0.753800  0.419400  1.0  -0.772
  O  O702  1  0.919980  0.669620  0.339000  1.0  -0.7541
  O  O703  1  0.994000  0.675300  0.417500  1.0  -0.772
  O  O704  1  0.989300  0.516300  0.414200  1.0  -0.7544
  O  O705  1  0.070000  0.600100  0.413500  1.0  -0.6977
  O  O706  1  0.917620  0.924300  0.454100  1.0  -0.7747
  O  O707  1  0.947100  0.016900  0.389100  1.0  -0.7799
  O  O708  1  0.950800  0.123900  0.399700  1.0  -0.6741
  O  O709  1  0.856600  0.087500  0.559700  1.0  -0.6723
  O  O710  1  0.070300  0.505400  0.501000  1.0  -0.6536
  O  O711  1  0.047400  0.138900  0.515300  1.0  -0.6873
  O  O712  1  0.022500  0.493500  0.317800  1.0  -0.6832
  O  O713  1  0.916600  0.852900  0.362200  1.0  -0.6918
  O  O714  1  0.865700  0.122000  0.459800  1.0  -0.6858
  O  O715  1  0.951200  0.177600  0.489000  1.0  -0.7307
  O  O716  1  0.091900  0.496500  0.397000  1.0  -0.6819
  O  O717  1  0.989000  0.824700  0.448400  1.0  -0.7061
  O  O718  1  0.019400  0.417900  0.390800  1.0  -0.7061
  O  O719  1  0.991900  0.767500  0.346100  1.0  -0.694
  O  O720  1  0.954000  0.073100  0.492300  1.0  -0.7185
  O  O721  1  0.498200  0.401500  0.832000  1.0  -0.7516
  O  O722  1  0.491920  0.073420  0.895350  1.0  -0.7666
  O  O723  1  0.597600  0.246200  0.919400  1.0  -0.7726
  O  O724  1  0.580020  0.330380  0.839000  1.0  -0.7497
  O  O725  1  0.506000  0.324700  0.917500  1.0  -0.7722
  O  O726  1  0.510700  0.483700  0.914200  1.0  -0.7538
  O  O727  1  0.430000  0.399900  0.913500  1.0  -0.7009
  O  O728  1  0.582380  0.075700  0.954100  1.0  -0.775
  O  O729  1  0.552900  0.983100  0.889100  1.0  -0.7821
  O  O730  1  0.549200  0.876100  0.899700  1.0  -0.6747
  O  O731  1  0.643400  0.912500  0.059700  1.0  -0.6732
  O  O732  1  0.429700  0.494600  0.001000  1.0  -0.6529
  O  O733  1  0.452600  0.861100  0.015300  1.0  -0.686
  O  O734  1  0.477500  0.506500  0.817800  1.0  -0.6837
  O  O735  1  0.583400  0.147100  0.862200  1.0  -0.6907
  O  O736  1  0.634300  0.878000  0.959800  1.0  -0.6818
  O  O737  1  0.548800  0.822400  0.989000  1.0  -0.7367
  O  O738  1  0.408100  0.503500  0.897000  1.0  -0.6856
  O  O739  1  0.511000  0.175300  0.948400  1.0  -0.706
  O  O740  1  0.480600  0.582100  0.890800  1.0  -0.696
  O  O741  1  0.508100  0.232500  0.846100  1.0  -0.6961
  O  O742  1  0.546000  0.926900  0.992300  1.0  -0.7192
  O  O743  1  0.501800  0.901500  0.668000  1.0  -0.752
  O  O744  1  0.508080  0.573420  0.604650  1.0  -0.7632
  O  O745  1  0.402400  0.746200  0.580600  1.0  -0.7715
  O  O746  1  0.419980  0.830380  0.661000  1.0  -0.7528
  O  O747  1  0.494000  0.824700  0.582500  1.0  -0.7717
  O  O748  1  0.489300  0.983700  0.585800  1.0  -0.7541
  O  O749  1  0.570000  0.899900  0.586500  1.0  -0.6976
  O  O750  1  0.417620  0.575700  0.545900  1.0  -0.7749
  O  O751  1  0.447100  0.483100  0.610900  1.0  -0.7809
  O  O752  1  0.450800  0.376100  0.600300  1.0  -0.6747
  O  O753  1  0.356600  0.412500  0.440300  1.0  -0.6747
  O  O754  1  0.570300  0.994600  0.499000  1.0  -0.6533
  O  O755  1  0.547400  0.361100  0.484700  1.0  -0.6854
  O  O756  1  0.522500  0.006500  0.682200  1.0  -0.6824
  O  O757  1  0.416600  0.647100  0.637800  1.0  -0.6921
  O  O758  1  0.365700  0.378000  0.540200  1.0  -0.6854
  O  O759  1  0.451200  0.322400  0.511000  1.0  -0.7354
  O  O760  1  0.591900  0.003500  0.603000  1.0  -0.6823
  O  O761  1  0.489000  0.675300  0.551600  1.0  -0.7069
  O  O762  1  0.519400  0.082100  0.609200  1.0  -0.6973
  O  O763  1  0.491900  0.732500  0.653900  1.0  -0.6963
  O  O764  1  0.454000  0.426900  0.507700  1.0  -0.719
  O  O765  1  0.087000  0.087000  0.087000  1.0  -0.7597
  O  O766  1  0.413000  0.913000  0.587000  1.0  -0.7593
  O  O767  1  0.913000  0.587000  0.413000  1.0  -0.7599
  O  O768  1  0.587000  0.413000  0.913000  1.0  -0.7593
  O  O769  1  0.011630  0.988370  0.488370  1.0  -0.7497
  O  O770  1  0.488370  0.011630  0.988370  1.0  -0.7501
  O  O771  1  0.988370  0.488370  0.011630  1.0  -0.7494
  O  O772  1  0.511630  0.511630  0.511630  1.0  -0.7499
