# generated using pymatgen
data_Co7H60C76(N5F3)4
_symmetry_space_group_name_H-M   'P 1'
_cell_length_a   24.50630000
_cell_length_b   24.50630000
_cell_length_c   24.50630000
_cell_angle_alpha   90.00000000
_cell_angle_beta   90.00000000
_cell_angle_gamma   90.00000000
_symmetry_Int_Tables_number   1
_chemical_formula_structural   Co7H60C76(N5F3)4
_chemical_formula_sum   'Co28 H240 C304 N80 F48'
_cell_volume   14717.47264247
_cell_formula_units_Z   4
loop_
 _symmetry_equiv_pos_site_id
 _symmetry_equiv_pos_as_xyz
  1  'x, y, z'
loop_
 _atom_site_type_symbol
 _atom_site_label
 _atom_site_symmetry_multiplicity
 _atom_site_fract_x
 _atom_site_fract_y
 _atom_site_fract_z
 _atom_site_occupancy
 _atom_site_charge
  Co  Co1  1  0.896110  0.029060  0.066810  1.0  1.0009
  Co  Co2  1  0.603890  0.970940  0.566810  1.0  1.0017
  Co  Co3  1  0.103890  0.529060  0.433190  1.0  1.0018
  Co  Co4  1  0.396110  0.470940  0.933190  1.0  1.0012
  Co  Co5  1  0.066810  0.896110  0.029060  1.0  1.0018
  Co  Co6  1  0.566810  0.603890  0.970940  1.0  1.0021
  Co  Co7  1  0.433190  0.103890  0.529060  1.0  1.0013
  Co  Co8  1  0.933190  0.396110  0.470940  1.0  1.001
  Co  Co9  1  0.029060  0.066810  0.896110  1.0  1.0014
  Co  Co10  1  0.970940  0.566810  0.603890  1.0  1.0015
  Co  Co11  1  0.529060  0.433190  0.103890  1.0  1.0009
  Co  Co12  1  0.470940  0.933190  0.396110  1.0  1.0012
  Co  Co13  1  0.103890  0.970940  0.933190  1.0  1.0019
  Co  Co14  1  0.396110  0.029060  0.433190  1.0  1.0012
  Co  Co15  1  0.896110  0.470940  0.566810  1.0  1.0008
  Co  Co16  1  0.603890  0.529060  0.066810  1.0  1.0016
  Co  Co17  1  0.933190  0.103890  0.970940  1.0  1.0014
  Co  Co18  1  0.433190  0.396110  0.029060  1.0  1.0009
  Co  Co19  1  0.566810  0.896110  0.470940  1.0  1.0016
  Co  Co20  1  0.066810  0.603890  0.529060  1.0  1.0022
  Co  Co21  1  0.970940  0.933190  0.103890  1.0  1.0013
  Co  Co22  1  0.029060  0.433190  0.396110  1.0  1.0009
  Co  Co23  1  0.470940  0.566810  0.896110  1.0  1.0017
  Co  Co24  1  0.529060  0.066810  0.603890  1.0  1.001
  Co  Co25  1  0.000000  0.000000  0.000000  1.0  0.974
  Co  Co26  1  0.500000  0.000000  0.500000  1.0  0.974
  Co  Co27  1  0.000000  0.500000  0.500000  1.0  0.974
  Co  Co28  1  0.500000  0.500000  0.000000  1.0  0.974
  H  H29  1  0.790600  0.091000  0.082100  1.0  0.0704
  H  H30  1  0.752700  0.163100  0.129100  1.0  0.107
  H  H31  1  0.902500  0.192300  0.193300  1.0  0.1123
  H  H32  1  0.934100  0.115600  0.148600  1.0  0.0877
  H  H33  1  0.807100  0.962300  0.005800  1.0  0.085
  H  H34  1  0.726200  0.918400  0.022100  1.0  0.1186
  H  H35  1  0.740600  0.956600  0.180800  1.0  0.1219
  H  H36  1  0.822100  0.998600  0.160900  1.0  0.0689
  H  H37  1  0.738400  0.247100  0.140700  1.0  0.1155
  H  H38  1  0.654200  0.945900  0.181700  1.0  0.1077
  H  H39  1  0.709400  0.909000  0.582100  1.0  0.0702
  H  H40  1  0.747300  0.836900  0.629100  1.0  0.1072
  H  H41  1  0.597500  0.807700  0.693300  1.0  0.1123
  H  H42  1  0.565900  0.884400  0.648600  1.0  0.0881
  H  H43  1  0.692900  0.037700  0.505800  1.0  0.0849
  H  H44  1  0.773800  0.081600  0.522100  1.0  0.1172
  H  H45  1  0.759400  0.043400  0.680800  1.0  0.1247
  H  H46  1  0.677900  0.001400  0.660900  1.0  0.0688
  H  H47  1  0.761600  0.752900  0.640700  1.0  0.1147
  H  H48  1  0.845800  0.054100  0.681700  1.0  0.1086
  H  H49  1  0.209400  0.591000  0.417900  1.0  0.0699
  H  H50  1  0.247300  0.663100  0.370900  1.0  0.1073
  H  H51  1  0.097500  0.692300  0.306700  1.0  0.1115
  H  H52  1  0.065900  0.615600  0.351400  1.0  0.0877
  H  H53  1  0.192900  0.462300  0.494200  1.0  0.0849
  H  H54  1  0.273800  0.418400  0.477900  1.0  0.1169
  H  H55  1  0.259400  0.456600  0.319200  1.0  0.1247
  H  H56  1  0.177900  0.498600  0.339100  1.0  0.0695
  H  H57  1  0.261600  0.747100  0.359300  1.0  0.1149
  H  H58  1  0.345800  0.445900  0.318300  1.0  0.1084
  H  H59  1  0.290600  0.409000  0.917900  1.0  0.0706
  H  H60  1  0.252700  0.336900  0.870900  1.0  0.1069
  H  H61  1  0.402500  0.307700  0.806700  1.0  0.1117
  H  H62  1  0.434100  0.384400  0.851400  1.0  0.0874
  H  H63  1  0.307100  0.537700  0.994200  1.0  0.0854
  H  H64  1  0.226200  0.581600  0.977900  1.0  0.1176
  H  H65  1  0.240600  0.543400  0.819200  1.0  0.1235
  H  H66  1  0.322100  0.501400  0.839100  1.0  0.0697
  H  H67  1  0.238400  0.252900  0.859300  1.0  0.1156
  H  H68  1  0.154200  0.554100  0.818300  1.0  0.1081
  H  H69  1  0.082100  0.790600  0.091000  1.0  0.0705
  H  H70  1  0.129100  0.752700  0.163100  1.0  0.107
  H  H71  1  0.193300  0.902500  0.192300  1.0  0.1138
  H  H72  1  0.148600  0.934100  0.115600  1.0  0.0877
  H  H73  1  0.005800  0.807100  0.962300  1.0  0.0845
  H  H74  1  0.022100  0.726200  0.918400  1.0  0.117
  H  H75  1  0.180800  0.740600  0.956600  1.0  0.1236
  H  H76  1  0.160900  0.822100  0.998600  1.0  0.0693
  H  H77  1  0.140700  0.738400  0.247100  1.0  0.1152
  H  H78  1  0.181700  0.654200  0.945900  1.0  0.1094
  H  H79  1  0.582100  0.709400  0.909000  1.0  0.071
  H  H80  1  0.629100  0.747300  0.836900  1.0  0.1068
  H  H81  1  0.693300  0.597500  0.807700  1.0  0.1132
  H  H82  1  0.648600  0.565900  0.884400  1.0  0.0868
  H  H83  1  0.505800  0.692900  0.037700  1.0  0.0844
  H  H84  1  0.522100  0.773800  0.081600  1.0  0.1154
  H  H85  1  0.680800  0.759400  0.043400  1.0  0.126
  H  H86  1  0.660900  0.677900  0.001400  1.0  0.0697
  H  H87  1  0.640700  0.761600  0.752900  1.0  0.1145
  H  H88  1  0.681700  0.845800  0.054100  1.0  0.1103
  H  H89  1  0.417900  0.209400  0.591000  1.0  0.0711
  H  H90  1  0.370900  0.247300  0.663100  1.0  0.107
  H  H91  1  0.306700  0.097500  0.692300  1.0  0.1123
  H  H92  1  0.351400  0.065900  0.615600  1.0  0.0876
  H  H93  1  0.494200  0.192900  0.462300  1.0  0.0839
  H  H94  1  0.477900  0.273800  0.418400  1.0  0.1153
  H  H95  1  0.319200  0.259400  0.456600  1.0  0.1247
  H  H96  1  0.339100  0.177900  0.498600  1.0  0.0702
  H  H97  1  0.359300  0.261600  0.747100  1.0  0.1144
  H  H98  1  0.318300  0.345800  0.445900  1.0  0.1104
  H  H99  1  0.917900  0.290600  0.409000  1.0  0.071
  H  H100  1  0.870900  0.252700  0.336900  1.0  0.1066
  H  H101  1  0.806700  0.402500  0.307700  1.0  0.1129
  H  H102  1  0.851400  0.434100  0.384400  1.0  0.0883
  H  H103  1  0.994200  0.307100  0.537700  1.0  0.084
  H  H104  1  0.977900  0.226200  0.581600  1.0  0.1151
  H  H105  1  0.819200  0.240600  0.543400  1.0  0.1219
  H  H106  1  0.839100  0.322100  0.501400  1.0  0.0701
  H  H107  1  0.859300  0.238400  0.252900  1.0  0.1145
  H  H108  1  0.818300  0.154200  0.554100  1.0  0.1111
  H  H109  1  0.091000  0.082100  0.790600  1.0  0.0703
  H  H110  1  0.163100  0.129100  0.752700  1.0  0.1079
  H  H111  1  0.192300  0.193300  0.902500  1.0  0.1141
  H  H112  1  0.115600  0.148600  0.934100  1.0  0.0887
  H  H113  1  0.962300  0.005800  0.807100  1.0  0.0835
  H  H114  1  0.918400  0.022100  0.726200  1.0  0.1165
  H  H115  1  0.956600  0.180800  0.740600  1.0  0.1217
  H  H116  1  0.998600  0.160900  0.822100  1.0  0.067
  H  H117  1  0.247100  0.140700  0.738400  1.0  0.1146
  H  H118  1  0.945900  0.181700  0.654200  1.0  0.109
  H  H119  1  0.909000  0.582100  0.709400  1.0  0.0703
  H  H120  1  0.836900  0.629100  0.747300  1.0  0.1087
  H  H121  1  0.807700  0.693300  0.597500  1.0  0.1133
  H  H122  1  0.884400  0.648600  0.565900  1.0  0.089
  H  H123  1  0.037700  0.505800  0.692900  1.0  0.0837
  H  H124  1  0.081600  0.522100  0.773800  1.0  0.1167
  H  H125  1  0.043400  0.680800  0.759400  1.0  0.1237
  H  H126  1  0.001400  0.660900  0.677900  1.0  0.0676
  H  H127  1  0.752900  0.640700  0.761600  1.0  0.1147
  H  H128  1  0.054100  0.681700  0.845800  1.0  0.1099
  H  H129  1  0.591000  0.417900  0.209400  1.0  0.0709
  H  H130  1  0.663100  0.370900  0.247300  1.0  0.1086
  H  H131  1  0.692300  0.306700  0.097500  1.0  0.1125
  H  H132  1  0.615600  0.351400  0.065900  1.0  0.0886
  H  H133  1  0.462300  0.494200  0.192900  1.0  0.0834
  H  H134  1  0.418400  0.477900  0.273800  1.0  0.1154
  H  H135  1  0.456600  0.319200  0.259400  1.0  0.1223
  H  H136  1  0.498600  0.339100  0.177900  1.0  0.068
  H  H137  1  0.747100  0.359300  0.261600  1.0  0.1155
  H  H138  1  0.445900  0.318300  0.345800  1.0  0.11
  H  H139  1  0.409000  0.917900  0.290600  1.0  0.0705
  H  H140  1  0.336900  0.870900  0.252700  1.0  0.1089
  H  H141  1  0.307700  0.806700  0.402500  1.0  0.1138
  H  H142  1  0.384400  0.851400  0.434100  1.0  0.0882
  H  H143  1  0.537700  0.994200  0.307100  1.0  0.0831
  H  H144  1  0.581600  0.977900  0.226200  1.0  0.1172
  H  H145  1  0.543400  0.819200  0.240600  1.0  0.1234
  H  H146  1  0.501400  0.839100  0.322100  1.0  0.068
  H  H147  1  0.252900  0.859300  0.238400  1.0  0.1143
  H  H148  1  0.554100  0.818300  0.154200  1.0  0.1105
  H  H149  1  0.209400  0.909000  0.917900  1.0  0.0699
  H  H150  1  0.247300  0.836900  0.870900  1.0  0.1072
  H  H151  1  0.097500  0.807700  0.806700  1.0  0.1112
  H  H152  1  0.065900  0.884400  0.851400  1.0  0.0872
  H  H153  1  0.192900  0.037700  0.994200  1.0  0.0848
  H  H154  1  0.273800  0.081600  0.977900  1.0  0.1186
  H  H155  1  0.259400  0.043400  0.819200  1.0  0.1252
  H  H156  1  0.177900  0.001400  0.839100  1.0  0.0693
  H  H157  1  0.261600  0.752900  0.859300  1.0  0.1144
  H  H158  1  0.345800  0.054100  0.818300  1.0  0.1077
  H  H159  1  0.290600  0.091000  0.417900  1.0  0.0707
  H  H160  1  0.252700  0.163100  0.370900  1.0  0.1071
  H  H161  1  0.402500  0.192300  0.306700  1.0  0.1121
  H  H162  1  0.434100  0.115600  0.351400  1.0  0.0876
  H  H163  1  0.307100  0.962300  0.494200  1.0  0.0855
  H  H164  1  0.226200  0.918400  0.477900  1.0  0.1172
  H  H165  1  0.240600  0.956600  0.319200  1.0  0.1225
  H  H166  1  0.322100  0.998600  0.339100  1.0  0.0697
  H  H167  1  0.238400  0.247100  0.359300  1.0  0.1163
  H  H168  1  0.154200  0.945900  0.318300  1.0  0.1079
  H  H169  1  0.790600  0.409000  0.582100  1.0  0.0707
  H  H170  1  0.752700  0.336900  0.629100  1.0  0.1069
  H  H171  1  0.902500  0.307700  0.693300  1.0  0.112
  H  H172  1  0.934100  0.384400  0.648600  1.0  0.0872
  H  H173  1  0.807100  0.537700  0.505800  1.0  0.0852
  H  H174  1  0.726200  0.581600  0.522100  1.0  0.1168
  H  H175  1  0.740600  0.543400  0.680800  1.0  0.1225
  H  H176  1  0.822100  0.501400  0.660900  1.0  0.0693
  H  H177  1  0.738400  0.252900  0.640700  1.0  0.1154
  H  H178  1  0.654200  0.554100  0.681700  1.0  0.1084
  H  H179  1  0.709400  0.591000  0.082100  1.0  0.07
  H  H180  1  0.747300  0.663100  0.129100  1.0  0.1074
  H  H181  1  0.597500  0.692300  0.193300  1.0  0.1124
  H  H182  1  0.565900  0.615600  0.148600  1.0  0.0885
  H  H183  1  0.692900  0.462300  0.005800  1.0  0.0846
  H  H184  1  0.773800  0.418400  0.022100  1.0  0.1172
  H  H185  1  0.759400  0.456600  0.180800  1.0  0.1246
  H  H186  1  0.677900  0.498600  0.160900  1.0  0.0686
  H  H187  1  0.761600  0.747100  0.140700  1.0  0.1147
  H  H188  1  0.845800  0.445900  0.181700  1.0  0.1083
  H  H189  1  0.917900  0.209400  0.909000  1.0  0.0708
  H  H190  1  0.870900  0.247300  0.836900  1.0  0.1063
  H  H191  1  0.806700  0.097500  0.807700  1.0  0.1129
  H  H192  1  0.851400  0.065900  0.884400  1.0  0.0879
  H  H193  1  0.994200  0.192900  0.037700  1.0  0.0839
  H  H194  1  0.977900  0.273800  0.081600  1.0  0.1168
  H  H195  1  0.819200  0.259400  0.043400  1.0  0.1233
  H  H196  1  0.839100  0.177900  0.001400  1.0  0.0698
  H  H197  1  0.859300  0.261600  0.752900  1.0  0.1141
  H  H198  1  0.818300  0.345800  0.054100  1.0  0.1105
  H  H199  1  0.417900  0.290600  0.091000  1.0  0.0708
  H  H200  1  0.370900  0.252700  0.163100  1.0  0.1068
  H  H201  1  0.306700  0.402500  0.192300  1.0  0.1129
  H  H202  1  0.351400  0.434100  0.115600  1.0  0.0883
  H  H203  1  0.494200  0.307100  0.962300  1.0  0.0838
  H  H204  1  0.477900  0.226200  0.918400  1.0  0.1151
  H  H205  1  0.319200  0.240600  0.956600  1.0  0.1235
  H  H206  1  0.339100  0.322100  0.998600  1.0  0.0704
  H  H207  1  0.359300  0.238400  0.247100  1.0  0.1145
  H  H208  1  0.318300  0.154200  0.945900  1.0  0.1103
  H  H209  1  0.582100  0.790600  0.409000  1.0  0.0706
  H  H210  1  0.629100  0.752700  0.336900  1.0  0.1068
  H  H211  1  0.693300  0.902500  0.307700  1.0  0.113
  H  H212  1  0.648600  0.934100  0.384400  1.0  0.0873
  H  H213  1  0.505800  0.807100  0.537700  1.0  0.0845
  H  H214  1  0.522100  0.726200  0.581600  1.0  0.1155
  H  H215  1  0.680800  0.740600  0.543400  1.0  0.1236
  H  H216  1  0.660900  0.822100  0.501400  1.0  0.0694
  H  H217  1  0.640700  0.738400  0.252900  1.0  0.1147
  H  H218  1  0.681700  0.654200  0.554100  1.0  0.1105
  H  H219  1  0.082100  0.709400  0.591000  1.0  0.0713
  H  H220  1  0.129100  0.747300  0.663100  1.0  0.1073
  H  H221  1  0.193300  0.597500  0.692300  1.0  0.1133
  H  H222  1  0.148600  0.565900  0.615600  1.0  0.0871
  H  H223  1  0.005800  0.692900  0.462300  1.0  0.0846
  H  H224  1  0.022100  0.773800  0.418400  1.0  0.1159
  H  H225  1  0.180800  0.759400  0.456600  1.0  0.1254
  H  H226  1  0.160900  0.677900  0.498600  1.0  0.0695
  H  H227  1  0.140700  0.761600  0.747100  1.0  0.1154
  H  H228  1  0.181700  0.845800  0.445900  1.0  0.1101
  H  H229  1  0.909000  0.917900  0.209400  1.0  0.0705
  H  H230  1  0.836900  0.870900  0.247300  1.0  0.1086
  H  H231  1  0.807700  0.806700  0.097500  1.0  0.1125
  H  H232  1  0.884400  0.851400  0.065900  1.0  0.0886
  H  H233  1  0.037700  0.994200  0.192900  1.0  0.0834
  H  H234  1  0.081600  0.977900  0.273800  1.0  0.1173
  H  H235  1  0.043400  0.819200  0.259400  1.0  0.1239
  H  H236  1  0.001400  0.839100  0.177900  1.0  0.0681
  H  H237  1  0.752900  0.859300  0.261600  1.0  0.1141
  H  H238  1  0.054100  0.818300  0.345800  1.0  0.1087
  H  H239  1  0.091000  0.417900  0.290600  1.0  0.071
  H  H240  1  0.163100  0.370900  0.252700  1.0  0.1081
  H  H241  1  0.192300  0.306700  0.402500  1.0  0.1142
  H  H242  1  0.115600  0.351400  0.434100  1.0  0.0881
  H  H243  1  0.962300  0.494200  0.307100  1.0  0.0832
  H  H244  1  0.918400  0.477900  0.226200  1.0  0.1161
  H  H245  1  0.956600  0.319200  0.240600  1.0  0.1222
  H  H246  1  0.998600  0.339100  0.322100  1.0  0.0677
  H  H247  1  0.247100  0.359300  0.238400  1.0  0.1151
  H  H248  1  0.945900  0.318300  0.154200  1.0  0.1105
  H  H249  1  0.409000  0.582100  0.790600  1.0  0.0701
  H  H250  1  0.336900  0.629100  0.752700  1.0  0.1089
  H  H251  1  0.307700  0.693300  0.902500  1.0  0.1143
  H  H252  1  0.384400  0.648600  0.934100  1.0  0.0886
  H  H253  1  0.537700  0.505800  0.807100  1.0  0.0833
  H  H254  1  0.581600  0.522100  0.726200  1.0  0.1159
  H  H255  1  0.543400  0.680800  0.740600  1.0  0.1224
  H  H256  1  0.501400  0.660900  0.822100  1.0  0.0676
  H  H257  1  0.252900  0.640700  0.738400  1.0  0.1143
  H  H258  1  0.554100  0.681700  0.654200  1.0  0.1102
  H  H259  1  0.591000  0.082100  0.709400  1.0  0.0705
  H  H260  1  0.663100  0.129100  0.747300  1.0  0.1088
  H  H261  1  0.692300  0.193300  0.597500  1.0  0.1129
  H  H262  1  0.615600  0.148600  0.565900  1.0  0.0892
  H  H263  1  0.462300  0.005800  0.692900  1.0  0.0837
  H  H264  1  0.418400  0.022100  0.773800  1.0  0.1165
  H  H265  1  0.456600  0.180800  0.759400  1.0  0.1215
  H  H266  1  0.498600  0.160900  0.677900  1.0  0.0672
  H  H267  1  0.747100  0.140700  0.761600  1.0  0.116
  H  H268  1  0.445900  0.181700  0.845800  1.0  0.1097
  C  C269  1  0.813400  0.111500  0.105800  1.0  0.1492
  C  C270  1  0.790500  0.155100  0.132600  1.0  -0.2342
  C  C271  1  0.824900  0.187700  0.165500  1.0  0.0827
  C  C272  1  0.878400  0.171900  0.170900  1.0  -0.2125
  C  C273  1  0.897100  0.126100  0.143800  1.0  0.1522
  C  C274  1  0.793500  0.961300  0.042000  1.0  0.1381
  C  C275  1  0.745400  0.934700  0.051500  1.0  -0.2146
  C  C276  1  0.724800  0.931600  0.103200  1.0  0.084
  C  C277  1  0.753800  0.956900  0.144300  1.0  -0.212
  C  C278  1  0.802100  0.982500  0.131800  1.0  0.1439
  C  C279  1  0.802300  0.236300  0.192600  1.0  0.0463
  C  C280  1  0.674900  0.900800  0.115700  1.0  0.1502
  C  C281  1  0.756200  0.261400  0.172000  1.0  -0.1832
  C  C282  1  0.644300  0.915000  0.160500  1.0  -0.1558
  C  C283  1  0.686600  0.888500  0.605800  1.0  0.1485
  C  C284  1  0.709500  0.844900  0.632600  1.0  -0.2358
  C  C285  1  0.675100  0.812300  0.665500  1.0  0.0835
  C  C286  1  0.621600  0.828100  0.670900  1.0  -0.2131
  C  C287  1  0.602900  0.873900  0.643800  1.0  0.1589
  C  C288  1  0.706500  0.038700  0.542000  1.0  0.1334
  C  C289  1  0.754600  0.065300  0.551500  1.0  -0.2167
  C  C290  1  0.775200  0.068400  0.603200  1.0  0.0838
  C  C291  1  0.746200  0.043100  0.644300  1.0  -0.2133
  C  C292  1  0.697900  0.017500  0.631800  1.0  0.1451
  C  C293  1  0.697700  0.763700  0.692600  1.0  0.0447
  C  C294  1  0.825100  0.099200  0.615700  1.0  0.1539
  C  C295  1  0.743800  0.738600  0.672000  1.0  -0.1813
  C  C296  1  0.855700  0.085000  0.660500  1.0  -0.1503
  C  C297  1  0.186600  0.611500  0.394200  1.0  0.1486
  C  C298  1  0.209500  0.655100  0.367400  1.0  -0.2364
  C  C299  1  0.175100  0.687700  0.334500  1.0  0.0839
  C  C300  1  0.121600  0.671900  0.329100  1.0  -0.2107
  C  C301  1  0.102900  0.626100  0.356200  1.0  0.1587
  C  C302  1  0.206500  0.461300  0.458000  1.0  0.1333
  C  C303  1  0.254600  0.434700  0.448500  1.0  -0.2161
  C  C304  1  0.275200  0.431600  0.396800  1.0  0.084
  C  C305  1  0.246200  0.456900  0.355700  1.0  -0.2121
  C  C306  1  0.197900  0.482500  0.368200  1.0  0.1435
  C  C307  1  0.197700  0.736300  0.307400  1.0  0.0441
  C  C308  1  0.325100  0.400800  0.384300  1.0  0.1549
  C  C309  1  0.243800  0.761400  0.328000  1.0  -0.1809
  C  C310  1  0.355700  0.415000  0.339500  1.0  -0.1482
  C  C311  1  0.313400  0.388500  0.894200  1.0  0.1498
  C  C312  1  0.290500  0.344900  0.867400  1.0  -0.234
  C  C313  1  0.324900  0.312300  0.834500  1.0  0.0834
  C  C314  1  0.378400  0.328100  0.829100  1.0  -0.2116
  C  C315  1  0.397100  0.373900  0.856200  1.0  0.158
  C  C316  1  0.293500  0.538700  0.958000  1.0  0.1394
  C  C317  1  0.245400  0.565300  0.948500  1.0  -0.217
  C  C318  1  0.224800  0.568400  0.896800  1.0  0.084
  C  C319  1  0.253800  0.543100  0.855700  1.0  -0.2119
  C  C320  1  0.302100  0.517500  0.868200  1.0  0.1438
  C  C321  1  0.302300  0.263700  0.807400  1.0  0.0446
  C  C322  1  0.174900  0.599200  0.884300  1.0  0.1553
  C  C323  1  0.256200  0.238600  0.828000  1.0  -0.1829
  C  C324  1  0.144300  0.585000  0.839500  1.0  -0.149
  C  C325  1  0.105800  0.813400  0.111500  1.0  0.1492
  C  C326  1  0.132600  0.790500  0.155100  1.0  -0.2359
  C  C327  1  0.165500  0.824900  0.187700  1.0  0.0838
  C  C328  1  0.170900  0.878400  0.171900  1.0  -0.2136
  C  C329  1  0.143800  0.897100  0.126100  1.0  0.1536
  C  C330  1  0.042000  0.793500  0.961300  1.0  0.1411
  C  C331  1  0.051500  0.745400  0.934700  1.0  -0.2172
  C  C332  1  0.103200  0.724800  0.931600  1.0  0.0859
  C  C333  1  0.144300  0.753800  0.956900  1.0  -0.2132
  C  C334  1  0.131800  0.802100  0.982500  1.0  0.1436
  C  C335  1  0.192600  0.802300  0.236300  1.0  0.0938
  C  C336  1  0.115700  0.674900  0.900800  1.0  0.0515
  C  C337  1  0.605800  0.686600  0.888500  1.0  0.1491
  C  C338  1  0.632600  0.709500  0.844900  1.0  -0.236
  C  C339  1  0.665500  0.675100  0.812300  1.0  0.0841
  C  C340  1  0.670900  0.621600  0.828100  1.0  -0.2147
  C  C341  1  0.643800  0.602900  0.873900  1.0  0.1518
  C  C342  1  0.542000  0.706500  0.038700  1.0  0.1402
  C  C343  1  0.551500  0.754600  0.065300  1.0  -0.2155
  C  C344  1  0.603200  0.775200  0.068400  1.0  0.085
  C  C345  1  0.644300  0.746200  0.043100  1.0  -0.2147
  C  C346  1  0.631800  0.697900  0.017500  1.0  0.1412
  C  C347  1  0.692600  0.697700  0.763700  1.0  0.0953
  C  C348  1  0.615700  0.825100  0.099200  1.0  0.0519
  C  C349  1  0.394200  0.186600  0.611500  1.0  0.1466
  C  C350  1  0.367400  0.209500  0.655100  1.0  -0.234
  C  C351  1  0.334500  0.175100  0.687700  1.0  0.0831
  C  C352  1  0.329100  0.121600  0.671900  1.0  -0.2144
  C  C353  1  0.356200  0.102900  0.626100  1.0  0.1569
  C  C354  1  0.458000  0.206500  0.461300  1.0  0.1358
  C  C355  1  0.448500  0.254600  0.434700  1.0  -0.2162
  C  C356  1  0.396800  0.275200  0.431600  1.0  0.0851
  C  C357  1  0.355700  0.246200  0.456900  1.0  -0.213
  C  C358  1  0.368200  0.197900  0.482500  1.0  0.1438
  C  C359  1  0.307400  0.197700  0.736300  1.0  0.0955
  C  C360  1  0.384300  0.325100  0.400800  1.0  0.0505
  C  C361  1  0.894200  0.313400  0.388500  1.0  0.1516
  C  C362  1  0.867400  0.290500  0.344900  1.0  -0.2372
  C  C363  1  0.834500  0.324900  0.312300  1.0  0.085
  C  C364  1  0.829100  0.378400  0.328100  1.0  -0.2165
  C  C365  1  0.856200  0.397100  0.373900  1.0  0.1571
  C  C366  1  0.958000  0.293500  0.538700  1.0  0.1382
  C  C367  1  0.948500  0.245400  0.565300  1.0  -0.2146
  C  C368  1  0.896800  0.224800  0.568400  1.0  0.0835
  C  C369  1  0.855700  0.253800  0.543100  1.0  -0.2136
  C  C370  1  0.868200  0.302100  0.517500  1.0  0.1439
  C  C371  1  0.807400  0.302300  0.263700  1.0  0.0961
  C  C372  1  0.884300  0.174900  0.599200  1.0  0.049
  C  C373  1  0.111500  0.105800  0.813400  1.0  0.1492
  C  C374  1  0.155100  0.132600  0.790500  1.0  -0.2292
  C  C375  1  0.187700  0.165500  0.824900  1.0  0.0866
  C  C376  1  0.171900  0.170900  0.878400  1.0  -0.2137
  C  C377  1  0.126100  0.143800  0.897100  1.0  0.1527
  C  C378  1  0.961300  0.042000  0.793500  1.0  0.1411
  C  C379  1  0.934700  0.051500  0.745400  1.0  -0.2173
  C  C380  1  0.931600  0.103200  0.724800  1.0  0.0855
  C  C381  1  0.956900  0.144300  0.753800  1.0  -0.2108
  C  C382  1  0.982500  0.131800  0.802100  1.0  0.1429
  C  C383  1  0.236300  0.192600  0.802300  1.0  0.1358
  C  C384  1  0.900800  0.115700  0.674900  1.0  0.0262
  C  C385  1  0.888500  0.605800  0.686600  1.0  0.1475
  C  C386  1  0.844900  0.632600  0.709500  1.0  -0.2349
  C  C387  1  0.812300  0.665500  0.675100  1.0  0.0868
  C  C388  1  0.828100  0.670900  0.621600  1.0  -0.2133
  C  C389  1  0.873900  0.643800  0.602900  1.0  0.1547
  C  C390  1  0.038700  0.542000  0.706500  1.0  0.1387
  C  C391  1  0.065300  0.551500  0.754600  1.0  -0.2174
  C  C392  1  0.068400  0.603200  0.775200  1.0  0.0857
  C  C393  1  0.043100  0.644300  0.746200  1.0  -0.2116
  C  C394  1  0.017500  0.631800  0.697900  1.0  0.1411
  C  C395  1  0.763700  0.692600  0.697700  1.0  0.1352
  C  C396  1  0.099200  0.615700  0.825100  1.0  0.0313
  C  C397  1  0.611500  0.394200  0.186600  1.0  0.1467
  C  C398  1  0.655100  0.367400  0.209500  1.0  -0.2342
  C  C399  1  0.687700  0.334500  0.175100  1.0  0.0865
  C  C400  1  0.671900  0.329100  0.121600  1.0  -0.2132
  C  C401  1  0.626100  0.356200  0.102900  1.0  0.1537
  C  C402  1  0.461300  0.458000  0.206500  1.0  0.1459
  C  C403  1  0.434700  0.448500  0.254600  1.0  -0.2183
  C  C404  1  0.431600  0.396800  0.275200  1.0  0.0852
  C  C405  1  0.456900  0.355700  0.246200  1.0  -0.2111
  C  C406  1  0.482500  0.368200  0.197900  1.0  0.1429
  C  C407  1  0.736300  0.307400  0.197700  1.0  0.1374
  C  C408  1  0.400800  0.384300  0.325100  1.0  0.0301
  C  C409  1  0.388500  0.894200  0.313400  1.0  0.1508
  C  C410  1  0.344900  0.867400  0.290500  1.0  -0.2314
  C  C411  1  0.312300  0.834500  0.324900  1.0  0.0883
  C  C412  1  0.328100  0.829100  0.378400  1.0  -0.2108
  C  C413  1  0.373900  0.856200  0.397100  1.0  0.1572
  C  C414  1  0.538700  0.958000  0.293500  1.0  0.1426
  C  C415  1  0.565300  0.948500  0.245400  1.0  -0.2161
  C  C416  1  0.568400  0.896800  0.224800  1.0  0.0865
  C  C417  1  0.543100  0.855700  0.253800  1.0  -0.2116
  C  C418  1  0.517500  0.868200  0.302100  1.0  0.143
  C  C419  1  0.263700  0.807400  0.302300  1.0  0.1351
  C  C420  1  0.599200  0.884300  0.174900  1.0  0.0299
  C  C421  1  0.186600  0.888500  0.894200  1.0  0.1484
  C  C422  1  0.209500  0.844900  0.867400  1.0  -0.2356
  C  C423  1  0.175100  0.812300  0.834500  1.0  0.0829
  C  C424  1  0.121600  0.828100  0.829100  1.0  -0.2133
  C  C425  1  0.102900  0.873900  0.856200  1.0  0.1598
  C  C426  1  0.206500  0.038700  0.958000  1.0  0.134
  C  C427  1  0.254600  0.065300  0.948500  1.0  -0.2163
  C  C428  1  0.275200  0.068400  0.896800  1.0  0.0838
  C  C429  1  0.246200  0.043100  0.855700  1.0  -0.2127
  C  C430  1  0.197900  0.017500  0.868200  1.0  0.1441
  C  C431  1  0.197700  0.763700  0.807400  1.0  0.0443
  C  C432  1  0.325100  0.099200  0.884300  1.0  0.1534
  C  C433  1  0.243800  0.738600  0.828000  1.0  -0.1811
  C  C434  1  0.355700  0.085000  0.839500  1.0  -0.1575
  C  C435  1  0.313400  0.111500  0.394200  1.0  0.1495
  C  C436  1  0.290500  0.155100  0.367400  1.0  -0.2354
  C  C437  1  0.324900  0.187700  0.334500  1.0  0.0841
  C  C438  1  0.378400  0.171900  0.329100  1.0  -0.2115
  C  C439  1  0.397100  0.126100  0.356200  1.0  0.152
  C  C440  1  0.293500  0.961300  0.458000  1.0  0.1397
  C  C441  1  0.245400  0.934700  0.448500  1.0  -0.2168
  C  C442  1  0.224800  0.931600  0.396800  1.0  0.0847
  C  C443  1  0.253800  0.956900  0.355700  1.0  -0.2118
  C  C444  1  0.302100  0.982500  0.368200  1.0  0.1429
  C  C445  1  0.302300  0.236300  0.307400  1.0  0.0442
  C  C446  1  0.174900  0.900800  0.384300  1.0  0.1531
  C  C447  1  0.256200  0.261400  0.328000  1.0  -0.1826
  C  C448  1  0.144300  0.915000  0.339500  1.0  -0.1469
  C  C449  1  0.813400  0.388500  0.605800  1.0  0.1497
  C  C450  1  0.790500  0.344900  0.632600  1.0  -0.2344
  C  C451  1  0.824900  0.312300  0.665500  1.0  0.0835
  C  C452  1  0.878400  0.328100  0.670900  1.0  -0.2127
  C  C453  1  0.897100  0.373900  0.643800  1.0  0.1526
  C  C454  1  0.793500  0.538700  0.542000  1.0  0.1387
  C  C455  1  0.745400  0.565300  0.551500  1.0  -0.215
  C  C456  1  0.724800  0.568400  0.603200  1.0  0.0832
  C  C457  1  0.753800  0.543100  0.644300  1.0  -0.2125
  C  C458  1  0.802100  0.517500  0.631800  1.0  0.1442
  C  C459  1  0.802300  0.263700  0.692600  1.0  0.0455
  C  C460  1  0.674900  0.599200  0.615700  1.0  0.153
  C  C461  1  0.756200  0.238600  0.672000  1.0  -0.1826
  C  C462  1  0.644300  0.585000  0.660500  1.0  -0.1492
  C  C463  1  0.686600  0.611500  0.105800  1.0  0.1482
  C  C464  1  0.709500  0.655100  0.132600  1.0  -0.2354
  C  C465  1  0.675100  0.687700  0.165500  1.0  0.0829
  C  C466  1  0.621600  0.671900  0.170900  1.0  -0.213
  C  C467  1  0.602900  0.626100  0.143800  1.0  0.1538
  C  C468  1  0.706500  0.461300  0.042000  1.0  0.1337
  C  C469  1  0.754600  0.434700  0.051500  1.0  -0.2165
  C  C470  1  0.775200  0.431600  0.103200  1.0  0.0841
  C  C471  1  0.746200  0.456900  0.144300  1.0  -0.2118
  C  C472  1  0.697900  0.482500  0.131800  1.0  0.1436
  C  C473  1  0.697700  0.736300  0.192600  1.0  0.0453
  C  C474  1  0.825100  0.400800  0.115700  1.0  0.1541
  C  C475  1  0.743800  0.761400  0.172000  1.0  -0.1813
  C  C476  1  0.855700  0.415000  0.160500  1.0  -0.1493
  C  C477  1  0.894200  0.186600  0.888500  1.0  0.1467
  C  C478  1  0.867400  0.209500  0.844900  1.0  -0.2364
  C  C479  1  0.834500  0.175100  0.812300  1.0  0.0843
  C  C480  1  0.829100  0.121600  0.828100  1.0  -0.2145
  C  C481  1  0.856200  0.102900  0.873900  1.0  0.1584
  C  C482  1  0.958000  0.206500  0.038700  1.0  0.1355
  C  C483  1  0.948500  0.254600  0.065300  1.0  -0.2151
  C  C484  1  0.896800  0.275200  0.068400  1.0  0.0842
  C  C485  1  0.855700  0.246200  0.043100  1.0  -0.2138
  C  C486  1  0.868200  0.197900  0.017500  1.0  0.1442
  C  C487  1  0.807400  0.197700  0.763700  1.0  0.0959
  C  C488  1  0.884300  0.325100  0.099200  1.0  0.0472
  C  C489  1  0.394200  0.313400  0.111500  1.0  0.1515
  C  C490  1  0.367400  0.290500  0.155100  1.0  -0.2368
  C  C491  1  0.334500  0.324900  0.187700  1.0  0.083
  C  C492  1  0.329100  0.378400  0.171900  1.0  -0.2158
  C  C493  1  0.356200  0.397100  0.126100  1.0  0.1585
  C  C494  1  0.458000  0.293500  0.961300  1.0  0.1409
  C  C495  1  0.448500  0.245400  0.934700  1.0  -0.2154
  C  C496  1  0.396800  0.224800  0.931600  1.0  0.086
  C  C497  1  0.355700  0.253800  0.956900  1.0  -0.2129
  C  C498  1  0.368200  0.302100  0.982500  1.0  0.1435
  C  C499  1  0.307400  0.302300  0.236300  1.0  0.0945
  C  C500  1  0.384300  0.174900  0.900800  1.0  0.051
  C  C501  1  0.605800  0.813400  0.388500  1.0  0.1495
  C  C502  1  0.632600  0.790500  0.344900  1.0  -0.2367
  C  C503  1  0.665500  0.824900  0.312300  1.0  0.0845
  C  C504  1  0.670900  0.878400  0.328100  1.0  -0.217
  C  C505  1  0.643800  0.897100  0.373900  1.0  0.1536
  C  C506  1  0.542000  0.793500  0.538700  1.0  0.1422
  C  C507  1  0.551500  0.745400  0.565300  1.0  -0.2163
  C  C508  1  0.603200  0.724800  0.568400  1.0  0.0842
  C  C509  1  0.644300  0.753800  0.543100  1.0  -0.2144
  C  C510  1  0.631800  0.802100  0.517500  1.0  0.1429
  C  C511  1  0.692600  0.802300  0.263700  1.0  0.0951
  C  C512  1  0.615700  0.674900  0.599200  1.0  0.0508
  C  C513  1  0.105800  0.686600  0.611500  1.0  0.1495
  C  C514  1  0.132600  0.709500  0.655100  1.0  -0.2334
  C  C515  1  0.165500  0.675100  0.687700  1.0  0.0834
  C  C516  1  0.170900  0.621600  0.671900  1.0  -0.2132
  C  C517  1  0.143800  0.602900  0.626100  1.0  0.151
  C  C518  1  0.042000  0.706500  0.461300  1.0  0.1408
  C  C519  1  0.051500  0.754600  0.434700  1.0  -0.2168
  C  C520  1  0.103200  0.775200  0.431600  1.0  0.0845
  C  C521  1  0.144300  0.746200  0.456900  1.0  -0.2132
  C  C522  1  0.131800  0.697900  0.482500  1.0  0.144
  C  C523  1  0.192600  0.697700  0.736300  1.0  0.0953
  C  C524  1  0.115700  0.825100  0.400800  1.0  0.0522
  C  C525  1  0.888500  0.894200  0.186600  1.0  0.1471
  C  C526  1  0.844900  0.867400  0.209500  1.0  -0.234
  C  C527  1  0.812300  0.834500  0.175100  1.0  0.0872
  C  C528  1  0.828100  0.829100  0.121600  1.0  -0.2104
  C  C529  1  0.873900  0.856200  0.102900  1.0  0.1593
  C  C530  1  0.038700  0.958000  0.206500  1.0  0.1415
  C  C531  1  0.065300  0.948500  0.254600  1.0  -0.2173
  C  C532  1  0.068400  0.896800  0.275200  1.0  0.0862
  C  C533  1  0.043100  0.855700  0.246200  1.0  -0.2109
  C  C534  1  0.017500  0.868200  0.197900  1.0  0.143
  C  C535  1  0.763700  0.807400  0.197700  1.0  0.1349
  C  C536  1  0.099200  0.884300  0.325100  1.0  0.0289
  C  C537  1  0.111500  0.394200  0.313400  1.0  0.1522
  C  C538  1  0.155100  0.367400  0.290500  1.0  -0.2299
  C  C539  1  0.187700  0.334500  0.324900  1.0  0.0871
  C  C540  1  0.171900  0.329100  0.378400  1.0  -0.2129
  C  C541  1  0.126100  0.356200  0.397100  1.0  0.1567
  C  C542  1  0.961300  0.458000  0.293500  1.0  0.1478
  C  C543  1  0.934700  0.448500  0.245400  1.0  -0.2175
  C  C544  1  0.931600  0.396800  0.224800  1.0  0.087
  C  C545  1  0.956900  0.355700  0.253800  1.0  -0.2118
  C  C546  1  0.982500  0.368200  0.302100  1.0  0.1429
  C  C547  1  0.236300  0.307400  0.302300  1.0  0.1365
  C  C548  1  0.900800  0.384300  0.174900  1.0  0.0292
  C  C549  1  0.388500  0.605800  0.813400  1.0  0.1482
  C  C550  1  0.344900  0.632600  0.790500  1.0  -0.2316
  C  C551  1  0.312300  0.665500  0.824900  1.0  0.0879
  C  C552  1  0.328100  0.670900  0.878400  1.0  -0.2117
  C  C553  1  0.373900  0.643800  0.897100  1.0  0.1594
  C  C554  1  0.538700  0.542000  0.793500  1.0  0.1389
  C  C555  1  0.565300  0.551500  0.745400  1.0  -0.2166
  C  C556  1  0.568400  0.603200  0.724800  1.0  0.0854
  C  C557  1  0.543100  0.644300  0.753800  1.0  -0.2115
  C  C558  1  0.517500  0.631800  0.802100  1.0  0.1428
  C  C559  1  0.263700  0.692600  0.802300  1.0  0.1354
  C  C560  1  0.599200  0.615700  0.674900  1.0  0.0295
  C  C561  1  0.611500  0.105800  0.686600  1.0  0.1499
  C  C562  1  0.655100  0.132600  0.709500  1.0  -0.234
  C  C563  1  0.687700  0.165500  0.675100  1.0  0.0861
  C  C564  1  0.671900  0.170900  0.621600  1.0  -0.2138
  C  C565  1  0.626100  0.143800  0.602900  1.0  0.1535
  C  C566  1  0.461300  0.042000  0.706500  1.0  0.1425
  C  C567  1  0.434700  0.051500  0.754600  1.0  -0.2182
  C  C568  1  0.431600  0.103200  0.775200  1.0  0.0847
  C  C569  1  0.456900  0.144300  0.746200  1.0  -0.2107
  C  C570  1  0.482500  0.131800  0.697900  1.0  0.1426
  C  C571  1  0.736300  0.192600  0.697700  1.0  0.1366
  C  C572  1  0.400800  0.115700  0.825100  1.0  0.03
  N  N573  1  0.822800  0.986200  0.081700  1.0  -0.326
  N  N574  1  0.865200  0.095800  0.110800  1.0  -0.3128
  N  N575  1  0.828000  0.256200  0.238600  1.0  -0.2822
  N  N576  1  0.660500  0.855700  0.085000  1.0  -0.2692
  N  N577  1  0.677200  0.013800  0.581700  1.0  -0.3286
  N  N578  1  0.634800  0.904200  0.610800  1.0  -0.3145
  N  N579  1  0.672000  0.743800  0.738600  1.0  -0.2799
  N  N580  1  0.839500  0.144300  0.585000  1.0  -0.2704
  N  N581  1  0.177200  0.486200  0.418300  1.0  -0.3284
  N  N582  1  0.134800  0.595800  0.389200  1.0  -0.3137
  N  N583  1  0.172000  0.756200  0.261400  1.0  -0.2841
  N  N584  1  0.339500  0.355700  0.415000  1.0  -0.2682
  N  N585  1  0.322800  0.513800  0.918300  1.0  -0.3256
  N  N586  1  0.365200  0.404200  0.889200  1.0  -0.3139
  N  N587  1  0.328000  0.243800  0.761400  1.0  -0.2845
  N  N588  1  0.160500  0.644300  0.915000  1.0  -0.2592
  N  N589  1  0.081700  0.822800  0.986200  1.0  -0.3267
  N  N590  1  0.110800  0.865200  0.095800  1.0  -0.3152
  N  N591  1  0.238600  0.828000  0.256200  1.0  -0.2814
  N  N592  1  0.085000  0.660500  0.855700  1.0  -0.2728
  N  N593  1  0.581700  0.677200  0.013800  1.0  -0.3273
  N  N594  1  0.610800  0.634800  0.904200  1.0  -0.3142
  N  N595  1  0.738600  0.672000  0.743800  1.0  -0.2757
  N  N596  1  0.585000  0.839500  0.144300  1.0  -0.2722
  N  N597  1  0.418300  0.177200  0.486200  1.0  -0.327
  N  N598  1  0.389200  0.134800  0.595800  1.0  -0.3148
  N  N599  1  0.261400  0.172000  0.756200  1.0  -0.2786
  N  N600  1  0.415000  0.339500  0.355700  1.0  -0.2709
  N  N601  1  0.918300  0.322800  0.513800  1.0  -0.3266
  N  N602  1  0.889200  0.365200  0.404200  1.0  -0.3153
  N  N603  1  0.761400  0.328000  0.243800  1.0  -0.2779
  N  N604  1  0.915000  0.160500  0.644300  1.0  -0.2634
  N  N605  1  0.986200  0.081700  0.822800  1.0  -0.3256
  N  N606  1  0.095800  0.110800  0.865200  1.0  -0.3147
  N  N607  1  0.013800  0.581700  0.677200  1.0  -0.328
  N  N608  1  0.904200  0.610800  0.634800  1.0  -0.3122
  N  N609  1  0.486200  0.418300  0.177200  1.0  -0.3267
  N  N610  1  0.595800  0.389200  0.134800  1.0  -0.316
  N  N611  1  0.513800  0.918300  0.322800  1.0  -0.3261
  N  N612  1  0.404200  0.889200  0.365200  1.0  -0.3132
  N  N613  1  0.177200  0.013800  0.918300  1.0  -0.328
  N  N614  1  0.134800  0.904200  0.889200  1.0  -0.314
  N  N615  1  0.172000  0.743800  0.761400  1.0  -0.2842
  N  N616  1  0.339500  0.144300  0.915000  1.0  -0.268
  N  N617  1  0.322800  0.986200  0.418300  1.0  -0.326
  N  N618  1  0.365200  0.095800  0.389200  1.0  -0.3128
  N  N619  1  0.328000  0.256200  0.261400  1.0  -0.285
  N  N620  1  0.160500  0.855700  0.415000  1.0  -0.2664
  N  N621  1  0.822800  0.513800  0.581700  1.0  -0.3268
  N  N622  1  0.865200  0.404200  0.610800  1.0  -0.3136
  N  N623  1  0.828000  0.243800  0.738600  1.0  -0.2811
  N  N624  1  0.660500  0.644300  0.585000  1.0  -0.2693
  N  N625  1  0.677200  0.486200  0.081700  1.0  -0.3276
  N  N626  1  0.634800  0.595800  0.110800  1.0  -0.3132
  N  N627  1  0.672000  0.756200  0.238600  1.0  -0.2812
  N  N628  1  0.839500  0.355700  0.085000  1.0  -0.2633
  N  N629  1  0.918300  0.177200  0.013800  1.0  -0.3275
  N  N630  1  0.889200  0.134800  0.904200  1.0  -0.3136
  N  N631  1  0.761400  0.172000  0.743800  1.0  -0.2766
  N  N632  1  0.915000  0.339500  0.144300  1.0  -0.2691
  N  N633  1  0.418300  0.322800  0.986200  1.0  -0.3272
  N  N634  1  0.389200  0.365200  0.095800  1.0  -0.3143
  N  N635  1  0.261400  0.328000  0.256200  1.0  -0.2793
  N  N636  1  0.415000  0.160500  0.855700  1.0  -0.2706
  N  N637  1  0.581700  0.822800  0.513800  1.0  -0.3267
  N  N638  1  0.610800  0.865200  0.404200  1.0  -0.3158
  N  N639  1  0.738600  0.828000  0.243800  1.0  -0.2766
  N  N640  1  0.585000  0.660500  0.644300  1.0  -0.2719
  N  N641  1  0.081700  0.677200  0.486200  1.0  -0.3262
  N  N642  1  0.110800  0.634800  0.595800  1.0  -0.3156
  N  N643  1  0.238600  0.672000  0.756200  1.0  -0.2807
  N  N644  1  0.085000  0.839500  0.355700  1.0  -0.2662
  N  N645  1  0.013800  0.918300  0.177200  1.0  -0.3264
  N  N646  1  0.904200  0.889200  0.134800  1.0  -0.3121
  N  N647  1  0.986200  0.418300  0.322800  1.0  -0.3263
  N  N648  1  0.095800  0.389200  0.365200  1.0  -0.3169
  N  N649  1  0.513800  0.581700  0.822800  1.0  -0.3258
  N  N650  1  0.404200  0.610800  0.865200  1.0  -0.3125
  N  N651  1  0.486200  0.081700  0.677200  1.0  -0.3275
  N  N652  1  0.595800  0.110800  0.634800  1.0  -0.3147
  F  F653  1  0.865400  0.063700  0.997800  1.0  -0.5454
  F  F654  1  0.932800  0.961700  0.031600  1.0  -0.5496
  F  F655  1  0.634600  0.936300  0.497800  1.0  -0.5444
  F  F656  1  0.567200  0.038300  0.531600  1.0  -0.5499
  F  F657  1  0.134600  0.563700  0.502200  1.0  -0.545
  F  F658  1  0.067200  0.461700  0.468400  1.0  -0.5481
  F  F659  1  0.365400  0.436300  0.002200  1.0  -0.5456
  F  F660  1  0.432800  0.538300  0.968400  1.0  -0.548
  F  F661  1  0.997800  0.865400  0.063700  1.0  -0.5459
  F  F662  1  0.031600  0.932800  0.961700  1.0  -0.5475
  F  F663  1  0.497800  0.634600  0.936300  1.0  -0.5437
  F  F664  1  0.531600  0.567200  0.038300  1.0  -0.5474
  F  F665  1  0.502200  0.134600  0.563700  1.0  -0.5437
  F  F666  1  0.468400  0.067200  0.461700  1.0  -0.5468
  F  F667  1  0.002200  0.365400  0.436300  1.0  -0.5448
  F  F668  1  0.968400  0.432800  0.538300  1.0  -0.5476
  F  F669  1  0.063700  0.997800  0.865400  1.0  -0.5465
  F  F670  1  0.961700  0.031600  0.932800  1.0  -0.5464
  F  F671  1  0.936300  0.497800  0.634600  1.0  -0.5437
  F  F672  1  0.038300  0.531600  0.567200  1.0  -0.5469
  F  F673  1  0.563700  0.502200  0.134600  1.0  -0.5442
  F  F674  1  0.461700  0.468400  0.067200  1.0  -0.546
  F  F675  1  0.436300  0.002200  0.365400  1.0  -0.5461
  F  F676  1  0.538300  0.968400  0.432800  1.0  -0.5466
  F  F677  1  0.134600  0.936300  0.002200  1.0  -0.5453
  F  F678  1  0.067200  0.038300  0.968400  1.0  -0.5478
  F  F679  1  0.365400  0.063700  0.502200  1.0  -0.5453
  F  F680  1  0.432800  0.961700  0.468400  1.0  -0.5481
  F  F681  1  0.865400  0.436300  0.497800  1.0  -0.545
  F  F682  1  0.932800  0.538300  0.531600  1.0  -0.5496
  F  F683  1  0.634600  0.563700  0.997800  1.0  -0.5445
  F  F684  1  0.567200  0.461700  0.031600  1.0  -0.5497
  F  F685  1  0.002200  0.134600  0.936300  1.0  -0.5427
  F  F686  1  0.968400  0.067200  0.038300  1.0  -0.5463
  F  F687  1  0.502200  0.365400  0.063700  1.0  -0.5462
  F  F688  1  0.468400  0.432800  0.961700  1.0  -0.5478
  F  F689  1  0.497800  0.865400  0.436300  1.0  -0.5444
  F  F690  1  0.531600  0.932800  0.538300  1.0  -0.548
  F  F691  1  0.997800  0.634600  0.563700  1.0  -0.5443
  F  F692  1  0.031600  0.567200  0.461700  1.0  -0.5471
  F  F693  1  0.936300  0.002200  0.134600  1.0  -0.5438
  F  F694  1  0.038300  0.968400  0.067200  1.0  -0.546
  F  F695  1  0.063700  0.502200  0.365400  1.0  -0.5458
  F  F696  1  0.961700  0.468400  0.432800  1.0  -0.5467
  F  F697  1  0.436300  0.497800  0.865400  1.0  -0.5465
  F  F698  1  0.538300  0.531600  0.932800  1.0  -0.5474
  F  F699  1  0.563700  0.997800  0.634600  1.0  -0.5441
  F  F700  1  0.461700  0.031600  0.567200  1.0  -0.5456
