# generated using pymatgen
data_Mn4Cu6H153C144(NO3)12
_symmetry_space_group_name_H-M   'P 1'
_cell_length_a   27.31000000
_cell_length_b   28.43000000
_cell_length_c   30.55600000
_cell_angle_alpha   90.00000000
_cell_angle_beta   90.00000000
_cell_angle_gamma   90.00000000
_symmetry_Int_Tables_number   1
_chemical_formula_structural   Mn4Cu6H153C144(NO3)12
_chemical_formula_sum   'Mn16 Cu24 H612 C576 N48 O144'
_cell_volume   23724.39035480
_cell_formula_units_Z   4
loop_
 _symmetry_equiv_pos_site_id
 _symmetry_equiv_pos_as_xyz
  1  'x, y, z'
loop_
 _atom_site_type_symbol
 _atom_site_label
 _atom_site_symmetry_multiplicity
 _atom_site_fract_x
 _atom_site_fract_y
 _atom_site_fract_z
 _atom_site_occupancy
 _atom_site_charge
  Mn  Mn1  1  0.395420  0.053400  0.128960  1.0  1.1019
  Mn  Mn2  1  0.588000  0.371010  0.064380  1.0  1.105
  Mn  Mn3  1  0.104580  0.946600  0.628960  1.0  1.1027
  Mn  Mn4  1  0.912000  0.628990  0.564380  1.0  1.106
  Mn  Mn5  1  0.604580  0.553400  0.371040  1.0  1.1021
  Mn  Mn6  1  0.412000  0.871010  0.435620  1.0  1.1059
  Mn  Mn7  1  0.895420  0.446600  0.871040  1.0  1.1013
  Mn  Mn8  1  0.088000  0.128990  0.935620  1.0  1.1047
  Mn  Mn9  1  0.667690  0.854620  0.837160  1.0  1.0394
  Mn  Mn10  1  0.824380  0.827450  0.155380  1.0  1.0689
  Mn  Mn11  1  0.832310  0.145380  0.337160  1.0  1.0401
  Mn  Mn12  1  0.675620  0.172550  0.655380  1.0  1.0686
  Mn  Mn13  1  0.332310  0.354620  0.662840  1.0  1.04
  Mn  Mn14  1  0.175620  0.327450  0.344620  1.0  1.0677
  Mn  Mn15  1  0.167690  0.645380  0.162840  1.0  1.0394
  Mn  Mn16  1  0.324380  0.672550  0.844620  1.0  1.0693
  Cu  Cu17  1  0.420360  0.964410  0.282460  1.0  0.8366
  Cu  Cu18  1  0.491140  0.209150  0.073180  1.0  0.6569
  Cu  Cu19  1  0.234250  0.067100  0.036280  1.0  0.7598
  Cu  Cu20  1  0.079640  0.035590  0.782460  1.0  0.8355
  Cu  Cu21  1  0.008860  0.790850  0.573180  1.0  0.6526
  Cu  Cu22  1  0.265750  0.932900  0.536280  1.0  0.761
  Cu  Cu23  1  0.579640  0.464410  0.217540  1.0  0.836
  Cu  Cu24  1  0.508860  0.709150  0.426820  1.0  0.651
  Cu  Cu25  1  0.765750  0.567100  0.463720  1.0  0.76
  Cu  Cu26  1  0.920360  0.535590  0.717540  1.0  0.8373
  Cu  Cu27  1  0.991140  0.290850  0.926820  1.0  0.6534
  Cu  Cu28  1  0.734250  0.432900  0.963720  1.0  0.7588
  Cu  Cu29  1  0.684140  0.013720  0.746800  1.0  0.6778
  Cu  Cu30  1  0.744330  0.814630  0.996300  1.0  0.6964
  Cu  Cu31  1  0.997670  0.738490  0.163890  1.0  0.8244
  Cu  Cu32  1  0.815860  0.986280  0.246800  1.0  0.6831
  Cu  Cu33  1  0.755670  0.185370  0.496300  1.0  0.698
  Cu  Cu34  1  0.502330  0.261510  0.663890  1.0  0.8238
  Cu  Cu35  1  0.315860  0.513720  0.753200  1.0  0.6834
  Cu  Cu36  1  0.255670  0.314630  0.503700  1.0  0.6962
  Cu  Cu37  1  0.002330  0.238490  0.336110  1.0  0.8206
  Cu  Cu38  1  0.184140  0.486280  0.253200  1.0  0.6776
  Cu  Cu39  1  0.244330  0.685370  0.003700  1.0  0.6982
  Cu  Cu40  1  0.497670  0.761510  0.836110  1.0  0.8213
  H  H41  1  0.521600  0.834400  0.175700  1.0  0.1179
  H  H42  1  0.543000  0.906700  0.237200  1.0  0.1128
  H  H43  1  0.517900  0.951800  0.217400  1.0  0.1191
  H  H44  1  0.377100  0.815200  0.158000  1.0  0.1014
  H  H45  1  0.333900  0.914700  0.213000  1.0  0.1141
  H  H46  1  0.318800  0.863800  0.198200  1.0  0.1085
  H  H47  1  0.457000  0.788500  0.150900  1.0  0.0961
  H  H48  1  0.594700  0.935200  0.176800  1.0  0.1159
  H  H49  1  0.550200  0.932200  0.144500  1.0  0.1145
  H  H50  1  0.573700  0.886000  0.163100  1.0  0.1092
  H  H51  1  0.286300  0.921100  0.146600  1.0  0.1228
  H  H52  1  0.323000  0.887700  0.122200  1.0  0.1032
  H  H53  1  0.339700  0.938200  0.136300  1.0  0.1148
  H  H54  1  0.609000  0.079600  0.981900  1.0  0.1162
  H  H55  1  0.509200  0.104900  0.970600  1.0  0.108
  H  H56  1  0.498700  0.148700  0.000600  1.0  0.1012
  H  H57  1  0.637700  0.055100  0.108900  1.0  0.0945
  H  H58  1  0.599700  0.121000  0.160300  1.0  0.0925
  H  H59  1  0.544200  0.130700  0.151500  1.0  0.1037
  H  H60  1  0.316900  0.959100  0.906400  1.0  0.1072
  H  H61  1  0.276200  0.955300  0.012400  1.0  0.1125
  H  H62  1  0.264700  0.935000  0.966000  1.0  0.11
  H  H63  1  0.402900  0.073000  0.918500  1.0  0.1103
  H  H64  1  0.409900  0.100400  0.006000  1.0  0.1411
  H  H65  1  0.356600  0.109600  0.022000  1.0  0.127
  H  H66  1  0.657500  0.045500  0.035600  1.0  0.1105
  H  H67  1  0.532500  0.175000  0.933100  1.0  0.1168
  H  H68  1  0.579100  0.143900  0.940900  1.0  0.1038
  H  H69  1  0.569000  0.187400  0.971000  1.0  0.1198
  H  H70  1  0.552800  0.076600  0.207100  1.0  0.1119
  H  H71  1  0.581700  0.042900  0.175800  1.0  0.1198
  H  H72  1  0.526100  0.052900  0.167400  1.0  0.1134
  H  H73  1  0.376600  0.008700  0.878200  1.0  0.1037
  H  H74  1  0.191200  0.964900  0.995300  1.0  0.0431
  H  H75  1  0.205200  0.996700  0.955400  1.0  0.1077
  H  H76  1  0.215300  0.014200  0.003200  1.0  0.1448
  H  H77  1  0.390500  0.179400  0.994000  1.0  0.1052
  H  H78  1  0.345100  0.165300  0.965400  1.0  0.0978
  H  H79  1  0.398300  0.155500  0.948200  1.0  0.1092
  H  H80  1  0.453500  0.236000  0.971800  1.0  0.0943
  H  H81  1  0.485600  0.281200  0.972800  1.0  0.0803
  H  H82  1  0.367500  0.305700  0.952200  1.0  0.103
  H  H83  1  0.382400  0.308700  0.135500  1.0  0.0969
  H  H84  1  0.433100  0.285300  0.124600  1.0  0.0943
  H  H85  1  0.333000  0.344000  0.075000  1.0  0.0947
  H  H86  1  0.418200  0.258600  0.906300  1.0  0.1034
  H  H87  1  0.475300  0.261300  0.901200  1.0  0.0947
  H  H88  1  0.444800  0.307400  0.908200  1.0  0.1084
  H  H89  1  0.313000  0.339300  0.001400  1.0  0.1029
  H  H90  1  0.418200  0.385000  0.125700  1.0  0.0994
  H  H91  1  0.446500  0.357800  0.162400  1.0  0.1185
  H  H92  1  0.468800  0.361400  0.115300  1.0  0.1135
  H  H93  1  0.447500  0.541600  0.186100  1.0  0.1074
  H  H94  1  0.488300  0.508600  0.206400  1.0  0.1187
  H  H95  1  0.473000  0.603800  0.141300  1.0  0.1067
  H  H96  1  0.599400  0.605800  0.074100  1.0  0.0939
  H  H97  1  0.653600  0.542300  0.076100  1.0  0.0865
  H  H98  1  0.639600  0.495000  0.099400  1.0  0.089
  H  H99  1  0.632500  0.330900  0.885200  1.0  0.0887
  H  H100  1  0.635200  0.345100  0.935200  1.0  0.0882
  H  H101  1  0.569400  0.382700  0.844000  1.0  0.1234
  H  H102  1  0.648400  0.548900  0.905800  1.0  0.1072
  H  H103  1  0.677300  0.518200  0.939700  1.0  0.0868
  H  H104  1  0.584800  0.521300  0.866000  1.0  0.1111
  H  H105  1  0.444300  0.491800  0.120800  1.0  0.1178
  H  H106  1  0.433400  0.459800  0.161400  1.0  0.1064
  H  H107  1  0.485600  0.459500  0.140000  1.0  0.1093
  H  H108  1  0.526100  0.641300  0.093500  1.0  0.1076
  H  H109  1  0.679200  0.574200  0.144000  1.0  0.1236
  H  H110  1  0.664300  0.527400  0.167700  1.0  0.1129
  H  H111  1  0.708200  0.527600  0.134700  1.0  0.111
  H  H112  1  0.559400  0.300500  0.920700  1.0  0.1027
  H  H113  1  0.547000  0.350800  0.938400  1.0  0.0985
  H  H114  1  0.543100  0.340200  0.888200  1.0  0.1031
  H  H115  1  0.552500  0.460000  0.825000  1.0  0.1011
  H  H116  1  0.582800  0.557700  0.956600  1.0  0.1126
  H  H117  1  0.610400  0.525700  0.990300  1.0  0.1045
  H  H118  1  0.631400  0.575300  0.978400  1.0  0.1205
  H  H119  1  0.978400  0.165600  0.675700  1.0  0.119
  H  H120  1  0.957000  0.093300  0.737200  1.0  0.1128
  H  H121  1  0.982100  0.048200  0.717400  1.0  0.1199
  H  H122  1  0.122900  0.184800  0.658000  1.0  0.1016
  H  H123  1  0.166100  0.085300  0.713000  1.0  0.1135
  H  H124  1  0.181200  0.136200  0.698200  1.0  0.1063
  H  H125  1  0.043000  0.211500  0.650900  1.0  0.0955
  H  H126  1  0.905300  0.064800  0.676800  1.0  0.1191
  H  H127  1  0.949800  0.067800  0.644500  1.0  0.1152
  H  H128  1  0.926300  0.114000  0.663100  1.0  0.1099
  H  H129  1  0.213700  0.078900  0.646600  1.0  0.1196
  H  H130  1  0.177000  0.112300  0.622200  1.0  0.1036
  H  H131  1  0.160300  0.061800  0.636300  1.0  0.1159
  H  H132  1  0.891000  0.920400  0.481900  1.0  0.116
  H  H133  1  0.990800  0.895100  0.470600  1.0  0.1088
  H  H134  1  0.001300  0.851300  0.500600  1.0  0.1006
  H  H135  1  0.862300  0.944900  0.608900  1.0  0.0943
  H  H136  1  0.900300  0.879000  0.660300  1.0  0.0954
  H  H137  1  0.955800  0.869300  0.651500  1.0  0.1039
  H  H138  1  0.183100  0.040900  0.406400  1.0  0.1079
  H  H139  1  0.223800  0.044700  0.512400  1.0  0.1147
  H  H140  1  0.235300  0.065000  0.466000  1.0  0.1093
  H  H141  1  0.097100  0.927000  0.418500  1.0  0.1102
  H  H142  1  0.090100  0.899600  0.506000  1.0  0.1405
  H  H143  1  0.143400  0.890400  0.522000  1.0  0.126
  H  H144  1  0.842500  0.954500  0.535600  1.0  0.1098
  H  H145  1  0.967500  0.825000  0.433100  1.0  0.1161
  H  H146  1  0.920900  0.856100  0.440900  1.0  0.1032
  H  H147  1  0.931000  0.812600  0.471000  1.0  0.1199
  H  H148  1  0.947200  0.923400  0.707100  1.0  0.1124
  H  H149  1  0.918300  0.957100  0.675800  1.0  0.1195
  H  H150  1  0.973900  0.947100  0.667400  1.0  0.1087
  H  H151  1  0.123400  0.991300  0.378200  1.0  0.1035
  H  H152  1  0.308800  0.035100  0.495300  1.0  0.0455
  H  H153  1  0.294800  0.003300  0.455400  1.0  0.1078
  H  H154  1  0.284700  0.985800  0.503200  1.0  0.1471
  H  H155  1  0.109500  0.820600  0.494000  1.0  0.1063
  H  H156  1  0.154900  0.834700  0.465400  1.0  0.0982
  H  H157  1  0.101700  0.844500  0.448200  1.0  0.1106
  H  H158  1  0.046500  0.764000  0.471800  1.0  0.0959
  H  H159  1  0.014400  0.718800  0.472800  1.0  0.0778
  H  H160  1  0.132500  0.694300  0.452200  1.0  0.1038
  H  H161  1  0.117600  0.691300  0.635500  1.0  0.0934
  H  H162  1  0.066900  0.714700  0.624600  1.0  0.0938
  H  H163  1  0.167000  0.656000  0.575000  1.0  0.0946
  H  H164  1  0.081800  0.741400  0.406300  1.0  0.1038
  H  H165  1  0.024700  0.738700  0.401200  1.0  0.0956
  H  H166  1  0.055200  0.692600  0.408200  1.0  0.1072
  H  H167  1  0.187000  0.660700  0.501400  1.0  0.1034
  H  H168  1  0.081800  0.615000  0.625700  1.0  0.0989
  H  H169  1  0.053500  0.642200  0.662400  1.0  0.1178
  H  H170  1  0.031200  0.638600  0.615300  1.0  0.1134
  H  H171  1  0.052500  0.458400  0.686100  1.0  0.1075
  H  H172  1  0.011700  0.491400  0.706400  1.0  0.1188
  H  H173  1  0.027000  0.396200  0.641300  1.0  0.1072
  H  H174  1  0.900600  0.394200  0.574100  1.0  0.0945
  H  H175  1  0.846400  0.457700  0.576100  1.0  0.0876
  H  H176  1  0.860400  0.505000  0.599400  1.0  0.089
  H  H177  1  0.867500  0.669100  0.385200  1.0  0.0901
  H  H178  1  0.864800  0.654900  0.435200  1.0  0.0889
  H  H179  1  0.930600  0.617300  0.344000  1.0  0.1228
  H  H180  1  0.851600  0.451100  0.405800  1.0  0.1071
  H  H181  1  0.822700  0.481800  0.439700  1.0  0.0838
  H  H182  1  0.915200  0.478700  0.366000  1.0  0.111
  H  H183  1  0.055700  0.508200  0.620800  1.0  0.119
  H  H184  1  0.066600  0.540200  0.661400  1.0  0.1056
  H  H185  1  0.014400  0.540500  0.640000  1.0  0.1096
  H  H186  1  0.973900  0.358700  0.593500  1.0  0.1079
  H  H187  1  0.820800  0.425800  0.644000  1.0  0.1216
  H  H188  1  0.835700  0.472600  0.667700  1.0  0.1132
  H  H189  1  0.791800  0.472400  0.634700  1.0  0.1127
  H  H190  1  0.940600  0.699500  0.420700  1.0  0.1016
  H  H191  1  0.953000  0.649200  0.438400  1.0  0.0984
  H  H192  1  0.956900  0.659800  0.388200  1.0  0.1032
  H  H193  1  0.947500  0.540000  0.325000  1.0  0.1007
  H  H194  1  0.917200  0.442300  0.456600  1.0  0.1087
  H  H195  1  0.889600  0.474300  0.490300  1.0  0.1046
  H  H196  1  0.868600  0.424700  0.478400  1.0  0.1241
  H  H197  1  0.478400  0.334400  0.324300  1.0  0.1193
  H  H198  1  0.457000  0.406700  0.262800  1.0  0.1117
  H  H199  1  0.482100  0.451800  0.282600  1.0  0.1187
  H  H200  1  0.622900  0.315200  0.342000  1.0  0.1014
  H  H201  1  0.666100  0.414700  0.287000  1.0  0.1127
  H  H202  1  0.681200  0.363800  0.301800  1.0  0.1076
  H  H203  1  0.543000  0.288500  0.349100  1.0  0.0961
  H  H204  1  0.405300  0.435200  0.323200  1.0  0.1189
  H  H205  1  0.449800  0.432200  0.355500  1.0  0.1159
  H  H206  1  0.426300  0.386000  0.336900  1.0  0.109
  H  H207  1  0.713700  0.421100  0.353400  1.0  0.1195
  H  H208  1  0.677000  0.387700  0.377800  1.0  0.1031
  H  H209  1  0.660300  0.438200  0.363700  1.0  0.1162
  H  H210  1  0.391000  0.579600  0.518100  1.0  0.1163
  H  H211  1  0.490800  0.604900  0.529400  1.0  0.1098
  H  H212  1  0.501300  0.648700  0.499400  1.0  0.0994
  H  H213  1  0.362300  0.555100  0.391100  1.0  0.0944
  H  H214  1  0.400300  0.621000  0.339700  1.0  0.0937
  H  H215  1  0.455800  0.630700  0.348500  1.0  0.1039
  H  H216  1  0.683100  0.459100  0.593600  1.0  0.1075
  H  H217  1  0.723800  0.455300  0.487600  1.0  0.1144
  H  H218  1  0.735300  0.435000  0.534000  1.0  0.1107
  H  H219  1  0.597100  0.573000  0.581500  1.0  0.1106
  H  H220  1  0.590100  0.600400  0.494000  1.0  0.1397
  H  H221  1  0.643400  0.609600  0.478000  1.0  0.1263
  H  H222  1  0.342500  0.545500  0.464400  1.0  0.11
  H  H223  1  0.467500  0.675000  0.566900  1.0  0.1171
  H  H224  1  0.420900  0.643900  0.559100  1.0  0.1031
  H  H225  1  0.431000  0.687400  0.529000  1.0  0.1203
  H  H226  1  0.447200  0.576600  0.292900  1.0  0.1125
  H  H227  1  0.418300  0.542900  0.324200  1.0  0.1193
  H  H228  1  0.473900  0.552900  0.332600  1.0  0.109
  H  H229  1  0.623400  0.508700  0.621800  1.0  0.1045
  H  H230  1  0.808800  0.464900  0.504700  1.0  0.0455
  H  H231  1  0.794800  0.496700  0.544600  1.0  0.1069
  H  H232  1  0.784700  0.514200  0.496800  1.0  0.1453
  H  H233  1  0.609500  0.679400  0.506000  1.0  0.1059
  H  H234  1  0.654900  0.665300  0.534600  1.0  0.0986
  H  H235  1  0.601700  0.655500  0.551800  1.0  0.1114
  H  H236  1  0.546500  0.736000  0.528200  1.0  0.0937
  H  H237  1  0.514400  0.781200  0.527200  1.0  0.0773
  H  H238  1  0.632500  0.805700  0.547800  1.0  0.1034
  H  H239  1  0.617600  0.808700  0.364500  1.0  0.0934
  H  H240  1  0.566900  0.785300  0.375400  1.0  0.0947
  H  H241  1  0.667000  0.844000  0.425000  1.0  0.0949
  H  H242  1  0.581800  0.758600  0.593700  1.0  0.1037
  H  H243  1  0.524700  0.761300  0.598800  1.0  0.0958
  H  H244  1  0.555200  0.807400  0.591800  1.0  0.108
  H  H245  1  0.687000  0.839300  0.498600  1.0  0.1034
  H  H246  1  0.581800  0.885000  0.374300  1.0  0.0991
  H  H247  1  0.553500  0.857800  0.337600  1.0  0.1183
  H  H248  1  0.531200  0.861400  0.384700  1.0  0.1125
  H  H249  1  0.552500  0.041600  0.313900  1.0  0.1069
  H  H250  1  0.511700  0.008600  0.293600  1.0  0.119
  H  H251  1  0.527000  0.103800  0.358700  1.0  0.1066
  H  H252  1  0.400600  0.105800  0.425900  1.0  0.0943
  H  H253  1  0.346400  0.042300  0.423900  1.0  0.0865
  H  H254  1  0.360400  0.995000  0.400600  1.0  0.0894
  H  H255  1  0.367500  0.830900  0.614800  1.0  0.0912
  H  H256  1  0.364800  0.845100  0.564800  1.0  0.0872
  H  H257  1  0.430600  0.882700  0.656000  1.0  0.1226
  H  H258  1  0.351600  0.048900  0.594200  1.0  0.1078
  H  H259  1  0.322700  0.018200  0.560300  1.0  0.0853
  H  H260  1  0.415200  0.021300  0.634000  1.0  0.1103
  H  H261  1  0.555700  0.991800  0.379200  1.0  0.1181
  H  H262  1  0.566600  0.959800  0.338600  1.0  0.1055
  H  H263  1  0.514400  0.959500  0.360000  1.0  0.1101
  H  H264  1  0.473900  0.141300  0.406500  1.0  0.1075
  H  H265  1  0.320800  0.074200  0.356000  1.0  0.1249
  H  H266  1  0.335700  0.027400  0.332300  1.0  0.1126
  H  H267  1  0.291800  0.027600  0.365300  1.0  0.1111
  H  H268  1  0.440600  0.800500  0.579300  1.0  0.101
  H  H269  1  0.453000  0.850800  0.561600  1.0  0.0988
  H  H270  1  0.456900  0.840200  0.611800  1.0  0.1033
  H  H271  1  0.447500  0.960000  0.675000  1.0  0.1013
  H  H272  1  0.417200  0.057700  0.543400  1.0  0.1091
  H  H273  1  0.389600  0.025700  0.509700  1.0  0.1047
  H  H274  1  0.368600  0.075300  0.521600  1.0  0.1226
  H  H275  1  0.021600  0.665600  0.824300  1.0  0.1178
  H  H276  1  0.043000  0.593300  0.762800  1.0  0.1121
  H  H277  1  0.017900  0.548200  0.782600  1.0  0.1191
  H  H278  1  0.877100  0.684800  0.842000  1.0  0.1018
  H  H279  1  0.833900  0.585300  0.787000  1.0  0.1131
  H  H280  1  0.818800  0.636200  0.801800  1.0  0.1075
  H  H281  1  0.957000  0.711500  0.849100  1.0  0.0963
  H  H282  1  0.094700  0.564800  0.823200  1.0  0.117
  H  H283  1  0.050200  0.567800  0.855500  1.0  0.1148
  H  H284  1  0.073700  0.614000  0.836900  1.0  0.1091
  H  H285  1  0.786300  0.578900  0.853400  1.0  0.1229
  H  H286  1  0.823000  0.612300  0.877800  1.0  0.1038
  H  H287  1  0.839700  0.561800  0.863700  1.0  0.1162
  H  H288  1  0.109000  0.420400  0.018100  1.0  0.1159
  H  H289  1  0.009200  0.395100  0.029400  1.0  0.1087
  H  H290  1  0.998700  0.351300  0.999400  1.0  0.0997
  H  H291  1  0.137700  0.444900  0.891100  1.0  0.0945
  H  H292  1  0.099700  0.379000  0.839700  1.0  0.0913
  H  H293  1  0.044200  0.369300  0.848500  1.0  0.104
  H  H294  1  0.816900  0.540900  0.093600  1.0  0.1074
  H  H295  1  0.776200  0.544700  0.987600  1.0  0.1138
  H  H296  1  0.764700  0.565000  0.034000  1.0  0.109
  H  H297  1  0.902900  0.427000  0.081500  1.0  0.1104
  H  H298  1  0.909900  0.399600  0.994000  1.0  0.1404
  H  H299  1  0.856600  0.390400  0.978000  1.0  0.127
  H  H300  1  0.157500  0.454500  0.964400  1.0  0.1097
  H  H301  1  0.032500  0.325000  0.066900  1.0  0.1176
  H  H302  1  0.079100  0.356100  0.059100  1.0  0.1017
  H  H303  1  0.069000  0.312600  0.029000  1.0  0.1203
  H  H304  1  0.052800  0.423400  0.792900  1.0  0.1131
  H  H305  1  0.081700  0.457100  0.824200  1.0  0.1192
  H  H306  1  0.026100  0.447100  0.832600  1.0  0.1127
  H  H307  1  0.876600  0.491300  0.121800  1.0  0.1033
  H  H308  1  0.691200  0.535100  0.004700  1.0  0.0468
  H  H309  1  0.705200  0.503300  0.044600  1.0  0.1073
  H  H310  1  0.715300  0.485800  0.996800  1.0  0.1441
  H  H311  1  0.890500  0.320600  0.006000  1.0  0.1057
  H  H312  1  0.845100  0.334700  0.034600  1.0  0.0985
  H  H313  1  0.898300  0.344500  0.051800  1.0  0.1114
  H  H314  1  0.953500  0.264000  0.028200  1.0  0.0958
  H  H315  1  0.985600  0.218800  0.027200  1.0  0.0811
  H  H316  1  0.867500  0.194300  0.047800  1.0  0.1025
  H  H317  1  0.882400  0.191300  0.864500  1.0  0.0947
  H  H318  1  0.933100  0.214700  0.875400  1.0  0.0947
  H  H319  1  0.833000  0.156000  0.925000  1.0  0.0949
  H  H320  1  0.918200  0.241400  0.093700  1.0  0.103
  H  H321  1  0.975300  0.238700  0.098800  1.0  0.0952
  H  H322  1  0.944800  0.192600  0.091800  1.0  0.1053
  H  H323  1  0.813000  0.160700  0.998600  1.0  0.103
  H  H324  1  0.918200  0.115000  0.874300  1.0  0.0999
  H  H325  1  0.946500  0.142200  0.837600  1.0  0.1189
  H  H326  1  0.968800  0.138600  0.884700  1.0  0.1132
  H  H327  1  0.947500  0.958400  0.813900  1.0  0.1072
  H  H328  1  0.988300  0.991400  0.793600  1.0  0.1187
  H  H329  1  0.973000  0.896200  0.858700  1.0  0.1072
  H  H330  1  0.099400  0.894200  0.925900  1.0  0.0948
  H  H331  1  0.153600  0.957700  0.923900  1.0  0.0857
  H  H332  1  0.139600  0.005000  0.900600  1.0  0.0895
  H  H333  1  0.132500  0.169100  0.114800  1.0  0.0901
  H  H334  1  0.135200  0.154900  0.064800  1.0  0.0882
  H  H335  1  0.069400  0.117300  0.156000  1.0  0.1224
  H  H336  1  0.148400  0.951100  0.094200  1.0  0.1081
  H  H337  1  0.177300  0.981800  0.060300  1.0  0.0859
  H  H338  1  0.084800  0.978700  0.134000  1.0  0.1108
  H  H339  1  0.944300  0.008200  0.879200  1.0  0.1184
  H  H340  1  0.933400  0.040200  0.838600  1.0  0.1063
  H  H341  1  0.985600  0.040500  0.860000  1.0  0.11
  H  H342  1  0.026100  0.858700  0.906500  1.0  0.1076
  H  H343  1  0.179200  0.925800  0.856000  1.0  0.124
  H  H344  1  0.164300  0.972600  0.832300  1.0  0.114
  H  H345  1  0.208200  0.972400  0.865300  1.0  0.1142
  H  H346  1  0.059400  0.199500  0.079300  1.0  0.1013
  H  H347  1  0.047000  0.149200  0.061600  1.0  0.0981
  H  H348  1  0.043100  0.159800  0.111800  1.0  0.1035
  H  H349  1  0.052500  0.040000  0.175000  1.0  0.1016
  H  H350  1  0.082800  0.942300  0.043400  1.0  0.1134
  H  H351  1  0.110400  0.974300  0.009700  1.0  0.1056
  H  H352  1  0.131400  0.924700  0.021600  1.0  0.1199
  H  H353  1  0.636700  0.870400  0.616500  1.0  0.1095
  H  H354  1  0.713900  0.864600  0.585300  1.0  0.1008
  H  H355  1  0.781400  0.895400  0.621300  1.0  0.1031
  H  H356  1  0.603700  0.923200  0.718700  1.0  0.1064
  H  H357  1  0.583600  0.928100  0.670600  1.0  0.1019
  H  H358  1  0.787200  0.936000  0.730100  1.0  0.1048
  H  H359  1  0.820200  0.923500  0.689500  1.0  0.0938
  H  H360  1  0.822300  0.006800  0.701900  1.0  0.1116
  H  H361  1  0.765300  0.009100  0.696000  1.0  0.1245
  H  H362  1  0.798800  0.996700  0.656000  1.0  0.1044
  H  H363  1  0.552500  0.857400  0.707500  1.0  0.1066
  H  H364  1  0.606200  0.837900  0.707500  1.0  0.1104
  H  H365  1  0.578500  0.845600  0.663100  1.0  0.1067
  H  H366  1  0.544500  0.669200  0.729100  1.0  0.1122
  H  H367  1  0.518200  0.705500  0.759500  1.0  0.1188
  H  H368  1  0.660400  0.633200  0.876100  1.0  0.0961
  H  H369  1  0.654000  0.593300  0.810100  1.0  0.1067
  H  H370  1  0.606900  0.624200  0.753900  1.0  0.1187
  H  H371  1  0.543400  0.744400  0.695400  1.0  0.1023
  H  H372  1  0.597800  0.729000  0.703200  1.0  0.1158
  H  H373  1  0.573100  0.765500  0.734700  1.0  0.118
  H  H374  1  0.637300  0.747300  0.895200  1.0  0.1257
  H  H375  1  0.588900  0.724900  0.912600  1.0  0.1457
  H  H376  1  0.650400  0.718600  0.965500  1.0  0.109
  H  H377  1  0.683000  0.689500  0.933000  1.0  0.0978
  H  H378  1  0.634200  0.668000  0.951100  1.0  0.1122
  H  H379  1  0.919200  0.867300  0.912900  1.0  0.0978
  H  H380  1  0.952000  0.792100  0.910000  1.0  0.1071
  H  H381  1  0.901200  0.727100  0.917300  1.0  0.1042
  H  H382  1  0.821700  0.695300  0.950000  1.0  0.1083
  H  H383  1  0.780600  0.732100  0.961700  1.0  0.0962
  H  H384  1  0.851300  0.919300  0.934700  1.0  0.1087
  H  H385  1  0.799900  0.897700  0.945200  1.0  0.1046
  H  H386  1  0.752000  0.680700  0.904100  1.0  0.1134
  H  H387  1  0.795600  0.697100  0.874400  1.0  0.1102
  H  H388  1  0.753900  0.732600  0.886800  1.0  0.1065
  H  H389  1  0.794400  0.947300  0.882300  1.0  0.0934
  H  H390  1  0.781000  0.895600  0.868900  1.0  0.1127
  H  H391  1  0.832900  0.915900  0.857900  1.0  0.1142
  H  H392  1  0.691600  0.878900  0.060300  1.0  0.0968
  H  H393  1  0.661200  0.894800  0.100700  1.0  0.1607
  H  H394  1  0.725600  0.725400  0.068100  1.0  0.0952
  H  H395  1  0.699900  0.712600  0.024200  1.0  0.131
  H  H396  1  0.722400  0.643600  0.063200  1.0  0.0919
  H  H397  1  0.665600  0.644300  0.056000  1.0  0.108
  H  H398  1  0.687600  0.657800  0.101700  1.0  0.1213
  H  H399  1  0.651000  0.950100  0.044200  1.0  0.1148
  H  H400  1  0.600000  0.926700  0.053100  1.0  0.1108
  H  H401  1  0.631300  0.911200  0.012500  1.0  0.119
  H  H402  1  0.832800  0.822900  0.365900  1.0  0.1038
  H  H403  1  0.755100  0.830700  0.395700  1.0  0.1091
  H  H404  1  0.698400  0.880400  0.363200  1.0  0.1003
  H  H405  1  0.674500  0.914700  0.287900  1.0  0.1501
  H  H406  1  0.714900  0.946700  0.267300  1.0  0.119
  H  H407  1  0.887200  0.896900  0.298300  1.0  0.1417
  H  H408  1  0.872100  0.855700  0.268000  1.0  0.1082
  H  H409  1  0.946600  0.840400  0.299600  1.0  0.0981
  H  H410  1  0.909100  0.802100  0.315100  1.0  0.1058
  H  H411  1  0.923700  0.843400  0.346500  1.0  0.1151
  H  H412  1  0.660600  0.994900  0.309400  1.0  0.1048
  H  H413  1  0.712500  0.996900  0.331400  1.0  0.1107
  H  H414  1  0.671300  0.965000  0.351400  1.0  0.1158
  H  H415  1  0.840500  0.607200  0.114100  1.0  0.1147
  H  H416  1  0.839500  0.562500  0.177600  1.0  0.1059
  H  H417  1  0.878800  0.589500  0.240000  1.0  0.1069
  H  H418  1  0.878800  0.669900  0.069300  1.0  0.105
  H  H419  1  0.883400  0.718400  0.093700  1.0  0.1121
  H  H420  1  0.873200  0.705300  0.253700  1.0  0.1433
  H  H421  1  0.886200  0.661000  0.281600  1.0  0.1203
  H  H422  1  0.801300  0.713300  0.066400  1.0  0.09
  H  H423  1  0.798000  0.710300  0.117500  1.0  0.1027
  H  H424  1  0.793900  0.664500  0.089300  1.0  0.0812
  H  H425  1  0.938500  0.724800  0.299700  1.0  0.1104
  H  H426  1  0.958300  0.725500  0.251500  1.0  0.1011
  H  H427  1  0.969500  0.682400  0.282000  1.0  0.1078
  H  H428  1  0.863300  0.129600  0.116500  1.0  0.1094
  H  H429  1  0.786100  0.135400  0.085300  1.0  0.1012
  H  H430  1  0.718600  0.104600  0.121300  1.0  0.103
  H  H431  1  0.896300  0.076800  0.218700  1.0  0.1059
  H  H432  1  0.916400  0.071900  0.170600  1.0  0.1006
  H  H433  1  0.712800  0.064000  0.230100  1.0  0.1051
  H  H434  1  0.679800  0.076500  0.189500  1.0  0.0945
  H  H435  1  0.677700  0.993200  0.201900  1.0  0.1098
  H  H436  1  0.734700  0.990900  0.196000  1.0  0.1256
  H  H437  1  0.701200  0.003300  0.156000  1.0  0.1047
  H  H438  1  0.947500  0.142600  0.207500  1.0  0.1037
  H  H439  1  0.893800  0.162100  0.207500  1.0  0.1108
  H  H440  1  0.921500  0.154400  0.163100  1.0  0.1057
  H  H441  1  0.955500  0.330800  0.229100  1.0  0.113
  H  H442  1  0.981800  0.294500  0.259500  1.0  0.1209
  H  H443  1  0.839600  0.366800  0.376100  1.0  0.095
  H  H444  1  0.846000  0.406700  0.310100  1.0  0.1068
  H  H445  1  0.893100  0.375800  0.253900  1.0  0.1184
  H  H446  1  0.956600  0.255600  0.195400  1.0  0.1027
  H  H447  1  0.902200  0.271000  0.203200  1.0  0.118
  H  H448  1  0.926900  0.234500  0.234700  1.0  0.1173
  H  H449  1  0.862700  0.252700  0.395200  1.0  0.1258
  H  H450  1  0.911100  0.275100  0.412600  1.0  0.1436
  H  H451  1  0.849600  0.281400  0.465500  1.0  0.1078
  H  H452  1  0.817000  0.310500  0.433000  1.0  0.0957
  H  H453  1  0.865800  0.332000  0.451100  1.0  0.1122
  H  H454  1  0.580800  0.132700  0.412900  1.0  0.0982
  H  H455  1  0.548000  0.207900  0.410000  1.0  0.1075
  H  H456  1  0.598800  0.272900  0.417300  1.0  0.1046
  H  H457  1  0.678300  0.304700  0.450000  1.0  0.1079
  H  H458  1  0.719400  0.267900  0.461700  1.0  0.0971
  H  H459  1  0.648700  0.080700  0.434700  1.0  0.1085
  H  H460  1  0.700100  0.102300  0.445200  1.0  0.1052
  H  H461  1  0.748000  0.319300  0.404100  1.0  0.1139
  H  H462  1  0.704400  0.302900  0.374400  1.0  0.1106
  H  H463  1  0.746100  0.267400  0.386800  1.0  0.1051
  H  H464  1  0.705600  0.052700  0.382300  1.0  0.0949
  H  H465  1  0.719000  0.104400  0.368900  1.0  0.1122
  H  H466  1  0.667100  0.084100  0.357900  1.0  0.1144
  H  H467  1  0.808400  0.121100  0.560300  1.0  0.0943
  H  H468  1  0.838800  0.105200  0.600700  1.0  0.1614
  H  H469  1  0.774400  0.274600  0.568100  1.0  0.0954
  H  H470  1  0.800100  0.287400  0.524200  1.0  0.131
  H  H471  1  0.777600  0.356400  0.563200  1.0  0.0923
  H  H472  1  0.834400  0.355700  0.556000  1.0  0.1062
  H  H473  1  0.812400  0.342200  0.601700  1.0  0.1203
  H  H474  1  0.849000  0.049900  0.544200  1.0  0.1129
  H  H475  1  0.900000  0.073300  0.553100  1.0  0.1097
  H  H476  1  0.868700  0.088800  0.512500  1.0  0.1196
  H  H477  1  0.667200  0.177100  0.865900  1.0  0.1041
  H  H478  1  0.744900  0.169300  0.895700  1.0  0.1088
  H  H479  1  0.801600  0.119600  0.863200  1.0  0.1007
  H  H480  1  0.825500  0.085300  0.787900  1.0  0.1488
  H  H481  1  0.785100  0.053300  0.767300  1.0  0.1191
  H  H482  1  0.612800  0.103100  0.798300  1.0  0.1417
  H  H483  1  0.627900  0.144300  0.768000  1.0  0.1085
  H  H484  1  0.553400  0.159600  0.799600  1.0  0.1027
  H  H485  1  0.590900  0.197900  0.815100  1.0  0.1077
  H  H486  1  0.576300  0.156600  0.846500  1.0  0.1152
  H  H487  1  0.839400  0.005100  0.809400  1.0  0.1046
  H  H488  1  0.787500  0.003100  0.831400  1.0  0.1097
  H  H489  1  0.828700  0.035000  0.851400  1.0  0.1162
  H  H490  1  0.659500  0.392800  0.614100  1.0  0.1159
  H  H491  1  0.660500  0.437500  0.677600  1.0  0.1054
  H  H492  1  0.621200  0.410500  0.740000  1.0  0.1065
  H  H493  1  0.621200  0.330100  0.569300  1.0  0.1065
  H  H494  1  0.616600  0.281600  0.593700  1.0  0.1122
  H  H495  1  0.626800  0.294700  0.753700  1.0  0.1413
  H  H496  1  0.613800  0.339000  0.781600  1.0  0.119
  H  H497  1  0.698700  0.286700  0.566400  1.0  0.0888
  H  H498  1  0.702000  0.289700  0.617500  1.0  0.103
  H  H499  1  0.706100  0.335500  0.589300  1.0  0.082
  H  H500  1  0.561500  0.275200  0.799700  1.0  0.1101
  H  H501  1  0.541700  0.274500  0.751500  1.0  0.1013
  H  H502  1  0.530500  0.317600  0.782000  1.0  0.108
  H  H503  1  0.363300  0.370400  0.883500  1.0  0.11
  H  H504  1  0.286100  0.364600  0.914700  1.0  0.1014
  H  H505  1  0.218600  0.395400  0.878700  1.0  0.1027
  H  H506  1  0.396300  0.423200  0.781300  1.0  0.1064
  H  H507  1  0.416400  0.428100  0.829400  1.0  0.1003
  H  H508  1  0.212800  0.436000  0.769900  1.0  0.1052
  H  H509  1  0.179800  0.423500  0.810500  1.0  0.0949
  H  H510  1  0.177700  0.506800  0.798100  1.0  0.1099
  H  H511  1  0.234700  0.509100  0.804000  1.0  0.1263
  H  H512  1  0.201200  0.496700  0.844000  1.0  0.104
  H  H513  1  0.447500  0.357400  0.792500  1.0  0.1032
  H  H514  1  0.393800  0.337900  0.792500  1.0  0.1107
  H  H515  1  0.421500  0.345600  0.836900  1.0  0.1059
  H  H516  1  0.455500  0.169200  0.770900  1.0  0.1129
  H  H517  1  0.481800  0.205500  0.740500  1.0  0.121
  H  H518  1  0.339600  0.133200  0.623900  1.0  0.0945
  H  H519  1  0.346000  0.093300  0.689900  1.0  0.1072
  H  H520  1  0.393100  0.124200  0.746100  1.0  0.1189
  H  H521  1  0.456600  0.244400  0.804600  1.0  0.1034
  H  H522  1  0.402200  0.229000  0.796800  1.0  0.1193
  H  H523  1  0.426900  0.265500  0.765300  1.0  0.118
  H  H524  1  0.362700  0.247300  0.604800  1.0  0.1254
  H  H525  1  0.411100  0.224900  0.587400  1.0  0.1458
  H  H526  1  0.349600  0.218600  0.534500  1.0  0.1106
  H  H527  1  0.317000  0.189500  0.567000  1.0  0.0945
  H  H528  1  0.365800  0.168000  0.548900  1.0  0.1125
  H  H529  1  0.080800  0.367300  0.587100  1.0  0.0986
  H  H530  1  0.048000  0.292100  0.590000  1.0  0.1076
  H  H531  1  0.098800  0.227100  0.582700  1.0  0.1042
  H  H532  1  0.178300  0.195300  0.550000  1.0  0.1087
  H  H533  1  0.219400  0.232100  0.538300  1.0  0.0973
  H  H534  1  0.148700  0.419300  0.565300  1.0  0.1093
  H  H535  1  0.200100  0.397700  0.554800  1.0  0.1029
  H  H536  1  0.248000  0.180700  0.595900  1.0  0.1137
  H  H537  1  0.204400  0.197100  0.625600  1.0  0.1111
  H  H538  1  0.246100  0.232600  0.613200  1.0  0.1057
  H  H539  1  0.205600  0.447300  0.617700  1.0  0.0933
  H  H540  1  0.219000  0.395600  0.631100  1.0  0.1127
  H  H541  1  0.167100  0.415900  0.642100  1.0  0.1141
  H  H542  1  0.308400  0.378900  0.439700  1.0  0.0941
  H  H543  1  0.338800  0.394800  0.399300  1.0  0.1617
  H  H544  1  0.274400  0.225400  0.431900  1.0  0.0951
  H  H545  1  0.300100  0.212600  0.475800  1.0  0.1296
  H  H546  1  0.277600  0.143600  0.436800  1.0  0.0919
  H  H547  1  0.334400  0.144300  0.444000  1.0  0.1063
  H  H548  1  0.312400  0.157800  0.398300  1.0  0.1219
  H  H549  1  0.349000  0.450100  0.455800  1.0  0.1158
  H  H550  1  0.400000  0.426700  0.446900  1.0  0.1095
  H  H551  1  0.368700  0.411200  0.487500  1.0  0.1175
  H  H552  1  0.167200  0.322900  0.134100  1.0  0.1038
  H  H553  1  0.244900  0.330700  0.104300  1.0  0.1093
  H  H554  1  0.301600  0.380400  0.136800  1.0  0.1003
  H  H555  1  0.325500  0.414700  0.212100  1.0  0.1469
  H  H556  1  0.285100  0.446700  0.232700  1.0  0.1184
  H  H557  1  0.112800  0.396900  0.201700  1.0  0.1418
  H  H558  1  0.127900  0.355700  0.232000  1.0  0.1079
  H  H559  1  0.053400  0.340400  0.200400  1.0  0.1024
  H  H560  1  0.090900  0.302100  0.184900  1.0  0.1056
  H  H561  1  0.076300  0.343400  0.153500  1.0  0.1153
  H  H562  1  0.339400  0.494900  0.190600  1.0  0.1046
  H  H563  1  0.287500  0.496900  0.168600  1.0  0.1078
  H  H564  1  0.328700  0.465000  0.148600  1.0  0.1167
  H  H565  1  0.159500  0.107200  0.385900  1.0  0.1164
  H  H566  1  0.160500  0.062500  0.322400  1.0  0.106
  H  H567  1  0.121200  0.089500  0.260000  1.0  0.1064
  H  H568  1  0.121200  0.169900  0.430700  1.0  0.1082
  H  H569  1  0.116600  0.218400  0.406300  1.0  0.1123
  H  H570  1  0.126800  0.205300  0.246300  1.0  0.1418
  H  H571  1  0.113800  0.161000  0.218400  1.0  0.1176
  H  H572  1  0.198700  0.213300  0.433600  1.0  0.0885
  H  H573  1  0.202000  0.210300  0.382500  1.0  0.1019
  H  H574  1  0.206100  0.164500  0.410700  1.0  0.0801
  H  H575  1  0.061500  0.224800  0.200300  1.0  0.111
  H  H576  1  0.041700  0.225500  0.248500  1.0  0.1006
  H  H577  1  0.030500  0.182400  0.218000  1.0  0.1075
  H  H578  1  0.136700  0.629600  0.383500  1.0  0.1097
  H  H579  1  0.213900  0.635400  0.414700  1.0  0.1008
  H  H580  1  0.281400  0.604600  0.378700  1.0  0.103
  H  H581  1  0.103700  0.576800  0.281300  1.0  0.1069
  H  H582  1  0.083600  0.571900  0.329400  1.0  0.1005
  H  H583  1  0.287200  0.564000  0.269900  1.0  0.1046
  H  H584  1  0.320200  0.576500  0.310500  1.0  0.0936
  H  H585  1  0.322300  0.493200  0.298100  1.0  0.111
  H  H586  1  0.265300  0.490900  0.304000  1.0  0.1254
  H  H587  1  0.298800  0.503300  0.344000  1.0  0.104
  H  H588  1  0.052500  0.642600  0.292500  1.0  0.1057
  H  H589  1  0.106200  0.662100  0.292500  1.0  0.1112
  H  H590  1  0.078500  0.654400  0.336900  1.0  0.1046
  H  H591  1  0.044500  0.830800  0.270900  1.0  0.1125
  H  H592  1  0.018200  0.794500  0.240500  1.0  0.1203
  H  H593  1  0.160400  0.866800  0.123900  1.0  0.0951
  H  H594  1  0.154000  0.906700  0.189900  1.0  0.1071
  H  H595  1  0.106900  0.875800  0.246100  1.0  0.1182
  H  H596  1  0.043400  0.755600  0.304600  1.0  0.1029
  H  H597  1  0.097800  0.771000  0.296800  1.0  0.1146
  H  H598  1  0.073100  0.734500  0.265300  1.0  0.1175
  H  H599  1  0.137300  0.752700  0.104800  1.0  0.1261
  H  H600  1  0.088900  0.775100  0.087400  1.0  0.1452
  H  H601  1  0.150400  0.781400  0.034500  1.0  0.1087
  H  H602  1  0.183000  0.810500  0.067000  1.0  0.0968
  H  H603  1  0.134200  0.832000  0.048900  1.0  0.1124
  H  H604  1  0.419200  0.632700  0.087100  1.0  0.0978
  H  H605  1  0.452000  0.707900  0.090000  1.0  0.1074
  H  H606  1  0.401200  0.772900  0.082700  1.0  0.1054
  H  H607  1  0.321700  0.804700  0.050000  1.0  0.1074
  H  H608  1  0.280600  0.767900  0.038300  1.0  0.0973
  H  H609  1  0.351300  0.580700  0.065300  1.0  0.1076
  H  H610  1  0.299900  0.602300  0.054800  1.0  0.1033
  H  H611  1  0.252000  0.819300  0.095900  1.0  0.1145
  H  H612  1  0.295600  0.802900  0.125600  1.0  0.1115
  H  H613  1  0.253900  0.767400  0.113200  1.0  0.1059
  H  H614  1  0.294400  0.552700  0.117700  1.0  0.0947
  H  H615  1  0.281000  0.604400  0.131100  1.0  0.1123
  H  H616  1  0.332900  0.584100  0.142100  1.0  0.1137
  H  H617  1  0.191600  0.621100  0.939700  1.0  0.0969
  H  H618  1  0.161200  0.605200  0.899300  1.0  0.1622
  H  H619  1  0.225600  0.774600  0.931900  1.0  0.0947
  H  H620  1  0.199900  0.787400  0.975800  1.0  0.13
  H  H621  1  0.222400  0.856400  0.936800  1.0  0.0929
  H  H622  1  0.165600  0.855700  0.944000  1.0  0.1072
  H  H623  1  0.187600  0.842200  0.898300  1.0  0.122
  H  H624  1  0.151000  0.549900  0.955800  1.0  0.1117
  H  H625  1  0.100000  0.573300  0.946900  1.0  0.1124
  H  H626  1  0.131300  0.588800  0.987500  1.0  0.1192
  H  H627  1  0.332800  0.677100  0.634100  1.0  0.1032
  H  H628  1  0.255100  0.669300  0.604300  1.0  0.1089
  H  H629  1  0.198400  0.619600  0.636800  1.0  0.1004
  H  H630  1  0.174500  0.585300  0.712100  1.0  0.149
  H  H631  1  0.214900  0.553300  0.732700  1.0  0.1179
  H  H632  1  0.387200  0.603100  0.701700  1.0  0.1425
  H  H633  1  0.372100  0.644300  0.732000  1.0  0.107
  H  H634  1  0.446600  0.659600  0.700400  1.0  0.0977
  H  H635  1  0.409100  0.697900  0.684900  1.0  0.1081
  H  H636  1  0.423700  0.656600  0.653500  1.0  0.1149
  H  H637  1  0.160600  0.505100  0.690600  1.0  0.1049
  H  H638  1  0.212500  0.503100  0.668600  1.0  0.1098
  H  H639  1  0.171300  0.535000  0.648600  1.0  0.1163
  H  H640  1  0.340500  0.892800  0.885900  1.0  0.1155
  H  H641  1  0.339500  0.937500  0.822400  1.0  0.1049
  H  H642  1  0.378800  0.910500  0.760000  1.0  0.1064
  H  H643  1  0.378800  0.830100  0.930700  1.0  0.1057
  H  H644  1  0.383400  0.781600  0.906300  1.0  0.1121
  H  H645  1  0.373200  0.794700  0.746300  1.0  0.1439
  H  H646  1  0.386200  0.839000  0.718400  1.0  0.1194
  H  H647  1  0.301300  0.786700  0.933600  1.0  0.0897
  H  H648  1  0.298000  0.789700  0.882500  1.0  0.1024
  H  H649  1  0.293900  0.835500  0.910700  1.0  0.0827
  H  H650  1  0.438500  0.775200  0.700300  1.0  0.1104
  H  H651  1  0.458300  0.774500  0.748500  1.0  0.1006
  H  H652  1  0.469500  0.817600  0.718000  1.0  0.1072
  C  C653  1  0.418700  0.986600  0.196400  1.0  0.5162
  C  C654  1  0.432500  0.904500  0.202000  1.0  0.24
  C  C655  1  0.408200  0.030800  0.221100  1.0  0.5787
  C  C656  1  0.480400  0.888500  0.197700  1.0  0.0295
  C  C657  1  0.393800  0.877000  0.187100  1.0  0.0206
  C  C658  1  0.489500  0.845000  0.178500  1.0  -0.1225
  C  C659  1  0.527600  0.919700  0.211300  1.0  -0.2611
  C  C660  1  0.403000  0.833600  0.168000  1.0  -0.0901
  C  C661  1  0.338200  0.891100  0.190400  1.0  -0.3028
  C  C662  1  0.450900  0.817600  0.163700  1.0  -0.1126
  C  C663  1  0.565500  0.918100  0.169600  1.0  -0.3352
  C  C664  1  0.320000  0.912000  0.144200  1.0  -0.3256
  C  C665  1  0.466200  0.118000  0.095500  1.0  0.5546
  C  C666  1  0.423800  0.150200  0.099900  1.0  0.6101
  C  C667  1  0.321900  0.038900  0.065100  1.0  0.4115
  C  C668  1  0.296600  0.047900  0.104100  1.0  0.629
  C  C669  1  0.548200  0.115200  0.067000  1.0  0.0143
  C  C670  1  0.323200  0.032400  0.987700  1.0  0.2243
  C  C671  1  0.560100  0.109500  0.023100  1.0  0.0579
  C  C672  1  0.577300  0.094800  0.099100  1.0  0.0649
  C  C673  1  0.307400  0.993800  0.963500  1.0  0.0476
  C  C674  1  0.359000  0.062100  0.970800  1.0  0.0465
  C  C675  1  0.601000  0.083400  0.011300  1.0  -0.137
  C  C676  1  0.524400  0.130400  0.986700  1.0  -0.2798
  C  C677  1  0.618200  0.068700  0.087400  1.0  -0.1064
  C  C678  1  0.569700  0.107100  0.149100  1.0  -0.2395
  C  C679  1  0.516200  0.298800  0.053200  1.0  0.6349
  C  C680  1  0.432200  0.293100  0.040500  1.0  0.159
  C  C681  1  0.562600  0.272800  0.059200  1.0  0.6441
  C  C682  1  0.327400  0.984900  0.922500  1.0  -0.0799
  C  C683  1  0.266900  0.963800  0.982800  1.0  -0.2392
  C  C684  1  0.379000  0.053200  0.929800  1.0  -0.0848
  C  C685  1  0.376800  0.106800  0.996100  1.0  -0.2769
  C  C686  1  0.630100  0.063000  0.043400  1.0  -0.1037
  C  C687  1  0.554100  0.162200  0.954900  1.0  -0.3244
  C  C688  1  0.556400  0.066200  0.177400  1.0  -0.3077
  C  C689  1  0.420200  0.290300  0.996400  1.0  0.0992
  C  C690  1  0.399500  0.313200  0.070000  1.0  0.0741
  C  C691  1  0.363200  0.014600  0.905700  1.0  -0.0995
  C  C692  1  0.214500  0.987200  0.984300  1.0  -0.3206
  C  C693  1  0.378000  0.156600  0.973800  1.0  -0.2991
  C  C694  1  0.453200  0.269500  0.965700  1.0  -0.1264
  C  C695  1  0.375500  0.307600  0.981700  1.0  -0.2353
  C  C696  1  0.412100  0.312100  0.118500  1.0  -0.2525
  C  C697  1  0.354900  0.330500  0.055300  1.0  -0.0769
  C  C698  1  0.447000  0.275000  0.915600  1.0  -0.3164
  C  C699  1  0.342900  0.327700  0.011200  1.0  -0.1165
  C  C700  1  0.439000  0.358600  0.131700  1.0  -0.3278
  C  C701  1  0.583600  0.396800  0.156000  1.0  0.6378
  C  C702  1  0.570600  0.441000  0.131300  1.0  0.5779
  C  C703  1  0.644400  0.409700  0.995300  1.0  0.5937
  C  C704  1  0.679900  0.403700  0.031500  1.0  0.682
  C  C705  1  0.558400  0.524500  0.139100  1.0  0.1317
  C  C706  1  0.631100  0.434300  0.921100  1.0  0.068
  C  C707  1  0.514500  0.545800  0.150600  1.0  0.0515
  C  C708  1  0.590300  0.547000  0.110400  1.0  0.082
  C  C709  1  0.611700  0.397600  0.896500  1.0  0.1351
  C  C710  1  0.621000  0.480600  0.909700  1.0  0.0466
  C  C711  1  0.474600  0.520700  0.179400  1.0  -0.2437
  C  C712  1  0.502400  0.589500  0.133500  1.0  -0.1024
  C  C713  1  0.578100  0.590800  0.093300  1.0  -0.1252
  C  C714  1  0.640900  0.528900  0.103100  1.0  -0.189
  C  C715  1  0.616800  0.348800  0.908300  1.0  -0.1924
  C  C716  1  0.582300  0.407300  0.860500  1.0  -0.1191
  C  C717  1  0.644800  0.525900  0.929000  1.0  -0.2087
  C  C718  1  0.591500  0.490300  0.873700  1.0  -0.1593
  C  C719  1  0.457800  0.478700  0.147100  1.0  -0.325
  C  C720  1  0.534200  0.612000  0.104900  1.0  -0.1413
  C  C721  1  0.676600  0.540700  0.141000  1.0  -0.304
  C  C722  1  0.561000  0.333600  0.914500  1.0  -0.3218
  C  C723  1  0.572200  0.453600  0.849100  1.0  -0.1049
  C  C724  1  0.614400  0.548300  0.967300  1.0  -0.3142
  C  C725  1  0.081300  0.013400  0.696400  1.0  0.5154
  C  C726  1  0.067500  0.095500  0.702000  1.0  0.2399
  C  C727  1  0.091800  0.969200  0.721100  1.0  0.5818
  C  C728  1  0.019600  0.111500  0.697700  1.0  0.0284
  C  C729  1  0.106200  0.123000  0.687100  1.0  0.022
  C  C730  1  0.010500  0.155000  0.678500  1.0  -0.1243
  C  C731  1  0.972400  0.080300  0.711300  1.0  -0.2615
  C  C732  1  0.097000  0.166400  0.668000  1.0  -0.0904
  C  C733  1  0.161800  0.108900  0.690400  1.0  -0.3008
  C  C734  1  0.049100  0.182400  0.663700  1.0  -0.1146
  C  C735  1  0.934500  0.081900  0.669600  1.0  -0.3349
  C  C736  1  0.180000  0.088000  0.644200  1.0  -0.3265
  C  C737  1  0.033800  0.882000  0.595500  1.0  0.5556
  C  C738  1  0.076200  0.849800  0.599900  1.0  0.6119
  C  C739  1  0.178100  0.961100  0.565100  1.0  0.41
  C  C740  1  0.203400  0.952100  0.604100  1.0  0.6313
  C  C741  1  0.951800  0.884800  0.567000  1.0  0.0133
  C  C742  1  0.176800  0.967600  0.487700  1.0  0.2228
  C  C743  1  0.939900  0.890500  0.523100  1.0  0.0568
  C  C744  1  0.922700  0.905200  0.599100  1.0  0.0644
  C  C745  1  0.192600  0.006200  0.463500  1.0  0.0483
  C  C746  1  0.141000  0.937900  0.470800  1.0  0.0462
  C  C747  1  0.899000  0.916600  0.511300  1.0  -0.1379
  C  C748  1  0.975600  0.869600  0.486700  1.0  -0.2797
  C  C749  1  0.881800  0.931300  0.587400  1.0  -0.107
  C  C750  1  0.930300  0.892900  0.649100  1.0  -0.2378
  C  C751  1  0.983800  0.701200  0.553200  1.0  0.6359
  C  C752  1  0.067800  0.706900  0.540500  1.0  0.1595
  C  C753  1  0.937400  0.727200  0.559200  1.0  0.6408
  C  C754  1  0.172600  0.015100  0.422500  1.0  -0.0823
  C  C755  1  0.233100  0.036200  0.482800  1.0  -0.2381
  C  C756  1  0.121000  0.946800  0.429800  1.0  -0.0832
  C  C757  1  0.123200  0.893200  0.496100  1.0  -0.2762
  C  C758  1  0.869900  0.937000  0.543400  1.0  -0.1043
  C  C759  1  0.945900  0.837800  0.454900  1.0  -0.3231
  C  C760  1  0.943600  0.933800  0.677400  1.0  -0.3067
  C  C761  1  0.079800  0.709700  0.496400  1.0  0.1002
  C  C762  1  0.100500  0.686800  0.570000  1.0  0.0743
  C  C763  1  0.136800  0.985400  0.405700  1.0  -0.0975
  C  C764  1  0.285500  0.012800  0.484300  1.0  -0.3221
  C  C765  1  0.122000  0.843400  0.473800  1.0  -0.3008
  C  C766  1  0.046800  0.730500  0.465700  1.0  -0.1248
  C  C767  1  0.124500  0.692400  0.481700  1.0  -0.2327
  C  C768  1  0.087900  0.687900  0.618500  1.0  -0.2529
  C  C769  1  0.145100  0.669500  0.555300  1.0  -0.0769
  C  C770  1  0.053000  0.725000  0.415600  1.0  -0.3171
  C  C771  1  0.157100  0.672300  0.511200  1.0  -0.114
  C  C772  1  0.061000  0.641400  0.631700  1.0  -0.3302
  C  C773  1  0.916400  0.603200  0.656000  1.0  0.6403
  C  C774  1  0.929400  0.559000  0.631300  1.0  0.5789
  C  C775  1  0.855600  0.590300  0.495300  1.0  0.5937
  C  C776  1  0.820100  0.596300  0.531500  1.0  0.6791
  C  C777  1  0.941600  0.475500  0.639100  1.0  0.1324
  C  C778  1  0.868900  0.565700  0.421100  1.0  0.0688
  C  C779  1  0.985500  0.454200  0.650600  1.0  0.0506
  C  C780  1  0.909700  0.453000  0.610400  1.0  0.0823
  C  C781  1  0.888300  0.602400  0.396500  1.0  0.1347
  C  C782  1  0.879000  0.519400  0.409700  1.0  0.0475
  C  C783  1  0.025400  0.479300  0.679400  1.0  -0.2454
  C  C784  1  0.997600  0.410500  0.633500  1.0  -0.1022
  C  C785  1  0.921900  0.409200  0.593300  1.0  -0.1248
  C  C786  1  0.859100  0.471100  0.603100  1.0  -0.1886
  C  C787  1  0.883200  0.651200  0.408300  1.0  -0.1877
  C  C788  1  0.917700  0.592700  0.360500  1.0  -0.1192
  C  C789  1  0.855200  0.474100  0.429000  1.0  -0.2094
  C  C790  1  0.908500  0.509700  0.373700  1.0  -0.1584
  C  C791  1  0.042200  0.521300  0.647100  1.0  -0.3261
  C  C792  1  0.965800  0.388000  0.604900  1.0  -0.1411
  C  C793  1  0.823400  0.459300  0.641000  1.0  -0.3049
  C  C794  1  0.939000  0.666400  0.414500  1.0  -0.3195
  C  C795  1  0.927800  0.546400  0.349100  1.0  -0.1039
  C  C796  1  0.885600  0.451700  0.467300  1.0  -0.3154
  C  C797  1  0.581300  0.486600  0.303600  1.0  0.5153
  C  C798  1  0.567500  0.404500  0.298000  1.0  0.2408
  C  C799  1  0.591800  0.530800  0.278900  1.0  0.5804
  C  C800  1  0.519600  0.388500  0.302300  1.0  0.0281
  C  C801  1  0.606200  0.377000  0.312900  1.0  0.0204
  C  C802  1  0.510500  0.345000  0.321500  1.0  -0.1227
  C  C803  1  0.472400  0.419700  0.288700  1.0  -0.2607
  C  C804  1  0.597000  0.333600  0.332000  1.0  -0.0913
  C  C805  1  0.661800  0.391100  0.309600  1.0  -0.3002
  C  C806  1  0.549100  0.317600  0.336300  1.0  -0.1127
  C  C807  1  0.434500  0.418100  0.330400  1.0  -0.3348
  C  C808  1  0.680000  0.412000  0.355800  1.0  -0.3271
  C  C809  1  0.533800  0.618000  0.404500  1.0  0.5551
  C  C810  1  0.576200  0.650200  0.400100  1.0  0.6092
  C  C811  1  0.678100  0.538900  0.434900  1.0  0.4097
  C  C812  1  0.703400  0.547900  0.395900  1.0  0.6316
  C  C813  1  0.451800  0.615200  0.433000  1.0  0.0142
  C  C814  1  0.676800  0.532400  0.512300  1.0  0.2226
  C  C815  1  0.439900  0.609500  0.476900  1.0  0.057
  C  C816  1  0.422700  0.594800  0.400900  1.0  0.0646
  C  C817  1  0.692600  0.493800  0.536500  1.0  0.0489
  C  C818  1  0.641000  0.562100  0.529200  1.0  0.0464
  C  C819  1  0.399000  0.583400  0.488700  1.0  -0.1371
  C  C820  1  0.475600  0.630400  0.513300  1.0  -0.2803
  C  C821  1  0.381800  0.568700  0.412600  1.0  -0.1064
  C  C822  1  0.430300  0.607100  0.350900  1.0  -0.2404
  C  C823  1  0.483800  0.798800  0.446800  1.0  0.6372
  C  C824  1  0.567800  0.793100  0.459500  1.0  0.1593
  C  C825  1  0.437400  0.772800  0.440800  1.0  0.6385
  C  C826  1  0.672600  0.484900  0.577500  1.0  -0.0824
  C  C827  1  0.733100  0.463800  0.517200  1.0  -0.2396
  C  C828  1  0.621000  0.553200  0.570200  1.0  -0.0845
  C  C829  1  0.623200  0.606800  0.503900  1.0  -0.276
  C  C830  1  0.369900  0.563000  0.456600  1.0  -0.1058
  C  C831  1  0.445900  0.662200  0.545100  1.0  -0.3228
  C  C832  1  0.443600  0.566200  0.322600  1.0  -0.3069
  C  C833  1  0.579800  0.790300  0.503600  1.0  0.1004
  C  C834  1  0.600500  0.813200  0.430000  1.0  0.0732
  C  C835  1  0.636800  0.514600  0.594300  1.0  -0.1002
  C  C836  1  0.785500  0.487200  0.515700  1.0  -0.3215
  C  C837  1  0.622000  0.656600  0.526200  1.0  -0.3001
  C  C838  1  0.546800  0.769500  0.534300  1.0  -0.1247
  C  C839  1  0.624500  0.807600  0.518300  1.0  -0.235
  C  C840  1  0.587900  0.812100  0.381500  1.0  -0.2544
  C  C841  1  0.645100  0.830500  0.444700  1.0  -0.0777
  C  C842  1  0.553000  0.775000  0.584400  1.0  -0.3178
  C  C843  1  0.657100  0.827700  0.488800  1.0  -0.1145
  C  C844  1  0.561000  0.858600  0.368300  1.0  -0.3302
  C  C845  1  0.416400  0.896800  0.344000  1.0  0.6367
  C  C846  1  0.429400  0.941000  0.368700  1.0  0.5787
  C  C847  1  0.355600  0.909700  0.504700  1.0  0.5925
  C  C848  1  0.320100  0.903700  0.468500  1.0  0.6815
  C  C849  1  0.441600  0.024500  0.360900  1.0  0.1327
  C  C850  1  0.368900  0.934300  0.578900  1.0  0.0691
  C  C851  1  0.485500  0.045800  0.349400  1.0  0.0515
  C  C852  1  0.409700  0.047000  0.389600  1.0  0.0823
  C  C853  1  0.388300  0.897600  0.603500  1.0  0.1353
  C  C854  1  0.379000  0.980600  0.590300  1.0  0.0475
  C  C855  1  0.525400  0.020700  0.320600  1.0  -0.2469
  C  C856  1  0.497600  0.089500  0.366500  1.0  -0.1019
  C  C857  1  0.421900  0.090800  0.406700  1.0  -0.1257
  C  C858  1  0.359100  0.028900  0.396900  1.0  -0.1893
  C  C859  1  0.383200  0.848800  0.591700  1.0  -0.1889
  C  C860  1  0.417700  0.907300  0.639500  1.0  -0.118
  C  C861  1  0.355200  0.025900  0.571000  1.0  -0.21
  C  C862  1  0.408500  0.990300  0.626300  1.0  -0.1602
  C  C863  1  0.542200  0.978700  0.352900  1.0  -0.3264
  C  C864  1  0.465800  0.112000  0.395100  1.0  -0.1409
  C  C865  1  0.323400  0.040700  0.359000  1.0  -0.3039
  C  C866  1  0.439000  0.833600  0.585500  1.0  -0.3185
  C  C867  1  0.427800  0.953600  0.650900  1.0  -0.1049
  C  C868  1  0.385600  0.048300  0.532700  1.0  -0.3168
  C  C869  1  0.918700  0.513400  0.803600  1.0  0.5156
  C  C870  1  0.932500  0.595500  0.798000  1.0  0.2406
  C  C871  1  0.908200  0.469200  0.778900  1.0  0.5794
  C  C872  1  0.980400  0.611500  0.802300  1.0  0.0291
  C  C873  1  0.893800  0.623000  0.812900  1.0  0.0195
  C  C874  1  0.989500  0.655000  0.821500  1.0  -0.1225
  C  C875  1  0.027600  0.580300  0.788700  1.0  -0.2632
  C  C876  1  0.903000  0.666400  0.832000  1.0  -0.0909
  C  C877  1  0.838200  0.608900  0.809600  1.0  -0.3004
  C  C878  1  0.950900  0.682400  0.836300  1.0  -0.1148
  C  C879  1  0.065500  0.581900  0.830400  1.0  -0.3354
  C  C880  1  0.820000  0.588000  0.855800  1.0  -0.3262
  C  C881  1  0.966200  0.382000  0.904500  1.0  0.555
  C  C882  1  0.923800  0.349800  0.900100  1.0  0.6112
  C  C883  1  0.821900  0.461100  0.934900  1.0  0.4109
  C  C884  1  0.796600  0.452100  0.895900  1.0  0.6322
  C  C885  1  0.048200  0.384800  0.933000  1.0  0.0136
  C  C886  1  0.823200  0.467600  0.012300  1.0  0.224
  C  C887  1  0.060100  0.390500  0.976900  1.0  0.0583
  C  C888  1  0.077300  0.405200  0.900900  1.0  0.065
  C  C889  1  0.807400  0.506200  0.036500  1.0  0.0476
  C  C890  1  0.859000  0.437900  0.029200  1.0  0.0474
  C  C891  1  0.101000  0.416600  0.988700  1.0  -0.1351
  C  C892  1  0.024400  0.369600  0.013300  1.0  -0.2801
  C  C893  1  0.118200  0.431300  0.912600  1.0  -0.1053
  C  C894  1  0.069700  0.392900  0.850900  1.0  -0.24
  C  C895  1  0.016200  0.201200  0.946800  1.0  0.6362
  C  C896  1  0.932200  0.206900  0.959500  1.0  0.1585
  C  C897  1  0.062600  0.227200  0.940800  1.0  0.6424
  C  C898  1  0.827400  0.515100  0.077500  1.0  -0.0798
  C  C899  1  0.766900  0.536200  0.017200  1.0  -0.2388
  C  C900  1  0.879000  0.446800  0.070200  1.0  -0.0842
  C  C901  1  0.876800  0.393200  0.003900  1.0  -0.2752
  C  C902  1  0.130100  0.437000  0.956600  1.0  -0.1043
  C  C903  1  0.054100  0.337800  0.045100  1.0  -0.3237
  C  C904  1  0.056400  0.433800  0.822600  1.0  -0.3075
  C  C905  1  0.920200  0.209700  0.003600  1.0  0.0991
  C  C906  1  0.899500  0.186800  0.930000  1.0  0.0732
  C  C907  1  0.863200  0.485400  0.094300  1.0  -0.1008
  C  C908  1  0.714500  0.512800  0.015700  1.0  -0.3203
  C  C909  1  0.878000  0.343400  0.026200  1.0  -0.2999
  C  C910  1  0.953200  0.230500  0.034300  1.0  -0.1253
  C  C911  1  0.875500  0.192400  0.018300  1.0  -0.2369
  C  C912  1  0.912100  0.187900  0.881500  1.0  -0.2524
  C  C913  1  0.854900  0.169500  0.944700  1.0  -0.0766
  C  C914  1  0.947000  0.225000  0.084400  1.0  -0.3185
  C  C915  1  0.842900  0.172300  0.988800  1.0  -0.1163
  C  C916  1  0.939000  0.141400  0.868300  1.0  -0.3292
  C  C917  1  0.083600  0.103200  0.844000  1.0  0.6391
  C  C918  1  0.070600  0.059000  0.868700  1.0  0.5786
  C  C919  1  0.144400  0.090300  0.004700  1.0  0.5938
  C  C920  1  0.179900  0.096300  0.968500  1.0  0.6825
  C  C921  1  0.058400  0.975500  0.860900  1.0  0.1323
  C  C922  1  0.131100  0.065700  0.078900  1.0  0.0692
  C  C923  1  0.014500  0.954200  0.849400  1.0  0.052
  C  C924  1  0.090300  0.953000  0.889600  1.0  0.0818
  C  C925  1  0.111700  0.102400  0.103500  1.0  0.1362
  C  C926  1  0.121000  0.019400  0.090300  1.0  0.0476
  C  C927  1  0.974600  0.979300  0.820600  1.0  -0.2449
  C  C928  1  0.002400  0.910500  0.866500  1.0  -0.1019
  C  C929  1  0.078100  0.909200  0.906700  1.0  -0.1248
  C  C930  1  0.140900  0.971100  0.896900  1.0  -0.1889
  C  C931  1  0.116800  0.151200  0.091700  1.0  -0.1906
  C  C932  1  0.082300  0.092700  0.139500  1.0  -0.1186
  C  C933  1  0.144800  0.974100  0.071000  1.0  -0.2097
  C  C934  1  0.091500  0.009700  0.126300  1.0  -0.1589
  C  C935  1  0.957800  0.021300  0.852900  1.0  -0.3244
  C  C936  1  0.034200  0.888000  0.895100  1.0  -0.141
  C  C937  1  0.176600  0.959300  0.859000  1.0  -0.3031
  C  C938  1  0.061000  0.166400  0.085500  1.0  -0.3211
  C  C939  1  0.072200  0.046400  0.150900  1.0  -0.1055
  C  C940  1  0.114400  0.951700  0.032700  1.0  -0.3141
  C  C941  1  0.683100  0.952000  0.809500  1.0  0.6452
  C  C942  1  0.691600  0.922200  0.771900  1.0  0.6011
  C  C943  1  0.744700  0.919600  0.674200  1.0  0.0466
  C  C944  1  0.698500  0.923100  0.692900  1.0  0.0609
  C  C945  1  0.658000  0.904600  0.671300  1.0  0.0421
  C  C946  1  0.663800  0.882700  0.631000  1.0  -0.108
  C  C947  1  0.710000  0.879300  0.612200  1.0  -0.0892
  C  C948  1  0.750500  0.897700  0.633900  1.0  -0.0673
  C  C949  1  0.603600  0.909000  0.689900  1.0  -0.2449
  C  C950  1  0.790800  0.939900  0.698800  1.0  -0.2367
  C  C951  1  0.795000  0.993300  0.687000  1.0  -0.3289
  C  C952  1  0.583200  0.857500  0.692000  1.0  -0.3242
  C  C953  1  0.562200  0.829600  0.829600  1.0  0.6298
  C  C954  1  0.591200  0.787600  0.824000  1.0  0.5262
  C  C955  1  0.549700  0.696700  0.747200  1.0  -0.3061
  C  C956  1  0.588900  0.706600  0.825700  1.0  0.2819
  C  C957  1  0.617200  0.688100  0.859400  1.0  0.0647
  C  C958  1  0.641500  0.645600  0.853500  1.0  -0.1184
  C  C959  1  0.637700  0.621700  0.814000  1.0  -0.1165
  C  C960  1  0.609500  0.640200  0.780300  1.0  -0.1145
  C  C961  1  0.585100  0.682700  0.786100  1.0  0.0532
  C  C962  1  0.568000  0.737900  0.717200  1.0  -0.2975
  C  C963  1  0.621800  0.717600  0.902600  1.0  -0.3312
  C  C964  1  0.650000  0.696400  0.941700  1.0  -0.3034
  C  C965  1  0.683700  0.833900  0.928300  1.0  0.5299
  C  C966  1  0.732700  0.826600  0.908800  1.0  0.5198
  C  C967  1  0.818400  0.808400  0.926200  1.0  0.164
  C  C968  1  0.848800  0.847300  0.921900  1.0  0.0458
  C  C969  1  0.898800  0.841200  0.915800  1.0  -0.0849
  C  C970  1  0.918500  0.796100  0.914100  1.0  -0.1182
  C  C971  1  0.888100  0.757200  0.918400  1.0  -0.1029
  C  C972  1  0.838100  0.763300  0.924500  1.0  0.0515
  C  C973  1  0.802800  0.721600  0.938900  1.0  -0.256
  C  C974  1  0.826500  0.897700  0.924200  1.0  -0.2594
  C  C975  1  0.773200  0.706500  0.897000  1.0  -0.3339
  C  C976  1  0.807000  0.915900  0.878900  1.0  -0.3089
  C  C977  1  0.807800  0.815800  0.064500  1.0  0.6335
  C  C978  1  0.757700  0.809700  0.084700  1.0  0.5847
  C  C979  1  0.673000  0.796800  0.068900  1.0  0.071
  C  C980  1  0.638600  0.832700  0.076100  1.0  0.0012
  C  C981  1  0.590000  0.819200  0.084600  1.0  -0.0225
  C  C982  1  0.578700  0.769500  0.081400  1.0  0.0677
  C  C983  1  0.607400  0.735100  0.069200  1.0  0.0524
  C  C984  1  0.655500  0.748500  0.065500  1.0  -0.0232
  C  C985  1  0.658500  0.882000  0.071300  1.0  -0.3721
  C  C986  1  0.695600  0.712800  0.055800  1.0  -0.2368
  C  C987  1  0.692000  0.659300  0.071000  1.0  -0.2551
  C  C988  1  0.633000  0.921400  0.042000  1.0  -0.2863
  C  C989  1  0.812200  0.923300  0.181100  1.0  0.6716
  C  C990  1  0.800500  0.896100  0.221000  1.0  0.6331
  C  C991  1  0.788700  0.897800  0.296100  1.0  0.1942
  C  C992  1  0.822700  0.868000  0.315600  1.0  0.0522
  C  C993  1  0.810100  0.842900  0.352900  1.0  -0.1071
  C  C994  1  0.763500  0.847500  0.370800  1.0  -0.1306
  C  C995  1  0.729600  0.877300  0.351300  1.0  -0.1152
  C  C996  1  0.742200  0.902500  0.313900  1.0  0.0754
  C  C997  1  0.702800  0.934000  0.294600  1.0  -0.2548
  C  C998  1  0.875100  0.864800  0.298500  1.0  -0.2349
  C  C999  1  0.917600  0.835000  0.316600  1.0  -0.2962
  C  C1000  1  0.685000  0.977000  0.325000  1.0  -0.3001
  C  C1001  1  0.926600  0.806600  0.168000  1.0  0.5973
  C  C1002  1  0.897400  0.763800  0.170600  1.0  0.4363
  C  C1003  1  0.904100  0.677200  0.175800  1.0  0.0038
  C  C1004  1  0.880500  0.661000  0.138500  1.0  -0.0085
  C  C1005  1  0.856300  0.618000  0.139100  1.0  -0.2092
  C  C1006  1  0.855700  0.591200  0.177200  1.0  -0.114
  C  C1007  1  0.879300  0.607400  0.214500  1.0  -0.0892
  C  C1008  1  0.903500  0.650400  0.213900  1.0  0.0115
  C  C1009  1  0.867400  0.688000  0.094200  1.0  -0.2927
  C  C1010  1  0.898000  0.681400  0.258500  1.0  -0.3257
  C  C1011  1  0.809400  0.695000  0.092000  1.0  -0.2506
  C  C1012  1  0.946000  0.706000  0.274500  1.0  -0.2808
  C  C1013  1  0.816900  0.048000  0.309500  1.0  0.6464
  C  C1014  1  0.808400  0.077800  0.271900  1.0  0.6023
  C  C1015  1  0.755300  0.080400  0.174200  1.0  0.0467
  C  C1016  1  0.801500  0.076900  0.192900  1.0  0.0611
  C  C1017  1  0.842000  0.095400  0.171300  1.0  0.0415
  C  C1018  1  0.836200  0.117300  0.131000  1.0  -0.1082
  C  C1019  1  0.790000  0.120700  0.112200  1.0  -0.0887
  C  C1020  1  0.749500  0.102300  0.133900  1.0  -0.0677
  C  C1021  1  0.896400  0.091000  0.189900  1.0  -0.2452
  C  C1022  1  0.709200  0.060100  0.198800  1.0  -0.2365
  C  C1023  1  0.705000  0.006700  0.187000  1.0  -0.328
  C  C1024  1  0.916800  0.142500  0.192000  1.0  -0.325
  C  C1025  1  0.937800  0.170400  0.329600  1.0  0.6289
  C  C1026  1  0.908800  0.212400  0.324000  1.0  0.5258
  C  C1027  1  0.950300  0.303300  0.247200  1.0  -0.3052
  C  C1028  1  0.911100  0.293400  0.325700  1.0  0.2819
  C  C1029  1  0.882800  0.311900  0.359400  1.0  0.0651
  C  C1030  1  0.858500  0.354400  0.353500  1.0  -0.1181
  C  C1031  1  0.862300  0.378300  0.314000  1.0  -0.1121
  C  C1032  1  0.890500  0.359800  0.280300  1.0  -0.1127
  C  C1033  1  0.914900  0.317300  0.286100  1.0  0.0547
  C  C1034  1  0.932000  0.262100  0.217200  1.0  -0.2953
  C  C1035  1  0.878200  0.282400  0.402600  1.0  -0.3331
  C  C1036  1  0.850000  0.303600  0.441700  1.0  -0.3027
  C  C1037  1  0.816300  0.166100  0.428300  1.0  0.5304
  C  C1038  1  0.767300  0.173400  0.408800  1.0  0.5203
  C  C1039  1  0.681600  0.191600  0.426200  1.0  0.1644
  C  C1040  1  0.651200  0.152700  0.421900  1.0  0.0465
  C  C1041  1  0.601200  0.158800  0.415800  1.0  -0.0868
  C  C1042  1  0.581500  0.203900  0.414100  1.0  -0.1184
  C  C1043  1  0.611900  0.242800  0.418400  1.0  -0.1018
  C  C1044  1  0.661900  0.236700  0.424500  1.0  0.0517
  C  C1045  1  0.697200  0.278400  0.438900  1.0  -0.2566
  C  C1046  1  0.673500  0.102300  0.424200  1.0  -0.2596
  C  C1047  1  0.726800  0.293500  0.397000  1.0  -0.3339
  C  C1048  1  0.693000  0.084100  0.378900  1.0  -0.31
  C  C1049  1  0.692200  0.184200  0.564500  1.0  0.636
  C  C1050  1  0.742300  0.190300  0.584700  1.0  0.5841
  C  C1051  1  0.827000  0.203200  0.568900  1.0  0.0716
  C  C1052  1  0.861400  0.167300  0.576100  1.0  0.0015
  C  C1053  1  0.910000  0.180800  0.584600  1.0  -0.0196
  C  C1054  1  0.921300  0.230500  0.581400  1.0  0.0665
  C  C1055  1  0.892600  0.264900  0.569200  1.0  0.0533
  C  C1056  1  0.844500  0.251500  0.565500  1.0  -0.0242
  C  C1057  1  0.841500  0.118000  0.571300  1.0  -0.3696
  C  C1058  1  0.804400  0.287200  0.555800  1.0  -0.2372
  C  C1059  1  0.808000  0.340700  0.571000  1.0  -0.254
  C  C1060  1  0.867000  0.078600  0.542000  1.0  -0.2868
  C  C1061  1  0.687800  0.076700  0.681100  1.0  0.6722
  C  C1062  1  0.699500  0.103900  0.721000  1.0  0.6332
  C  C1063  1  0.711300  0.102200  0.796100  1.0  0.1943
  C  C1064  1  0.677300  0.132000  0.815600  1.0  0.0514
  C  C1065  1  0.689900  0.157100  0.852900  1.0  -0.1068
  C  C1066  1  0.736500  0.152500  0.870800  1.0  -0.129
  C  C1067  1  0.770400  0.122700  0.851300  1.0  -0.1146
  C  C1068  1  0.757800  0.097500  0.813900  1.0  0.0758
  C  C1069  1  0.797200  0.066000  0.794600  1.0  -0.2567
  C  C1070  1  0.624900  0.135200  0.798500  1.0  -0.2335
  C  C1071  1  0.582400  0.165000  0.816600  1.0  -0.2946
  C  C1072  1  0.815000  0.023000  0.825000  1.0  -0.3016
  C  C1073  1  0.573400  0.193400  0.668000  1.0  0.5973
  C  C1074  1  0.602600  0.236200  0.670600  1.0  0.4364
  C  C1075  1  0.595900  0.322800  0.675800  1.0  0.0038
  C  C1076  1  0.619500  0.339000  0.638500  1.0  -0.0114
  C  C1077  1  0.643700  0.382000  0.639100  1.0  -0.211
  C  C1078  1  0.644300  0.408800  0.677200  1.0  -0.1123
  C  C1079  1  0.620700  0.392600  0.714500  1.0  -0.0881
  C  C1080  1  0.596500  0.349600  0.713900  1.0  0.0106
  C  C1081  1  0.632600  0.312000  0.594200  1.0  -0.2931
  C  C1082  1  0.602000  0.318600  0.758500  1.0  -0.3246
  C  C1083  1  0.690600  0.305000  0.592000  1.0  -0.2484
  C  C1084  1  0.554000  0.294000  0.774500  1.0  -0.28
  C  C1085  1  0.316900  0.452000  0.690500  1.0  0.6466
  C  C1086  1  0.308400  0.422200  0.728100  1.0  0.6021
  C  C1087  1  0.255300  0.419600  0.825800  1.0  0.0468
  C  C1088  1  0.301500  0.423100  0.807100  1.0  0.0613
  C  C1089  1  0.342000  0.404600  0.828700  1.0  0.0428
  C  C1090  1  0.336200  0.382700  0.869000  1.0  -0.1065
  C  C1091  1  0.290000  0.379300  0.887800  1.0  -0.09
  C  C1092  1  0.249500  0.397700  0.866100  1.0  -0.0667
  C  C1093  1  0.396400  0.409000  0.810100  1.0  -0.2455
  C  C1094  1  0.209200  0.439900  0.801200  1.0  -0.2363
  C  C1095  1  0.205000  0.493300  0.813000  1.0  -0.3293
  C  C1096  1  0.416800  0.357500  0.808000  1.0  -0.325
  C  C1097  1  0.437800  0.329600  0.670400  1.0  0.6286
  C  C1098  1  0.408800  0.287600  0.676000  1.0  0.5257
  C  C1099  1  0.450300  0.196700  0.752800  1.0  -0.3056
  C  C1100  1  0.411100  0.206600  0.674300  1.0  0.2819
  C  C1101  1  0.382800  0.188100  0.640600  1.0  0.0649
  C  C1102  1  0.358500  0.145600  0.646500  1.0  -0.1166
  C  C1103  1  0.362300  0.121700  0.686000  1.0  -0.1167
  C  C1104  1  0.390500  0.140200  0.719700  1.0  -0.1124
  C  C1105  1  0.414900  0.182700  0.713900  1.0  0.0538
  C  C1106  1  0.432000  0.237900  0.782800  1.0  -0.2955
  C  C1107  1  0.378200  0.217600  0.597400  1.0  -0.3331
  C  C1108  1  0.350000  0.196400  0.558300  1.0  -0.3038
  C  C1109  1  0.316300  0.333900  0.571700  1.0  0.5305
  C  C1110  1  0.267300  0.326600  0.591200  1.0  0.5194
  C  C1111  1  0.181600  0.308400  0.573800  1.0  0.164
  C  C1112  1  0.151200  0.347300  0.578100  1.0  0.0458
  C  C1113  1  0.101200  0.341200  0.584200  1.0  -0.0866
  C  C1114  1  0.081500  0.296100  0.585900  1.0  -0.1191
  C  C1115  1  0.111900  0.257200  0.581600  1.0  -0.1009
  C  C1116  1  0.161900  0.263300  0.575500  1.0  0.0523
  C  C1117  1  0.197200  0.221600  0.561100  1.0  -0.254
  C  C1118  1  0.173500  0.397700  0.575800  1.0  -0.2584
  C  C1119  1  0.226800  0.206500  0.603000  1.0  -0.3344
  C  C1120  1  0.193000  0.415900  0.621100  1.0  -0.3104
  C  C1121  1  0.192200  0.315800  0.435500  1.0  0.6368
  C  C1122  1  0.242300  0.309700  0.415300  1.0  0.5841
  C  C1123  1  0.327000  0.296800  0.431100  1.0  0.0741
  C  C1124  1  0.361400  0.332700  0.423900  1.0  0.0026
  C  C1125  1  0.410000  0.319200  0.415400  1.0  -0.0182
  C  C1126  1  0.421300  0.269500  0.418600  1.0  0.0682
  C  C1127  1  0.392600  0.235100  0.430800  1.0  0.0541
  C  C1128  1  0.344500  0.248500  0.434500  1.0  -0.0247
  C  C1129  1  0.341500  0.382000  0.428700  1.0  -0.3698
  C  C1130  1  0.304400  0.212800  0.444200  1.0  -0.237
  C  C1131  1  0.308000  0.159300  0.429000  1.0  -0.2564
  C  C1132  1  0.367000  0.421400  0.458000  1.0  -0.2881
  C  C1133  1  0.187800  0.423300  0.318900  1.0  0.67
  C  C1134  1  0.199500  0.396100  0.279000  1.0  0.6328
  C  C1135  1  0.211300  0.397800  0.203900  1.0  0.194
  C  C1136  1  0.177300  0.368000  0.184400  1.0  0.0513
  C  C1137  1  0.189900  0.342900  0.147100  1.0  -0.1062
  C  C1138  1  0.236500  0.347500  0.129200  1.0  -0.1279
  C  C1139  1  0.270400  0.377300  0.148700  1.0  -0.1145
  C  C1140  1  0.257800  0.402500  0.186100  1.0  0.0755
  C  C1141  1  0.297200  0.434000  0.205400  1.0  -0.2573
  C  C1142  1  0.124900  0.364800  0.201500  1.0  -0.2352
  C  C1143  1  0.082400  0.335000  0.183400  1.0  -0.2944
  C  C1144  1  0.315000  0.477000  0.175000  1.0  -0.3017
  C  C1145  1  0.073400  0.306600  0.332000  1.0  0.5961
  C  C1146  1  0.102600  0.263800  0.329400  1.0  0.4374
  C  C1147  1  0.095900  0.177200  0.324200  1.0  0.0035
  C  C1148  1  0.119500  0.161000  0.361500  1.0  -0.0114
  C  C1149  1  0.143700  0.118000  0.360900  1.0  -0.2095
  C  C1150  1  0.144300  0.091200  0.322800  1.0  -0.1132
  C  C1151  1  0.120700  0.107400  0.285500  1.0  -0.0912
  C  C1152  1  0.096500  0.150400  0.286100  1.0  0.0098
  C  C1153  1  0.132600  0.188000  0.405800  1.0  -0.2935
  C  C1154  1  0.102000  0.181400  0.241500  1.0  -0.325
  C  C1155  1  0.190600  0.195000  0.408000  1.0  -0.2489
  C  C1156  1  0.054000  0.206000  0.225500  1.0  -0.2786
  C  C1157  1  0.183100  0.548000  0.190500  1.0  0.6471
  C  C1158  1  0.191600  0.577800  0.228100  1.0  0.6018
  C  C1159  1  0.244700  0.580400  0.325800  1.0  0.0478
  C  C1160  1  0.198500  0.576900  0.307100  1.0  0.0606
  C  C1161  1  0.158000  0.595400  0.328700  1.0  0.0427
  C  C1162  1  0.163800  0.617300  0.369000  1.0  -0.1068
  C  C1163  1  0.210000  0.620700  0.387800  1.0  -0.0896
  C  C1164  1  0.250500  0.602300  0.366100  1.0  -0.0677
  C  C1165  1  0.103600  0.591000  0.310100  1.0  -0.2436
  C  C1166  1  0.290800  0.560100  0.301200  1.0  -0.2356
  C  C1167  1  0.295000  0.506700  0.313000  1.0  -0.3286
  C  C1168  1  0.083200  0.642500  0.308000  1.0  -0.324
  C  C1169  1  0.062200  0.670400  0.170400  1.0  0.6311
  C  C1170  1  0.091200  0.712400  0.176000  1.0  0.5253
  C  C1171  1  0.049700  0.803300  0.252800  1.0  -0.3062
  C  C1172  1  0.088900  0.793400  0.174300  1.0  0.2821
  C  C1173  1  0.117200  0.811900  0.140600  1.0  0.0655
  C  C1174  1  0.141500  0.854400  0.146500  1.0  -0.1174
  C  C1175  1  0.137700  0.878300  0.186000  1.0  -0.1145
  C  C1176  1  0.109500  0.859800  0.219700  1.0  -0.1123
  C  C1177  1  0.085100  0.817300  0.213900  1.0  0.0546
  C  C1178  1  0.068000  0.762100  0.282800  1.0  -0.2955
  C  C1179  1  0.121800  0.782400  0.097400  1.0  -0.3309
  C  C1180  1  0.150000  0.803600  0.058300  1.0  -0.3031
  C  C1181  1  0.183700  0.666100  0.071700  1.0  0.529
  C  C1182  1  0.232700  0.673400  0.091200  1.0  0.5189
  C  C1183  1  0.318400  0.691600  0.073800  1.0  0.1641
  C  C1184  1  0.348800  0.652700  0.078100  1.0  0.0465
  C  C1185  1  0.398800  0.658800  0.084200  1.0  -0.0851
  C  C1186  1  0.418500  0.703900  0.085900  1.0  -0.1174
  C  C1187  1  0.388100  0.742800  0.081600  1.0  -0.1015
  C  C1188  1  0.338100  0.736700  0.075500  1.0  0.0516
  C  C1189  1  0.302800  0.778400  0.061100  1.0  -0.2553
  C  C1190  1  0.326500  0.602300  0.075800  1.0  -0.2586
  C  C1191  1  0.273200  0.793500  0.103000  1.0  -0.3336
  C  C1192  1  0.307000  0.584100  0.121100  1.0  -0.3097
  C  C1193  1  0.307800  0.684200  0.935500  1.0  0.6337
  C  C1194  1  0.257700  0.690300  0.915300  1.0  0.5841
  C  C1195  1  0.173000  0.703200  0.931100  1.0  0.0739
  C  C1196  1  0.138600  0.667300  0.923900  1.0  0.0024
  C  C1197  1  0.090000  0.680800  0.915400  1.0  -0.0233
  C  C1198  1  0.078700  0.730500  0.918600  1.0  0.0678
  C  C1199  1  0.107400  0.764900  0.930800  1.0  0.0512
  C  C1200  1  0.155500  0.751500  0.934500  1.0  -0.0245
  C  C1201  1  0.158500  0.618000  0.928700  1.0  -0.3721
  C  C1202  1  0.195600  0.787200  0.944200  1.0  -0.2371
  C  C1203  1  0.192000  0.840700  0.929000  1.0  -0.2536
  C  C1204  1  0.133000  0.578600  0.958000  1.0  -0.2858
  C  C1205  1  0.312200  0.576700  0.818900  1.0  0.6711
  C  C1206  1  0.300500  0.603900  0.779000  1.0  0.6316
  C  C1207  1  0.288700  0.602200  0.703900  1.0  0.1948
  C  C1208  1  0.322700  0.632000  0.684400  1.0  0.052
  C  C1209  1  0.310100  0.657100  0.647100  1.0  -0.1067
  C  C1210  1  0.263500  0.652500  0.629200  1.0  -0.13
  C  C1211  1  0.229600  0.622700  0.648700  1.0  -0.1143
  C  C1212  1  0.242200  0.597500  0.686100  1.0  0.0761
  C  C1213  1  0.202800  0.566000  0.705400  1.0  -0.2567
  C  C1214  1  0.375100  0.635200  0.701500  1.0  -0.2364
  C  C1215  1  0.417600  0.665000  0.683400  1.0  -0.2954
  C  C1216  1  0.185000  0.523000  0.675000  1.0  -0.3001
  C  C1217  1  0.426600  0.693400  0.832000  1.0  0.5981
  C  C1218  1  0.397400  0.736200  0.829400  1.0  0.4365
  C  C1219  1  0.404100  0.822800  0.824200  1.0  0.0027
  C  C1220  1  0.380500  0.839000  0.861500  1.0  -0.0099
  C  C1221  1  0.356300  0.882000  0.860900  1.0  -0.211
  C  C1222  1  0.355700  0.908800  0.822800  1.0  -0.1129
  C  C1223  1  0.379300  0.892600  0.785500  1.0  -0.0892
  C  C1224  1  0.403500  0.849600  0.786100  1.0  0.0128
  C  C1225  1  0.367400  0.812000  0.905800  1.0  -0.2931
  C  C1226  1  0.398000  0.818600  0.741500  1.0  -0.3251
  C  C1227  1  0.309400  0.805000  0.908000  1.0  -0.2508
  C  C1228  1  0.446000  0.794000  0.725500  1.0  -0.2804
  N  N1229  1  0.425000  0.947400  0.220600  1.0  -0.3666
  N  N1230  1  0.503700  0.142900  0.080200  1.0  -0.3669
  N  N1231  1  0.297800  0.041300  0.025000  1.0  -0.3196
  N  N1232  1  0.477600  0.272600  0.053600  1.0  -0.3407
  N  N1233  1  0.163700  0.073400  0.041600  1.0  -0.3984
  N  N1234  1  0.569600  0.478800  0.156200  1.0  -0.3799
  N  N1235  1  0.075000  0.052600  0.720600  1.0  -0.3668
  N  N1236  1  0.996300  0.857100  0.580200  1.0  -0.3677
  N  N1237  1  0.202200  0.958700  0.525000  1.0  -0.3199
  N  N1238  1  0.022400  0.727400  0.553600  1.0  -0.3409
  N  N1239  1  0.336300  0.926600  0.541600  1.0  -0.4008
  N  N1240  1  0.930400  0.521200  0.656200  1.0  -0.3788
  N  N1241  1  0.575000  0.447400  0.279400  1.0  -0.3673
  N  N1242  1  0.496300  0.642900  0.419800  1.0  -0.3676
  N  N1243  1  0.702200  0.541300  0.475000  1.0  -0.3202
  N  N1244  1  0.522400  0.772600  0.446400  1.0  -0.3413
  N  N1245  1  0.836300  0.573400  0.458400  1.0  -0.3989
  N  N1246  1  0.430400  0.978800  0.343800  1.0  -0.3784
  N  N1247  1  0.925000  0.552600  0.779400  1.0  -0.3672
  N  N1248  1  0.003700  0.357100  0.919800  1.0  -0.3674
  N  N1249  1  0.797800  0.458700  0.975000  1.0  -0.3203
  N  N1250  1  0.977600  0.227400  0.946400  1.0  -0.3404
  N  N1251  1  0.663700  0.426600  0.958400  1.0  -0.3992
  N  N1252  1  0.069600  0.021200  0.843800  1.0  -0.3799
  N  N1253  1  0.690700  0.946900  0.735800  1.0  -0.3408
  N  N1254  1  0.566700  0.747100  0.825900  1.0  -0.2895
  N  N1255  1  0.769000  0.817400  0.938700  1.0  -0.3446
  N  N1256  1  0.722300  0.806400  0.055100  1.0  -0.3085
  N  N1257  1  0.800700  0.919300  0.256500  1.0  -0.3045
  N  N1258  1  0.930600  0.725800  0.174000  1.0  -0.4449
  N  N1259  1  0.809300  0.053100  0.235800  1.0  -0.3403
  N  N1260  1  0.933300  0.252900  0.325900  1.0  -0.2893
  N  N1261  1  0.731000  0.182600  0.438700  1.0  -0.3457
  N  N1262  1  0.777700  0.193600  0.555100  1.0  -0.3084
  N  N1263  1  0.699300  0.080700  0.756500  1.0  -0.3046
  N  N1264  1  0.569400  0.274200  0.674000  1.0  -0.4444
  N  N1265  1  0.309300  0.446900  0.764200  1.0  -0.3402
  N  N1266  1  0.433300  0.247100  0.674100  1.0  -0.29
  N  N1267  1  0.231000  0.317400  0.561300  1.0  -0.3452
  N  N1268  1  0.277700  0.306400  0.444900  1.0  -0.3084
  N  N1269  1  0.199300  0.419300  0.243500  1.0  -0.3053
  N  N1270  1  0.069400  0.225800  0.326000  1.0  -0.4446
  N  N1271  1  0.190700  0.553100  0.264200  1.0  -0.3413
  N  N1272  1  0.066700  0.752900  0.174100  1.0  -0.2894
  N  N1273  1  0.269000  0.682600  0.061300  1.0  -0.3452
  N  N1274  1  0.222300  0.693600  0.944900  1.0  -0.3081
  N  N1275  1  0.300700  0.580700  0.743500  1.0  -0.3039
  N  N1276  1  0.430600  0.774200  0.826000  1.0  -0.4454
  O  O1277  1  0.410200  0.027800  0.262800  1.0  -0.5576
  O  O1278  1  0.418800  0.987200  0.154300  1.0  -0.5782
  O  O1279  1  0.402100  0.066100  0.198000  1.0  -0.5783
  O  O1280  1  0.464700  0.076400  0.105500  1.0  -0.5461
  O  O1281  1  0.386000  0.128900  0.118200  1.0  -0.6072
  O  O1282  1  0.369000  0.030100  0.069000  1.0  -0.5676
  O  O1283  1  0.316600  0.048500  0.139300  1.0  -0.5736
  O  O1284  1  0.423900  0.191400  0.089800  1.0  -0.5609
  O  O1285  1  0.248200  0.056300  0.096600  1.0  -0.5646
  O  O1286  1  0.559500  0.228800  0.066100  1.0  -0.5823
  O  O1287  1  0.225100  0.082800  0.974000  1.0  -0.6069
  O  O1288  1  0.517600  0.342800  0.047300  1.0  -0.5704
  O  O1289  1  0.603000  0.295100  0.060000  1.0  -0.5696
  O  O1290  1  0.591900  0.360500  0.136300  1.0  -0.5663
  O  O1291  1  0.563400  0.438700  0.091000  1.0  -0.5822
  O  O1292  1  0.601500  0.398800  0.001300  1.0  -0.5506
  O  O1293  1  0.664600  0.388400  0.067600  1.0  -0.5653
  O  O1294  1  0.586500  0.400600  0.197500  1.0  -0.5902
  O  O1295  1  0.089800  0.972200  0.762800  1.0  -0.5587
  O  O1296  1  0.081200  0.012800  0.654300  1.0  -0.5778
  O  O1297  1  0.097900  0.933900  0.698000  1.0  -0.5799
  O  O1298  1  0.035300  0.923600  0.605500  1.0  -0.5456
  O  O1299  1  0.114000  0.871100  0.618200  1.0  -0.6085
  O  O1300  1  0.131000  0.969900  0.569000  1.0  -0.5695
  O  O1301  1  0.183400  0.951500  0.639300  1.0  -0.5717
  O  O1302  1  0.076100  0.808600  0.589800  1.0  -0.5623
  O  O1303  1  0.251800  0.943700  0.596600  1.0  -0.5681
  O  O1304  1  0.940500  0.771200  0.566100  1.0  -0.5807
  O  O1305  1  0.274900  0.917200  0.474000  1.0  -0.6064
  O  O1306  1  0.982400  0.657200  0.547300  1.0  -0.5709
  O  O1307  1  0.897000  0.704900  0.560000  1.0  -0.5703
  O  O1308  1  0.908100  0.639500  0.636300  1.0  -0.5668
  O  O1309  1  0.936600  0.561300  0.591000  1.0  -0.5824
  O  O1310  1  0.898500  0.601200  0.501300  1.0  -0.5505
  O  O1311  1  0.835400  0.611600  0.567600  1.0  -0.5605
  O  O1312  1  0.913500  0.599400  0.697500  1.0  -0.589
  O  O1313  1  0.589800  0.527800  0.237200  1.0  -0.5586
  O  O1314  1  0.581200  0.487200  0.345700  1.0  -0.5771
  O  O1315  1  0.597900  0.566100  0.302000  1.0  -0.5781
  O  O1316  1  0.535300  0.576400  0.394500  1.0  -0.5464
  O  O1317  1  0.614000  0.628900  0.381800  1.0  -0.6054
  O  O1318  1  0.631000  0.530100  0.431000  1.0  -0.5692
  O  O1319  1  0.683400  0.548500  0.360700  1.0  -0.571
  O  O1320  1  0.576100  0.691400  0.410200  1.0  -0.5619
  O  O1321  1  0.751800  0.556300  0.403400  1.0  -0.5691
  O  O1322  1  0.440500  0.728800  0.433900  1.0  -0.5802
  O  O1323  1  0.774900  0.582800  0.526000  1.0  -0.606
  O  O1324  1  0.482400  0.842800  0.452700  1.0  -0.5728
  O  O1325  1  0.397000  0.795100  0.440000  1.0  -0.5698
  O  O1326  1  0.408100  0.860500  0.363700  1.0  -0.5653
  O  O1327  1  0.436600  0.938700  0.409000  1.0  -0.5836
  O  O1328  1  0.398500  0.898800  0.498700  1.0  -0.5511
  O  O1329  1  0.335400  0.888400  0.432400  1.0  -0.5589
  O  O1330  1  0.413500  0.900600  0.302500  1.0  -0.59
  O  O1331  1  0.910200  0.472200  0.737200  1.0  -0.5588
  O  O1332  1  0.918800  0.512800  0.845700  1.0  -0.5766
  O  O1333  1  0.902100  0.433900  0.802000  1.0  -0.5788
  O  O1334  1  0.964700  0.423600  0.894500  1.0  -0.5459
  O  O1335  1  0.886000  0.371100  0.881800  1.0  -0.6077
  O  O1336  1  0.869000  0.469900  0.931000  1.0  -0.5673
  O  O1337  1  0.816600  0.451500  0.860700  1.0  -0.5719
  O  O1338  1  0.923900  0.308600  0.910200  1.0  -0.5616
  O  O1339  1  0.748200  0.443700  0.903400  1.0  -0.5685
  O  O1340  1  0.059500  0.271200  0.933900  1.0  -0.5795
  O  O1341  1  0.725100  0.417200  0.026000  1.0  -0.6054
  O  O1342  1  0.017600  0.157200  0.952700  1.0  -0.5705
  O  O1343  1  0.103000  0.204900  0.940000  1.0  -0.569
  O  O1344  1  0.091900  0.139500  0.863700  1.0  -0.5651
  O  O1345  1  0.063400  0.061300  0.909000  1.0  -0.5851
  O  O1346  1  0.101500  0.101200  0.998700  1.0  -0.5512
  O  O1347  1  0.164600  0.111600  0.932400  1.0  -0.5587
  O  O1348  1  0.086500  0.099400  0.802500  1.0  -0.5915
  O  O1349  1  0.684000  0.994300  0.808400  1.0  -0.5682
  O  O1350  1  0.677800  0.930300  0.847100  1.0  -0.6228
  O  O1351  1  0.692000  0.876700  0.775700  1.0  -0.5688
  O  O1352  1  0.521000  0.827300  0.834700  1.0  -0.5436
  O  O1353  1  0.585100  0.868300  0.828700  1.0  -0.6516
  O  O1354  1  0.638500  0.786400  0.819000  1.0  -0.6016
  O  O1355  1  0.737300  0.831000  0.867600  1.0  -0.6175
  O  O1356  1  0.644200  0.848500  0.904500  1.0  -0.5874
  O  O1357  1  0.681200  0.825100  0.969800  1.0  -0.5404
  O  O1358  1  0.807600  0.819600  0.021100  1.0  -0.5548
  O  O1359  1  0.842200  0.826600  0.086400  1.0  -0.5389
  O  O1360  1  0.754600  0.807500  0.124500  1.0  -0.5698
  O  O1361  1  0.798000  0.850700  0.218300  1.0  -0.5763
  O  O1362  1  0.816100  0.903000  0.145300  1.0  -0.5955
  O  O1363  1  0.815900  0.969100  0.184600  1.0  -0.5943
  O  O1364  1  0.853000  0.761400  0.174700  1.0  -0.5632
  O  O1365  1  0.902800  0.844900  0.166200  1.0  -0.6015
  O  O1366  1  0.975400  0.803300  0.166700  1.0  -0.5583
  O  O1367  1  0.816000  0.005700  0.308400  1.0  -0.5699
  O  O1368  1  0.822200  0.069700  0.347100  1.0  -0.6223
  O  O1369  1  0.808000  0.123300  0.275700  1.0  -0.569
  O  O1370  1  0.979000  0.172700  0.334700  1.0  -0.5438
  O  O1371  1  0.914900  0.131700  0.328700  1.0  -0.6524
  O  O1372  1  0.861500  0.213600  0.319000  1.0  -0.6044
  O  O1373  1  0.762700  0.169000  0.367600  1.0  -0.6171
  O  O1374  1  0.855800  0.151500  0.404500  1.0  -0.5894
  O  O1375  1  0.818800  0.174900  0.469800  1.0  -0.54
  O  O1376  1  0.692400  0.180400  0.521100  1.0  -0.556
  O  O1377  1  0.657800  0.173400  0.586400  1.0  -0.5391
  O  O1378  1  0.745400  0.192500  0.624500  1.0  -0.5696
  O  O1379  1  0.702000  0.149300  0.718300  1.0  -0.5776
  O  O1380  1  0.683900  0.097000  0.645300  1.0  -0.5951
  O  O1381  1  0.684100  0.030900  0.684600  1.0  -0.5937
  O  O1382  1  0.647000  0.238600  0.674700  1.0  -0.5622
  O  O1383  1  0.597200  0.155100  0.666200  1.0  -0.6006
  O  O1384  1  0.524600  0.196700  0.666667  1.0  -0.5581
  O  O1385  1  0.316000  0.494300  0.691600  1.0  -0.568
  O  O1386  1  0.322200  0.430300  0.652900  1.0  -0.6177
  O  O1387  1  0.308000  0.376700  0.724300  1.0  -0.5693
  O  O1388  1  0.479000  0.327300  0.665300  1.0  -0.5434
  O  O1389  1  0.414900  0.368300  0.671300  1.0  -0.6511
  O  O1390  1  0.361500  0.286400  0.681000  1.0  -0.6054
  O  O1391  1  0.262700  0.331000  0.632400  1.0  -0.6179
  O  O1392  1  0.355800  0.348500  0.595500  1.0  -0.5897
  O  O1393  1  0.318800  0.325100  0.530200  1.0  -0.5403
  O  O1394  1  0.192400  0.319600  0.478900  1.0  -0.5561
  O  O1395  1  0.157800  0.326600  0.413600  1.0  -0.5408
  O  O1396  1  0.245400  0.307500  0.375500  1.0  -0.5707
  O  O1397  1  0.202000  0.350700  0.281700  1.0  -0.5766
  O  O1398  1  0.183900  0.403000  0.354700  1.0  -0.5997
  O  O1399  1  0.184100  0.469100  0.315400  1.0  -0.5929
  O  O1400  1  0.147000  0.261400  0.325300  1.0  -0.5628
  O  O1401  1  0.097200  0.344900  0.333800  1.0  -0.6005
  O  O1402  1  0.024600  0.303300  0.333333  1.0  -0.5576
  O  O1403  1  0.184000  0.505700  0.191600  1.0  -0.5677
  O  O1404  1  0.177800  0.569700  0.152900  1.0  -0.6185
  O  O1405  1  0.192000  0.623300  0.224300  1.0  -0.5691
  O  O1406  1  0.021000  0.672700  0.165300  1.0  -0.5433
  O  O1407  1  0.085100  0.631700  0.171300  1.0  -0.6513
  O  O1408  1  0.138500  0.713600  0.181000  1.0  -0.6031
  O  O1409  1  0.237300  0.669000  0.132400  1.0  -0.6179
  O  O1410  1  0.144200  0.651500  0.095500  1.0  -0.5885
  O  O1411  1  0.181200  0.674900  0.030200  1.0  -0.54
  O  O1412  1  0.307600  0.680400  0.978900  1.0  -0.5562
  O  O1413  1  0.342200  0.673400  0.913600  1.0  -0.5379
  O  O1414  1  0.254600  0.692500  0.875500  1.0  -0.5712
  O  O1415  1  0.298000  0.649300  0.781700  1.0  -0.5799
  O  O1416  1  0.316100  0.597000  0.854700  1.0  -0.5978
  O  O1417  1  0.315900  0.530900  0.815400  1.0  -0.5957
  O  O1418  1  0.353000  0.738600  0.825300  1.0  -0.564
  O  O1419  1  0.402800  0.655100  0.833800  1.0  -0.6007
  O  O1420  1  0.475400  0.696700  0.833300  1.0  -0.5578
