# generated using pymatgen
data_ZnH44Ir2C68(NO)8
_symmetry_space_group_name_H-M   'P 1'
_cell_length_a   17.14300000
_cell_length_b   17.14300000
_cell_length_c   49.06870000
_cell_angle_alpha   90.00000000
_cell_angle_beta   90.00000000
_cell_angle_gamma   90.00000000
_symmetry_Int_Tables_number   1
_chemical_formula_structural   ZnH44Ir2C68(NO)8
_chemical_formula_sum   'Zn8 H352 Ir16 C544 N64 O64'
_cell_volume   14420.42972525
_cell_formula_units_Z   8
loop_
 _symmetry_equiv_pos_site_id
 _symmetry_equiv_pos_as_xyz
  1  'x, y, z'
loop_
 _atom_site_type_symbol
 _atom_site_label
 _atom_site_symmetry_multiplicity
 _atom_site_fract_x
 _atom_site_fract_y
 _atom_site_fract_z
 _atom_site_occupancy
 _atom_site_charge
  Zn  Zn1  1  0.500000  0.500000  0.264880  1.0  1.1061
  Zn  Zn2  1  0.000000  0.000000  0.764880  1.0  1.1061
  Zn  Zn3  1  0.500000  0.000000  0.014880  1.0  1.1068
  Zn  Zn4  1  0.000000  0.500000  0.514880  1.0  1.1068
  Zn  Zn5  1  0.500000  0.000000  0.514880  1.0  1.1061
  Zn  Zn6  1  0.000000  0.500000  0.014880  1.0  1.1061
  Zn  Zn7  1  0.500000  0.500000  0.764880  1.0  1.1068
  Zn  Zn8  1  0.000000  0.000000  0.264880  1.0  1.1068
  H  H9  1  0.701800  0.673500  0.438300  1.0  0.0862
  H  H10  1  0.810900  0.788200  0.324500  1.0  0.1236
  H  H11  1  0.604800  0.727300  0.464200  1.0  0.1165
  H  H12  1  0.601700  0.922800  0.364200  1.0  0.1251
  H  H13  1  0.923700  0.902600  0.445500  1.0  0.1167
  H  H14  1  0.811200  0.449900  0.458500  1.0  0.1115
  H  H15  1  0.671800  0.669700  0.334100  1.0  0.0978
  H  H16  1  0.669300  0.438500  0.380700  1.0  0.1128
  H  H17  1  0.933900  0.587600  0.305300  1.0  0.1254
  H  H18  1  0.651300  0.958600  0.322600  1.0  0.095
  H  H19  1  0.734000  0.441600  0.420400  1.0  0.1127
  H  H20  1  0.602700  0.448200  0.341100  1.0  0.1071
  H  H21  1  0.745600  0.886400  0.301000  1.0  0.1123
  H  H22  1  0.036200  0.675000  0.307600  1.0  0.125
  H  H23  1  0.026000  0.917400  0.414800  1.0  0.0875
  H  H24  1  0.037000  0.843000  0.378400  1.0  0.1154
  H  H25  1  0.560500  0.877500  0.404900  1.0  0.1301
  H  H26  1  0.039200  0.764300  0.341300  1.0  0.11
  H  H27  1  0.535400  0.832400  0.448000  1.0  0.1152
  H  H28  1  0.820100  0.816800  0.434000  1.0  0.0922
  H  H29  1  0.836200  0.594200  0.336300  1.0  0.074
  H  H30  1  0.882800  0.657400  0.434400  1.0  0.0765
  H  H31  1  0.201800  0.173500  0.938300  1.0  0.0862
  H  H32  1  0.310900  0.288200  0.824500  1.0  0.1236
  H  H33  1  0.104800  0.227300  0.964200  1.0  0.1165
  H  H34  1  0.101700  0.422800  0.864200  1.0  0.1251
  H  H35  1  0.423700  0.402600  0.945500  1.0  0.1167
  H  H36  1  0.311200  0.949900  0.958500  1.0  0.1115
  H  H37  1  0.171800  0.169700  0.834100  1.0  0.0978
  H  H38  1  0.169300  0.938500  0.880700  1.0  0.1128
  H  H39  1  0.433900  0.087600  0.805300  1.0  0.1254
  H  H40  1  0.151300  0.458600  0.822600  1.0  0.095
  H  H41  1  0.234000  0.941600  0.920400  1.0  0.1127
  H  H42  1  0.102700  0.948200  0.841100  1.0  0.1071
  H  H43  1  0.245600  0.386400  0.801000  1.0  0.1123
  H  H44  1  0.536200  0.175000  0.807600  1.0  0.125
  H  H45  1  0.526000  0.417400  0.914800  1.0  0.0875
  H  H46  1  0.537000  0.343000  0.878400  1.0  0.1154
  H  H47  1  0.060500  0.377500  0.904900  1.0  0.1301
  H  H48  1  0.539200  0.264300  0.841300  1.0  0.11
  H  H49  1  0.035400  0.332400  0.948000  1.0  0.1152
  H  H50  1  0.320100  0.316800  0.934000  1.0  0.0922
  H  H51  1  0.336200  0.094200  0.836300  1.0  0.074
  H  H52  1  0.382800  0.157400  0.934400  1.0  0.0765
  H  H53  1  0.798200  0.826500  0.938300  1.0  0.0864
  H  H54  1  0.689100  0.711800  0.824500  1.0  0.1238
  H  H55  1  0.895200  0.772700  0.964200  1.0  0.1165
  H  H56  1  0.898300  0.577200  0.864200  1.0  0.1252
  H  H57  1  0.576300  0.597400  0.945500  1.0  0.1167
  H  H58  1  0.688800  0.050100  0.958500  1.0  0.111
  H  H59  1  0.828200  0.830300  0.834100  1.0  0.098
  H  H60  1  0.830700  0.061500  0.880700  1.0  0.1133
  H  H61  1  0.566100  0.912400  0.805300  1.0  0.1253
  H  H62  1  0.848700  0.541400  0.822600  1.0  0.0945
  H  H63  1  0.766000  0.058400  0.920400  1.0  0.113
  H  H64  1  0.897300  0.051800  0.841100  1.0  0.1075
  H  H65  1  0.754400  0.613600  0.801000  1.0  0.1119
  H  H66  1  0.463800  0.825000  0.807600  1.0  0.1254
  H  H67  1  0.474000  0.582600  0.914800  1.0  0.0892
  H  H68  1  0.463000  0.657000  0.878400  1.0  0.1151
  H  H69  1  0.939500  0.622500  0.904900  1.0  0.1289
  H  H70  1  0.460800  0.735700  0.841300  1.0  0.11
  H  H71  1  0.964600  0.667600  0.948000  1.0  0.1158
  H  H72  1  0.679900  0.683200  0.934000  1.0  0.0917
  H  H73  1  0.663800  0.905800  0.836300  1.0  0.0742
  H  H74  1  0.617200  0.842600  0.934400  1.0  0.0768
  H  H75  1  0.298200  0.326500  0.438300  1.0  0.0864
  H  H76  1  0.189100  0.211800  0.324500  1.0  0.1238
  H  H77  1  0.395200  0.272700  0.464200  1.0  0.1165
  H  H78  1  0.398300  0.077200  0.364200  1.0  0.1252
  H  H79  1  0.076300  0.097400  0.445500  1.0  0.1167
  H  H80  1  0.188800  0.550100  0.458500  1.0  0.111
  H  H81  1  0.328200  0.330300  0.334100  1.0  0.098
  H  H82  1  0.330700  0.561500  0.380700  1.0  0.1133
  H  H83  1  0.066100  0.412400  0.305300  1.0  0.1253
  H  H84  1  0.348700  0.041400  0.322600  1.0  0.0945
  H  H85  1  0.266000  0.558400  0.420400  1.0  0.113
  H  H86  1  0.397300  0.551800  0.341100  1.0  0.1075
  H  H87  1  0.254400  0.113600  0.301000  1.0  0.1119
  H  H88  1  0.963800  0.325000  0.307600  1.0  0.1254
  H  H89  1  0.974000  0.082600  0.414800  1.0  0.0892
  H  H90  1  0.963000  0.157000  0.378400  1.0  0.1151
  H  H91  1  0.439500  0.122500  0.404900  1.0  0.1289
  H  H92  1  0.960800  0.235700  0.341300  1.0  0.11
  H  H93  1  0.464600  0.167600  0.448000  1.0  0.1158
  H  H94  1  0.179900  0.183200  0.434000  1.0  0.0917
  H  H95  1  0.163800  0.405800  0.336300  1.0  0.0742
  H  H96  1  0.117200  0.342600  0.434400  1.0  0.0768
  H  H97  1  0.326500  0.798200  0.188300  1.0  0.0855
  H  H98  1  0.211800  0.689100  0.074500  1.0  0.1242
  H  H99  1  0.272700  0.895200  0.214200  1.0  0.1162
  H  H100  1  0.077200  0.898300  0.114200  1.0  0.126
  H  H101  1  0.097400  0.576300  0.195500  1.0  0.1166
  H  H102  1  0.550100  0.688800  0.208500  1.0  0.1113
  H  H103  1  0.330300  0.828200  0.084100  1.0  0.0976
  H  H104  1  0.561500  0.830700  0.130700  1.0  0.1121
  H  H105  1  0.412400  0.566100  0.055300  1.0  0.1263
  H  H106  1  0.041400  0.848700  0.072600  1.0  0.0947
  H  H107  1  0.558400  0.766000  0.170400  1.0  0.1124
  H  H108  1  0.551800  0.897300  0.091100  1.0  0.1071
  H  H109  1  0.113600  0.754400  0.051000  1.0  0.1122
  H  H110  1  0.325000  0.463800  0.057600  1.0  0.1247
  H  H111  1  0.082600  0.474000  0.164800  1.0  0.0879
  H  H112  1  0.157000  0.463000  0.128400  1.0  0.1161
  H  H113  1  0.122500  0.939500  0.154900  1.0  0.1293
  H  H114  1  0.235700  0.460800  0.091300  1.0  0.1094
  H  H115  1  0.167600  0.964600  0.198000  1.0  0.1153
  H  H116  1  0.183200  0.679900  0.184000  1.0  0.0921
  H  H117  1  0.405800  0.663800  0.086300  1.0  0.0747
  H  H118  1  0.342600  0.617200  0.184400  1.0  0.0766
  H  H119  1  0.826500  0.298200  0.688300  1.0  0.0855
  H  H120  1  0.711800  0.189100  0.574500  1.0  0.1242
  H  H121  1  0.772700  0.395200  0.714200  1.0  0.1162
  H  H122  1  0.577200  0.398300  0.614200  1.0  0.126
  H  H123  1  0.597400  0.076300  0.695500  1.0  0.1166
  H  H124  1  0.050100  0.188800  0.708500  1.0  0.1113
  H  H125  1  0.830300  0.328200  0.584100  1.0  0.0976
  H  H126  1  0.061500  0.330700  0.630700  1.0  0.1121
  H  H127  1  0.912400  0.066100  0.555300  1.0  0.1263
  H  H128  1  0.541400  0.348700  0.572600  1.0  0.0947
  H  H129  1  0.058400  0.266000  0.670400  1.0  0.1124
  H  H130  1  0.051800  0.397300  0.591100  1.0  0.1071
  H  H131  1  0.613600  0.254400  0.551000  1.0  0.1122
  H  H132  1  0.825000  0.963800  0.557600  1.0  0.1247
  H  H133  1  0.582600  0.974000  0.664800  1.0  0.0879
  H  H134  1  0.657000  0.963000  0.628400  1.0  0.1161
  H  H135  1  0.622500  0.439500  0.654900  1.0  0.1293
  H  H136  1  0.735700  0.960800  0.591300  1.0  0.1094
  H  H137  1  0.667600  0.464600  0.698000  1.0  0.1153
  H  H138  1  0.683200  0.179900  0.684000  1.0  0.0921
  H  H139  1  0.905800  0.163800  0.586300  1.0  0.0747
  H  H140  1  0.842600  0.117200  0.684400  1.0  0.0766
  H  H141  1  0.173500  0.701800  0.688300  1.0  0.085
  H  H142  1  0.288200  0.810900  0.574500  1.0  0.124
  H  H143  1  0.227300  0.604800  0.714200  1.0  0.117
  H  H144  1  0.422800  0.601700  0.614200  1.0  0.1251
  H  H145  1  0.402600  0.923700  0.695500  1.0  0.1164
  H  H146  1  0.949900  0.811200  0.708500  1.0  0.1115
  H  H147  1  0.169700  0.671800  0.584100  1.0  0.0975
  H  H148  1  0.938500  0.669300  0.630700  1.0  0.1128
  H  H149  1  0.087600  0.933900  0.555300  1.0  0.126
  H  H150  1  0.458600  0.651300  0.572600  1.0  0.0945
  H  H151  1  0.941600  0.734000  0.670400  1.0  0.113
  H  H152  1  0.948200  0.602700  0.591100  1.0  0.1076
  H  H153  1  0.386400  0.745600  0.551000  1.0  0.1122
  H  H154  1  0.175000  0.036200  0.557600  1.0  0.1249
  H  H155  1  0.417400  0.026000  0.664800  1.0  0.0889
  H  H156  1  0.343000  0.037000  0.628400  1.0  0.1163
  H  H157  1  0.377500  0.560500  0.654900  1.0  0.1288
  H  H158  1  0.264300  0.039200  0.591300  1.0  0.1097
  H  H159  1  0.332400  0.535400  0.698000  1.0  0.1155
  H  H160  1  0.316800  0.820100  0.684000  1.0  0.092
  H  H161  1  0.094200  0.836200  0.586300  1.0  0.0743
  H  H162  1  0.157400  0.882800  0.684400  1.0  0.0763
  H  H163  1  0.673500  0.201800  0.188300  1.0  0.085
  H  H164  1  0.788200  0.310900  0.074500  1.0  0.124
  H  H165  1  0.727300  0.104800  0.214200  1.0  0.117
  H  H166  1  0.922800  0.101700  0.114200  1.0  0.1251
  H  H167  1  0.902600  0.423700  0.195500  1.0  0.1164
  H  H168  1  0.449900  0.311200  0.208500  1.0  0.1115
  H  H169  1  0.669700  0.171800  0.084100  1.0  0.0975
  H  H170  1  0.438500  0.169300  0.130700  1.0  0.1128
  H  H171  1  0.587600  0.433900  0.055300  1.0  0.126
  H  H172  1  0.958600  0.151300  0.072600  1.0  0.0945
  H  H173  1  0.441600  0.234000  0.170400  1.0  0.113
  H  H174  1  0.448200  0.102700  0.091100  1.0  0.1076
  H  H175  1  0.886400  0.245600  0.051000  1.0  0.1122
  H  H176  1  0.675000  0.536200  0.057600  1.0  0.1249
  H  H177  1  0.917400  0.526000  0.164800  1.0  0.0889
  H  H178  1  0.843000  0.537000  0.128400  1.0  0.1163
  H  H179  1  0.877500  0.060500  0.154900  1.0  0.1288
  H  H180  1  0.764300  0.539200  0.091300  1.0  0.1097
  H  H181  1  0.832400  0.035400  0.198000  1.0  0.1155
  H  H182  1  0.816800  0.320100  0.184000  1.0  0.092
  H  H183  1  0.594200  0.336200  0.086300  1.0  0.0743
  H  H184  1  0.657400  0.382800  0.184400  1.0  0.0763
  H  H185  1  0.326500  0.201800  0.688300  1.0  0.0855
  H  H186  1  0.211800  0.310900  0.574500  1.0  0.124
  H  H187  1  0.272700  0.104800  0.714200  1.0  0.1163
  H  H188  1  0.077200  0.101700  0.614200  1.0  0.1252
  H  H189  1  0.097400  0.423700  0.695500  1.0  0.1167
  H  H190  1  0.550100  0.311200  0.708500  1.0  0.1117
  H  H191  1  0.330300  0.171800  0.584100  1.0  0.0978
  H  H192  1  0.561500  0.169300  0.630700  1.0  0.1128
  H  H193  1  0.412400  0.433900  0.555300  1.0  0.1263
  H  H194  1  0.041400  0.151300  0.572600  1.0  0.0944
  H  H195  1  0.558400  0.234000  0.670400  1.0  0.1132
  H  H196  1  0.551800  0.102700  0.591100  1.0  0.1072
  H  H197  1  0.113600  0.245600  0.551000  1.0  0.1126
  H  H198  1  0.325000  0.536200  0.557600  1.0  0.125
  H  H199  1  0.082600  0.526000  0.664800  1.0  0.0877
  H  H200  1  0.157000  0.537000  0.628400  1.0  0.1164
  H  H201  1  0.122500  0.060500  0.654900  1.0  0.1286
  H  H202  1  0.235700  0.539200  0.591300  1.0  0.1103
  H  H203  1  0.167600  0.035400  0.698000  1.0  0.1158
  H  H204  1  0.183200  0.320100  0.684000  1.0  0.092
  H  H205  1  0.405800  0.336200  0.586300  1.0  0.0744
  H  H206  1  0.342600  0.382800  0.684400  1.0  0.0764
  H  H207  1  0.826500  0.701800  0.188300  1.0  0.0855
  H  H208  1  0.711800  0.810900  0.074500  1.0  0.124
  H  H209  1  0.772700  0.604800  0.214200  1.0  0.1163
  H  H210  1  0.577200  0.601700  0.114200  1.0  0.1252
  H  H211  1  0.597400  0.923700  0.195500  1.0  0.1167
  H  H212  1  0.050100  0.811200  0.208500  1.0  0.1117
  H  H213  1  0.830300  0.671800  0.084100  1.0  0.0978
  H  H214  1  0.061500  0.669300  0.130700  1.0  0.1128
  H  H215  1  0.912400  0.933900  0.055300  1.0  0.1263
  H  H216  1  0.541400  0.651300  0.072600  1.0  0.0944
  H  H217  1  0.058400  0.734000  0.170400  1.0  0.1132
  H  H218  1  0.051800  0.602700  0.091100  1.0  0.1072
  H  H219  1  0.613600  0.745600  0.051000  1.0  0.1126
  H  H220  1  0.825000  0.036200  0.057600  1.0  0.125
  H  H221  1  0.582600  0.026000  0.164800  1.0  0.0877
  H  H222  1  0.657000  0.037000  0.128400  1.0  0.1164
  H  H223  1  0.622500  0.560500  0.154900  1.0  0.1286
  H  H224  1  0.735700  0.039200  0.091300  1.0  0.1103
  H  H225  1  0.667600  0.535400  0.198000  1.0  0.1158
  H  H226  1  0.683200  0.820100  0.184000  1.0  0.092
  H  H227  1  0.905800  0.836200  0.086300  1.0  0.0744
  H  H228  1  0.842600  0.882800  0.184400  1.0  0.0764
  H  H229  1  0.173500  0.298200  0.188300  1.0  0.085
  H  H230  1  0.288200  0.189100  0.074500  1.0  0.1243
  H  H231  1  0.227300  0.395200  0.214200  1.0  0.1168
  H  H232  1  0.422800  0.398300  0.114200  1.0  0.1258
  H  H233  1  0.402600  0.076300  0.195500  1.0  0.1164
  H  H234  1  0.949900  0.188800  0.208500  1.0  0.1113
  H  H235  1  0.169700  0.328200  0.084100  1.0  0.0974
  H  H236  1  0.938500  0.330700  0.130700  1.0  0.1126
  H  H237  1  0.087600  0.066100  0.055300  1.0  0.1259
  H  H238  1  0.458600  0.348700  0.072600  1.0  0.0946
  H  H239  1  0.941600  0.266000  0.170400  1.0  0.1132
  H  H240  1  0.948200  0.397300  0.091100  1.0  0.1077
  H  H241  1  0.386400  0.254400  0.051000  1.0  0.1123
  H  H242  1  0.175000  0.963800  0.057600  1.0  0.1247
  H  H243  1  0.417400  0.974000  0.164800  1.0  0.0892
  H  H244  1  0.343000  0.963000  0.128400  1.0  0.1157
  H  H245  1  0.377500  0.439500  0.154900  1.0  0.1294
  H  H246  1  0.264300  0.960800  0.091300  1.0  0.1093
  H  H247  1  0.332400  0.464600  0.198000  1.0  0.1151
  H  H248  1  0.316800  0.179900  0.184000  1.0  0.0918
  H  H249  1  0.094200  0.163800  0.086300  1.0  0.0748
  H  H250  1  0.157400  0.117200  0.184400  1.0  0.0767
  H  H251  1  0.673500  0.798200  0.688300  1.0  0.085
  H  H252  1  0.788200  0.689100  0.574500  1.0  0.1243
  H  H253  1  0.727300  0.895200  0.714200  1.0  0.1168
  H  H254  1  0.922800  0.898300  0.614200  1.0  0.1258
  H  H255  1  0.902600  0.576300  0.695500  1.0  0.1164
  H  H256  1  0.449900  0.688800  0.708500  1.0  0.1113
  H  H257  1  0.669700  0.828200  0.584100  1.0  0.0974
  H  H258  1  0.438500  0.830700  0.630700  1.0  0.1126
  H  H259  1  0.587600  0.566100  0.555300  1.0  0.1259
  H  H260  1  0.958600  0.848700  0.572600  1.0  0.0946
  H  H261  1  0.441600  0.766000  0.670400  1.0  0.1132
  H  H262  1  0.448200  0.897300  0.591100  1.0  0.1077
  H  H263  1  0.886400  0.754400  0.551000  1.0  0.1123
  H  H264  1  0.675000  0.463800  0.557600  1.0  0.1247
  H  H265  1  0.917400  0.474000  0.664800  1.0  0.0892
  H  H266  1  0.843000  0.463000  0.628400  1.0  0.1157
  H  H267  1  0.877500  0.939500  0.654900  1.0  0.1294
  H  H268  1  0.764300  0.460800  0.591300  1.0  0.1093
  H  H269  1  0.832400  0.964600  0.698000  1.0  0.1151
  H  H270  1  0.816800  0.679900  0.684000  1.0  0.0918
  H  H271  1  0.594200  0.663800  0.586300  1.0  0.0748
  H  H272  1  0.657400  0.617200  0.684400  1.0  0.0767
  H  H273  1  0.701800  0.326500  0.938300  1.0  0.0861
  H  H274  1  0.810900  0.211800  0.824500  1.0  0.1237
  H  H275  1  0.604800  0.272700  0.964200  1.0  0.1162
  H  H276  1  0.601700  0.077200  0.864200  1.0  0.1254
  H  H277  1  0.923700  0.097400  0.945500  1.0  0.1168
  H  H278  1  0.811200  0.550100  0.958500  1.0  0.1114
  H  H279  1  0.671800  0.330300  0.834100  1.0  0.0978
  H  H280  1  0.669300  0.561500  0.880700  1.0  0.113
  H  H281  1  0.933900  0.412400  0.805300  1.0  0.1251
  H  H282  1  0.651300  0.041400  0.822600  1.0  0.094
  H  H283  1  0.734000  0.558400  0.920400  1.0  0.1135
  H  H284  1  0.602700  0.551800  0.841100  1.0  0.1074
  H  H285  1  0.745600  0.113600  0.801000  1.0  0.1123
  H  H286  1  0.036200  0.325000  0.807600  1.0  0.1252
  H  H287  1  0.026000  0.082600  0.914800  1.0  0.0883
  H  H288  1  0.037000  0.157000  0.878400  1.0  0.1153
  H  H289  1  0.560500  0.122500  0.904900  1.0  0.129
  H  H290  1  0.039200  0.235700  0.841300  1.0  0.1097
  H  H291  1  0.535400  0.167600  0.948000  1.0  0.1153
  H  H292  1  0.820100  0.183200  0.934000  1.0  0.092
  H  H293  1  0.836200  0.405800  0.836300  1.0  0.0743
  H  H294  1  0.882800  0.342600  0.934400  1.0  0.0768
  H  H295  1  0.201800  0.826500  0.438300  1.0  0.0861
  H  H296  1  0.310900  0.711800  0.324500  1.0  0.1237
  H  H297  1  0.104800  0.772700  0.464200  1.0  0.1162
  H  H298  1  0.101700  0.577200  0.364200  1.0  0.1254
  H  H299  1  0.423700  0.597400  0.445500  1.0  0.1168
  H  H300  1  0.311200  0.050100  0.458500  1.0  0.1114
  H  H301  1  0.171800  0.830300  0.334100  1.0  0.0978
  H  H302  1  0.169300  0.061500  0.380700  1.0  0.113
  H  H303  1  0.433900  0.912400  0.305300  1.0  0.1251
  H  H304  1  0.151300  0.541400  0.322600  1.0  0.094
  H  H305  1  0.234000  0.058400  0.420400  1.0  0.1135
  H  H306  1  0.102700  0.051800  0.341100  1.0  0.1074
  H  H307  1  0.245600  0.613600  0.301000  1.0  0.1123
  H  H308  1  0.536200  0.825000  0.307600  1.0  0.1252
  H  H309  1  0.526000  0.582600  0.414800  1.0  0.0883
  H  H310  1  0.537000  0.657000  0.378400  1.0  0.1153
  H  H311  1  0.060500  0.622500  0.404900  1.0  0.129
  H  H312  1  0.539200  0.735700  0.341300  1.0  0.1097
  H  H313  1  0.035400  0.667600  0.448000  1.0  0.1153
  H  H314  1  0.320100  0.683200  0.434000  1.0  0.092
  H  H315  1  0.336200  0.905800  0.336300  1.0  0.0743
  H  H316  1  0.382800  0.842600  0.434400  1.0  0.0768
  H  H317  1  0.798200  0.173500  0.438300  1.0  0.0862
  H  H318  1  0.689100  0.288200  0.324500  1.0  0.1238
  H  H319  1  0.895200  0.227300  0.464200  1.0  0.1168
  H  H320  1  0.898300  0.422800  0.364200  1.0  0.1253
  H  H321  1  0.576300  0.402600  0.445500  1.0  0.1166
  H  H322  1  0.688800  0.949900  0.458500  1.0  0.1114
  H  H323  1  0.828200  0.169700  0.334100  1.0  0.098
  H  H324  1  0.830700  0.938500  0.380700  1.0  0.1129
  H  H325  1  0.566100  0.087600  0.305300  1.0  0.1255
  H  H326  1  0.848700  0.458600  0.322600  1.0  0.095
  H  H327  1  0.766000  0.941600  0.420400  1.0  0.1128
  H  H328  1  0.897300  0.948200  0.341100  1.0  0.1073
  H  H329  1  0.754400  0.386400  0.301000  1.0  0.1124
  H  H330  1  0.463800  0.175000  0.307600  1.0  0.1252
  H  H331  1  0.474000  0.417400  0.414800  1.0  0.0885
  H  H332  1  0.463000  0.343000  0.378400  1.0  0.1154
  H  H333  1  0.939500  0.377500  0.404900  1.0  0.1294
  H  H334  1  0.460800  0.264300  0.341300  1.0  0.1105
  H  H335  1  0.964600  0.332400  0.448000  1.0  0.1156
  H  H336  1  0.679900  0.316800  0.434000  1.0  0.092
  H  H337  1  0.663800  0.094200  0.336300  1.0  0.0742
  H  H338  1  0.617200  0.157400  0.434400  1.0  0.0765
  H  H339  1  0.298200  0.673500  0.938300  1.0  0.0862
  H  H340  1  0.189100  0.788200  0.824500  1.0  0.1238
  H  H341  1  0.395200  0.727300  0.964200  1.0  0.1168
  H  H342  1  0.398300  0.922800  0.864200  1.0  0.1253
  H  H343  1  0.076300  0.902600  0.945500  1.0  0.1166
  H  H344  1  0.188800  0.449900  0.958500  1.0  0.1114
  H  H345  1  0.328200  0.669700  0.834100  1.0  0.098
  H  H346  1  0.330700  0.438500  0.880700  1.0  0.1129
  H  H347  1  0.066100  0.587600  0.805300  1.0  0.1255
  H  H348  1  0.348700  0.958600  0.822600  1.0  0.095
  H  H349  1  0.266000  0.441600  0.920400  1.0  0.1128
  H  H350  1  0.397300  0.448200  0.841100  1.0  0.1073
  H  H351  1  0.254400  0.886400  0.801000  1.0  0.1124
  H  H352  1  0.963800  0.675000  0.807600  1.0  0.1252
  H  H353  1  0.974000  0.917400  0.914800  1.0  0.0885
  H  H354  1  0.963000  0.843000  0.878400  1.0  0.1154
  H  H355  1  0.439500  0.877500  0.904900  1.0  0.1294
  H  H356  1  0.960800  0.764300  0.841300  1.0  0.1105
  H  H357  1  0.464600  0.832400  0.948000  1.0  0.1156
  H  H358  1  0.179900  0.816800  0.934000  1.0  0.092
  H  H359  1  0.163800  0.594200  0.836300  1.0  0.0742
  H  H360  1  0.117200  0.657400  0.934400  1.0  0.0765
  Ir  Ir361  1  0.784290  0.707190  0.383080  1.0  0.4404
  Ir  Ir362  1  0.284290  0.207190  0.883080  1.0  0.4404
  Ir  Ir363  1  0.715710  0.792810  0.883080  1.0  0.4419
  Ir  Ir364  1  0.215710  0.292810  0.383080  1.0  0.4419
  Ir  Ir365  1  0.292810  0.715710  0.133080  1.0  0.4386
  Ir  Ir366  1  0.792810  0.215710  0.633080  1.0  0.4386
  Ir  Ir367  1  0.207190  0.784290  0.633080  1.0  0.4381
  Ir  Ir368  1  0.707190  0.284290  0.133080  1.0  0.4381
  Ir  Ir369  1  0.292810  0.284290  0.633080  1.0  0.439
  Ir  Ir370  1  0.792810  0.784290  0.133080  1.0  0.439
  Ir  Ir371  1  0.207190  0.215710  0.133080  1.0  0.4376
  Ir  Ir372  1  0.707190  0.715710  0.633080  1.0  0.4376
  Ir  Ir373  1  0.784290  0.292810  0.883080  1.0  0.4404
  Ir  Ir374  1  0.284290  0.792810  0.383080  1.0  0.4404
  Ir  Ir375  1  0.715710  0.207190  0.383080  1.0  0.4418
  Ir  Ir376  1  0.215710  0.707190  0.883080  1.0  0.4418
  C  C377  1  0.856200  0.552800  0.449970  1.0  -0.1485
  C  C378  1  0.675100  0.716700  0.431700  1.0  0.1503
  C  C379  1  0.679400  0.835900  0.370700  1.0  -0.048
  C  C380  1  0.630800  0.559000  0.332910  1.0  -0.1614
  C  C381  1  0.743100  0.794500  0.359000  1.0  -0.1333
  C  C382  1  0.713200  0.548100  0.380320  1.0  0.1876
  C  C383  1  0.769300  0.814500  0.332500  1.0  -0.045
  C  C384  1  0.933000  0.788500  0.382600  1.0  -0.0614
  C  C385  1  0.616100  0.748100  0.447200  1.0  -0.0812
  C  C386  1  0.643800  0.896200  0.356700  1.0  -0.1703
  C  C387  1  0.924600  0.874400  0.429300  1.0  -0.1343
  C  C388  1  0.810900  0.490500  0.445930  1.0  -0.0519
  C  C389  1  0.671900  0.622600  0.343520  1.0  0.1236
  C  C390  1  0.670300  0.484900  0.370800  1.0  -0.1284
  C  C391  1  0.935000  0.625500  0.318900  1.0  -0.1316
  C  C392  1  0.864200  0.782200  0.398480  1.0  -0.0872
  C  C393  1  0.672400  0.915700  0.331600  1.0  -0.0891
  C  C394  1  0.589800  0.567700  0.305930  1.0  0.6969
  C  C395  1  0.651400  0.805800  0.397700  1.0  0.1876
  C  C396  1  0.764000  0.485900  0.423350  1.0  -0.1085
  C  C397  1  0.630700  0.490800  0.347540  1.0  -0.0136
  C  C398  1  0.731400  0.874100  0.318800  1.0  -0.0946
  C  C399  1  0.996100  0.677100  0.320300  1.0  -0.1189
  C  C400  1  0.987100  0.881100  0.411100  1.0  -0.0692
  C  C401  1  0.993000  0.839300  0.389400  1.0  -0.1183
  C  C402  1  0.590300  0.837500  0.412300  1.0  -0.1259
  C  C403  1  0.997400  0.730000  0.340100  1.0  -0.0531
  C  C404  1  0.574400  0.809700  0.437500  1.0  -0.0967
  C  C405  1  0.761300  0.546300  0.405260  1.0  0.1426
  C  C406  1  0.907200  0.562100  0.474450  1.0  0.6329
  C  C407  1  0.936900  0.734500  0.358900  1.0  0.1003
  C  C408  1  0.862300  0.822700  0.422200  1.0  -0.0384
  C  C409  1  0.876600  0.630300  0.337290  1.0  0.1704
  C  C410  1  0.852600  0.613100  0.431390  1.0  0.1533
  C  C411  1  0.356200  0.052800  0.949970  1.0  -0.1485
  C  C412  1  0.175100  0.216700  0.931700  1.0  0.1503
  C  C413  1  0.179400  0.335900  0.870700  1.0  -0.048
  C  C414  1  0.130800  0.059000  0.832910  1.0  -0.1614
  C  C415  1  0.243100  0.294500  0.859000  1.0  -0.1333
  C  C416  1  0.213200  0.048100  0.880320  1.0  0.1876
  C  C417  1  0.269300  0.314500  0.832500  1.0  -0.045
  C  C418  1  0.433000  0.288500  0.882600  1.0  -0.0614
  C  C419  1  0.116100  0.248100  0.947200  1.0  -0.0812
  C  C420  1  0.143800  0.396200  0.856700  1.0  -0.1703
  C  C421  1  0.424600  0.374400  0.929300  1.0  -0.1343
  C  C422  1  0.310900  0.990500  0.945930  1.0  -0.0519
  C  C423  1  0.171900  0.122600  0.843520  1.0  0.1236
  C  C424  1  0.170300  0.984900  0.870800  1.0  -0.1284
  C  C425  1  0.435000  0.125500  0.818900  1.0  -0.1316
  C  C426  1  0.364200  0.282200  0.898480  1.0  -0.0872
  C  C427  1  0.172400  0.415700  0.831600  1.0  -0.0891
  C  C428  1  0.089800  0.067700  0.805930  1.0  0.6969
  C  C429  1  0.151400  0.305800  0.897700  1.0  0.1876
  C  C430  1  0.264000  0.985900  0.923350  1.0  -0.1085
  C  C431  1  0.130700  0.990800  0.847540  1.0  -0.0136
  C  C432  1  0.231400  0.374100  0.818800  1.0  -0.0946
  C  C433  1  0.496100  0.177100  0.820300  1.0  -0.1189
  C  C434  1  0.487100  0.381100  0.911100  1.0  -0.0692
  C  C435  1  0.493000  0.339300  0.889400  1.0  -0.1183
  C  C436  1  0.090300  0.337500  0.912300  1.0  -0.1259
  C  C437  1  0.497400  0.230000  0.840100  1.0  -0.0531
  C  C438  1  0.074400  0.309700  0.937500  1.0  -0.0967
  C  C439  1  0.261300  0.046300  0.905260  1.0  0.1426
  C  C440  1  0.407200  0.062100  0.974450  1.0  0.6329
  C  C441  1  0.436900  0.234500  0.858900  1.0  0.1003
  C  C442  1  0.362300  0.322700  0.922200  1.0  -0.0384
  C  C443  1  0.376600  0.130300  0.837290  1.0  0.1704
  C  C444  1  0.352600  0.113100  0.931390  1.0  0.1533
  C  C445  1  0.643800  0.947200  0.949970  1.0  -0.1492
  C  C446  1  0.824900  0.783300  0.931700  1.0  0.1476
  C  C447  1  0.820600  0.664100  0.870700  1.0  -0.0484
  C  C448  1  0.869200  0.941000  0.832910  1.0  -0.1621
  C  C449  1  0.756900  0.705500  0.859000  1.0  -0.1347
  C  C450  1  0.786800  0.951900  0.880320  1.0  0.1879
  C  C451  1  0.730700  0.685500  0.832500  1.0  -0.0435
  C  C452  1  0.567000  0.711500  0.882600  1.0  -0.0614
  C  C453  1  0.883900  0.751900  0.947200  1.0  -0.082
  C  C454  1  0.856200  0.603800  0.856700  1.0  -0.1693
  C  C455  1  0.575400  0.625600  0.929300  1.0  -0.133
  C  C456  1  0.689100  0.009500  0.945930  1.0  -0.0518
  C  C457  1  0.828100  0.877400  0.843520  1.0  0.1238
  C  C458  1  0.829700  0.015100  0.870800  1.0  -0.129
  C  C459  1  0.565000  0.874500  0.818900  1.0  -0.1331
  C  C460  1  0.635800  0.717800  0.898480  1.0  -0.0878
  C  C461  1  0.827600  0.584300  0.831600  1.0  -0.0885
  C  C462  1  0.910200  0.932300  0.805930  1.0  0.697
  C  C463  1  0.848600  0.694200  0.897700  1.0  0.1879
  C  C464  1  0.736000  0.014100  0.923350  1.0  -0.1093
  C  C465  1  0.869300  0.009200  0.847540  1.0  -0.0157
  C  C466  1  0.768600  0.625900  0.818800  1.0  -0.0945
  C  C467  1  0.503900  0.822900  0.820300  1.0  -0.1178
  C  C468  1  0.512900  0.618900  0.911100  1.0  -0.0727
  C  C469  1  0.507000  0.660700  0.889400  1.0  -0.1187
  C  C470  1  0.909700  0.662500  0.912300  1.0  -0.1248
  C  C471  1  0.502600  0.770000  0.840100  1.0  -0.0543
  C  C472  1  0.925600  0.690300  0.937500  1.0  -0.0939
  C  C473  1  0.738700  0.953700  0.905260  1.0  0.1426
  C  C474  1  0.592800  0.937900  0.974450  1.0  0.6335
  C  C475  1  0.563100  0.765500  0.858900  1.0  0.1007
  C  C476  1  0.637700  0.677300  0.922200  1.0  -0.0388
  C  C477  1  0.623400  0.869700  0.837290  1.0  0.1689
  C  C478  1  0.647400  0.886900  0.931390  1.0  0.1519
  C  C479  1  0.143800  0.447200  0.449970  1.0  -0.1492
  C  C480  1  0.324900  0.283300  0.431700  1.0  0.1476
  C  C481  1  0.320600  0.164100  0.370700  1.0  -0.0484
  C  C482  1  0.369200  0.441000  0.332910  1.0  -0.1621
  C  C483  1  0.256900  0.205500  0.359000  1.0  -0.1347
  C  C484  1  0.286800  0.451900  0.380320  1.0  0.1879
  C  C485  1  0.230700  0.185500  0.332500  1.0  -0.0435
  C  C486  1  0.067000  0.211500  0.382600  1.0  -0.0614
  C  C487  1  0.383900  0.251900  0.447200  1.0  -0.082
  C  C488  1  0.356200  0.103800  0.356700  1.0  -0.1693
  C  C489  1  0.075400  0.125600  0.429300  1.0  -0.133
  C  C490  1  0.189100  0.509500  0.445930  1.0  -0.0518
  C  C491  1  0.328100  0.377400  0.343520  1.0  0.1238
  C  C492  1  0.329700  0.515100  0.370800  1.0  -0.129
  C  C493  1  0.065000  0.374500  0.318900  1.0  -0.1331
  C  C494  1  0.135800  0.217800  0.398480  1.0  -0.0878
  C  C495  1  0.327600  0.084300  0.331600  1.0  -0.0885
  C  C496  1  0.410200  0.432300  0.305930  1.0  0.697
  C  C497  1  0.348600  0.194200  0.397700  1.0  0.1879
  C  C498  1  0.236000  0.514100  0.423350  1.0  -0.1093
  C  C499  1  0.369300  0.509200  0.347540  1.0  -0.0157
  C  C500  1  0.268600  0.125900  0.318800  1.0  -0.0945
  C  C501  1  0.003900  0.322900  0.320300  1.0  -0.1178
  C  C502  1  0.012900  0.118900  0.411100  1.0  -0.0727
  C  C503  1  0.007000  0.160700  0.389400  1.0  -0.1187
  C  C504  1  0.409700  0.162500  0.412300  1.0  -0.1248
  C  C505  1  0.002600  0.270000  0.340100  1.0  -0.0543
  C  C506  1  0.425600  0.190300  0.437500  1.0  -0.0939
  C  C507  1  0.238700  0.453700  0.405260  1.0  0.1426
  C  C508  1  0.092800  0.437900  0.474450  1.0  0.6335
  C  C509  1  0.063100  0.265500  0.358900  1.0  0.1007
  C  C510  1  0.137700  0.177300  0.422200  1.0  -0.0388
  C  C511  1  0.123400  0.369700  0.337290  1.0  0.1689
  C  C512  1  0.147400  0.386900  0.431390  1.0  0.1519
  C  C513  1  0.447200  0.643800  0.199970  1.0  -0.1475
  C  C514  1  0.283300  0.824900  0.181700  1.0  0.1479
  C  C515  1  0.164100  0.820600  0.120700  1.0  -0.0485
  C  C516  1  0.441000  0.869200  0.082910  1.0  -0.1609
  C  C517  1  0.205500  0.756900  0.109000  1.0  -0.1317
  C  C518  1  0.451900  0.786800  0.130320  1.0  0.1881
  C  C519  1  0.185500  0.730700  0.082500  1.0  -0.0465
  C  C520  1  0.211500  0.567000  0.132600  1.0  -0.0617
  C  C521  1  0.251900  0.883900  0.197200  1.0  -0.0831
  C  C522  1  0.103800  0.856200  0.106700  1.0  -0.169
  C  C523  1  0.125600  0.575400  0.179300  1.0  -0.1354
  C  C524  1  0.509500  0.689100  0.195930  1.0  -0.0517
  C  C525  1  0.377400  0.828100  0.093520  1.0  0.121
  C  C526  1  0.515100  0.829700  0.120800  1.0  -0.1305
  C  C527  1  0.374500  0.565000  0.068900  1.0  -0.1352
  C  C528  1  0.217800  0.635800  0.148480  1.0  -0.0873
  C  C529  1  0.084300  0.827600  0.081600  1.0  -0.0899
  C  C530  1  0.432300  0.910200  0.055930  1.0  0.6982
  C  C531  1  0.194200  0.848600  0.147700  1.0  0.1883
  C  C532  1  0.514100  0.736000  0.173350  1.0  -0.1085
  C  C533  1  0.509200  0.869300  0.097540  1.0  -0.0145
  C  C534  1  0.125900  0.768600  0.068800  1.0  -0.0954
  C  C535  1  0.322900  0.503900  0.070300  1.0  -0.119
  C  C536  1  0.118900  0.512900  0.161100  1.0  -0.0736
  C  C537  1  0.160700  0.507000  0.139400  1.0  -0.1199
  C  C538  1  0.162500  0.909700  0.162300  1.0  -0.1258
  C  C539  1  0.270000  0.502600  0.090100  1.0  -0.0551
  C  C540  1  0.190300  0.925600  0.187500  1.0  -0.0941
  C  C541  1  0.453700  0.738700  0.155260  1.0  0.142
  C  C542  1  0.437900  0.592800  0.224450  1.0  0.633
  C  C543  1  0.265500  0.563100  0.108900  1.0  0.0994
  C  C544  1  0.177300  0.637700  0.172200  1.0  -0.0381
  C  C545  1  0.369700  0.623400  0.087290  1.0  0.1688
  C  C546  1  0.386900  0.647400  0.181390  1.0  0.1528
  C  C547  1  0.947200  0.143800  0.699970  1.0  -0.1475
  C  C548  1  0.783300  0.324900  0.681700  1.0  0.1479
  C  C549  1  0.664100  0.320600  0.620700  1.0  -0.0485
  C  C550  1  0.941000  0.369200  0.582910  1.0  -0.1609
  C  C551  1  0.705500  0.256900  0.609000  1.0  -0.1317
  C  C552  1  0.951900  0.286800  0.630320  1.0  0.1881
  C  C553  1  0.685500  0.230700  0.582500  1.0  -0.0465
  C  C554  1  0.711500  0.067000  0.632600  1.0  -0.0617
  C  C555  1  0.751900  0.383900  0.697200  1.0  -0.0831
  C  C556  1  0.603800  0.356200  0.606700  1.0  -0.169
  C  C557  1  0.625600  0.075400  0.679300  1.0  -0.1354
  C  C558  1  0.009500  0.189100  0.695930  1.0  -0.0517
  C  C559  1  0.877400  0.328100  0.593520  1.0  0.121
  C  C560  1  0.015100  0.329700  0.620800  1.0  -0.1305
  C  C561  1  0.874500  0.065000  0.568900  1.0  -0.1352
  C  C562  1  0.717800  0.135800  0.648480  1.0  -0.0873
  C  C563  1  0.584300  0.327600  0.581600  1.0  -0.0899
  C  C564  1  0.932300  0.410200  0.555930  1.0  0.6982
  C  C565  1  0.694200  0.348600  0.647700  1.0  0.1883
  C  C566  1  0.014100  0.236000  0.673350  1.0  -0.1085
  C  C567  1  0.009200  0.369300  0.597540  1.0  -0.0145
  C  C568  1  0.625900  0.268600  0.568800  1.0  -0.0954
  C  C569  1  0.822900  0.003900  0.570300  1.0  -0.119
  C  C570  1  0.618900  0.012900  0.661100  1.0  -0.0736
  C  C571  1  0.660700  0.007000  0.639400  1.0  -0.1199
  C  C572  1  0.662500  0.409700  0.662300  1.0  -0.1258
  C  C573  1  0.770000  0.002600  0.590100  1.0  -0.0551
  C  C574  1  0.690300  0.425600  0.687500  1.0  -0.0941
  C  C575  1  0.953700  0.238700  0.655260  1.0  0.142
  C  C576  1  0.937900  0.092800  0.724450  1.0  0.633
  C  C577  1  0.765500  0.063100  0.608900  1.0  0.0994
  C  C578  1  0.677300  0.137700  0.672200  1.0  -0.0381
  C  C579  1  0.869700  0.123400  0.587290  1.0  0.1688
  C  C580  1  0.886900  0.147400  0.681390  1.0  0.1528
  C  C581  1  0.052800  0.856200  0.699970  1.0  -0.1482
  C  C582  1  0.216700  0.675100  0.681700  1.0  0.1462
  C  C583  1  0.335900  0.679400  0.620700  1.0  -0.049
  C  C584  1  0.059000  0.630800  0.582910  1.0  -0.1617
  C  C585  1  0.294500  0.743100  0.609000  1.0  -0.1334
  C  C586  1  0.048100  0.713200  0.630320  1.0  0.1879
  C  C587  1  0.314500  0.769300  0.582500  1.0  -0.0446
  C  C588  1  0.288500  0.933000  0.632600  1.0  -0.0617
  C  C589  1  0.248100  0.616100  0.697200  1.0  -0.0836
  C  C590  1  0.396200  0.643800  0.606700  1.0  -0.1699
  C  C591  1  0.374400  0.924600  0.679300  1.0  -0.1346
  C  C592  1  0.990500  0.810900  0.695930  1.0  -0.0509
  C  C593  1  0.122600  0.671900  0.593520  1.0  0.1199
  C  C594  1  0.984900  0.670300  0.620800  1.0  -0.1305
  C  C595  1  0.125500  0.935000  0.568900  1.0  -0.1334
  C  C596  1  0.282200  0.864200  0.648480  1.0  -0.087
  C  C597  1  0.415700  0.672400  0.581600  1.0  -0.0896
  C  C598  1  0.067700  0.589800  0.555930  1.0  0.696
  C  C599  1  0.305800  0.651400  0.647700  1.0  0.1888
  C  C600  1  0.985900  0.764000  0.673350  1.0  -0.1089
  C  C601  1  0.990800  0.630700  0.597540  1.0  -0.0136
  C  C602  1  0.374100  0.731400  0.568800  1.0  -0.0947
  C  C603  1  0.177100  0.996100  0.570300  1.0  -0.119
  C  C604  1  0.381100  0.987100  0.661100  1.0  -0.071
  C  C605  1  0.339300  0.993000  0.639400  1.0  -0.1195
  C  C606  1  0.337500  0.590300  0.662300  1.0  -0.1248
  C  C607  1  0.230000  0.997400  0.590100  1.0  -0.0529
  C  C608  1  0.309700  0.574400  0.687500  1.0  -0.0931
  C  C609  1  0.046300  0.761300  0.655260  1.0  0.1427
  C  C610  1  0.062100  0.907200  0.724450  1.0  0.6338
  C  C611  1  0.234500  0.936900  0.608900  1.0  0.0996
  C  C612  1  0.322700  0.862300  0.672200  1.0  -0.0381
  C  C613  1  0.130300  0.876600  0.587290  1.0  0.1695
  C  C614  1  0.113100  0.852600  0.681390  1.0  0.1531
  C  C615  1  0.552800  0.356200  0.199970  1.0  -0.1482
  C  C616  1  0.716700  0.175100  0.181700  1.0  0.1462
  C  C617  1  0.835900  0.179400  0.120700  1.0  -0.049
  C  C618  1  0.559000  0.130800  0.082910  1.0  -0.1617
  C  C619  1  0.794500  0.243100  0.109000  1.0  -0.1334
  C  C620  1  0.548100  0.213200  0.130320  1.0  0.1879
  C  C621  1  0.814500  0.269300  0.082500  1.0  -0.0446
  C  C622  1  0.788500  0.433000  0.132600  1.0  -0.0617
  C  C623  1  0.748100  0.116100  0.197200  1.0  -0.0836
  C  C624  1  0.896200  0.143800  0.106700  1.0  -0.1699
  C  C625  1  0.874400  0.424600  0.179300  1.0  -0.1346
  C  C626  1  0.490500  0.310900  0.195930  1.0  -0.0509
  C  C627  1  0.622600  0.171900  0.093520  1.0  0.1199
  C  C628  1  0.484900  0.170300  0.120800  1.0  -0.1305
  C  C629  1  0.625500  0.435000  0.068900  1.0  -0.1334
  C  C630  1  0.782200  0.364200  0.148480  1.0  -0.087
  C  C631  1  0.915700  0.172400  0.081600  1.0  -0.0896
  C  C632  1  0.567700  0.089800  0.055930  1.0  0.696
  C  C633  1  0.805800  0.151400  0.147700  1.0  0.1888
  C  C634  1  0.485900  0.264000  0.173350  1.0  -0.1089
  C  C635  1  0.490800  0.130700  0.097540  1.0  -0.0136
  C  C636  1  0.874100  0.231400  0.068800  1.0  -0.0947
  C  C637  1  0.677100  0.496100  0.070300  1.0  -0.119
  C  C638  1  0.881100  0.487100  0.161100  1.0  -0.071
  C  C639  1  0.839300  0.493000  0.139400  1.0  -0.1195
  C  C640  1  0.837500  0.090300  0.162300  1.0  -0.1248
  C  C641  1  0.730000  0.497400  0.090100  1.0  -0.0529
  C  C642  1  0.809700  0.074400  0.187500  1.0  -0.0931
  C  C643  1  0.546300  0.261300  0.155260  1.0  0.1427
  C  C644  1  0.562100  0.407200  0.224450  1.0  0.6338
  C  C645  1  0.734500  0.436900  0.108900  1.0  0.0996
  C  C646  1  0.822700  0.362300  0.172200  1.0  -0.0381
  C  C647  1  0.630300  0.376600  0.087290  1.0  0.1695
  C  C648  1  0.613100  0.352600  0.181390  1.0  0.1531
  C  C649  1  0.447200  0.356200  0.699970  1.0  -0.1486
  C  C650  1  0.283300  0.175100  0.681700  1.0  0.148
  C  C651  1  0.164100  0.179400  0.620700  1.0  -0.0479
  C  C652  1  0.441000  0.130800  0.582910  1.0  -0.1618
  C  C653  1  0.205500  0.243100  0.609000  1.0  -0.1325
  C  C654  1  0.451900  0.213200  0.630320  1.0  0.188
  C  C655  1  0.185500  0.269300  0.582500  1.0  -0.0461
  C  C656  1  0.211500  0.433000  0.632600  1.0  -0.0616
  C  C657  1  0.251900  0.116100  0.697200  1.0  -0.083
  C  C658  1  0.103800  0.143800  0.606700  1.0  -0.17
  C  C659  1  0.125600  0.424600  0.679300  1.0  -0.1357
  C  C660  1  0.509500  0.310900  0.695930  1.0  -0.0511
  C  C661  1  0.377400  0.171900  0.593520  1.0  0.1209
  C  C662  1  0.515100  0.170300  0.620800  1.0  -0.1309
  C  C663  1  0.374500  0.435000  0.568900  1.0  -0.1351
  C  C664  1  0.217800  0.364200  0.648480  1.0  -0.0869
  C  C665  1  0.084300  0.172400  0.581600  1.0  -0.0891
  C  C666  1  0.432300  0.089800  0.555930  1.0  0.6975
  C  C667  1  0.194200  0.151400  0.647700  1.0  0.1888
  C  C668  1  0.514100  0.264000  0.673350  1.0  -0.1088
  C  C669  1  0.509200  0.130700  0.597540  1.0  -0.0141
  C  C670  1  0.125900  0.231400  0.568800  1.0  -0.0955
  C  C671  1  0.322900  0.496100  0.570300  1.0  -0.1193
  C  C672  1  0.118900  0.487100  0.661100  1.0  -0.0719
  C  C673  1  0.160700  0.493000  0.639400  1.0  -0.1198
  C  C674  1  0.162500  0.090300  0.662300  1.0  -0.1254
  C  C675  1  0.270000  0.497400  0.590100  1.0  -0.0543
  C  C676  1  0.190300  0.074400  0.687500  1.0  -0.0947
  C  C677  1  0.453700  0.261300  0.655260  1.0  0.1426
  C  C678  1  0.437900  0.407200  0.724450  1.0  0.6332
  C  C679  1  0.265500  0.436900  0.608900  1.0  0.0996
  C  C680  1  0.177300  0.362300  0.672200  1.0  -0.0376
  C  C681  1  0.369700  0.376600  0.587290  1.0  0.1678
  C  C682  1  0.386900  0.352600  0.681390  1.0  0.1525
  C  C683  1  0.947200  0.856200  0.199970  1.0  -0.1486
  C  C684  1  0.783300  0.675100  0.181700  1.0  0.148
  C  C685  1  0.664100  0.679400  0.120700  1.0  -0.0479
  C  C686  1  0.941000  0.630800  0.082910  1.0  -0.1618
  C  C687  1  0.705500  0.743100  0.109000  1.0  -0.1325
  C  C688  1  0.951900  0.713200  0.130320  1.0  0.188
  C  C689  1  0.685500  0.769300  0.082500  1.0  -0.0461
  C  C690  1  0.711500  0.933000  0.132600  1.0  -0.0616
  C  C691  1  0.751900  0.616100  0.197200  1.0  -0.083
  C  C692  1  0.603800  0.643800  0.106700  1.0  -0.17
  C  C693  1  0.625600  0.924600  0.179300  1.0  -0.1357
  C  C694  1  0.009500  0.810900  0.195930  1.0  -0.0511
  C  C695  1  0.877400  0.671900  0.093520  1.0  0.1209
  C  C696  1  0.015100  0.670300  0.120800  1.0  -0.1309
  C  C697  1  0.874500  0.935000  0.068900  1.0  -0.1351
  C  C698  1  0.717800  0.864200  0.148480  1.0  -0.0869
  C  C699  1  0.584300  0.672400  0.081600  1.0  -0.0891
  C  C700  1  0.932300  0.589800  0.055930  1.0  0.6975
  C  C701  1  0.694200  0.651400  0.147700  1.0  0.1888
  C  C702  1  0.014100  0.764000  0.173350  1.0  -0.1088
  C  C703  1  0.009200  0.630700  0.097540  1.0  -0.0141
  C  C704  1  0.625900  0.731400  0.068800  1.0  -0.0955
  C  C705  1  0.822900  0.996100  0.070300  1.0  -0.1193
  C  C706  1  0.618900  0.987100  0.161100  1.0  -0.0719
  C  C707  1  0.660700  0.993000  0.139400  1.0  -0.1198
  C  C708  1  0.662500  0.590300  0.162300  1.0  -0.1254
  C  C709  1  0.770000  0.997400  0.090100  1.0  -0.0543
  C  C710  1  0.690300  0.574400  0.187500  1.0  -0.0947
  C  C711  1  0.953700  0.761300  0.155260  1.0  0.1426
  C  C712  1  0.937900  0.907200  0.224450  1.0  0.6332
  C  C713  1  0.765500  0.936900  0.108900  1.0  0.0996
  C  C714  1  0.677300  0.862300  0.172200  1.0  -0.0376
  C  C715  1  0.869700  0.876600  0.087290  1.0  0.1678
  C  C716  1  0.886900  0.852600  0.181390  1.0  0.1525
  C  C717  1  0.052800  0.143800  0.199970  1.0  -0.147
  C  C718  1  0.216700  0.324900  0.181700  1.0  0.1466
  C  C719  1  0.335900  0.320600  0.120700  1.0  -0.0492
  C  C720  1  0.059000  0.369200  0.082910  1.0  -0.1609
  C  C721  1  0.294500  0.256900  0.109000  1.0  -0.1331
  C  C722  1  0.048100  0.286800  0.130320  1.0  0.1878
  C  C723  1  0.314500  0.230700  0.082500  1.0  -0.0452
  C  C724  1  0.288500  0.067000  0.132600  1.0  -0.0618
  C  C725  1  0.248100  0.383900  0.197200  1.0  -0.0837
  C  C726  1  0.396200  0.356200  0.106700  1.0  -0.1689
  C  C727  1  0.374400  0.075400  0.179300  1.0  -0.1341
  C  C728  1  0.990500  0.189100  0.195930  1.0  -0.0519
  C  C729  1  0.122600  0.328100  0.093520  1.0  0.1198
  C  C730  1  0.984900  0.329700  0.120800  1.0  -0.1304
  C  C731  1  0.125500  0.065000  0.068900  1.0  -0.1332
  C  C732  1  0.282200  0.135800  0.148480  1.0  -0.0874
  C  C733  1  0.415700  0.327600  0.081600  1.0  -0.0901
  C  C734  1  0.067700  0.410200  0.055930  1.0  0.6969
  C  C735  1  0.305800  0.348600  0.147700  1.0  0.1885
  C  C736  1  0.985900  0.236000  0.173350  1.0  -0.1087
  C  C737  1  0.990800  0.369300  0.097540  1.0  -0.0146
  C  C738  1  0.374100  0.268600  0.068800  1.0  -0.0945
  C  C739  1  0.177100  0.003900  0.070300  1.0  -0.1189
  C  C740  1  0.381100  0.012900  0.161100  1.0  -0.0727
  C  C741  1  0.339300  0.007000  0.139400  1.0  -0.1199
  C  C742  1  0.337500  0.409700  0.162300  1.0  -0.1255
  C  C743  1  0.230000  0.002600  0.090100  1.0  -0.0533
  C  C744  1  0.309700  0.425600  0.187500  1.0  -0.0926
  C  C745  1  0.046300  0.238700  0.155260  1.0  0.1421
  C  C746  1  0.062100  0.092800  0.224450  1.0  0.6334
  C  C747  1  0.234500  0.063100  0.108900  1.0  0.0994
  C  C748  1  0.322700  0.137700  0.172200  1.0  -0.0383
  C  C749  1  0.130300  0.123400  0.087290  1.0  0.1702
  C  C750  1  0.113100  0.147400  0.181390  1.0  0.1532
  C  C751  1  0.552800  0.643800  0.699970  1.0  -0.147
  C  C752  1  0.716700  0.824900  0.681700  1.0  0.1466
  C  C753  1  0.835900  0.820600  0.620700  1.0  -0.0492
  C  C754  1  0.559000  0.869200  0.582910  1.0  -0.1609
  C  C755  1  0.794500  0.756900  0.609000  1.0  -0.1331
  C  C756  1  0.548100  0.786800  0.630320  1.0  0.1878
  C  C757  1  0.814500  0.730700  0.582500  1.0  -0.0452
  C  C758  1  0.788500  0.567000  0.632600  1.0  -0.0618
  C  C759  1  0.748100  0.883900  0.697200  1.0  -0.0837
  C  C760  1  0.896200  0.856200  0.606700  1.0  -0.1689
  C  C761  1  0.874400  0.575400  0.679300  1.0  -0.1341
  C  C762  1  0.490500  0.689100  0.695930  1.0  -0.0519
  C  C763  1  0.622600  0.828100  0.593520  1.0  0.1198
  C  C764  1  0.484900  0.829700  0.620800  1.0  -0.1304
  C  C765  1  0.625500  0.565000  0.568900  1.0  -0.1332
  C  C766  1  0.782200  0.635800  0.648480  1.0  -0.0874
  C  C767  1  0.915700  0.827600  0.581600  1.0  -0.0901
  C  C768  1  0.567700  0.910200  0.555930  1.0  0.6969
  C  C769  1  0.805800  0.848600  0.647700  1.0  0.1885
  C  C770  1  0.485900  0.736000  0.673350  1.0  -0.1087
  C  C771  1  0.490800  0.869300  0.597540  1.0  -0.0146
  C  C772  1  0.874100  0.768600  0.568800  1.0  -0.0945
  C  C773  1  0.677100  0.503900  0.570300  1.0  -0.1189
  C  C774  1  0.881100  0.512900  0.661100  1.0  -0.0727
  C  C775  1  0.839300  0.507000  0.639400  1.0  -0.1199
  C  C776  1  0.837500  0.909700  0.662300  1.0  -0.1255
  C  C777  1  0.730000  0.502600  0.590100  1.0  -0.0533
  C  C778  1  0.809700  0.925600  0.687500  1.0  -0.0926
  C  C779  1  0.546300  0.738700  0.655260  1.0  0.1421
  C  C780  1  0.562100  0.592800  0.724450  1.0  0.6334
  C  C781  1  0.734500  0.563100  0.608900  1.0  0.0994
  C  C782  1  0.822700  0.637700  0.672200  1.0  -0.0383
  C  C783  1  0.630300  0.623400  0.587290  1.0  0.1702
  C  C784  1  0.613100  0.647400  0.681390  1.0  0.1532
  C  C785  1  0.856200  0.447200  0.949970  1.0  -0.148
  C  C786  1  0.675100  0.283300  0.931700  1.0  0.1491
  C  C787  1  0.679400  0.164100  0.870700  1.0  -0.0476
  C  C788  1  0.630800  0.441000  0.832910  1.0  -0.1617
  C  C789  1  0.743100  0.205500  0.859000  1.0  -0.1338
  C  C790  1  0.713200  0.451900  0.880320  1.0  0.1874
  C  C791  1  0.769300  0.185500  0.832500  1.0  -0.0441
  C  C792  1  0.933000  0.211500  0.882600  1.0  -0.0613
  C  C793  1  0.616100  0.251900  0.947200  1.0  -0.083
  C  C794  1  0.643800  0.103800  0.856700  1.0  -0.1697
  C  C795  1  0.924600  0.125600  0.929300  1.0  -0.1331
  C  C796  1  0.810900  0.509500  0.945930  1.0  -0.0517
  C  C797  1  0.671900  0.377400  0.843520  1.0  0.1239
  C  C798  1  0.670300  0.515100  0.870800  1.0  -0.1288
  C  C799  1  0.935000  0.374500  0.818900  1.0  -0.1331
  C  C800  1  0.864200  0.217800  0.898480  1.0  -0.0881
  C  C801  1  0.672400  0.084300  0.831600  1.0  -0.0883
  C  C802  1  0.589800  0.432300  0.805930  1.0  0.6974
  C  C803  1  0.651400  0.194200  0.897700  1.0  0.1877
  C  C804  1  0.764000  0.514100  0.923350  1.0  -0.1085
  C  C805  1  0.630700  0.509200  0.847540  1.0  -0.0135
  C  C806  1  0.731400  0.125900  0.818800  1.0  -0.0943
  C  C807  1  0.996100  0.322900  0.820300  1.0  -0.1189
  C  C808  1  0.987100  0.118900  0.911100  1.0  -0.0713
  C  C809  1  0.993000  0.160700  0.889400  1.0  -0.1183
  C  C810  1  0.590300  0.162500  0.912300  1.0  -0.1245
  C  C811  1  0.997400  0.270000  0.840100  1.0  -0.0543
  C  C812  1  0.574400  0.190300  0.937500  1.0  -0.0962
  C  C813  1  0.761300  0.453700  0.905260  1.0  0.1428
  C  C814  1  0.907200  0.437900  0.974450  1.0  0.6329
  C  C815  1  0.936900  0.265500  0.858900  1.0  0.1002
  C  C816  1  0.862300  0.177300  0.922200  1.0  -0.0388
  C  C817  1  0.876600  0.369700  0.837290  1.0  0.1704
  C  C818  1  0.852600  0.386900  0.931390  1.0  0.1526
  C  C819  1  0.356200  0.947200  0.449970  1.0  -0.148
  C  C820  1  0.175100  0.783300  0.431700  1.0  0.1491
  C  C821  1  0.179400  0.664100  0.370700  1.0  -0.0476
  C  C822  1  0.130800  0.941000  0.332910  1.0  -0.1617
  C  C823  1  0.243100  0.705500  0.359000  1.0  -0.1338
  C  C824  1  0.213200  0.951900  0.380320  1.0  0.1874
  C  C825  1  0.269300  0.685500  0.332500  1.0  -0.0441
  C  C826  1  0.433000  0.711500  0.382600  1.0  -0.0613
  C  C827  1  0.116100  0.751900  0.447200  1.0  -0.083
  C  C828  1  0.143800  0.603800  0.356700  1.0  -0.1697
  C  C829  1  0.424600  0.625600  0.429300  1.0  -0.1331
  C  C830  1  0.310900  0.009500  0.445930  1.0  -0.0517
  C  C831  1  0.171900  0.877400  0.343520  1.0  0.1239
  C  C832  1  0.170300  0.015100  0.370800  1.0  -0.1288
  C  C833  1  0.435000  0.874500  0.318900  1.0  -0.1331
  C  C834  1  0.364200  0.717800  0.398480  1.0  -0.0881
  C  C835  1  0.172400  0.584300  0.331600  1.0  -0.0883
  C  C836  1  0.089800  0.932300  0.305930  1.0  0.6974
  C  C837  1  0.151400  0.694200  0.397700  1.0  0.1877
  C  C838  1  0.264000  0.014100  0.423350  1.0  -0.1085
  C  C839  1  0.130700  0.009200  0.347540  1.0  -0.0135
  C  C840  1  0.231400  0.625900  0.318800  1.0  -0.0943
  C  C841  1  0.496100  0.822900  0.320300  1.0  -0.1189
  C  C842  1  0.487100  0.618900  0.411100  1.0  -0.0713
  C  C843  1  0.493000  0.660700  0.389400  1.0  -0.1183
  C  C844  1  0.090300  0.662500  0.412300  1.0  -0.1245
  C  C845  1  0.497400  0.770000  0.340100  1.0  -0.0543
  C  C846  1  0.074400  0.690300  0.437500  1.0  -0.0962
  C  C847  1  0.261300  0.953700  0.405260  1.0  0.1428
  C  C848  1  0.407200  0.937900  0.474450  1.0  0.6329
  C  C849  1  0.436900  0.765500  0.358900  1.0  0.1002
  C  C850  1  0.362300  0.677300  0.422200  1.0  -0.0388
  C  C851  1  0.376600  0.869700  0.337290  1.0  0.1704
  C  C852  1  0.352600  0.886900  0.431390  1.0  0.1526
  C  C853  1  0.643800  0.052800  0.449970  1.0  -0.1497
  C  C854  1  0.824900  0.216700  0.431700  1.0  0.149
  C  C855  1  0.820600  0.335900  0.370700  1.0  -0.0488
  C  C856  1  0.869200  0.059000  0.332910  1.0  -0.1618
  C  C857  1  0.756900  0.294500  0.359000  1.0  -0.134
  C  C858  1  0.786800  0.048100  0.380320  1.0  0.1879
  C  C859  1  0.730700  0.314500  0.332500  1.0  -0.0438
  C  C860  1  0.567000  0.288500  0.382600  1.0  -0.0615
  C  C861  1  0.883900  0.248100  0.447200  1.0  -0.08
  C  C862  1  0.856200  0.396200  0.356700  1.0  -0.1698
  C  C863  1  0.575400  0.374400  0.429300  1.0  -0.1344
  C  C864  1  0.689100  0.990500  0.445930  1.0  -0.0524
  C  C865  1  0.828100  0.122600  0.343520  1.0  0.1233
  C  C866  1  0.829700  0.984900  0.370800  1.0  -0.129
  C  C867  1  0.565000  0.125500  0.318900  1.0  -0.1314
  C  C868  1  0.635800  0.282200  0.398480  1.0  -0.0869
  C  C869  1  0.827600  0.415700  0.331600  1.0  -0.0894
  C  C870  1  0.910200  0.067700  0.305930  1.0  0.6969
  C  C871  1  0.848600  0.305800  0.397700  1.0  0.1879
  C  C872  1  0.736000  0.985900  0.423350  1.0  -0.1092
  C  C873  1  0.869300  0.990800  0.347540  1.0  -0.0151
  C  C874  1  0.768600  0.374100  0.318800  1.0  -0.0947
  C  C875  1  0.503900  0.177100  0.320300  1.0  -0.1179
  C  C876  1  0.512900  0.381100  0.411100  1.0  -0.072
  C  C877  1  0.507000  0.339300  0.389400  1.0  -0.1185
  C  C878  1  0.909700  0.337500  0.412300  1.0  -0.1263
  C  C879  1  0.502600  0.230000  0.340100  1.0  -0.0537
  C  C880  1  0.925600  0.309700  0.437500  1.0  -0.0939
  C  C881  1  0.738700  0.046300  0.405260  1.0  0.1423
  C  C882  1  0.592800  0.062100  0.474450  1.0  0.6334
  C  C883  1  0.563100  0.234500  0.358900  1.0  0.1008
  C  C884  1  0.637700  0.322700  0.422200  1.0  -0.0383
  C  C885  1  0.623400  0.130300  0.337290  1.0  0.1688
  C  C886  1  0.647400  0.113100  0.431390  1.0  0.1526
  C  C887  1  0.143800  0.552800  0.949970  1.0  -0.1497
  C  C888  1  0.324900  0.716700  0.931700  1.0  0.149
  C  C889  1  0.320600  0.835900  0.870700  1.0  -0.0488
  C  C890  1  0.369200  0.559000  0.832910  1.0  -0.1618
  C  C891  1  0.256900  0.794500  0.859000  1.0  -0.134
  C  C892  1  0.286800  0.548100  0.880320  1.0  0.1879
  C  C893  1  0.230700  0.814500  0.832500  1.0  -0.0438
  C  C894  1  0.067000  0.788500  0.882600  1.0  -0.0615
  C  C895  1  0.383900  0.748100  0.947200  1.0  -0.08
  C  C896  1  0.356200  0.896200  0.856700  1.0  -0.1698
  C  C897  1  0.075400  0.874400  0.929300  1.0  -0.1344
  C  C898  1  0.189100  0.490500  0.945930  1.0  -0.0524
  C  C899  1  0.328100  0.622600  0.843520  1.0  0.1233
  C  C900  1  0.329700  0.484900  0.870800  1.0  -0.129
  C  C901  1  0.065000  0.625500  0.818900  1.0  -0.1314
  C  C902  1  0.135800  0.782200  0.898480  1.0  -0.0869
  C  C903  1  0.327600  0.915700  0.831600  1.0  -0.0894
  C  C904  1  0.410200  0.567700  0.805930  1.0  0.6969
  C  C905  1  0.348600  0.805800  0.897700  1.0  0.1879
  C  C906  1  0.236000  0.485900  0.923350  1.0  -0.1092
  C  C907  1  0.369300  0.490800  0.847540  1.0  -0.0151
  C  C908  1  0.268600  0.874100  0.818800  1.0  -0.0947
  C  C909  1  0.003900  0.677100  0.820300  1.0  -0.1179
  C  C910  1  0.012900  0.881100  0.911100  1.0  -0.072
  C  C911  1  0.007000  0.839300  0.889400  1.0  -0.1185
  C  C912  1  0.409700  0.837500  0.912300  1.0  -0.1263
  C  C913  1  0.002600  0.730000  0.840100  1.0  -0.0537
  C  C914  1  0.425600  0.809700  0.937500  1.0  -0.0939
  C  C915  1  0.238700  0.546300  0.905260  1.0  0.1423
  C  C916  1  0.092800  0.562100  0.974450  1.0  0.6334
  C  C917  1  0.063100  0.734500  0.858900  1.0  0.1008
  C  C918  1  0.137700  0.822700  0.922200  1.0  -0.0383
  C  C919  1  0.123400  0.630300  0.837290  1.0  0.1688
  C  C920  1  0.147400  0.613100  0.931390  1.0  0.1526
  N  N921  1  0.807600  0.610300  0.409300  1.0  -0.3296
  N  N922  1  0.711300  0.616800  0.367010  1.0  -0.3337
  N  N923  1  0.874300  0.684000  0.356660  1.0  -0.3476
  N  N924  1  0.695500  0.746400  0.407260  1.0  -0.3214
  N  N925  1  0.307600  0.110300  0.909300  1.0  -0.3296
  N  N926  1  0.211300  0.116800  0.867010  1.0  -0.3337
  N  N927  1  0.374300  0.184000  0.856660  1.0  -0.3476
  N  N928  1  0.195500  0.246400  0.907260  1.0  -0.3214
  N  N929  1  0.692400  0.889700  0.909300  1.0  -0.3299
  N  N930  1  0.788700  0.883200  0.867010  1.0  -0.3349
  N  N931  1  0.625700  0.816000  0.856660  1.0  -0.3497
  N  N932  1  0.804500  0.753600  0.907260  1.0  -0.3234
  N  N933  1  0.192400  0.389700  0.409300  1.0  -0.3299
  N  N934  1  0.288700  0.383200  0.367010  1.0  -0.3349
  N  N935  1  0.125700  0.316000  0.356660  1.0  -0.3497
  N  N936  1  0.304500  0.253600  0.407260  1.0  -0.3234
  N  N937  1  0.389700  0.692400  0.159300  1.0  -0.3297
  N  N938  1  0.383200  0.788700  0.117010  1.0  -0.3355
  N  N939  1  0.316000  0.625700  0.106660  1.0  -0.3479
  N  N940  1  0.253600  0.804500  0.157260  1.0  -0.3235
  N  N941  1  0.889700  0.192400  0.659300  1.0  -0.3297
  N  N942  1  0.883200  0.288700  0.617010  1.0  -0.3355
  N  N943  1  0.816000  0.125700  0.606660  1.0  -0.3479
  N  N944  1  0.753600  0.304500  0.657260  1.0  -0.3235
  N  N945  1  0.110300  0.807600  0.659300  1.0  -0.3296
  N  N946  1  0.116800  0.711300  0.617010  1.0  -0.3339
  N  N947  1  0.184000  0.874300  0.606660  1.0  -0.3483
  N  N948  1  0.246400  0.695500  0.657260  1.0  -0.3234
  N  N949  1  0.610300  0.307600  0.159300  1.0  -0.3296
  N  N950  1  0.616800  0.211300  0.117010  1.0  -0.3339
  N  N951  1  0.684000  0.374300  0.106660  1.0  -0.3483
  N  N952  1  0.746400  0.195500  0.157260  1.0  -0.3234
  N  N953  1  0.389700  0.307600  0.659300  1.0  -0.33
  N  N954  1  0.383200  0.211300  0.617010  1.0  -0.3354
  N  N955  1  0.316000  0.374300  0.606660  1.0  -0.3484
  N  N956  1  0.253600  0.195500  0.657260  1.0  -0.3239
  N  N957  1  0.889700  0.807600  0.159300  1.0  -0.33
  N  N958  1  0.883200  0.711300  0.117010  1.0  -0.3354
  N  N959  1  0.816000  0.874300  0.106660  1.0  -0.3484
  N  N960  1  0.753600  0.695500  0.157260  1.0  -0.3239
  N  N961  1  0.110300  0.192400  0.159300  1.0  -0.3291
  N  N962  1  0.116800  0.288700  0.117010  1.0  -0.3336
  N  N963  1  0.184000  0.125700  0.106660  1.0  -0.3479
  N  N964  1  0.246400  0.304500  0.157260  1.0  -0.323
  N  N965  1  0.610300  0.692400  0.659300  1.0  -0.3291
  N  N966  1  0.616800  0.788700  0.617010  1.0  -0.3336
  N  N967  1  0.684000  0.625700  0.606660  1.0  -0.3479
  N  N968  1  0.746400  0.804500  0.657260  1.0  -0.323
  N  N969  1  0.807600  0.389700  0.909300  1.0  -0.3297
  N  N970  1  0.711300  0.383200  0.867010  1.0  -0.3339
  N  N971  1  0.874300  0.316000  0.856660  1.0  -0.3481
  N  N972  1  0.695500  0.253600  0.907260  1.0  -0.3212
  N  N973  1  0.307600  0.889700  0.409300  1.0  -0.3297
  N  N974  1  0.211300  0.883200  0.367010  1.0  -0.3339
  N  N975  1  0.374300  0.816000  0.356660  1.0  -0.3481
  N  N976  1  0.195500  0.753600  0.407260  1.0  -0.3212
  N  N977  1  0.692400  0.110300  0.409300  1.0  -0.33
  N  N978  1  0.788700  0.116800  0.367010  1.0  -0.3349
  N  N979  1  0.625700  0.184000  0.356660  1.0  -0.349
  N  N980  1  0.804500  0.246400  0.407260  1.0  -0.3237
  N  N981  1  0.192400  0.610300  0.909300  1.0  -0.33
  N  N982  1  0.288700  0.616800  0.867010  1.0  -0.3349
  N  N983  1  0.125700  0.684000  0.856660  1.0  -0.349
  N  N984  1  0.304500  0.746400  0.907260  1.0  -0.3237
  O  O985  1  0.942700  0.623000  0.478620  1.0  -0.5281
  O  O986  1  0.912100  0.499800  0.489700  1.0  -0.5942
  O  O987  1  0.566900  0.633000  0.300300  1.0  -0.523
  O  O988  1  0.582600  0.505900  0.292020  1.0  -0.6051
  O  O989  1  0.442700  0.123000  0.978620  1.0  -0.5281
  O  O990  1  0.412100  0.999800  0.989700  1.0  -0.5942
  O  O991  1  0.066900  0.133000  0.800300  1.0  -0.523
  O  O992  1  0.082600  0.005900  0.792020  1.0  -0.6051
  O  O993  1  0.557300  0.877000  0.978620  1.0  -0.53
  O  O994  1  0.587900  0.000200  0.989700  1.0  -0.5936
  O  O995  1  0.933100  0.867000  0.800300  1.0  -0.522
  O  O996  1  0.917400  0.994100  0.792020  1.0  -0.6045
  O  O997  1  0.057300  0.377000  0.478620  1.0  -0.53
  O  O998  1  0.087900  0.500200  0.489700  1.0  -0.5936
  O  O999  1  0.433100  0.367000  0.300300  1.0  -0.522
  O  O1000  1  0.417400  0.494100  0.292020  1.0  -0.6045
  O  O1001  1  0.377000  0.557300  0.228620  1.0  -0.5316
  O  O1002  1  0.500200  0.587900  0.239700  1.0  -0.5929
  O  O1003  1  0.367000  0.933100  0.050300  1.0  -0.5273
  O  O1004  1  0.494100  0.917400  0.042020  1.0  -0.6043
  O  O1005  1  0.877000  0.057300  0.728620  1.0  -0.5316
  O  O1006  1  0.000200  0.087900  0.739700  1.0  -0.5929
  O  O1007  1  0.867000  0.433100  0.550300  1.0  -0.5273
  O  O1008  1  0.994100  0.417400  0.542020  1.0  -0.6043
  O  O1009  1  0.123000  0.942700  0.728620  1.0  -0.5315
  O  O1010  1  0.999800  0.912100  0.739700  1.0  -0.5931
  O  O1011  1  0.133000  0.566900  0.550300  1.0  -0.528
  O  O1012  1  0.005900  0.582600  0.542020  1.0  -0.6035
  O  O1013  1  0.623000  0.442700  0.228620  1.0  -0.5315
  O  O1014  1  0.499800  0.412100  0.239700  1.0  -0.5931
  O  O1015  1  0.633000  0.066900  0.050300  1.0  -0.528
  O  O1016  1  0.505900  0.082600  0.042020  1.0  -0.6035
  O  O1017  1  0.377000  0.442700  0.728620  1.0  -0.5314
  O  O1018  1  0.500200  0.412100  0.739700  1.0  -0.5935
  O  O1019  1  0.367000  0.066900  0.550300  1.0  -0.527
  O  O1020  1  0.494100  0.082600  0.542020  1.0  -0.6038
  O  O1021  1  0.877000  0.942700  0.228620  1.0  -0.5314
  O  O1022  1  0.000200  0.912100  0.239700  1.0  -0.5935
  O  O1023  1  0.867000  0.566900  0.050300  1.0  -0.527
  O  O1024  1  0.994100  0.582600  0.042020  1.0  -0.6038
  O  O1025  1  0.123000  0.057300  0.228620  1.0  -0.5307
  O  O1026  1  0.999800  0.087900  0.239700  1.0  -0.593
  O  O1027  1  0.133000  0.433100  0.050300  1.0  -0.5279
  O  O1028  1  0.005900  0.417400  0.042020  1.0  -0.6043
  O  O1029  1  0.623000  0.557300  0.728620  1.0  -0.5307
  O  O1030  1  0.499800  0.587900  0.739700  1.0  -0.593
  O  O1031  1  0.633000  0.933100  0.550300  1.0  -0.5279
  O  O1032  1  0.505900  0.917400  0.542020  1.0  -0.6043
  O  O1033  1  0.942700  0.377000  0.978620  1.0  -0.5297
  O  O1034  1  0.912100  0.500200  0.989700  1.0  -0.5934
  O  O1035  1  0.566900  0.367000  0.800300  1.0  -0.5229
  O  O1036  1  0.582600  0.494100  0.792020  1.0  -0.6039
  O  O1037  1  0.442700  0.877000  0.478620  1.0  -0.5297
  O  O1038  1  0.412100  0.000200  0.489700  1.0  -0.5934
  O  O1039  1  0.066900  0.867000  0.300300  1.0  -0.5229
  O  O1040  1  0.082600  0.994100  0.292020  1.0  -0.6039
  O  O1041  1  0.557300  0.123000  0.478620  1.0  -0.5274
  O  O1042  1  0.587900  0.999800  0.489700  1.0  -0.5941
  O  O1043  1  0.933100  0.133000  0.300300  1.0  -0.5221
  O  O1044  1  0.917400  0.005900  0.292020  1.0  -0.6056
  O  O1045  1  0.057300  0.623000  0.978620  1.0  -0.5274
  O  O1046  1  0.087900  0.499800  0.989700  1.0  -0.5941
  O  O1047  1  0.433100  0.633000  0.800300  1.0  -0.5221
  O  O1048  1  0.417400  0.505900  0.792020  1.0  -0.6056
