# generated using pymatgen
data_Zn4H42C57O13
_symmetry_space_group_name_H-M   'P 1'
_cell_length_a   21.56000000
_cell_length_b   21.56000000
_cell_length_c   77.81400000
_cell_angle_alpha   90.00000000
_cell_angle_beta   90.00000000
_cell_angle_gamma   120.00000000
_symmetry_Int_Tables_number   1
_chemical_formula_structural   Zn4H42C57O13
_chemical_formula_sum   'Zn48 H504 C684 O156'
_cell_volume   31324.62534500
_cell_formula_units_Z   12
loop_
 _symmetry_equiv_pos_site_id
 _symmetry_equiv_pos_as_xyz
  1  'x, y, z'
loop_
 _atom_site_type_symbol
 _atom_site_label
 _atom_site_symmetry_multiplicity
 _atom_site_fract_x
 _atom_site_fract_y
 _atom_site_fract_z
 _atom_site_occupancy
 _atom_site_charge
  Zn  Zn1  1  0.769840  0.411380  0.854470  1.0  0.9734
  Zn  Zn2  1  0.672510  0.327280  0.885360  1.0  1.0578
  Zn  Zn3  1  0.672050  0.241650  0.853110  1.0  1.0492
  Zn  Zn4  1  0.597940  0.340590  0.851490  1.0  1.0167
  Zn  Zn5  1  0.641540  0.230160  0.187800  1.0  0.9733
  Zn  Zn6  1  0.654770  0.327490  0.218690  1.0  1.0579
  Zn  Zn7  1  0.569600  0.327950  0.186440  1.0  1.0484
  Zn  Zn8  1  0.742650  0.402060  0.184820  1.0  1.014
  Zn  Zn9  1  0.588620  0.358460  0.521140  1.0  0.9726
  Zn  Zn10  1  0.672720  0.345230  0.552020  1.0  1.0577
  Zn  Zn11  1  0.758350  0.430400  0.519770  1.0  1.0513
  Zn  Zn12  1  0.659410  0.257350  0.518150  1.0  1.014
  Zn  Zn13  1  0.230160  0.588620  0.354470  1.0  0.9743
  Zn  Zn14  1  0.327490  0.672720  0.385360  1.0  1.058
  Zn  Zn15  1  0.327950  0.758350  0.353110  1.0  1.0495
  Zn  Zn16  1  0.402060  0.659410  0.351490  1.0  1.0135
  Zn  Zn17  1  0.358460  0.769840  0.687800  1.0  0.9731
  Zn  Zn18  1  0.345230  0.672510  0.718690  1.0  1.0578
  Zn  Zn19  1  0.430400  0.672050  0.686440  1.0  1.048
  Zn  Zn20  1  0.257350  0.597940  0.684820  1.0  1.0161
  Zn  Zn21  1  0.411380  0.641540  0.021140  1.0  0.972
  Zn  Zn22  1  0.327280  0.654770  0.052020  1.0  1.0577
  Zn  Zn23  1  0.241650  0.569600  0.019770  1.0  1.0511
  Zn  Zn24  1  0.340590  0.742650  0.018150  1.0  1.0155
  Zn  Zn25  1  0.358460  0.588620  0.478860  1.0  0.9723
  Zn  Zn26  1  0.345230  0.672720  0.447980  1.0  1.0592
  Zn  Zn27  1  0.430400  0.758350  0.480230  1.0  1.0446
  Zn  Zn28  1  0.257350  0.659410  0.481850  1.0  1.0153
  Zn  Zn29  1  0.411380  0.769840  0.145530  1.0  0.9713
  Zn  Zn30  1  0.327280  0.672510  0.114640  1.0  1.0593
  Zn  Zn31  1  0.241650  0.672050  0.146890  1.0  1.0435
  Zn  Zn32  1  0.340590  0.597940  0.148510  1.0  1.0157
  Zn  Zn33  1  0.230160  0.641540  0.812200  1.0  0.972
  Zn  Zn34  1  0.327490  0.654770  0.781310  1.0  1.0587
  Zn  Zn35  1  0.327950  0.569600  0.813560  1.0  1.0476
  Zn  Zn36  1  0.402060  0.742650  0.815180  1.0  1.0137
  Zn  Zn37  1  0.641540  0.411380  0.978860  1.0  0.9723
  Zn  Zn38  1  0.654770  0.327280  0.947980  1.0  1.0594
  Zn  Zn39  1  0.569600  0.241650  0.980230  1.0  1.0454
  Zn  Zn40  1  0.742650  0.340590  0.981850  1.0  1.0142
  Zn  Zn41  1  0.588620  0.230160  0.645530  1.0  0.9725
  Zn  Zn42  1  0.672720  0.327490  0.614640  1.0  1.059
  Zn  Zn43  1  0.758350  0.327950  0.646890  1.0  1.0436
  Zn  Zn44  1  0.659410  0.402060  0.648510  1.0  1.0147
  Zn  Zn45  1  0.769840  0.358460  0.312200  1.0  0.9711
  Zn  Zn46  1  0.672510  0.345230  0.281310  1.0  1.059
  Zn  Zn47  1  0.672050  0.430400  0.313560  1.0  1.0461
  Zn  Zn48  1  0.597940  0.257350  0.315180  1.0  1.0147
  H  H49  1  0.793800  0.473100  0.922400  1.0  0.1084
  H  H50  1  0.030200  0.631300  0.907200  1.0  0.1115
  H  H51  1  0.951500  0.552900  0.886600  1.0  0.1233
  H  H52  1  0.840400  0.523600  0.955100  1.0  0.1048
  H  H53  1  0.848500  0.597500  0.949200  1.0  0.1022
  H  H54  1  0.002000  0.698800  0.939300  1.0  0.1047
  H  H55  1  0.046900  0.659800  0.942200  1.0  0.1114
  H  H56  1  0.994500  0.548000  0.956900  1.0  0.0961
  H  H57  1  0.934300  0.523100  0.971100  1.0  0.0984
  H  H58  1  0.968000  0.709900  0.967500  1.0  0.1067
  H  H59  1  0.915100  0.645700  0.979500  1.0  0.1055
  H  H60  1  0.086200  0.565100  0.984400  1.0  0.1267
  H  H61  1  0.144400  0.746500  0.009700  1.0  0.1042
  H  H62  1  0.056900  0.761000  0.995500  1.0  0.1348
  H  H63  1  0.921500  0.416500  0.817200  1.0  0.1245
  H  H64  1  0.923900  0.200200  0.817200  1.0  0.1324
  H  H65  1  0.840800  0.211100  0.833300  1.0  0.0968
  H  H66  1  0.011700  0.444100  0.788500  1.0  0.1041
  H  H67  1  0.069400  0.454400  0.802500  1.0  0.1073
  H  H68  1  0.083300  0.331800  0.805400  1.0  0.1054
  H  H69  1  0.033500  0.270900  0.792300  1.0  0.1023
  H  H70  1  0.154400  0.458400  0.786200  1.0  0.1035
  H  H71  1  0.150900  0.388500  0.778700  1.0  0.1031
  H  H72  1  0.959200  0.342000  0.770900  1.0  0.0911
  H  H73  1  0.996500  0.296900  0.766600  1.0  0.0853
  H  H74  1  0.216100  0.517100  0.753500  1.0  0.105
  H  H75  1  0.069200  0.461800  0.716300  1.0  0.1042
  H  H76  1  0.981700  0.380200  0.733900  1.0  0.1243
  H  H77  1  0.603000  0.487400  0.829400  1.0  0.0972
  H  H78  1  0.803700  0.684100  0.805300  1.0  0.13
  H  H79  1  0.814000  0.605700  0.823400  1.0  0.104
  H  H80  1  0.532900  0.504500  0.800300  1.0  0.0871
  H  H81  1  0.539800  0.570000  0.810800  1.0  0.078
  H  H82  1  0.696300  0.681800  0.782500  1.0  0.1042
  H  H83  1  0.662300  0.702200  0.797900  1.0  0.1024
  H  H84  1  0.491200  0.595600  0.785100  1.0  0.0815
  H  H85  1  0.556400  0.674600  0.785900  1.0  0.086
  H  H86  1  0.645000  0.572100  0.771100  1.0  0.0704
  H  H87  1  0.563500  0.512500  0.772300  1.0  0.0937
  H  H88  1  0.484400  0.673800  0.755200  1.0  0.1189
  H  H89  1  0.556800  0.602000  0.716200  1.0  0.1244
  H  H90  1  0.606300  0.563900  0.735300  1.0  0.0993
  H  H91  1  0.679300  0.206200  0.255730  1.0  0.1087
  H  H92  1  0.601100  0.969800  0.240530  1.0  0.111
  H  H93  1  0.601400  0.048500  0.219930  1.0  0.1212
  H  H94  1  0.683200  0.159600  0.288430  1.0  0.1037
  H  H95  1  0.749000  0.151500  0.282530  1.0  0.1042
  H  H96  1  0.696800  0.998000  0.272630  1.0  0.1013
  H  H97  1  0.612900  0.953100  0.275530  1.0  0.1104
  H  H98  1  0.553500  0.005500  0.290230  1.0  0.0956
  H  H99  1  0.588800  0.065700  0.304430  1.0  0.0979
  H  H100  1  0.741900  0.032000  0.300830  1.0  0.1049
  H  H101  1  0.730600  0.084900  0.312830  1.0  0.1053
  H  H102  1  0.478900  0.913800  0.317730  1.0  0.1268
  H  H103  1  0.602100  0.855600  0.343030  1.0  0.1048
  H  H104  1  0.704100  0.943100  0.328830  1.0  0.1345
  H  H105  1  0.495000  0.078500  0.150530  1.0  0.1223
  H  H106  1  0.276300  0.076100  0.150530  1.0  0.133
  H  H107  1  0.370300  0.159200  0.166630  1.0  0.0978
  H  H108  1  0.432400  0.988300  0.121830  1.0  0.1037
  H  H109  1  0.385000  0.930600  0.135830  1.0  0.1087
  H  H110  1  0.248500  0.916700  0.138730  1.0  0.1069
  H  H111  1  0.237400  0.966500  0.125630  1.0  0.0991
  H  H112  1  0.304000  0.845600  0.119530  1.0  0.1033
  H  H113  1  0.237600  0.849100  0.112030  1.0  0.1052
  H  H114  1  0.382800  0.040800  0.104230  1.0  0.0917
  H  H115  1  0.300400  0.003500  0.099930  1.0  0.0841
  H  H116  1  0.301000  0.783900  0.086830  1.0  0.1051
  H  H117  1  0.392600  0.930800  0.049630  1.0  0.1018
  H  H118  1  0.398500  0.018300  0.067230  1.0  0.1249
  H  H119  1  0.884400  0.397000  0.162730  1.0  0.0981
  H  H120  1  0.880400  0.196300  0.138630  1.0  0.1298
  H  H121  1  0.791700  0.186000  0.156730  1.0  0.1037
  H  H122  1  0.971600  0.467100  0.133630  1.0  0.09
  H  H123  1  0.030200  0.460200  0.144130  1.0  0.0784
  H  H124  1  0.985500  0.303700  0.115830  1.0  0.1044
  H  H125  1  0.039900  0.337700  0.131230  1.0  0.1038
  H  H126  1  0.104400  0.508800  0.118430  1.0  0.0836
  H  H127  1  0.118200  0.443600  0.119230  1.0  0.0846
  H  H128  1  0.927100  0.355000  0.104430  1.0  0.0722
  H  H129  1  0.949000  0.436500  0.105630  1.0  0.0929
  H  H130  1  0.189400  0.515600  0.088530  1.0  0.1183
  H  H131  1  0.045200  0.443200  0.049530  1.0  0.1246
  H  H132  1  0.957600  0.393700  0.068630  1.0  0.1007
  H  H133  1  0.526900  0.320700  0.589070  1.0  0.1092
  H  H134  1  0.368700  0.398900  0.573870  1.0  0.1107
  H  H135  1  0.447100  0.398600  0.553270  1.0  0.1223
  H  H136  1  0.476400  0.316800  0.621770  1.0  0.0995
  H  H137  1  0.402500  0.251000  0.615870  1.0  0.0997
  H  H138  1  0.301200  0.303200  0.605970  1.0  0.1033
  H  H139  1  0.340200  0.387100  0.608870  1.0  0.1141
  H  H140  1  0.452000  0.446500  0.623570  1.0  0.0964
  H  H141  1  0.476900  0.411200  0.637770  1.0  0.0977
  H  H142  1  0.290100  0.258100  0.634170  1.0  0.1017
  H  H143  1  0.354300  0.269400  0.646170  1.0  0.1045
  H  H144  1  0.434900  0.521100  0.651070  1.0  0.1262
  H  H145  1  0.253500  0.397900  0.676370  1.0  0.1035
  H  H146  1  0.239000  0.295900  0.662170  1.0  0.1363
  H  H147  1  0.583500  0.505000  0.483870  1.0  0.1231
  H  H148  1  0.799800  0.723700  0.483870  1.0  0.1338
  H  H149  1  0.788900  0.629700  0.499970  1.0  0.0976
  H  H150  1  0.555900  0.567600  0.455170  1.0  0.0995
  H  H151  1  0.545600  0.615000  0.469170  1.0  0.1079
  H  H152  1  0.668200  0.751500  0.472070  1.0  0.1043
  H  H153  1  0.729100  0.762600  0.458970  1.0  0.1035
  H  H154  1  0.541600  0.696000  0.452870  1.0  0.0991
  H  H155  1  0.611500  0.762400  0.445370  1.0  0.1028
  H  H156  1  0.658000  0.617200  0.437570  1.0  0.0923
  H  H157  1  0.703100  0.699600  0.433270  1.0  0.0903
  H  H158  1  0.482900  0.699000  0.420170  1.0  0.1062
  H  H159  1  0.538200  0.607400  0.382970  1.0  0.1032
  H  H160  1  0.619800  0.601500  0.400570  1.0  0.1246
  H  H161  1  0.512600  0.115600  0.496070  1.0  0.0988
  H  H162  1  0.315900  0.119600  0.471970  1.0  0.1286
  H  H163  1  0.394300  0.208300  0.490070  1.0  0.1046
  H  H164  1  0.495500  0.028400  0.466970  1.0  0.0887
  H  H165  1  0.430000  0.969800  0.477470  1.0  0.0794
  H  H166  1  0.318200  0.014500  0.449170  1.0  0.1017
  H  H167  1  0.297800  0.960100  0.464570  1.0  0.1028
  H  H168  1  0.404400  0.895600  0.451770  1.0  0.0842
  H  H169  1  0.325400  0.881800  0.452570  1.0  0.0872
  H  H170  1  0.427900  0.072900  0.437770  1.0  0.0736
  H  H171  1  0.487500  0.051000  0.438970  1.0  0.0904
  H  H172  1  0.326200  0.810600  0.421870  1.0  0.1194
  H  H173  1  0.398000  0.954800  0.382870  1.0  0.1234
  H  H174  1  0.436100  0.042400  0.401970  1.0  0.0997
  H  H175  1  0.206200  0.526900  0.422400  1.0  0.1082
  H  H176  1  0.969800  0.368700  0.407200  1.0  0.1111
  H  H177  1  0.048500  0.447100  0.386600  1.0  0.1233
  H  H178  1  0.159600  0.476400  0.455100  1.0  0.1043
  H  H179  1  0.151500  0.402500  0.449200  1.0  0.101
  H  H180  1  0.998000  0.301200  0.439300  1.0  0.1002
  H  H181  1  0.953100  0.340200  0.442200  1.0  0.11
  H  H182  1  0.005500  0.452000  0.456900  1.0  0.0967
  H  H183  1  0.065700  0.476900  0.471100  1.0  0.0989
  H  H184  1  0.032000  0.290100  0.467500  1.0  0.1033
  H  H185  1  0.084900  0.354300  0.479500  1.0  0.1039
  H  H186  1  0.913800  0.434900  0.484400  1.0  0.1269
  H  H187  1  0.855600  0.253500  0.509700  1.0  0.1043
  H  H188  1  0.943100  0.239000  0.495500  1.0  0.1344
  H  H189  1  0.078500  0.583500  0.317200  1.0  0.1236
  H  H190  1  0.076100  0.799800  0.317200  1.0  0.1324
  H  H191  1  0.159200  0.788900  0.333333  1.0  0.1005
  H  H192  1  0.988300  0.555900  0.288500  1.0  0.1032
  H  H193  1  0.930600  0.545600  0.302500  1.0  0.1082
  H  H194  1  0.916700  0.668200  0.305400  1.0  0.1068
  H  H195  1  0.966500  0.729100  0.292300  1.0  0.1024
  H  H196  1  0.845600  0.541600  0.286200  1.0  0.1034
  H  H197  1  0.849100  0.611500  0.278700  1.0  0.1047
  H  H198  1  0.040800  0.658000  0.270900  1.0  0.0909
  H  H199  1  0.003500  0.703100  0.266600  1.0  0.0885
  H  H200  1  0.783900  0.482900  0.253500  1.0  0.1051
  H  H201  1  0.930800  0.538200  0.216300  1.0  0.1034
  H  H202  1  0.018300  0.619800  0.233900  1.0  0.1245
  H  H203  1  0.397000  0.512600  0.329400  1.0  0.0966
  H  H204  1  0.196300  0.315900  0.305300  1.0  0.1288
  H  H205  1  0.186000  0.394300  0.323400  1.0  0.1037
  H  H206  1  0.467100  0.495500  0.300300  1.0  0.0898
  H  H207  1  0.460200  0.430000  0.310800  1.0  0.0773
  H  H208  1  0.303700  0.318200  0.282500  1.0  0.1025
  H  H209  1  0.337700  0.297800  0.297900  1.0  0.1028
  H  H210  1  0.508800  0.404400  0.285100  1.0  0.0819
  H  H211  1  0.443600  0.325400  0.285900  1.0  0.0876
  H  H212  1  0.355000  0.427900  0.271100  1.0  0.0705
  H  H213  1  0.436500  0.487500  0.272300  1.0  0.0927
  H  H214  1  0.515600  0.326200  0.255200  1.0  0.1197
  H  H215  1  0.443200  0.398000  0.216200  1.0  0.124
  H  H216  1  0.393700  0.436100  0.235300  1.0  0.099
  H  H217  1  0.320700  0.793800  0.755730  1.0  0.1088
  H  H218  1  0.398900  0.030200  0.740530  1.0  0.1103
  H  H219  1  0.398600  0.951500  0.719930  1.0  0.1212
  H  H220  1  0.316800  0.840400  0.788430  1.0  0.1042
  H  H221  1  0.251000  0.848500  0.782530  1.0  0.1032
  H  H222  1  0.303200  0.002000  0.772630  1.0  0.0999
  H  H223  1  0.387100  0.046900  0.775530  1.0  0.1142
  H  H224  1  0.446500  0.994500  0.790230  1.0  0.096
  H  H225  1  0.411200  0.934300  0.804430  1.0  0.0984
  H  H226  1  0.258100  0.968000  0.800830  1.0  0.1056
  H  H227  1  0.269400  0.915100  0.812830  1.0  0.1053
  H  H228  1  0.521100  0.086200  0.817730  1.0  0.1261
  H  H229  1  0.397900  0.144400  0.843030  1.0  0.1051
  H  H230  1  0.295900  0.056900  0.828830  1.0  0.1354
  H  H231  1  0.505000  0.921500  0.650530  1.0  0.1236
  H  H232  1  0.723700  0.923900  0.650530  1.0  0.1335
  H  H233  1  0.629700  0.840800  0.666667  1.0  0.1025
  H  H234  1  0.567600  0.011700  0.621830  1.0  0.1034
  H  H235  1  0.615000  0.069400  0.635830  1.0  0.1076
  H  H236  1  0.751500  0.083300  0.638730  1.0  0.1051
  H  H237  1  0.762600  0.033500  0.625630  1.0  0.0975
  H  H238  1  0.696000  0.154400  0.619530  1.0  0.1034
  H  H239  1  0.762400  0.150900  0.612030  1.0  0.1058
  H  H240  1  0.617200  0.959200  0.604230  1.0  0.0885
  H  H241  1  0.699600  0.996500  0.599930  1.0  0.0854
  H  H242  1  0.699000  0.216100  0.586830  1.0  0.1052
  H  H243  1  0.607400  0.069200  0.549630  1.0  0.1035
  H  H244  1  0.601500  0.981700  0.567230  1.0  0.1238
  H  H245  1  0.115600  0.603000  0.662730  1.0  0.0984
  H  H246  1  0.119600  0.803700  0.638630  1.0  0.1316
  H  H247  1  0.208300  0.814000  0.656730  1.0  0.1039
  H  H248  1  0.028400  0.532900  0.633630  1.0  0.0907
  H  H249  1  0.969800  0.539800  0.644130  1.0  0.0806
  H  H250  1  0.014500  0.696300  0.615830  1.0  0.105
  H  H251  1  0.960100  0.662300  0.631230  1.0  0.1012
  H  H252  1  0.895600  0.491200  0.618430  1.0  0.0852
  H  H253  1  0.881800  0.556400  0.619230  1.0  0.0861
  H  H254  1  0.072900  0.645000  0.604430  1.0  0.0738
  H  H255  1  0.051000  0.563500  0.605630  1.0  0.093
  H  H256  1  0.810600  0.484400  0.588530  1.0  0.1186
  H  H257  1  0.954800  0.556800  0.549530  1.0  0.1253
  H  H258  1  0.042400  0.606300  0.568630  1.0  0.1006
  H  H259  1  0.473100  0.679300  0.089070  1.0  0.1089
  H  H260  1  0.631300  0.601100  0.073870  1.0  0.1109
  H  H261  1  0.552900  0.601400  0.053270  1.0  0.1226
  H  H262  1  0.523600  0.683200  0.121770  1.0  0.0997
  H  H263  1  0.597500  0.749000  0.115870  1.0  0.1016
  H  H264  1  0.698800  0.696800  0.105970  1.0  0.1037
  H  H265  1  0.659800  0.612900  0.108870  1.0  0.1133
  H  H266  1  0.548000  0.553500  0.123570  1.0  0.0957
  H  H267  1  0.523100  0.588800  0.137770  1.0  0.0972
  H  H268  1  0.709900  0.741900  0.134170  1.0  0.1012
  H  H269  1  0.645700  0.730600  0.146170  1.0  0.1044
  H  H270  1  0.565100  0.478900  0.151070  1.0  0.126
  H  H271  1  0.746500  0.602100  0.176370  1.0  0.1033
  H  H272  1  0.761000  0.704100  0.162170  1.0  0.1352
  H  H273  1  0.416500  0.495000  0.983870  1.0  0.1226
  H  H274  1  0.200200  0.276300  0.983870  1.0  0.1339
  H  H275  1  0.211100  0.370300  0.999970  1.0  0.0973
  H  H276  1  0.444100  0.432400  0.955170  1.0  0.102
  H  H277  1  0.454400  0.385000  0.969170  1.0  0.1082
  H  H278  1  0.331800  0.248500  0.972070  1.0  0.106
  H  H279  1  0.270900  0.237400  0.958970  1.0  0.1025
  H  H280  1  0.458400  0.304000  0.952870  1.0  0.0995
  H  H281  1  0.388500  0.237600  0.945370  1.0  0.1
  H  H282  1  0.342000  0.382800  0.937570  1.0  0.0925
  H  H283  1  0.296900  0.300400  0.933270  1.0  0.0892
  H  H284  1  0.517100  0.301000  0.920170  1.0  0.106
  H  H285  1  0.461800  0.392600  0.882970  1.0  0.1034
  H  H286  1  0.380200  0.398500  0.900570  1.0  0.1246
  H  H287  1  0.487400  0.884400  0.996070  1.0  0.0984
  H  H288  1  0.684100  0.880400  0.971970  1.0  0.1293
  H  H289  1  0.605700  0.791700  0.990070  1.0  0.1048
  H  H290  1  0.504500  0.971600  0.966970  1.0  0.0893
  H  H291  1  0.570000  0.030200  0.977470  1.0  0.0791
  H  H292  1  0.681800  0.985500  0.949170  1.0  0.1025
  H  H293  1  0.702200  0.039900  0.964570  1.0  0.1021
  H  H294  1  0.595600  0.104400  0.951770  1.0  0.0827
  H  H295  1  0.674600  0.118200  0.952570  1.0  0.0853
  H  H296  1  0.572100  0.927100  0.937770  1.0  0.0726
  H  H297  1  0.512500  0.949000  0.938970  1.0  0.0914
  H  H298  1  0.673800  0.189400  0.921870  1.0  0.119
  H  H299  1  0.602000  0.045200  0.882870  1.0  0.1243
  H  H300  1  0.563900  0.957600  0.901970  1.0  0.1002
  H  H301  1  0.320700  0.526900  0.410930  1.0  0.1079
  H  H302  1  0.398900  0.368700  0.426130  1.0  0.1116
  H  H303  1  0.398600  0.447100  0.446730  1.0  0.1235
  H  H304  1  0.316800  0.476400  0.378230  1.0  0.1039
  H  H305  1  0.251000  0.402500  0.384130  1.0  0.1033
  H  H306  1  0.303200  0.301200  0.394030  1.0  0.1004
  H  H307  1  0.387100  0.340200  0.391130  1.0  0.1097
  H  H308  1  0.446500  0.452000  0.376430  1.0  0.0969
  H  H309  1  0.411200  0.476900  0.362230  1.0  0.0995
  H  H310  1  0.258100  0.290100  0.365830  1.0  0.1025
  H  H311  1  0.269400  0.354300  0.353830  1.0  0.1043
  H  H312  1  0.521100  0.434900  0.348930  1.0  0.1268
  H  H313  1  0.397900  0.253500  0.323630  1.0  0.104
  H  H314  1  0.295900  0.239000  0.337830  1.0  0.1343
  H  H315  1  0.505000  0.583500  0.516130  1.0  0.1236
  H  H316  1  0.723700  0.799800  0.516130  1.0  0.133
  H  H317  1  0.629700  0.788900  0.500030  1.0  0.0982
  H  H318  1  0.567600  0.555900  0.544830  1.0  0.1038
  H  H319  1  0.615000  0.545600  0.530830  1.0  0.1078
  H  H320  1  0.751500  0.668200  0.527930  1.0  0.106
  H  H321  1  0.762600  0.729100  0.541030  1.0  0.1026
  H  H322  1  0.696000  0.541600  0.547130  1.0  0.1033
  H  H323  1  0.762400  0.611500  0.554630  1.0  0.1038
  H  H324  1  0.617200  0.658000  0.562430  1.0  0.0905
  H  H325  1  0.699600  0.703100  0.566730  1.0  0.0885
  H  H326  1  0.699000  0.482900  0.579830  1.0  0.1051
  H  H327  1  0.607400  0.538200  0.617030  1.0  0.1037
  H  H328  1  0.601500  0.619800  0.599430  1.0  0.1252
  H  H329  1  0.115600  0.512600  0.503930  1.0  0.0973
  H  H330  1  0.119600  0.315900  0.528030  1.0  0.1298
  H  H331  1  0.208300  0.394300  0.509930  1.0  0.1044
  H  H332  1  0.028400  0.495500  0.533030  1.0  0.0893
  H  H333  1  0.969800  0.430000  0.522530  1.0  0.0791
  H  H334  1  0.014500  0.318200  0.550830  1.0  0.1033
  H  H335  1  0.960100  0.297800  0.535430  1.0  0.1018
  H  H336  1  0.895600  0.404400  0.548230  1.0  0.0817
  H  H337  1  0.881800  0.325400  0.547430  1.0  0.0877
  H  H338  1  0.072900  0.427900  0.562230  1.0  0.0689
  H  H339  1  0.051000  0.487500  0.561030  1.0  0.0914
  H  H340  1  0.810600  0.326200  0.578130  1.0  0.1191
  H  H341  1  0.954800  0.398000  0.617130  1.0  0.1237
  H  H342  1  0.042400  0.436100  0.598030  1.0  0.0991
  H  H343  1  0.473100  0.793800  0.077600  1.0  0.1081
  H  H344  1  0.631300  0.030200  0.092800  1.0  0.11
  H  H345  1  0.552900  0.951500  0.113400  1.0  0.1212
  H  H346  1  0.523600  0.840400  0.044900  1.0  0.1036
  H  H347  1  0.597500  0.848500  0.050800  1.0  0.1034
  H  H348  1  0.698800  0.002000  0.060700  1.0  0.102
  H  H349  1  0.659800  0.046900  0.057800  1.0  0.1128
  H  H350  1  0.548000  0.994500  0.043100  1.0  0.0959
  H  H351  1  0.523100  0.934300  0.028900  1.0  0.0987
  H  H352  1  0.709900  0.968000  0.032500  1.0  0.1053
  H  H353  1  0.645700  0.915100  0.020500  1.0  0.105
  H  H354  1  0.565100  0.086200  0.015600  1.0  0.1266
  H  H355  1  0.746500  0.144400  0.990300  1.0  0.1054
  H  H356  1  0.761000  0.056900  0.004500  1.0  0.1346
  H  H357  1  0.416500  0.921500  0.182800  1.0  0.1223
  H  H358  1  0.200200  0.923900  0.182800  1.0  0.1336
  H  H359  1  0.211100  0.840800  0.166700  1.0  0.0981
  H  H360  1  0.444100  0.011700  0.211500  1.0  0.1021
  H  H361  1  0.454400  0.069400  0.197500  1.0  0.1082
  H  H362  1  0.331800  0.083300  0.194600  1.0  0.1065
  H  H363  1  0.270900  0.033500  0.207700  1.0  0.0991
  H  H364  1  0.458400  0.154400  0.213800  1.0  0.1033
  H  H365  1  0.388500  0.150900  0.221300  1.0  0.1046
  H  H366  1  0.342000  0.959200  0.229100  1.0  0.0894
  H  H367  1  0.296900  0.996500  0.233400  1.0  0.0863
  H  H368  1  0.517100  0.216100  0.246500  1.0  0.1059
  H  H369  1  0.461800  0.069200  0.283700  1.0  0.1032
  H  H370  1  0.380200  0.981700  0.266100  1.0  0.1238
  H  H371  1  0.487400  0.603000  0.170600  1.0  0.0983
  H  H372  1  0.684100  0.803700  0.194700  1.0  0.1298
  H  H373  1  0.605700  0.814000  0.176600  1.0  0.1045
  H  H374  1  0.504500  0.532900  0.199700  1.0  0.0903
  H  H375  1  0.570000  0.539800  0.189200  1.0  0.08
  H  H376  1  0.681800  0.696300  0.217500  1.0  0.1033
  H  H377  1  0.702200  0.662300  0.202100  1.0  0.1016
  H  H378  1  0.595600  0.491200  0.214900  1.0  0.0836
  H  H379  1  0.674600  0.556400  0.214100  1.0  0.085
  H  H380  1  0.572100  0.645000  0.228900  1.0  0.0737
  H  H381  1  0.512500  0.563500  0.227700  1.0  0.0923
  H  H382  1  0.673800  0.484400  0.244800  1.0  0.1188
  H  H383  1  0.602000  0.556800  0.283800  1.0  0.1245
  H  H384  1  0.563900  0.606300  0.264700  1.0  0.1003
  H  H385  1  0.206200  0.679300  0.744270  1.0  0.1087
  H  H386  1  0.969800  0.601100  0.759470  1.0  0.1111
  H  H387  1  0.048500  0.601400  0.780070  1.0  0.1228
  H  H388  1  0.159600  0.683200  0.711570  1.0  0.0994
  H  H389  1  0.151500  0.749000  0.717470  1.0  0.1022
  H  H390  1  0.998000  0.696800  0.727370  1.0  0.1046
  H  H391  1  0.953100  0.612900  0.724470  1.0  0.114
  H  H392  1  0.005500  0.553500  0.709770  1.0  0.0972
  H  H393  1  0.065700  0.588800  0.695570  1.0  0.0972
  H  H394  1  0.032000  0.741900  0.699170  1.0  0.1065
  H  H395  1  0.084900  0.730600  0.687170  1.0  0.1049
  H  H396  1  0.913800  0.478900  0.682270  1.0  0.1261
  H  H397  1  0.855600  0.602100  0.656970  1.0  0.1037
  H  H398  1  0.943100  0.704100  0.671170  1.0  0.1356
  H  H399  1  0.078500  0.495000  0.849470  1.0  0.1232
  H  H400  1  0.076100  0.276300  0.849470  1.0  0.1338
  H  H401  1  0.159200  0.370300  0.833370  1.0  0.098
  H  H402  1  0.988300  0.432400  0.878170  1.0  0.1006
  H  H403  1  0.930600  0.385000  0.864170  1.0  0.1082
  H  H404  1  0.916700  0.248500  0.861270  1.0  0.1056
  H  H405  1  0.966500  0.237400  0.874370  1.0  0.102
  H  H406  1  0.845600  0.304000  0.880470  1.0  0.0993
  H  H407  1  0.849100  0.237600  0.887970  1.0  0.1002
  H  H408  1  0.040800  0.382800  0.895770  1.0  0.0915
  H  H409  1  0.003500  0.300400  0.900070  1.0  0.0897
  H  H410  1  0.783900  0.301000  0.913170  1.0  0.1061
  H  H411  1  0.930800  0.392600  0.950370  1.0  0.103
  H  H412  1  0.018300  0.398500  0.932770  1.0  0.1244
  H  H413  1  0.397000  0.884400  0.837270  1.0  0.0986
  H  H414  1  0.196300  0.880400  0.861370  1.0  0.1291
  H  H415  1  0.186000  0.791700  0.843270  1.0  0.1043
  H  H416  1  0.467100  0.971600  0.866370  1.0  0.0884
  H  H417  1  0.460200  0.030200  0.855870  1.0  0.0805
  H  H418  1  0.303700  0.985500  0.884170  1.0  0.1048
  H  H419  1  0.337700  0.039900  0.868770  1.0  0.1022
  H  H420  1  0.508800  0.104400  0.881570  1.0  0.0837
  H  H421  1  0.443600  0.118200  0.880770  1.0  0.0858
  H  H422  1  0.355000  0.927100  0.895570  1.0  0.0717
  H  H423  1  0.436500  0.949000  0.894370  1.0  0.0897
  H  H424  1  0.515600  0.189400  0.911470  1.0  0.1195
  H  H425  1  0.443200  0.045200  0.950470  1.0  0.1241
  H  H426  1  0.393700  0.957600  0.931370  1.0  0.1003
  H  H427  1  0.679300  0.473100  0.910930  1.0  0.1082
  H  H428  1  0.601100  0.631300  0.926130  1.0  0.1113
  H  H429  1  0.601400  0.552900  0.946730  1.0  0.1238
  H  H430  1  0.683200  0.523600  0.878230  1.0  0.1038
  H  H431  1  0.749000  0.597500  0.884130  1.0  0.1011
  H  H432  1  0.696800  0.698800  0.894030  1.0  0.1036
  H  H433  1  0.612900  0.659800  0.891130  1.0  0.112
  H  H434  1  0.553500  0.548000  0.876430  1.0  0.097
  H  H435  1  0.588800  0.523100  0.862230  1.0  0.0981
  H  H436  1  0.741900  0.709900  0.865830  1.0  0.1015
  H  H437  1  0.730600  0.645700  0.853830  1.0  0.105
  H  H438  1  0.478900  0.565100  0.848930  1.0  0.1266
  H  H439  1  0.602100  0.746500  0.823630  1.0  0.105
  H  H440  1  0.704100  0.761000  0.837830  1.0  0.1338
  H  H441  1  0.495000  0.416500  0.016130  1.0  0.1231
  H  H442  1  0.276300  0.200200  0.016130  1.0  0.133
  H  H443  1  0.370300  0.211100  0.000030  1.0  0.0977
  H  H444  1  0.432400  0.444100  0.044830  1.0  0.103
  H  H445  1  0.385000  0.454400  0.030830  1.0  0.1079
  H  H446  1  0.248500  0.331800  0.027930  1.0  0.106
  H  H447  1  0.237400  0.270900  0.041030  1.0  0.1015
  H  H448  1  0.304000  0.458400  0.047130  1.0  0.1032
  H  H449  1  0.237600  0.388500  0.054630  1.0  0.1045
  H  H450  1  0.382800  0.342000  0.062430  1.0  0.0885
  H  H451  1  0.300400  0.296900  0.066730  1.0  0.086
  H  H452  1  0.301000  0.517100  0.079830  1.0  0.1054
  H  H453  1  0.392600  0.461800  0.117030  1.0  0.1039
  H  H454  1  0.398500  0.380200  0.099430  1.0  0.1245
  H  H455  1  0.884400  0.487400  0.003930  1.0  0.0982
  H  H456  1  0.880400  0.684100  0.028030  1.0  0.1319
  H  H457  1  0.791700  0.605700  0.009930  1.0  0.1034
  H  H458  1  0.971600  0.504500  0.033030  1.0  0.0885
  H  H459  1  0.030200  0.570000  0.022530  1.0  0.0778
  H  H460  1  0.985500  0.681800  0.050830  1.0  0.1043
  H  H461  1  0.039900  0.702200  0.035430  1.0  0.1023
  H  H462  1  0.104400  0.595600  0.048230  1.0  0.082
  H  H463  1  0.118200  0.674600  0.047430  1.0  0.0861
  H  H464  1  0.927100  0.572100  0.062230  1.0  0.0708
  H  H465  1  0.949000  0.512500  0.061030  1.0  0.0923
  H  H466  1  0.189400  0.673800  0.078130  1.0  0.1195
  H  H467  1  0.045200  0.602000  0.117130  1.0  0.1241
  H  H468  1  0.957600  0.563900  0.098030  1.0  0.0993
  H  H469  1  0.526900  0.206200  0.577600  1.0  0.1085
  H  H470  1  0.368700  0.969800  0.592800  1.0  0.1113
  H  H471  1  0.447100  0.048500  0.613400  1.0  0.1218
  H  H472  1  0.476400  0.159600  0.544900  1.0  0.1037
  H  H473  1  0.402500  0.151500  0.550800  1.0  0.1025
  H  H474  1  0.301200  0.998000  0.560700  1.0  0.1023
  H  H475  1  0.340200  0.953100  0.557800  1.0  0.1113
  H  H476  1  0.452000  0.005500  0.543100  1.0  0.0962
  H  H477  1  0.476900  0.065700  0.528900  1.0  0.0978
  H  H478  1  0.290100  0.032000  0.532500  1.0  0.1028
  H  H479  1  0.354300  0.084900  0.520500  1.0  0.105
  H  H480  1  0.434900  0.913800  0.515600  1.0  0.1259
  H  H481  1  0.253500  0.855600  0.490300  1.0  0.1044
  H  H482  1  0.239000  0.943100  0.504500  1.0  0.1352
  H  H483  1  0.583500  0.078500  0.682800  1.0  0.1234
  H  H484  1  0.799800  0.076100  0.682800  1.0  0.1331
  H  H485  1  0.788900  0.159200  0.666667  1.0  0.1027
  H  H486  1  0.555900  0.988300  0.711500  1.0  0.1033
  H  H487  1  0.545600  0.930600  0.697500  1.0  0.1085
  H  H488  1  0.668200  0.916700  0.694600  1.0  0.1054
  H  H489  1  0.729100  0.966500  0.707700  1.0  0.0976
  H  H490  1  0.541600  0.845600  0.713800  1.0  0.1027
  H  H491  1  0.611500  0.849100  0.721300  1.0  0.1051
  H  H492  1  0.658000  0.040800  0.729100  1.0  0.0907
  H  H493  1  0.703100  0.003500  0.733400  1.0  0.0844
  H  H494  1  0.482900  0.783900  0.746500  1.0  0.1052
  H  H495  1  0.538200  0.930800  0.783700  1.0  0.1032
  H  H496  1  0.619800  0.018300  0.766100  1.0  0.1243
  H  H497  1  0.512600  0.397000  0.670600  1.0  0.0983
  H  H498  1  0.315900  0.196300  0.694700  1.0  0.1291
  H  H499  1  0.394300  0.186000  0.676600  1.0  0.1044
  H  H500  1  0.495500  0.467100  0.699700  1.0  0.0904
  H  H501  1  0.430000  0.460200  0.689200  1.0  0.0802
  H  H502  1  0.318200  0.303700  0.717500  1.0  0.1038
  H  H503  1  0.297800  0.337700  0.702100  1.0  0.1017
  H  H504  1  0.404400  0.508800  0.714900  1.0  0.0849
  H  H505  1  0.325400  0.443600  0.714100  1.0  0.0857
  H  H506  1  0.427900  0.355000  0.728900  1.0  0.0734
  H  H507  1  0.487500  0.436500  0.727700  1.0  0.0919
  H  H508  1  0.326200  0.515600  0.744800  1.0  0.1184
  H  H509  1  0.398000  0.443200  0.783800  1.0  0.1256
  H  H510  1  0.436100  0.393700  0.764700  1.0  0.101
  H  H511  1  0.793800  0.320700  0.244270  1.0  0.1082
  H  H512  1  0.030200  0.398900  0.259470  1.0  0.1109
  H  H513  1  0.951500  0.398600  0.280070  1.0  0.1222
  H  H514  1  0.840400  0.316800  0.211570  1.0  0.0997
  H  H515  1  0.848500  0.251000  0.217470  1.0  0.0998
  H  H516  1  0.002000  0.303200  0.227370  1.0  0.1039
  H  H517  1  0.046900  0.387100  0.224470  1.0  0.1135
  H  H518  1  0.994500  0.446500  0.209770  1.0  0.0966
  H  H519  1  0.934300  0.411200  0.195570  1.0  0.0984
  H  H520  1  0.968000  0.258100  0.199170  1.0  0.1073
  H  H521  1  0.915100  0.269400  0.187170  1.0  0.1041
  H  H522  1  0.086200  0.521100  0.182270  1.0  0.1264
  H  H523  1  0.144400  0.397900  0.156970  1.0  0.1036
  H  H524  1  0.056900  0.295900  0.171170  1.0  0.1366
  H  H525  1  0.921500  0.505000  0.349470  1.0  0.1234
  H  H526  1  0.923900  0.723700  0.349470  1.0  0.1342
  H  H527  1  0.840800  0.629700  0.333370  1.0  0.098
  H  H528  1  0.011700  0.567600  0.378170  1.0  0.0997
  H  H529  1  0.069400  0.615000  0.364170  1.0  0.1077
  H  H530  1  0.083300  0.751500  0.361270  1.0  0.1048
  H  H531  1  0.033500  0.762600  0.374370  1.0  0.1016
  H  H532  1  0.154400  0.696000  0.380470  1.0  0.099
  H  H533  1  0.150900  0.762400  0.387970  1.0  0.1022
  H  H534  1  0.959200  0.617200  0.395770  1.0  0.0922
  H  H535  1  0.996500  0.699600  0.400070  1.0  0.09
  H  H536  1  0.216100  0.699000  0.413170  1.0  0.1062
  H  H537  1  0.069200  0.607400  0.450370  1.0  0.1041
  H  H538  1  0.981700  0.601500  0.432770  1.0  0.1249
  H  H539  1  0.603000  0.115600  0.337270  1.0  0.0984
  H  H540  1  0.803700  0.119600  0.361370  1.0  0.1285
  H  H541  1  0.814000  0.208300  0.343270  1.0  0.1054
  H  H542  1  0.532900  0.028400  0.366370  1.0  0.0897
  H  H543  1  0.539800  0.969800  0.355870  1.0  0.0794
  H  H544  1  0.696300  0.014500  0.384170  1.0  0.1028
  H  H545  1  0.662300  0.960100  0.368770  1.0  0.1015
  H  H546  1  0.491200  0.895600  0.381570  1.0  0.0827
  H  H547  1  0.556400  0.881800  0.380770  1.0  0.086
  H  H548  1  0.645000  0.072900  0.395570  1.0  0.0724
  H  H549  1  0.563500  0.051000  0.394370  1.0  0.0906
  H  H550  1  0.484400  0.810600  0.411470  1.0  0.119
  H  H551  1  0.556800  0.954800  0.450470  1.0  0.1234
  H  H552  1  0.606300  0.042400  0.431370  1.0  0.099
  C  C553  1  0.863000  0.504500  0.902820  1.0  -0.1307
  C  C554  1  0.840540  0.505580  0.919180  1.0  -0.0584
  C  C555  1  0.887300  0.554800  0.930860  1.0  0.0195
  C  C556  1  0.958700  0.601700  0.926790  1.0  0.0621
  C  C557  1  0.982600  0.600300  0.910100  1.0  -0.0878
  C  C558  1  0.936000  0.553000  0.897720  1.0  -0.0865
  C  C559  1  0.871100  0.568300  0.949170  1.0  -0.2342
  C  C560  1  0.947600  0.609200  0.957590  1.0  0.0381
  C  C561  1  0.999100  0.652800  0.940960  1.0  -0.2335
  C  C562  1  0.973000  0.564300  0.965360  1.0  -0.2164
  C  C563  1  0.029400  0.615700  0.978440  1.0  0.0368
  C  C564  1  0.019500  0.669800  0.981860  1.0  0.1648
  C  C565  1  0.957400  0.664100  0.972220  1.0  -0.2471
  C  C566  1  0.082400  0.605400  0.986680  1.0  -0.0767
  C  C567  1  0.127300  0.655800  0.997890  1.0  -0.0608
  C  C568  1  0.115600  0.712900  0.001500  1.0  -0.0523
  C  C569  1  0.062500  0.721700  0.993280  1.0  -0.1198
  C  C570  1  0.182700  0.647500  0.007180  1.0  0.7304
  C  C571  1  0.811490  0.453640  0.889980  1.0  0.6796
  C  C572  1  0.866400  0.310100  0.826570  1.0  -0.1273
  C  C573  1  0.920500  0.372900  0.816880  1.0  -0.0869
  C  C574  1  0.968500  0.364000  0.807570  1.0  0.0212
  C  C575  1  0.972400  0.302100  0.808470  1.0  -0.0328
  C  C576  1  0.923100  0.242900  0.817370  1.0  -0.1444
  C  C577  1  0.872700  0.249700  0.826580  1.0  -0.0361
  C  C578  1  0.028900  0.419500  0.795810  1.0  -0.2644
  C  C579  1  0.048500  0.371400  0.785280  1.0  0.0307
  C  C580  1  0.041600  0.314200  0.798080  1.0  -0.2626
  C  C581  1  0.127200  0.416700  0.778960  1.0  -0.2458
  C  C582  1  0.118000  0.438200  0.760870  1.0  0.0551
  C  C583  1  0.048700  0.397600  0.755360  1.0  0.0596
  C  C584  1  0.005000  0.344300  0.769430  1.0  -0.2373
  C  C585  1  0.169200  0.488500  0.749790  1.0  -0.0934
  C  C586  1  0.150500  0.496200  0.733040  1.0  -0.1643
  C  C587  1  0.080800  0.455600  0.727500  1.0  -0.0215
  C  C588  1  0.028700  0.407000  0.737800  1.0  -0.1128
  C  C589  1  0.207900  0.548300  0.721930  1.0  0.7208
  C  C590  1  0.816300  0.315400  0.836960  1.0  0.7212
  C  C591  1  0.708800  0.537600  0.827860  1.0  -0.1674
  C  C592  1  0.642300  0.524100  0.823810  1.0  -0.0588
  C  C593  1  0.631500  0.563400  0.811610  1.0  0.022
  C  C594  1  0.692800  0.628600  0.804960  1.0  0.0053
  C  C595  1  0.763100  0.643900  0.809600  1.0  -0.1315
  C  C596  1  0.768500  0.597400  0.820560  1.0  -0.079
  C  C597  1  0.564800  0.554300  0.803190  1.0  -0.2008
  C  C598  1  0.588300  0.598800  0.787580  1.0  0.0938
  C  C599  1  0.665600  0.663500  0.792520  1.0  -0.2299
  C  C600  1  0.540100  0.626900  0.781390  1.0  -0.1836
  C  C601  1  0.544400  0.629000  0.762200  1.0  0.0925
  C  C602  1  0.580100  0.596900  0.757570  1.0  0.1086
  C  C603  1  0.596500  0.563670  0.772000  1.0  -0.1482
  C  C604  1  0.510170  0.652810  0.751090  1.0  -0.1087
  C  C605  1  0.516100  0.643800  0.733380  1.0  -0.1657
  C  C606  1  0.553200  0.609200  0.727870  1.0  -0.117
  C  C607  1  0.582500  0.587200  0.739230  1.0  -0.122
  C  C608  1  0.476000  0.663900  0.721100  1.0  0.6855
  C  C609  1  0.717800  0.488300  0.840410  1.0  0.7003
  C  C610  1  0.641500  0.137000  0.236150  1.0  -0.1313
  C  C611  1  0.665040  0.159460  0.252510  1.0  -0.0609
  C  C612  1  0.667500  0.112700  0.264190  1.0  0.0202
  C  C613  1  0.643000  0.041300  0.260120  1.0  0.0607
  C  C614  1  0.617700  0.017400  0.243430  1.0  -0.0894
  C  C615  1  0.617000  0.064000  0.231050  1.0  -0.0799
  C  C616  1  0.697200  0.128900  0.282500  1.0  -0.2335
  C  C617  1  0.661600  0.052400  0.290920  1.0  0.0403
  C  C618  1  0.653700  0.000900  0.274290  1.0  -0.2328
  C  C619  1  0.591300  0.027000  0.298690  1.0  -0.2135
  C  C620  1  0.586300  0.970600  0.311770  1.0  0.034
  C  C621  1  0.650300  0.980500  0.315190  1.0  0.162
  C  C622  1  0.706700  0.042600  0.305550  1.0  -0.2477
  C  C623  1  0.523000  0.917600  0.320010  1.0  -0.0765
  C  C624  1  0.528500  0.872700  0.331220  1.0  -0.0609
  C  C625  1  0.597300  0.884400  0.334830  1.0  -0.0523
  C  C626  1  0.659200  0.937500  0.326610  1.0  -0.1214
  C  C627  1  0.464800  0.817300  0.340510  1.0  0.73
  C  C628  1  0.642150  0.188510  0.223310  1.0  0.6785
  C  C629  1  0.443700  0.133600  0.159900  1.0  -0.1285
  C  C630  1  0.452400  0.079500  0.150210  1.0  -0.0834
  C  C631  1  0.395500  0.031500  0.140900  1.0  0.0211
  C  C632  1  0.329700  0.027600  0.141800  1.0  -0.0352
  C  C633  1  0.319800  0.076900  0.150700  1.0  -0.1401
  C  C634  1  0.377000  0.127300  0.159910  1.0  -0.0338
  C  C635  1  0.390600  0.971100  0.129140  1.0  -0.261
  C  C636  1  0.322900  0.951500  0.118610  1.0  0.0294
  C  C637  1  0.272600  0.958400  0.131410  1.0  -0.2601
  C  C638  1  0.289500  0.872800  0.112290  1.0  -0.2479
  C  C639  1  0.320200  0.882000  0.094200  1.0  0.0544
  C  C640  1  0.348900  0.951300  0.088690  1.0  0.0587
  C  C641  1  0.339300  0.995000  0.102760  1.0  -0.237
  C  C642  1  0.319300  0.830800  0.083120  1.0  -0.0953
  C  C643  1  0.345700  0.849500  0.066370  1.0  -0.165
  C  C644  1  0.374800  0.919200  0.060830  1.0  -0.0186
  C  C645  1  0.378300  0.971300  0.071130  1.0  -0.1106
  C  C646  1  0.340400  0.792100  0.055260  1.0  0.7212
  C  C647  1  0.499100  0.183700  0.170290  1.0  0.7185
  C  C648  1  0.828800  0.291200  0.161190  1.0  -0.1662
  C  C649  1  0.881800  0.357700  0.157140  1.0  -0.0579
  C  C650  1  0.931900  0.368500  0.144940  1.0  0.0219
  C  C651  1  0.935800  0.307200  0.138290  1.0  0.0058
  C  C652  1  0.880800  0.236900  0.142930  1.0  -0.1286
  C  C653  1  0.828900  0.231500  0.153890  1.0  -0.08
  C  C654  1  0.989500  0.435200  0.136520  1.0  -0.1997
  C  C655  1  0.010500  0.411700  0.120910  1.0  0.094
  C  C656  1  0.997900  0.334400  0.125850  1.0  -0.2293
  C  C657  1  0.086800  0.459900  0.114720  1.0  -0.1842
  C  C658  1  0.084600  0.455600  0.095530  1.0  0.0941
  C  C659  1  0.016800  0.419900  0.090900  1.0  0.1128
  C  C660  1  0.967170  0.403500  0.105330  1.0  -0.1437
  C  C661  1  0.142640  0.489830  0.084420  1.0  -0.1055
  C  C662  1  0.127700  0.483900  0.066710  1.0  -0.1682
  C  C663  1  0.056000  0.446800  0.061200  1.0  -0.1148
  C  C664  1  0.004700  0.417500  0.072560  1.0  -0.1191
  C  C665  1  0.187900  0.524000  0.054430  1.0  0.6878
  C  C666  1  0.770500  0.282200  0.173740  1.0  0.6983
  C  C667  1  0.495500  0.358500  0.569490  1.0  -0.1307
  C  C668  1  0.494420  0.334960  0.585850  1.0  -0.0612
  C  C669  1  0.445200  0.332500  0.597530  1.0  0.0184
  C  C670  1  0.398300  0.357000  0.593460  1.0  0.0621
  C  C671  1  0.399700  0.382300  0.576770  1.0  -0.0847
  C  C672  1  0.447000  0.383000  0.564390  1.0  -0.0798
  C  C673  1  0.431700  0.302800  0.615840  1.0  -0.2335
  C  C674  1  0.390800  0.338400  0.624260  1.0  0.0388
  C  C675  1  0.347200  0.346300  0.607630  1.0  -0.2331
  C  C676  1  0.435700  0.408700  0.632030  1.0  -0.2159
  C  C677  1  0.384300  0.413700  0.645110  1.0  0.0374
  C  C678  1  0.330200  0.349700  0.648530  1.0  0.1616
  C  C679  1  0.335900  0.293300  0.638890  1.0  -0.2451
  C  C680  1  0.394600  0.477000  0.653350  1.0  -0.0728
  C  C681  1  0.344200  0.471500  0.664560  1.0  -0.0607
  C  C682  1  0.287100  0.402700  0.668170  1.0  -0.0505
  C  C683  1  0.278300  0.340800  0.659950  1.0  -0.1249
  C  C684  1  0.352500  0.535200  0.673850  1.0  0.7362
  C  C685  1  0.546360  0.357850  0.556650  1.0  0.6772
  C  C686  1  0.689900  0.556300  0.493240  1.0  -0.1273
  C  C687  1  0.627100  0.547600  0.483550  1.0  -0.0848
  C  C688  1  0.636000  0.604500  0.474240  1.0  0.0207
  C  C689  1  0.697900  0.670300  0.475140  1.0  -0.0357
  C  C690  1  0.757100  0.680200  0.484040  1.0  -0.1435
  C  C691  1  0.750300  0.623000  0.493250  1.0  -0.0315
  C  C692  1  0.580500  0.609400  0.462480  1.0  -0.2622
  C  C693  1  0.628600  0.677100  0.451950  1.0  0.0312
  C  C694  1  0.685800  0.727400  0.464750  1.0  -0.2647
  C  C695  1  0.583300  0.710500  0.445630  1.0  -0.2491
  C  C696  1  0.561800  0.679800  0.427540  1.0  0.055
  C  C697  1  0.602400  0.651100  0.422030  1.0  0.0596
  C  C698  1  0.655700  0.660700  0.436100  1.0  -0.2401
  C  C699  1  0.511500  0.680700  0.416460  1.0  -0.0935
  C  C700  1  0.503800  0.654300  0.399710  1.0  -0.1644
  C  C701  1  0.544400  0.625200  0.394170  1.0  -0.0178
  C  C702  1  0.593000  0.621700  0.404470  1.0  -0.1138
  C  C703  1  0.451700  0.659600  0.388600  1.0  0.7208
  C  C704  1  0.684600  0.500900  0.503630  1.0  0.7196
  C  C705  1  0.462400  0.171200  0.494530  1.0  -0.1612
  C  C706  1  0.475900  0.118200  0.490480  1.0  -0.0582
  C  C707  1  0.436600  0.068100  0.478280  1.0  0.0207
  C  C708  1  0.371400  0.064200  0.471630  1.0  0.0045
  C  C709  1  0.356100  0.119200  0.476270  1.0  -0.128
  C  C710  1  0.402600  0.171100  0.487230  1.0  -0.077
  C  C711  1  0.445700  0.010500  0.469860  1.0  -0.1974
  C  C712  1  0.401200  0.989500  0.454250  1.0  0.0937
  C  C713  1  0.336500  0.002100  0.459190  1.0  -0.2285
  C  C714  1  0.373100  0.913200  0.448060  1.0  -0.1849
  C  C715  1  0.371000  0.915400  0.428870  1.0  0.092
  C  C716  1  0.403100  0.983200  0.424240  1.0  0.1054
  C  C717  1  0.436330  0.032830  0.438670  1.0  -0.1471
  C  C718  1  0.347190  0.857360  0.417760  1.0  -0.1002
  C  C719  1  0.356200  0.872300  0.400050  1.0  -0.1725
  C  C720  1  0.390800  0.944000  0.394540  1.0  -0.1155
  C  C721  1  0.412800  0.995300  0.405900  1.0  -0.1223
  C  C722  1  0.336100  0.812100  0.387770  1.0  0.6886
  C  C723  1  0.511700  0.229500  0.507080  1.0  0.6987
  C  C724  1  0.137000  0.495500  0.402820  1.0  -0.1304
  C  C725  1  0.159460  0.494420  0.419180  1.0  -0.059
  C  C726  1  0.112700  0.445200  0.430860  1.0  0.0182
  C  C727  1  0.041300  0.398300  0.426790  1.0  0.0623
  C  C728  1  0.017400  0.399700  0.410100  1.0  -0.0905
  C  C729  1  0.064000  0.447000  0.397720  1.0  -0.0828
  C  C730  1  0.128900  0.431700  0.449170  1.0  -0.2326
  C  C731  1  0.052400  0.390800  0.457590  1.0  0.0387
  C  C732  1  0.000900  0.347200  0.440960  1.0  -0.231
  C  C733  1  0.027000  0.435700  0.465360  1.0  -0.2167
  C  C734  1  0.970600  0.384300  0.478440  1.0  0.0364
  C  C735  1  0.980500  0.330200  0.481860  1.0  0.1646
  C  C736  1  0.042600  0.335900  0.472220  1.0  -0.2464
  C  C737  1  0.917600  0.394600  0.486680  1.0  -0.0767
  C  C738  1  0.872700  0.344200  0.497890  1.0  -0.0611
  C  C739  1  0.884400  0.287100  0.501500  1.0  -0.0518
  C  C740  1  0.937500  0.278300  0.493280  1.0  -0.1256
  C  C741  1  0.817300  0.352500  0.507180  1.0  0.7324
  C  C742  1  0.188510  0.546360  0.389980  1.0  0.6794
  C  C743  1  0.133600  0.689900  0.326570  1.0  -0.1286
  C  C744  1  0.079500  0.627100  0.316880  1.0  -0.086
  C  C745  1  0.031500  0.636000  0.307570  1.0  0.0203
  C  C746  1  0.027600  0.697900  0.308470  1.0  -0.0323
  C  C747  1  0.076900  0.757100  0.317370  1.0  -0.1394
  C  C748  1  0.127300  0.750300  0.326580  1.0  -0.0555
  C  C749  1  0.971100  0.580500  0.295810  1.0  -0.2628
  C  C750  1  0.951500  0.628600  0.285280  1.0  0.0299
  C  C751  1  0.958400  0.685800  0.298080  1.0  -0.2624
  C  C752  1  0.872800  0.583300  0.278960  1.0  -0.2464
  C  C753  1  0.882000  0.561800  0.260870  1.0  0.0543
  C  C754  1  0.951300  0.602400  0.255360  1.0  0.0601
  C  C755  1  0.995000  0.655700  0.269430  1.0  -0.2368
  C  C756  1  0.830800  0.511500  0.249790  1.0  -0.0929
  C  C757  1  0.849500  0.503800  0.233040  1.0  -0.1644
  C  C758  1  0.919200  0.544400  0.227500  1.0  -0.0236
  C  C759  1  0.971300  0.593000  0.237800  1.0  -0.1121
  C  C760  1  0.792100  0.451700  0.221930  1.0  0.7217
  C  C761  1  0.183700  0.684600  0.336960  1.0  0.7207
  C  C762  1  0.291200  0.462400  0.327860  1.0  -0.1653
  C  C763  1  0.357700  0.475900  0.323810  1.0  -0.0587
  C  C764  1  0.368500  0.436600  0.311610  1.0  0.0216
  C  C765  1  0.307200  0.371400  0.304960  1.0  0.0032
  C  C766  1  0.236900  0.356100  0.309600  1.0  -0.1338
  C  C767  1  0.231500  0.402600  0.320560  1.0  -0.078
  C  C768  1  0.435200  0.445700  0.303190  1.0  -0.1999
  C  C769  1  0.411700  0.401200  0.287580  1.0  0.0942
  C  C770  1  0.334400  0.336500  0.292520  1.0  -0.2305
  C  C771  1  0.459900  0.373100  0.281390  1.0  -0.1844
  C  C772  1  0.455600  0.371000  0.262200  1.0  0.0954
  C  C773  1  0.419900  0.403100  0.257570  1.0  0.1067
  C  C774  1  0.403500  0.436330  0.272000  1.0  -0.1468
  C  C775  1  0.489830  0.347190  0.251090  1.0  -0.107
  C  C776  1  0.483900  0.356200  0.233380  1.0  -0.1675
  C  C777  1  0.446800  0.390800  0.227870  1.0  -0.1152
  C  C778  1  0.417500  0.412800  0.239230  1.0  -0.1188
  C  C779  1  0.524000  0.336100  0.221100  1.0  0.6843
  C  C780  1  0.282200  0.511700  0.340410  1.0  0.6996
  C  C781  1  0.358500  0.863000  0.736150  1.0  -0.1309
  C  C782  1  0.334960  0.840540  0.752510  1.0  -0.059
  C  C783  1  0.332500  0.887300  0.764190  1.0  0.0198
  C  C784  1  0.357000  0.958700  0.760120  1.0  0.061
  C  C785  1  0.382300  0.982600  0.743430  1.0  -0.086
  C  C786  1  0.383000  0.936000  0.731050  1.0  -0.0822
  C  C787  1  0.302800  0.871100  0.782500  1.0  -0.2335
  C  C788  1  0.338400  0.947600  0.790920  1.0  0.0387
  C  C789  1  0.346300  0.999100  0.774290  1.0  -0.2329
  C  C790  1  0.408700  0.973000  0.798690  1.0  -0.2132
  C  C791  1  0.413700  0.029400  0.811770  1.0  0.0362
  C  C792  1  0.349700  0.019500  0.815190  1.0  0.162
  C  C793  1  0.293300  0.957400  0.805550  1.0  -0.2459
  C  C794  1  0.477000  0.082400  0.820010  1.0  -0.0776
  C  C795  1  0.471500  0.127300  0.831220  1.0  -0.0562
  C  C796  1  0.402700  0.115600  0.834830  1.0  -0.0528
  C  C797  1  0.340800  0.062500  0.826610  1.0  -0.1201
  C  C798  1  0.535200  0.182700  0.840510  1.0  0.7309
  C  C799  1  0.357850  0.811490  0.723310  1.0  0.6789
  C  C800  1  0.556300  0.866400  0.659900  1.0  -0.1296
  C  C801  1  0.547600  0.920500  0.650210  1.0  -0.0851
  C  C802  1  0.604500  0.968500  0.640900  1.0  0.0192
  C  C803  1  0.670300  0.972400  0.641800  1.0  -0.0351
  C  C804  1  0.680200  0.923100  0.650700  1.0  -0.1395
  C  C805  1  0.623000  0.872700  0.659910  1.0  -0.0549
  C  C806  1  0.609400  0.028900  0.629140  1.0  -0.261
  C  C807  1  0.677100  0.048500  0.618610  1.0  0.0319
  C  C808  1  0.727400  0.041600  0.631410  1.0  -0.2593
  C  C809  1  0.710500  0.127200  0.612290  1.0  -0.2474
  C  C810  1  0.679800  0.118000  0.594200  1.0  0.0564
  C  C811  1  0.651100  0.048700  0.588690  1.0  0.0591
  C  C812  1  0.660700  0.005000  0.602760  1.0  -0.2364
  C  C813  1  0.680700  0.169200  0.583120  1.0  -0.095
  C  C814  1  0.654300  0.150500  0.566370  1.0  -0.1646
  C  C815  1  0.625200  0.080800  0.560830  1.0  -0.0158
  C  C816  1  0.621700  0.028700  0.571130  1.0  -0.1104
  C  C817  1  0.659600  0.207900  0.555260  1.0  0.7219
  C  C818  1  0.500900  0.816300  0.670290  1.0  0.7176
  C  C819  1  0.171200  0.708800  0.661190  1.0  -0.1667
  C  C820  1  0.118200  0.642300  0.657140  1.0  -0.0574
  C  C821  1  0.068100  0.631500  0.644940  1.0  0.0225
  C  C822  1  0.064200  0.692800  0.638290  1.0  0.0089
  C  C823  1  0.119200  0.763100  0.642930  1.0  -0.127
  C  C824  1  0.171100  0.768500  0.653890  1.0  -0.0786
  C  C825  1  0.010500  0.564800  0.636520  1.0  -0.2011
  C  C826  1  0.989500  0.588300  0.620910  1.0  0.093
  C  C827  1  0.002100  0.665600  0.625850  1.0  -0.2299
  C  C828  1  0.913200  0.540100  0.614720  1.0  -0.1823
  C  C829  1  0.915400  0.544400  0.595530  1.0  0.0959
  C  C830  1  0.983200  0.580100  0.590900  1.0  0.1095
  C  C831  1  0.032830  0.596500  0.605330  1.0  -0.1453
  C  C832  1  0.857360  0.510170  0.584420  1.0  -0.1057
  C  C833  1  0.872300  0.516100  0.566710  1.0  -0.1681
  C  C834  1  0.944000  0.553200  0.561200  1.0  -0.1139
  C  C835  1  0.995300  0.582500  0.572560  1.0  -0.1191
  C  C836  1  0.812100  0.476000  0.554430  1.0  0.6883
  C  C837  1  0.229500  0.717800  0.673740  1.0  0.6991
  C  C838  1  0.504500  0.641500  0.069490  1.0  -0.1308
  C  C839  1  0.505580  0.665040  0.085850  1.0  -0.0592
  C  C840  1  0.554800  0.667500  0.097530  1.0  0.0198
  C  C841  1  0.601700  0.643000  0.093460  1.0  0.0626
  C  C842  1  0.600300  0.617700  0.076770  1.0  -0.0849
  C  C843  1  0.553000  0.617000  0.064390  1.0  -0.0828
  C  C844  1  0.568300  0.697200  0.115840  1.0  -0.2356
  C  C845  1  0.609200  0.661600  0.124260  1.0  0.0397
  C  C846  1  0.652800  0.653700  0.107630  1.0  -0.2323
  C  C847  1  0.564300  0.591300  0.132030  1.0  -0.2164
  C  C848  1  0.615700  0.586300  0.145110  1.0  0.0359
  C  C849  1  0.669800  0.650300  0.148530  1.0  0.1608
  C  C850  1  0.664100  0.706700  0.138890  1.0  -0.247
  C  C851  1  0.605400  0.523000  0.153350  1.0  -0.0743
  C  C852  1  0.655800  0.528500  0.164560  1.0  -0.0608
  C  C853  1  0.712900  0.597300  0.168170  1.0  -0.0482
  C  C854  1  0.721700  0.659200  0.159950  1.0  -0.1265
  C  C855  1  0.647500  0.464800  0.173850  1.0  0.7329
  C  C856  1  0.453640  0.642150  0.056650  1.0  0.6777
  C  C857  1  0.310100  0.443700  0.993240  1.0  -0.1279
  C  C858  1  0.372900  0.452400  0.983550  1.0  -0.081
  C  C859  1  0.364000  0.395500  0.974240  1.0  0.0213
  C  C860  1  0.302100  0.329700  0.975140  1.0  -0.0356
  C  C861  1  0.242900  0.319800  0.984040  1.0  -0.1435
  C  C862  1  0.249700  0.377000  0.993250  1.0  -0.0336
  C  C863  1  0.419500  0.390600  0.962480  1.0  -0.2617
  C  C864  1  0.371400  0.322900  0.951950  1.0  0.0307
  C  C865  1  0.314200  0.272600  0.964750  1.0  -0.2642
  C  C866  1  0.416700  0.289500  0.945630  1.0  -0.2475
  C  C867  1  0.438200  0.320200  0.927540  1.0  0.0538
  C  C868  1  0.397600  0.348900  0.922030  1.0  0.0596
  C  C869  1  0.344300  0.339300  0.936100  1.0  -0.2385
  C  C870  1  0.488500  0.319300  0.916460  1.0  -0.0931
  C  C871  1  0.496200  0.345700  0.899710  1.0  -0.1643
  C  C872  1  0.455600  0.374800  0.894170  1.0  -0.016
  C  C873  1  0.407000  0.378300  0.904470  1.0  -0.1147
  C  C874  1  0.548300  0.340400  0.888600  1.0  0.7197
  C  C875  1  0.315400  0.499100  0.003630  1.0  0.7208
  C  C876  1  0.537600  0.828800  0.994530  1.0  -0.1626
  C  C877  1  0.524100  0.881800  0.990480  1.0  -0.0578
  C  C878  1  0.563400  0.931900  0.978280  1.0  0.0237
  C  C879  1  0.628600  0.935800  0.971630  1.0  0.0038
  C  C880  1  0.643900  0.880800  0.976270  1.0  -0.1288
  C  C881  1  0.597400  0.828900  0.987230  1.0  -0.0787
  C  C882  1  0.554300  0.989500  0.969860  1.0  -0.1961
  C  C883  1  0.598800  0.010500  0.954250  1.0  0.0941
  C  C884  1  0.663500  0.997900  0.959190  1.0  -0.2275
  C  C885  1  0.626900  0.086800  0.948060  1.0  -0.1844
  C  C886  1  0.629000  0.084600  0.928870  1.0  0.0919
  C  C887  1  0.596900  0.016800  0.924240  1.0  0.1085
  C  C888  1  0.563670  0.967170  0.938670  1.0  -0.1459
  C  C889  1  0.652810  0.142640  0.917760  1.0  -0.1029
  C  C890  1  0.643800  0.127700  0.900050  1.0  -0.168
  C  C891  1  0.609200  0.056000  0.894540  1.0  -0.1164
  C  C892  1  0.587200  0.004700  0.905900  1.0  -0.1228
  C  C893  1  0.663900  0.187900  0.887770  1.0  0.6883
  C  C894  1  0.488300  0.770500  0.007080  1.0  0.698
  C  C895  1  0.358500  0.495500  0.430510  1.0  -0.1315
  C  C896  1  0.334960  0.494420  0.414150  1.0  -0.058
  C  C897  1  0.332500  0.445200  0.402470  1.0  0.0173
  C  C898  1  0.357000  0.398300  0.406540  1.0  0.0608
  C  C899  1  0.382300  0.399700  0.423230  1.0  -0.089
  C  C900  1  0.383000  0.447000  0.435610  1.0  -0.0862
  C  C901  1  0.302800  0.431700  0.384160  1.0  -0.2327
  C  C902  1  0.338400  0.390800  0.375740  1.0  0.0389
  C  C903  1  0.346300  0.347200  0.392370  1.0  -0.232
  C  C904  1  0.408700  0.435700  0.367970  1.0  -0.2169
  C  C905  1  0.413700  0.384300  0.354890  1.0  0.037
  C  C906  1  0.349700  0.330200  0.351470  1.0  0.166
  C  C907  1  0.293300  0.335900  0.361110  1.0  -0.2456
  C  C908  1  0.477000  0.394600  0.346650  1.0  -0.0762
  C  C909  1  0.471500  0.344200  0.335440  1.0  -0.0584
  C  C910  1  0.402700  0.287100  0.331830  1.0  -0.0544
  C  C911  1  0.340800  0.278300  0.340050  1.0  -0.1239
  C  C912  1  0.535200  0.352500  0.326150  1.0  0.7324
  C  C913  1  0.357850  0.546360  0.443350  1.0  0.6789
  C  C914  1  0.556300  0.689900  0.506760  1.0  -0.1264
  C  C915  1  0.547600  0.627100  0.516450  1.0  -0.0859
  C  C916  1  0.604500  0.636000  0.525760  1.0  0.0206
  C  C917  1  0.670300  0.697900  0.524860  1.0  -0.0309
  C  C918  1  0.680200  0.757100  0.515960  1.0  -0.1389
  C  C919  1  0.623000  0.750300  0.506750  1.0  -0.0353
  C  C920  1  0.609400  0.580500  0.537520  1.0  -0.2654
  C  C921  1  0.677100  0.628600  0.548050  1.0  0.031
  C  C922  1  0.727400  0.685800  0.535250  1.0  -0.2613
  C  C923  1  0.710500  0.583300  0.554370  1.0  -0.2461
  C  C924  1  0.679800  0.561800  0.572460  1.0  0.0534
  C  C925  1  0.651100  0.602400  0.577970  1.0  0.0609
  C  C926  1  0.660700  0.655700  0.563900  1.0  -0.2391
  C  C927  1  0.680700  0.511500  0.583540  1.0  -0.093
  C  C928  1  0.654300  0.503800  0.600290  1.0  -0.1647
  C  C929  1  0.625200  0.544400  0.605830  1.0  -0.0223
  C  C930  1  0.621700  0.593000  0.595530  1.0  -0.1117
  C  C931  1  0.659600  0.451700  0.611400  1.0  0.7197
  C  C932  1  0.500900  0.684600  0.496370  1.0  0.7206
  C  C933  1  0.171200  0.462400  0.505470  1.0  -0.1669
  C  C934  1  0.118200  0.475900  0.509520  1.0  -0.0593
  C  C935  1  0.068100  0.436600  0.521720  1.0  0.0211
  C  C936  1  0.064200  0.371400  0.528370  1.0  0.0038
  C  C937  1  0.119200  0.356100  0.523730  1.0  -0.1311
  C  C938  1  0.171100  0.402600  0.512770  1.0  -0.0785
  C  C939  1  0.010500  0.445700  0.530140  1.0  -0.1996
  C  C940  1  0.989500  0.401200  0.545750  1.0  0.0942
  C  C941  1  0.002100  0.336500  0.540810  1.0  -0.2288
  C  C942  1  0.913200  0.373100  0.551940  1.0  -0.1814
  C  C943  1  0.915400  0.371000  0.571130  1.0  0.0958
  C  C944  1  0.983200  0.403100  0.575760  1.0  0.1098
  C  C945  1  0.032830  0.436330  0.561330  1.0  -0.1468
  C  C946  1  0.857360  0.347190  0.582240  1.0  -0.1062
  C  C947  1  0.872300  0.356200  0.599950  1.0  -0.1679
  C  C948  1  0.944000  0.390800  0.605460  1.0  -0.1157
  C  C949  1  0.995300  0.412800  0.594100  1.0  -0.12
  C  C950  1  0.812100  0.336100  0.612230  1.0  0.687
  C  C951  1  0.229500  0.511700  0.492920  1.0  0.7006
  C  C952  1  0.504500  0.863000  0.097180  1.0  -0.1319
  C  C953  1  0.505580  0.840540  0.080820  1.0  -0.0606
  C  C954  1  0.554800  0.887300  0.069140  1.0  0.0191
  C  C955  1  0.601700  0.958700  0.073210  1.0  0.0613
  C  C956  1  0.600300  0.982600  0.089900  1.0  -0.0858
  C  C957  1  0.553000  0.936000  0.102280  1.0  -0.0799
  C  C958  1  0.568300  0.871100  0.050830  1.0  -0.2314
  C  C959  1  0.609200  0.947600  0.042410  1.0  0.0397
  C  C960  1  0.652800  0.999100  0.059040  1.0  -0.2344
  C  C961  1  0.564300  0.973000  0.034640  1.0  -0.2136
  C  C962  1  0.615700  0.029400  0.021560  1.0  0.0349
  C  C963  1  0.669800  0.019500  0.018140  1.0  0.1625
  C  C964  1  0.664100  0.957400  0.027780  1.0  -0.2478
  C  C965  1  0.605400  0.082400  0.013320  1.0  -0.0763
  C  C966  1  0.655800  0.127300  0.002110  1.0  -0.0545
  C  C967  1  0.712900  0.115600  0.998500  1.0  -0.0496
  C  C968  1  0.721700  0.062500  0.006720  1.0  -0.1224
  C  C969  1  0.647500  0.182700  0.992820  1.0  0.7315
  C  C970  1  0.453640  0.811490  0.110020  1.0  0.6786
  C  C971  1  0.310100  0.866400  0.173430  1.0  -0.1296
  C  C972  1  0.372900  0.920500  0.183120  1.0  -0.0839
  C  C973  1  0.364000  0.968500  0.192430  1.0  0.0201
  C  C974  1  0.302100  0.972400  0.191530  1.0  -0.0348
  C  C975  1  0.242900  0.923100  0.182630  1.0  -0.1382
  C  C976  1  0.249700  0.872700  0.173420  1.0  -0.0342
  C  C977  1  0.419500  0.028900  0.204190  1.0  -0.2627
  C  C978  1  0.371400  0.048500  0.214720  1.0  0.031
  C  C979  1  0.314200  0.041600  0.201920  1.0  -0.2604
  C  C980  1  0.416700  0.127200  0.221040  1.0  -0.249
  C  C981  1  0.438200  0.118000  0.239130  1.0  0.0539
  C  C982  1  0.397600  0.048700  0.244640  1.0  0.0605
  C  C983  1  0.344300  0.005000  0.230570  1.0  -0.2347
  C  C984  1  0.488500  0.169200  0.250210  1.0  -0.0951
  C  C985  1  0.496200  0.150500  0.266960  1.0  -0.1641
  C  C986  1  0.455600  0.080800  0.272500  1.0  -0.018
  C  C987  1  0.407000  0.028700  0.262200  1.0  -0.1103
  C  C988  1  0.548300  0.207900  0.278070  1.0  0.72
  C  C989  1  0.315400  0.816300  0.163040  1.0  0.7172
  C  C990  1  0.537600  0.708800  0.172140  1.0  -0.1653
  C  C991  1  0.524100  0.642300  0.176190  1.0  -0.0588
  C  C992  1  0.563400  0.631500  0.188390  1.0  0.0217
  C  C993  1  0.628600  0.692800  0.195040  1.0  0.0073
  C  C994  1  0.643900  0.763100  0.190400  1.0  -0.1262
  C  C995  1  0.597400  0.768500  0.179440  1.0  -0.0755
  C  C996  1  0.554300  0.564800  0.196810  1.0  -0.201
  C  C997  1  0.598800  0.588300  0.212420  1.0  0.0938
  C  C998  1  0.663500  0.665600  0.207480  1.0  -0.2298
  C  C999  1  0.626900  0.540100  0.218610  1.0  -0.1834
  C  C1000  1  0.629000  0.544400  0.237800  1.0  0.0952
  C  C1001  1  0.596900  0.580100  0.242430  1.0  0.1099
  C  C1002  1  0.563670  0.596500  0.228000  1.0  -0.1451
  C  C1003  1  0.652810  0.510170  0.248910  1.0  -0.1055
  C  C1004  1  0.643800  0.516100  0.266620  1.0  -0.1699
  C  C1005  1  0.609200  0.553200  0.272130  1.0  -0.1152
  C  C1006  1  0.587200  0.582500  0.260770  1.0  -0.1183
  C  C1007  1  0.663900  0.476000  0.278900  1.0  0.6893
  C  C1008  1  0.488300  0.717800  0.159590  1.0  0.6991
  C  C1009  1  0.137000  0.641500  0.763850  1.0  -0.1301
  C  C1010  1  0.159460  0.665040  0.747490  1.0  -0.0608
  C  C1011  1  0.112700  0.667500  0.735810  1.0  0.0171
  C  C1012  1  0.041300  0.643000  0.739880  1.0  0.062
  C  C1013  1  0.017400  0.617700  0.756570  1.0  -0.084
  C  C1014  1  0.064000  0.617000  0.768950  1.0  -0.0793
  C  C1015  1  0.128900  0.697200  0.717500  1.0  -0.2339
  C  C1016  1  0.052400  0.661600  0.709080  1.0  0.0389
  C  C1017  1  0.000900  0.653700  0.725710  1.0  -0.2322
  C  C1018  1  0.027000  0.591300  0.701310  1.0  -0.2165
  C  C1019  1  0.970600  0.586300  0.688230  1.0  0.0362
  C  C1020  1  0.980500  0.650300  0.684810  1.0  0.1624
  C  C1021  1  0.042600  0.706700  0.694450  1.0  -0.2454
  C  C1022  1  0.917600  0.523000  0.679990  1.0  -0.0746
  C  C1023  1  0.872700  0.528500  0.668780  1.0  -0.0584
  C  C1024  1  0.884400  0.597300  0.665170  1.0  -0.0507
  C  C1025  1  0.937500  0.659200  0.673390  1.0  -0.1241
  C  C1026  1  0.817300  0.464800  0.659490  1.0  0.7353
  C  C1027  1  0.188510  0.642150  0.776690  1.0  0.6766
  C  C1028  1  0.133600  0.443700  0.840100  1.0  -0.1283
  C  C1029  1  0.079500  0.452400  0.849790  1.0  -0.0828
  C  C1030  1  0.031500  0.395500  0.859100  1.0  0.0216
  C  C1031  1  0.027600  0.329700  0.858200  1.0  -0.0357
  C  C1032  1  0.076900  0.319800  0.849300  1.0  -0.1449
  C  C1033  1  0.127300  0.377000  0.840090  1.0  -0.0338
  C  C1034  1  0.971100  0.390600  0.870860  1.0  -0.2634
  C  C1035  1  0.951500  0.322900  0.881390  1.0  0.0331
  C  C1036  1  0.958400  0.272600  0.868590  1.0  -0.2635
  C  C1037  1  0.872800  0.289500  0.887710  1.0  -0.2488
  C  C1038  1  0.882000  0.320200  0.905800  1.0  0.0535
  C  C1039  1  0.951300  0.348900  0.911310  1.0  0.0613
  C  C1040  1  0.995000  0.339300  0.897240  1.0  -0.2397
  C  C1041  1  0.830800  0.319300  0.916880  1.0  -0.0929
  C  C1042  1  0.849500  0.345700  0.933630  1.0  -0.1648
  C  C1043  1  0.919200  0.374800  0.939170  1.0  -0.0176
  C  C1044  1  0.971300  0.378300  0.928870  1.0  -0.1093
  C  C1045  1  0.792100  0.340400  0.944740  1.0  0.7198
  C  C1046  1  0.183700  0.499100  0.829710  1.0  0.7213
  C  C1047  1  0.291200  0.828800  0.838810  1.0  -0.163
  C  C1048  1  0.357700  0.881800  0.842860  1.0  -0.0606
  C  C1049  1  0.368500  0.931900  0.855060  1.0  0.0221
  C  C1050  1  0.307200  0.935800  0.861710  1.0  0.0025
  C  C1051  1  0.236900  0.880800  0.857070  1.0  -0.1269
  C  C1052  1  0.231500  0.828900  0.846110  1.0  -0.0779
  C  C1053  1  0.435200  0.989500  0.863480  1.0  -0.1985
  C  C1054  1  0.411700  0.010500  0.879090  1.0  0.0943
  C  C1055  1  0.334400  0.997900  0.874150  1.0  -0.2286
  C  C1056  1  0.459900  0.086800  0.885280  1.0  -0.1845
  C  C1057  1  0.455600  0.084600  0.904470  1.0  0.0912
  C  C1058  1  0.419900  0.016800  0.909100  1.0  0.1074
  C  C1059  1  0.403500  0.967170  0.894670  1.0  -0.1463
  C  C1060  1  0.489830  0.142640  0.915580  1.0  -0.101
  C  C1061  1  0.483900  0.127700  0.933290  1.0  -0.1698
  C  C1062  1  0.446800  0.056000  0.938800  1.0  -0.1156
  C  C1063  1  0.417500  0.004700  0.927440  1.0  -0.1214
  C  C1064  1  0.524000  0.187900  0.945570  1.0  0.689
  C  C1065  1  0.282200  0.770500  0.826260  1.0  0.698
  C  C1066  1  0.641500  0.504500  0.930510  1.0  -0.1307
  C  C1067  1  0.665040  0.505580  0.914150  1.0  -0.0587
  C  C1068  1  0.667500  0.554800  0.902470  1.0  0.0165
  C  C1069  1  0.643000  0.601700  0.906540  1.0  0.0619
  C  C1070  1  0.617700  0.600300  0.923230  1.0  -0.0892
  C  C1071  1  0.617000  0.553000  0.935610  1.0  -0.0834
  C  C1072  1  0.697200  0.568300  0.884160  1.0  -0.2325
  C  C1073  1  0.661600  0.609200  0.875740  1.0  0.0385
  C  C1074  1  0.653700  0.652800  0.892370  1.0  -0.2341
  C  C1075  1  0.591300  0.564300  0.867970  1.0  -0.216
  C  C1076  1  0.586300  0.615700  0.854890  1.0  0.0363
  C  C1077  1  0.650300  0.669800  0.851470  1.0  0.1652
  C  C1078  1  0.706700  0.664100  0.861110  1.0  -0.2468
  C  C1079  1  0.523000  0.605400  0.846650  1.0  -0.0772
  C  C1080  1  0.528500  0.655800  0.835440  1.0  -0.0583
  C  C1081  1  0.597300  0.712900  0.831830  1.0  -0.0505
  C  C1082  1  0.659200  0.721700  0.840050  1.0  -0.1211
  C  C1083  1  0.464800  0.647500  0.826150  1.0  0.7324
  C  C1084  1  0.642150  0.453640  0.943350  1.0  0.6783
  C  C1085  1  0.443700  0.310100  0.006760  1.0  -0.1293
  C  C1086  1  0.452400  0.372900  0.016450  1.0  -0.0853
  C  C1087  1  0.395500  0.364000  0.025760  1.0  0.02
  C  C1088  1  0.329700  0.302100  0.024860  1.0  -0.0327
  C  C1089  1  0.319800  0.242900  0.015960  1.0  -0.1438
  C  C1090  1  0.377000  0.249700  0.006750  1.0  -0.037
  C  C1091  1  0.390600  0.419500  0.037520  1.0  -0.2651
  C  C1092  1  0.322900  0.371400  0.048050  1.0  0.032
  C  C1093  1  0.272600  0.314200  0.035250  1.0  -0.2628
  C  C1094  1  0.289500  0.416700  0.054370  1.0  -0.2467
  C  C1095  1  0.320200  0.438200  0.072460  1.0  0.0541
  C  C1096  1  0.348900  0.397600  0.077970  1.0  0.0618
  C  C1097  1  0.339300  0.344300  0.063900  1.0  -0.2362
  C  C1098  1  0.319300  0.488500  0.083540  1.0  -0.0936
  C  C1099  1  0.345700  0.496200  0.100290  1.0  -0.1638
  C  C1100  1  0.374800  0.455600  0.105830  1.0  -0.0248
  C  C1101  1  0.378300  0.407000  0.095530  1.0  -0.1104
  C  C1102  1  0.340400  0.548300  0.111400  1.0  0.7209
  C  C1103  1  0.499100  0.315400  0.996370  1.0  0.7205
  C  C1104  1  0.828800  0.537600  0.005470  1.0  -0.1675
  C  C1105  1  0.881800  0.524100  0.009520  1.0  -0.061
  C  C1106  1  0.931900  0.563400  0.021720  1.0  0.0216
  C  C1107  1  0.935800  0.628600  0.028370  1.0  0.0041
  C  C1108  1  0.880800  0.643900  0.023730  1.0  -0.1308
  C  C1109  1  0.828900  0.597400  0.012770  1.0  -0.0768
  C  C1110  1  0.989500  0.554300  0.030140  1.0  -0.2013
  C  C1111  1  0.010500  0.598800  0.045750  1.0  0.0944
  C  C1112  1  0.997900  0.663500  0.040810  1.0  -0.2299
  C  C1113  1  0.086800  0.626900  0.051940  1.0  -0.1846
  C  C1114  1  0.084600  0.629000  0.071130  1.0  0.0931
  C  C1115  1  0.016800  0.596900  0.075760  1.0  0.1084
  C  C1116  1  0.967170  0.563670  0.061330  1.0  -0.1451
  C  C1117  1  0.142640  0.652810  0.082240  1.0  -0.1081
  C  C1118  1  0.127700  0.643800  0.099950  1.0  -0.167
  C  C1119  1  0.056000  0.609200  0.105460  1.0  -0.1187
  C  C1120  1  0.004700  0.587200  0.094100  1.0  -0.1176
  C  C1121  1  0.187900  0.663900  0.112230  1.0  0.6852
  C  C1122  1  0.770500  0.488300  0.992920  1.0  0.7009
  C  C1123  1  0.495500  0.137000  0.597180  1.0  -0.1306
  C  C1124  1  0.494420  0.159460  0.580820  1.0  -0.0598
  C  C1125  1  0.445200  0.112700  0.569140  1.0  0.0177
  C  C1126  1  0.398300  0.041300  0.573210  1.0  0.061
  C  C1127  1  0.399700  0.017400  0.589900  1.0  -0.09
  C  C1128  1  0.447000  0.064000  0.602280  1.0  -0.081
  C  C1129  1  0.431700  0.128900  0.550830  1.0  -0.2339
  C  C1130  1  0.390800  0.052400  0.542410  1.0  0.0394
  C  C1131  1  0.347200  0.000900  0.559040  1.0  -0.2317
  C  C1132  1  0.435700  0.027000  0.534640  1.0  -0.2131
  C  C1133  1  0.384300  0.970600  0.521560  1.0  0.0355
  C  C1134  1  0.330200  0.980500  0.518140  1.0  0.1608
  C  C1135  1  0.335900  0.042600  0.527780  1.0  -0.2457
  C  C1136  1  0.394600  0.917600  0.513320  1.0  -0.0766
  C  C1137  1  0.344200  0.872700  0.502110  1.0  -0.0584
  C  C1138  1  0.287100  0.884400  0.498500  1.0  -0.052
  C  C1139  1  0.278300  0.937500  0.506720  1.0  -0.1179
  C  C1140  1  0.352500  0.817300  0.492820  1.0  0.7315
  C  C1141  1  0.546360  0.188510  0.610020  1.0  0.6774
  C  C1142  1  0.689900  0.133600  0.673430  1.0  -0.129
  C  C1143  1  0.627100  0.079500  0.683120  1.0  -0.0847
  C  C1144  1  0.636000  0.031500  0.692430  1.0  0.0202
  C  C1145  1  0.697900  0.027600  0.691530  1.0  -0.0351
  C  C1146  1  0.757100  0.076900  0.682630  1.0  -0.1411
  C  C1147  1  0.750300  0.127300  0.673420  1.0  -0.0547
  C  C1148  1  0.580500  0.971100  0.704190  1.0  -0.2626
  C  C1149  1  0.628600  0.951500  0.714720  1.0  0.0319
  C  C1150  1  0.685800  0.958400  0.701920  1.0  -0.2589
  C  C1151  1  0.583300  0.872800  0.721040  1.0  -0.2473
  C  C1152  1  0.561800  0.882000  0.739130  1.0  0.055
  C  C1153  1  0.602400  0.951300  0.744640  1.0  0.0612
  C  C1154  1  0.655700  0.995000  0.730570  1.0  -0.2386
  C  C1155  1  0.511500  0.830800  0.750210  1.0  -0.0959
  C  C1156  1  0.503800  0.849500  0.766960  1.0  -0.1646
  C  C1157  1  0.544400  0.919200  0.772500  1.0  -0.0158
  C  C1158  1  0.593000  0.971300  0.762200  1.0  -0.1076
  C  C1159  1  0.451700  0.792100  0.778070  1.0  0.7212
  C  C1160  1  0.684600  0.183700  0.663040  1.0  0.7184
  C  C1161  1  0.462400  0.291200  0.672140  1.0  -0.1674
  C  C1162  1  0.475900  0.357700  0.676190  1.0  -0.0583
  C  C1163  1  0.436600  0.368500  0.688390  1.0  0.023
  C  C1164  1  0.371400  0.307200  0.695040  1.0  0.0075
  C  C1165  1  0.356100  0.236900  0.690400  1.0  -0.1293
  C  C1166  1  0.402600  0.231500  0.679440  1.0  -0.0785
  C  C1167  1  0.445700  0.435200  0.696810  1.0  -0.2003
  C  C1168  1  0.401200  0.411700  0.712420  1.0  0.0938
  C  C1169  1  0.336500  0.334400  0.707480  1.0  -0.23
  C  C1170  1  0.373100  0.459900  0.718610  1.0  -0.1833
  C  C1171  1  0.371000  0.455600  0.737800  1.0  0.0965
  C  C1172  1  0.403100  0.419900  0.742430  1.0  0.114
  C  C1173  1  0.436330  0.403500  0.728000  1.0  -0.1458
  C  C1174  1  0.347190  0.489830  0.748910  1.0  -0.1051
  C  C1175  1  0.356200  0.483900  0.766620  1.0  -0.1694
  C  C1176  1  0.390800  0.446800  0.772130  1.0  -0.117
  C  C1177  1  0.412800  0.417500  0.760770  1.0  -0.1202
  C  C1178  1  0.336100  0.524000  0.778900  1.0  0.6892
  C  C1179  1  0.511700  0.282200  0.659590  1.0  0.7
  C  C1180  1  0.863000  0.358500  0.263850  1.0  -0.1314
  C  C1181  1  0.840540  0.334960  0.247490  1.0  -0.059
  C  C1182  1  0.887300  0.332500  0.235810  1.0  0.0187
  C  C1183  1  0.958700  0.357000  0.239880  1.0  0.0617
  C  C1184  1  0.982600  0.382300  0.256570  1.0  -0.0831
  C  C1185  1  0.936000  0.383000  0.268950  1.0  -0.0829
  C  C1186  1  0.871100  0.302800  0.217500  1.0  -0.234
  C  C1187  1  0.947600  0.338400  0.209080  1.0  0.0404
  C  C1188  1  0.999100  0.346300  0.225710  1.0  -0.2335
  C  C1189  1  0.973000  0.408700  0.201310  1.0  -0.2152
  C  C1190  1  0.029400  0.413700  0.188230  1.0  0.0379
  C  C1191  1  0.019500  0.349700  0.184810  1.0  0.1617
  C  C1192  1  0.957400  0.293300  0.194450  1.0  -0.245
  C  C1193  1  0.082400  0.477000  0.179990  1.0  -0.073
  C  C1194  1  0.127300  0.471500  0.168780  1.0  -0.0592
  C  C1195  1  0.115600  0.402700  0.165170  1.0  -0.0479
  C  C1196  1  0.062500  0.340800  0.173390  1.0  -0.1273
  C  C1197  1  0.182700  0.535200  0.159490  1.0  0.7351
  C  C1198  1  0.811490  0.357850  0.276690  1.0  0.6774
  C  C1199  1  0.866400  0.556300  0.340100  1.0  -0.1261
  C  C1200  1  0.920500  0.547600  0.349790  1.0  -0.0846
  C  C1201  1  0.968500  0.604500  0.359100  1.0  0.0197
  C  C1202  1  0.972400  0.670300  0.358200  1.0  -0.0351
  C  C1203  1  0.923100  0.680200  0.349300  1.0  -0.1433
  C  C1204  1  0.872700  0.623000  0.340090  1.0  -0.0331
  C  C1205  1  0.028900  0.609400  0.370860  1.0  -0.2637
  C  C1206  1  0.048500  0.677100  0.381390  1.0  0.0308
  C  C1207  1  0.041600  0.727400  0.368590  1.0  -0.2635
  C  C1208  1  0.127200  0.710500  0.387710  1.0  -0.2479
  C  C1209  1  0.118000  0.679800  0.405800  1.0  0.0527
  C  C1210  1  0.048700  0.651100  0.411310  1.0  0.0623
  C  C1211  1  0.005000  0.660700  0.397240  1.0  -0.2383
  C  C1212  1  0.169200  0.680700  0.416880  1.0  -0.094
  C  C1213  1  0.150500  0.654300  0.433630  1.0  -0.1655
  C  C1214  1  0.080800  0.625200  0.439170  1.0  -0.0169
  C  C1215  1  0.028700  0.621700  0.428870  1.0  -0.1115
  C  C1216  1  0.207900  0.659600  0.444740  1.0  0.7182
  C  C1217  1  0.816300  0.500900  0.329710  1.0  0.719
  C  C1218  1  0.708800  0.171200  0.338810  1.0  -0.1599
  C  C1219  1  0.642300  0.118200  0.342860  1.0  -0.0579
  C  C1220  1  0.631500  0.068100  0.355060  1.0  0.0205
  C  C1221  1  0.692800  0.064200  0.361710  1.0  0.005
  C  C1222  1  0.763100  0.119200  0.357070  1.0  -0.1292
  C  C1223  1  0.768500  0.171100  0.346110  1.0  -0.0778
  C  C1224  1  0.564800  0.010500  0.363480  1.0  -0.1971
  C  C1225  1  0.588300  0.989500  0.379090  1.0  0.0938
  C  C1226  1  0.665600  0.002100  0.374150  1.0  -0.2273
  C  C1227  1  0.540100  0.913200  0.385280  1.0  -0.1841
  C  C1228  1  0.544400  0.915400  0.404470  1.0  0.0926
  C  C1229  1  0.580100  0.983200  0.409100  1.0  0.1103
  C  C1230  1  0.596500  0.032830  0.394670  1.0  -0.1483
  C  C1231  1  0.510170  0.857360  0.415580  1.0  -0.1017
  C  C1232  1  0.516100  0.872300  0.433290  1.0  -0.1705
  C  C1233  1  0.553200  0.944000  0.438800  1.0  -0.1178
  C  C1234  1  0.582500  0.995300  0.427440  1.0  -0.122
  C  C1235  1  0.476000  0.812100  0.445570  1.0  0.6901
  C  C1236  1  0.717800  0.229500  0.326260  1.0  0.6995
  O  O1237  1  0.678310  0.329060  0.860760  1.0  -1.1661
  O  O1238  1  0.833220  0.456140  0.874830  1.0  -0.5998
  O  O1239  1  0.749830  0.412910  0.895680  1.0  -0.5884
  O  O1240  1  0.182300  0.589600  0.005100  1.0  -0.5907
  O  O1241  1  0.227830  0.700630  0.016070  1.0  -0.6253
  O  O1242  1  0.824150  0.379680  0.839780  1.0  -0.6398
  O  O1243  1  0.763300  0.258640  0.843090  1.0  -0.6046
  O  O1244  1  0.269740  0.585270  0.728630  1.0  -0.5803
  O  O1245  1  0.193510  0.551370  0.706280  1.0  -0.6274
  O  O1246  1  0.776620  0.492000  0.841370  1.0  -0.5876
  O  O1247  1  0.667200  0.452530  0.849780  1.0  -0.6148
  O  O1248  1  0.434220  0.681770  0.727580  1.0  -0.583
  O  O1249  1  0.484180  0.658210  0.705260  1.0  -0.6142
  O  O1250  1  0.650750  0.321690  0.194090  1.0  -1.1658
  O  O1251  1  0.622920  0.166780  0.208160  1.0  -0.601
  O  O1252  1  0.663080  0.250170  0.229010  1.0  -0.5886
  O  O1253  1  0.407300  0.817700  0.338430  1.0  -0.5889
  O  O1254  1  0.472800  0.772170  0.349400  1.0  -0.6259
  O  O1255  1  0.555530  0.175850  0.173110  1.0  -0.6322
  O  O1256  1  0.495340  0.236700  0.176420  1.0  -0.6039
  O  O1257  1  0.315530  0.730260  0.061960  1.0  -0.5815
  O  O1258  1  0.357860  0.806490  0.039610  1.0  -0.6324
  O  O1259  1  0.715380  0.223380  0.174700  1.0  -0.5864
  O  O1260  1  0.785330  0.332800  0.183110  1.0  -0.6154
  O  O1261  1  0.247550  0.565780  0.060910  1.0  -0.5832
  O  O1262  1  0.174030  0.515820  0.038590  1.0  -0.6115
  O  O1263  1  0.670940  0.349250  0.527430  1.0  -1.1655
  O  O1264  1  0.543860  0.377080  0.541500  1.0  -0.6014
  O  O1265  1  0.587090  0.336920  0.562350  1.0  -0.5881
  O  O1266  1  0.410400  0.592700  0.671770  1.0  -0.5941
  O  O1267  1  0.299370  0.527200  0.682740  1.0  -0.6256
  O  O1268  1  0.620320  0.444470  0.506450  1.0  -0.6364
  O  O1269  1  0.741360  0.504660  0.509760  1.0  -0.6042
  O  O1270  1  0.414730  0.684470  0.395300  1.0  -0.5809
  O  O1271  1  0.448630  0.642140  0.372950  1.0  -0.6299
  O  O1272  1  0.508000  0.284620  0.508040  1.0  -0.5876
  O  O1273  1  0.547470  0.214670  0.516450  1.0  -0.6132
  O  O1274  1  0.318230  0.752450  0.394250  1.0  -0.5834
  O  O1275  1  0.341790  0.825970  0.371930  1.0  -0.6137
  O  O1276  1  0.321690  0.670940  0.360760  1.0  -1.1661
  O  O1277  1  0.166780  0.543860  0.374830  1.0  -0.5985
  O  O1278  1  0.250170  0.587090  0.395680  1.0  -0.5876
  O  O1279  1  0.817700  0.410400  0.505100  1.0  -0.5942
  O  O1280  1  0.772170  0.299370  0.516070  1.0  -0.6256
  O  O1281  1  0.175850  0.620320  0.339780  1.0  -0.6359
  O  O1282  1  0.236700  0.741360  0.343090  1.0  -0.6049
  O  O1283  1  0.730260  0.414730  0.228630  1.0  -0.5811
  O  O1284  1  0.806490  0.448630  0.206280  1.0  -0.6297
  O  O1285  1  0.223380  0.508000  0.341370  1.0  -0.5884
  O  O1286  1  0.332800  0.547470  0.349780  1.0  -0.6151
  O  O1287  1  0.565780  0.318230  0.227580  1.0  -0.583
  O  O1288  1  0.515820  0.341790  0.205260  1.0  -0.6131
  O  O1289  1  0.349250  0.678310  0.694090  1.0  -1.1654
  O  O1290  1  0.377080  0.833220  0.708160  1.0  -0.6019
  O  O1291  1  0.336920  0.749830  0.729010  1.0  -0.5886
  O  O1292  1  0.592700  0.182300  0.838430  1.0  -0.5933
  O  O1293  1  0.527200  0.227830  0.849400  1.0  -0.6259
  O  O1294  1  0.444470  0.824150  0.673110  1.0  -0.6344
  O  O1295  1  0.504660  0.763300  0.676420  1.0  -0.6065
  O  O1296  1  0.684470  0.269740  0.561960  1.0  -0.5807
  O  O1297  1  0.642140  0.193510  0.539610  1.0  -0.6315
  O  O1298  1  0.284620  0.776620  0.674700  1.0  -0.5856
  O  O1299  1  0.214670  0.667200  0.683110  1.0  -0.6154
  O  O1300  1  0.752450  0.434220  0.560910  1.0  -0.584
  O  O1301  1  0.825970  0.484180  0.538590  1.0  -0.6115
  O  O1302  1  0.329060  0.650750  0.027430  1.0  -1.1654
  O  O1303  1  0.456140  0.622920  0.041500  1.0  -0.6005
  O  O1304  1  0.412910  0.663080  0.062350  1.0  -0.588
  O  O1305  1  0.589600  0.407300  0.171770  1.0  -0.5904
  O  O1306  1  0.700630  0.472800  0.182740  1.0  -0.6258
  O  O1307  1  0.379680  0.555530  0.006450  1.0  -0.6384
  O  O1308  1  0.258640  0.495340  0.009760  1.0  -0.6059
  O  O1309  1  0.585270  0.315530  0.895300  1.0  -0.5802
  O  O1310  1  0.551370  0.357860  0.872950  1.0  -0.6291
  O  O1311  1  0.492000  0.715380  0.008040  1.0  -0.5896
  O  O1312  1  0.452530  0.785330  0.016450  1.0  -0.6136
  O  O1313  1  0.681770  0.247550  0.894250  1.0  -0.5832
  O  O1314  1  0.658210  0.174030  0.871930  1.0  -0.6148
  O  O1315  1  0.349250  0.670940  0.472570  1.0  -1.1658
  O  O1316  1  0.377080  0.543860  0.458500  1.0  -0.5981
  O  O1317  1  0.336920  0.587090  0.437650  1.0  -0.5886
  O  O1318  1  0.592700  0.410400  0.328230  1.0  -0.5902
  O  O1319  1  0.527200  0.299370  0.317260  1.0  -0.6254
  O  O1320  1  0.444470  0.620320  0.493550  1.0  -0.6363
  O  O1321  1  0.504660  0.741360  0.490240  1.0  -0.6035
  O  O1322  1  0.684470  0.414730  0.604700  1.0  -0.5808
  O  O1323  1  0.642140  0.448630  0.627050  1.0  -0.6286
  O  O1324  1  0.284620  0.508000  0.491960  1.0  -0.5861
  O  O1325  1  0.214670  0.547470  0.483550  1.0  -0.6139
  O  O1326  1  0.752450  0.318230  0.605750  1.0  -0.5823
  O  O1327  1  0.825970  0.341790  0.628070  1.0  -0.612
  O  O1328  1  0.329060  0.678310  0.139240  1.0  -1.1657
  O  O1329  1  0.456140  0.833220  0.125170  1.0  -0.6004
  O  O1330  1  0.412910  0.749830  0.104320  1.0  -0.589
  O  O1331  1  0.589600  0.182300  0.994900  1.0  -0.588
  O  O1332  1  0.700630  0.227830  0.983930  1.0  -0.625
  O  O1333  1  0.379680  0.824150  0.160220  1.0  -0.6313
  O  O1334  1  0.258640  0.763300  0.156910  1.0  -0.6045
  O  O1335  1  0.585270  0.269740  0.271370  1.0  -0.5821
  O  O1336  1  0.551370  0.193510  0.293720  1.0  -0.6324
  O  O1337  1  0.492000  0.776620  0.158630  1.0  -0.5843
  O  O1338  1  0.452530  0.667200  0.150220  1.0  -0.6145
  O  O1339  1  0.681770  0.434220  0.272420  1.0  -0.5831
  O  O1340  1  0.658210  0.484180  0.294740  1.0  -0.6099
  O  O1341  1  0.321690  0.650750  0.805910  1.0  -1.1659
  O  O1342  1  0.166780  0.622920  0.791840  1.0  -0.6002
  O  O1343  1  0.250170  0.663080  0.770990  1.0  -0.5883
  O  O1344  1  0.817700  0.407300  0.661570  1.0  -0.5914
  O  O1345  1  0.772170  0.472800  0.650600  1.0  -0.6258
  O  O1346  1  0.175850  0.555530  0.826890  1.0  -0.6399
  O  O1347  1  0.236700  0.495340  0.823580  1.0  -0.6044
  O  O1348  1  0.730260  0.315530  0.938040  1.0  -0.5806
  O  O1349  1  0.806490  0.357860  0.960390  1.0  -0.629
  O  O1350  1  0.223380  0.715380  0.825300  1.0  -0.5876
  O  O1351  1  0.332800  0.785330  0.816890  1.0  -0.6128
  O  O1352  1  0.565780  0.247550  0.939090  1.0  -0.5831
  O  O1353  1  0.515820  0.174030  0.961410  1.0  -0.6123
  O  O1354  1  0.650750  0.329060  0.972570  1.0  -1.1658
  O  O1355  1  0.622920  0.456140  0.958500  1.0  -0.599
  O  O1356  1  0.663080  0.412910  0.937650  1.0  -0.5879
  O  O1357  1  0.407300  0.589600  0.828230  1.0  -0.5919
  O  O1358  1  0.472800  0.700630  0.817260  1.0  -0.6247
  O  O1359  1  0.555530  0.379680  0.993550  1.0  -0.6382
  O  O1360  1  0.495340  0.258640  0.990240  1.0  -0.605
  O  O1361  1  0.315530  0.585270  0.104700  1.0  -0.5811
  O  O1362  1  0.357860  0.551370  0.127050  1.0  -0.6296
  O  O1363  1  0.715380  0.492000  0.991960  1.0  -0.5876
  O  O1364  1  0.785330  0.452530  0.983550  1.0  -0.614
  O  O1365  1  0.247550  0.681770  0.105750  1.0  -0.5826
  O  O1366  1  0.174030  0.658210  0.128070  1.0  -0.6119
  O  O1367  1  0.670940  0.321690  0.639240  1.0  -1.1657
  O  O1368  1  0.543860  0.166780  0.625170  1.0  -0.6003
  O  O1369  1  0.587090  0.250170  0.604320  1.0  -0.5883
  O  O1370  1  0.410400  0.817700  0.494900  1.0  -0.5908
  O  O1371  1  0.299370  0.772170  0.483930  1.0  -0.6261
  O  O1372  1  0.620320  0.175850  0.660220  1.0  -0.6349
  O  O1373  1  0.741360  0.236700  0.656910  1.0  -0.6043
  O  O1374  1  0.414730  0.730260  0.771370  1.0  -0.5811
  O  O1375  1  0.448630  0.806490  0.793720  1.0  -0.6329
  O  O1376  1  0.508000  0.223380  0.658630  1.0  -0.5868
  O  O1377  1  0.547470  0.332800  0.650220  1.0  -0.6152
  O  O1378  1  0.318230  0.565780  0.772420  1.0  -0.5826
  O  O1379  1  0.341790  0.515820  0.794740  1.0  -0.6107
  O  O1380  1  0.678310  0.349250  0.305910  1.0  -1.1655
  O  O1381  1  0.833220  0.377080  0.291840  1.0  -0.5995
  O  O1382  1  0.749830  0.336920  0.270990  1.0  -0.5879
  O  O1383  1  0.182300  0.592700  0.161570  1.0  -0.5896
  O  O1384  1  0.227830  0.527200  0.150600  1.0  -0.626
  O  O1385  1  0.824150  0.444470  0.326890  1.0  -0.6358
  O  O1386  1  0.763300  0.504660  0.323580  1.0  -0.6046
  O  O1387  1  0.269740  0.684470  0.438040  1.0  -0.5803
  O  O1388  1  0.193510  0.642140  0.460390  1.0  -0.6306
  O  O1389  1  0.776620  0.284620  0.325300  1.0  -0.5875
  O  O1390  1  0.667200  0.214670  0.316890  1.0  -0.613
  O  O1391  1  0.434220  0.752450  0.439090  1.0  -0.5824
  O  O1392  1  0.484180  0.825970  0.461410  1.0  -0.6124
