# generated using pymatgen
data_Ag4P3H36C18(N2F3)6
_symmetry_space_group_name_H-M   'P 1'
_cell_length_a   21.85000000
_cell_length_b   21.85000000
_cell_length_c   21.85000000
_cell_angle_alpha   90.00000000
_cell_angle_beta   90.00000000
_cell_angle_gamma   90.00000000
_symmetry_Int_Tables_number   1
_chemical_formula_structural   Ag4P3H36C18(N2F3)6
_chemical_formula_sum   'Ag32 P24 H288 C144 N96 F144'
_cell_volume   10431.68162500
_cell_formula_units_Z   8
loop_
 _symmetry_equiv_pos_site_id
 _symmetry_equiv_pos_as_xyz
  1  'x, y, z'
loop_
 _atom_site_type_symbol
 _atom_site_label
 _atom_site_symmetry_multiplicity
 _atom_site_fract_x
 _atom_site_fract_y
 _atom_site_fract_z
 _atom_site_occupancy
 _atom_site_charge
  Ag  Ag1  1  0.039950  0.782450  0.167830  1.0  0.0608
  Ag  Ag2  1  0.460050  0.217550  0.667830  1.0  0.0606
  Ag  Ag3  1  0.960050  0.282450  0.332170  1.0  0.0598
  Ag  Ag4  1  0.539950  0.717550  0.832170  1.0  0.0604
  Ag  Ag5  1  0.167830  0.039950  0.782450  1.0  0.0561
  Ag  Ag6  1  0.667830  0.460050  0.217550  1.0  0.0562
  Ag  Ag7  1  0.332170  0.960050  0.282450  1.0  0.0554
  Ag  Ag8  1  0.832170  0.539950  0.717550  1.0  0.0569
  Ag  Ag9  1  0.782450  0.167830  0.039950  1.0  0.0611
  Ag  Ag10  1  0.217550  0.667830  0.460050  1.0  0.0607
  Ag  Ag11  1  0.282450  0.332170  0.960050  1.0  0.0617
  Ag  Ag12  1  0.717550  0.832170  0.539950  1.0  0.0609
  Ag  Ag13  1  0.960050  0.217550  0.832170  1.0  0.0599
  Ag  Ag14  1  0.539950  0.782450  0.332170  1.0  0.0603
  Ag  Ag15  1  0.039950  0.717550  0.667830  1.0  0.0611
  Ag  Ag16  1  0.460050  0.282450  0.167830  1.0  0.0604
  Ag  Ag17  1  0.832170  0.960050  0.217550  1.0  0.0561
  Ag  Ag18  1  0.332170  0.539950  0.782450  1.0  0.0561
  Ag  Ag19  1  0.667830  0.039950  0.717550  1.0  0.0572
  Ag  Ag20  1  0.167830  0.460050  0.282450  1.0  0.0553
  Ag  Ag21  1  0.217550  0.832170  0.960050  1.0  0.061
  Ag  Ag22  1  0.782450  0.332170  0.539950  1.0  0.0612
  Ag  Ag23  1  0.717550  0.667830  0.039950  1.0  0.0606
  Ag  Ag24  1  0.282450  0.167830  0.460050  1.0  0.0616
  Ag  Ag25  1  0.695160  0.195160  0.304840  1.0  0.0398
  Ag  Ag26  1  0.804840  0.804840  0.804840  1.0  0.039
  Ag  Ag27  1  0.304840  0.695160  0.195160  1.0  0.0389
  Ag  Ag28  1  0.195160  0.304840  0.695160  1.0  0.0402
  Ag  Ag29  1  0.304840  0.804840  0.695160  1.0  0.0393
  Ag  Ag30  1  0.195160  0.195160  0.195160  1.0  0.0394
  Ag  Ag31  1  0.695160  0.304840  0.804840  1.0  0.0403
  Ag  Ag32  1  0.804840  0.695160  0.304840  1.0  0.0387
  P  P33  1  0.909300  0.759800  0.539700  1.0  1.7056
  P  P34  1  0.590700  0.240200  0.039700  1.0  1.707
  P  P35  1  0.090700  0.259800  0.960300  1.0  1.7063
  P  P36  1  0.409300  0.740200  0.460300  1.0  1.7059
  P  P37  1  0.539700  0.909300  0.759800  1.0  1.7087
  P  P38  1  0.039700  0.590700  0.240200  1.0  1.7076
  P  P39  1  0.960300  0.090700  0.259800  1.0  1.708
  P  P40  1  0.460300  0.409300  0.740200  1.0  1.7074
  P  P41  1  0.759800  0.539700  0.909300  1.0  1.7054
  P  P42  1  0.240200  0.039700  0.590700  1.0  1.7078
  P  P43  1  0.259800  0.960300  0.090700  1.0  1.7047
  P  P44  1  0.740200  0.460300  0.409300  1.0  1.7079
  P  P45  1  0.090700  0.240200  0.460300  1.0  1.7069
  P  P46  1  0.409300  0.759800  0.960300  1.0  1.7054
  P  P47  1  0.909300  0.740200  0.039700  1.0  1.7062
  P  P48  1  0.590700  0.259800  0.539700  1.0  1.7063
  P  P49  1  0.460300  0.090700  0.240200  1.0  1.7077
  P  P50  1  0.960300  0.409300  0.759800  1.0  1.7076
  P  P51  1  0.039700  0.909300  0.740200  1.0  1.7079
  P  P52  1  0.539700  0.590700  0.259800  1.0  1.7085
  P  P53  1  0.240200  0.460300  0.090700  1.0  1.7075
  P  P54  1  0.759800  0.960300  0.409300  1.0  1.7051
  P  P55  1  0.740200  0.039700  0.909300  1.0  1.7083
  P  P56  1  0.259800  0.539700  0.590700  1.0  1.7047
  H  H57  1  0.944200  0.721400  0.259400  1.0  0.0998
  H  H58  1  0.903800  0.746200  0.205300  1.0  0.0892
  H  H59  1  0.874300  0.804600  0.376300  1.0  0.1032
  H  H60  1  0.927300  0.758200  0.362500  1.0  0.0896
  H  H61  1  0.884000  0.910600  0.343100  1.0  0.0896
  H  H62  1  0.943200  0.932000  0.308200  1.0  0.087
  H  H63  1  0.822000  0.818900  0.225400  1.0  0.0871
  H  H64  1  0.809600  0.841700  0.292500  1.0  0.0943
  H  H65  1  0.017000  0.791300  0.309100  1.0  0.0639
  H  H66  1  0.023000  0.859100  0.286400  1.0  0.0914
  H  H67  1  0.962000  0.895900  0.202100  1.0  0.088
  H  H68  1  0.914600  0.851700  0.170800  1.0  0.0869
  H  H69  1  0.555800  0.278600  0.759400  1.0  0.0984
  H  H70  1  0.596200  0.253800  0.705300  1.0  0.089
  H  H71  1  0.625700  0.195400  0.876300  1.0  0.1025
  H  H72  1  0.572700  0.241800  0.862500  1.0  0.0885
  H  H73  1  0.616000  0.089400  0.843100  1.0  0.0912
  H  H74  1  0.556800  0.068000  0.808200  1.0  0.0886
  H  H75  1  0.678000  0.181100  0.725400  1.0  0.087
  H  H76  1  0.690400  0.158300  0.792500  1.0  0.0931
  H  H77  1  0.483000  0.208700  0.809100  1.0  0.0656
  H  H78  1  0.477000  0.140900  0.786400  1.0  0.0916
  H  H79  1  0.538000  0.104100  0.702100  1.0  0.0876
  H  H80  1  0.585400  0.148300  0.670800  1.0  0.0857
  H  H81  1  0.055800  0.221400  0.240600  1.0  0.0998
  H  H82  1  0.096200  0.246200  0.294700  1.0  0.0886
  H  H83  1  0.125700  0.304600  0.123700  1.0  0.1015
  H  H84  1  0.072700  0.258200  0.137500  1.0  0.0886
  H  H85  1  0.116000  0.410600  0.156900  1.0  0.0904
  H  H86  1  0.056800  0.432000  0.191800  1.0  0.0883
  H  H87  1  0.178000  0.318900  0.274600  1.0  0.0856
  H  H88  1  0.190400  0.341700  0.207500  1.0  0.0937
  H  H89  1  0.983000  0.291300  0.190900  1.0  0.0636
  H  H90  1  0.977000  0.359100  0.213600  1.0  0.092
  H  H91  1  0.038000  0.395900  0.297900  1.0  0.0876
  H  H92  1  0.085400  0.351700  0.329200  1.0  0.0872
  H  H93  1  0.444200  0.778600  0.740600  1.0  0.0996
  H  H94  1  0.403800  0.753800  0.794700  1.0  0.0891
  H  H95  1  0.374300  0.695400  0.623700  1.0  0.1028
  H  H96  1  0.427300  0.741800  0.637500  1.0  0.0885
  H  H97  1  0.384000  0.589400  0.656900  1.0  0.0906
  H  H98  1  0.443200  0.568000  0.691800  1.0  0.0884
  H  H99  1  0.322000  0.681100  0.774600  1.0  0.0865
  H  H100  1  0.309600  0.658300  0.707500  1.0  0.0954
  H  H101  1  0.517000  0.708700  0.690900  1.0  0.0643
  H  H102  1  0.523000  0.640900  0.713600  1.0  0.0895
  H  H103  1  0.462000  0.604100  0.797900  1.0  0.0875
  H  H104  1  0.414600  0.648300  0.829200  1.0  0.0866
  H  H105  1  0.259400  0.944200  0.721400  1.0  0.0997
  H  H106  1  0.205300  0.903800  0.746200  1.0  0.0873
  H  H107  1  0.376300  0.874300  0.804600  1.0  0.1006
  H  H108  1  0.362500  0.927300  0.758200  1.0  0.0899
  H  H109  1  0.343100  0.884000  0.910600  1.0  0.0892
  H  H110  1  0.308200  0.943200  0.932000  1.0  0.0869
  H  H111  1  0.225400  0.822000  0.818900  1.0  0.0894
  H  H112  1  0.292500  0.809600  0.841700  1.0  0.0991
  H  H113  1  0.309100  0.017000  0.791300  1.0  0.0669
  H  H114  1  0.286400  0.023000  0.859100  1.0  0.0882
  H  H115  1  0.202100  0.962000  0.895900  1.0  0.0882
  H  H116  1  0.170800  0.914600  0.851700  1.0  0.0912
  H  H117  1  0.759400  0.555800  0.278600  1.0  0.1001
  H  H118  1  0.705300  0.596200  0.253800  1.0  0.0875
  H  H119  1  0.876300  0.625700  0.195400  1.0  0.0998
  H  H120  1  0.862500  0.572700  0.241800  1.0  0.0888
  H  H121  1  0.843100  0.616000  0.089400  1.0  0.0889
  H  H122  1  0.808200  0.556800  0.068000  1.0  0.087
  H  H123  1  0.725400  0.678000  0.181100  1.0  0.088
  H  H124  1  0.792500  0.690400  0.158300  1.0  0.098
  H  H125  1  0.809100  0.483000  0.208700  1.0  0.0667
  H  H126  1  0.786400  0.477000  0.140900  1.0  0.0858
  H  H127  1  0.702100  0.538000  0.104100  1.0  0.0875
  H  H128  1  0.670800  0.585400  0.148300  1.0  0.089
  H  H129  1  0.240600  0.055800  0.221400  1.0  0.0991
  H  H130  1  0.294700  0.096200  0.246200  1.0  0.0898
  H  H131  1  0.123700  0.125700  0.304600  1.0  0.1011
  H  H132  1  0.137500  0.072700  0.258200  1.0  0.0887
  H  H133  1  0.156900  0.116000  0.410600  1.0  0.0889
  H  H134  1  0.191800  0.056800  0.432000  1.0  0.0878
  H  H135  1  0.274600  0.178000  0.318900  1.0  0.0883
  H  H136  1  0.207500  0.190400  0.341700  1.0  0.0975
  H  H137  1  0.190900  0.983000  0.291300  1.0  0.0656
  H  H138  1  0.213600  0.977000  0.359100  1.0  0.0872
  H  H139  1  0.297900  0.038000  0.395900  1.0  0.0878
  H  H140  1  0.329200  0.085400  0.351700  1.0  0.0903
  H  H141  1  0.740600  0.444200  0.778600  1.0  0.0993
  H  H142  1  0.794700  0.403800  0.753800  1.0  0.0891
  H  H143  1  0.623700  0.374300  0.695400  1.0  0.1004
  H  H144  1  0.637500  0.427300  0.741800  1.0  0.0892
  H  H145  1  0.656900  0.384000  0.589400  1.0  0.0894
  H  H146  1  0.691800  0.443200  0.568000  1.0  0.0883
  H  H147  1  0.774600  0.322000  0.681100  1.0  0.0887
  H  H148  1  0.707500  0.309600  0.658300  1.0  0.0985
  H  H149  1  0.690900  0.517000  0.708700  1.0  0.0668
  H  H150  1  0.713600  0.523000  0.640900  1.0  0.089
  H  H151  1  0.797900  0.462000  0.604100  1.0  0.088
  H  H152  1  0.829200  0.414600  0.648300  1.0  0.0912
  H  H153  1  0.721400  0.259400  0.944200  1.0  0.098
  H  H154  1  0.746200  0.205300  0.903800  1.0  0.088
  H  H155  1  0.804600  0.376300  0.874300  1.0  0.0977
  H  H156  1  0.758200  0.362500  0.927300  1.0  0.0875
  H  H157  1  0.910600  0.343100  0.884000  1.0  0.0889
  H  H158  1  0.932000  0.308200  0.943200  1.0  0.0855
  H  H159  1  0.818900  0.225400  0.822000  1.0  0.0865
  H  H160  1  0.841700  0.292500  0.809600  1.0  0.0956
  H  H161  1  0.791300  0.309100  0.017000  1.0  0.0633
  H  H162  1  0.859100  0.286400  0.023000  1.0  0.0854
  H  H163  1  0.895900  0.202100  0.962000  1.0  0.0882
  H  H164  1  0.851700  0.170800  0.914600  1.0  0.093
  H  H165  1  0.278600  0.759400  0.555800  1.0  0.0996
  H  H166  1  0.253800  0.705300  0.596200  1.0  0.0876
  H  H167  1  0.195400  0.876300  0.625700  1.0  0.0968
  H  H168  1  0.241800  0.862500  0.572700  1.0  0.0899
  H  H169  1  0.089400  0.843100  0.616000  1.0  0.0883
  H  H170  1  0.068000  0.808200  0.556800  1.0  0.0842
  H  H171  1  0.181100  0.725400  0.678000  1.0  0.0878
  H  H172  1  0.158300  0.792500  0.690400  1.0  0.0969
  H  H173  1  0.208700  0.809100  0.483000  1.0  0.0628
  H  H174  1  0.140900  0.786400  0.477000  1.0  0.0862
  H  H175  1  0.104100  0.702100  0.538000  1.0  0.0877
  H  H176  1  0.148300  0.670800  0.585400  1.0  0.0933
  H  H177  1  0.221400  0.240600  0.055800  1.0  0.0981
  H  H178  1  0.246200  0.294700  0.096200  1.0  0.0879
  H  H179  1  0.304600  0.123700  0.125700  1.0  0.0985
  H  H180  1  0.258200  0.137500  0.072700  1.0  0.0877
  H  H181  1  0.410600  0.156900  0.116000  1.0  0.0883
  H  H182  1  0.432000  0.191800  0.056800  1.0  0.0862
  H  H183  1  0.318900  0.274600  0.178000  1.0  0.0848
  H  H184  1  0.341700  0.207500  0.190400  1.0  0.0964
  H  H185  1  0.291300  0.190900  0.983000  1.0  0.0613
  H  H186  1  0.359100  0.213600  0.977000  1.0  0.0868
  H  H187  1  0.395900  0.297900  0.038000  1.0  0.0882
  H  H188  1  0.351700  0.329200  0.085400  1.0  0.0909
  H  H189  1  0.778600  0.740600  0.444200  1.0  0.0987
  H  H190  1  0.753800  0.794700  0.403800  1.0  0.0869
  H  H191  1  0.695400  0.623700  0.374300  1.0  0.0977
  H  H192  1  0.741800  0.637500  0.427300  1.0  0.0884
  H  H193  1  0.589400  0.656900  0.384000  1.0  0.0891
  H  H194  1  0.568000  0.691800  0.443200  1.0  0.0864
  H  H195  1  0.681100  0.774600  0.322000  1.0  0.0854
  H  H196  1  0.658300  0.707500  0.309600  1.0  0.0961
  H  H197  1  0.708700  0.690900  0.517000  1.0  0.0647
  H  H198  1  0.640900  0.713600  0.523000  1.0  0.0871
  H  H199  1  0.604100  0.797900  0.462000  1.0  0.0878
  H  H200  1  0.648300  0.829200  0.414600  1.0  0.0935
  H  H201  1  0.055800  0.278600  0.740600  1.0  0.0997
  H  H202  1  0.096200  0.253800  0.794700  1.0  0.0888
  H  H203  1  0.125700  0.195400  0.623700  1.0  0.1017
  H  H204  1  0.072700  0.241800  0.637500  1.0  0.0888
  H  H205  1  0.116000  0.089400  0.656900  1.0  0.0899
  H  H206  1  0.056800  0.068000  0.691800  1.0  0.0887
  H  H207  1  0.178000  0.181100  0.774600  1.0  0.0857
  H  H208  1  0.190400  0.158300  0.707500  1.0  0.0936
  H  H209  1  0.983000  0.208700  0.690900  1.0  0.065
  H  H210  1  0.977000  0.140900  0.713600  1.0  0.0913
  H  H211  1  0.038000  0.104100  0.797900  1.0  0.089
  H  H212  1  0.085400  0.148300  0.829200  1.0  0.0869
  H  H213  1  0.444200  0.721400  0.240600  1.0  0.0999
  H  H214  1  0.403800  0.746200  0.294700  1.0  0.0888
  H  H215  1  0.374300  0.804600  0.123700  1.0  0.1026
  H  H216  1  0.427300  0.758200  0.137500  1.0  0.089
  H  H217  1  0.384000  0.910600  0.156900  1.0  0.0911
  H  H218  1  0.443200  0.932000  0.191800  1.0  0.088
  H  H219  1  0.322000  0.818900  0.274600  1.0  0.0864
  H  H220  1  0.309600  0.841700  0.207500  1.0  0.0952
  H  H221  1  0.517000  0.791300  0.190900  1.0  0.0634
  H  H222  1  0.523000  0.859100  0.213600  1.0  0.0917
  H  H223  1  0.462000  0.895900  0.297900  1.0  0.0862
  H  H224  1  0.414600  0.851700  0.329200  1.0  0.0871
  H  H225  1  0.944200  0.778600  0.759400  1.0  0.0983
  H  H226  1  0.903800  0.753800  0.705300  1.0  0.0895
  H  H227  1  0.874300  0.695400  0.876300  1.0  0.1037
  H  H228  1  0.927300  0.741800  0.862500  1.0  0.0872
  H  H229  1  0.884000  0.589400  0.843100  1.0  0.0904
  H  H230  1  0.943200  0.568000  0.808200  1.0  0.0881
  H  H231  1  0.822000  0.681100  0.725400  1.0  0.0868
  H  H232  1  0.809600  0.658300  0.792500  1.0  0.0947
  H  H233  1  0.017000  0.708700  0.809100  1.0  0.0642
  H  H234  1  0.023000  0.640900  0.786400  1.0  0.0901
  H  H235  1  0.962000  0.604100  0.702100  1.0  0.0871
  H  H236  1  0.914600  0.648300  0.670800  1.0  0.0858
  H  H237  1  0.555800  0.221400  0.259400  1.0  0.0998
  H  H238  1  0.596200  0.246200  0.205300  1.0  0.0887
  H  H239  1  0.625700  0.304600  0.376300  1.0  0.1021
  H  H240  1  0.572700  0.258200  0.362500  1.0  0.0903
  H  H241  1  0.616000  0.410600  0.343100  1.0  0.0899
  H  H242  1  0.556800  0.432000  0.308200  1.0  0.0877
  H  H243  1  0.678000  0.318900  0.225400  1.0  0.0875
  H  H244  1  0.690400  0.341700  0.292500  1.0  0.0933
  H  H245  1  0.483000  0.291300  0.309100  1.0  0.0649
  H  H246  1  0.477000  0.359100  0.286400  1.0  0.0917
  H  H247  1  0.538000  0.395900  0.202100  1.0  0.0884
  H  H248  1  0.585400  0.351700  0.170800  1.0  0.0868
  H  H249  1  0.740600  0.055800  0.278600  1.0  0.1005
  H  H250  1  0.794700  0.096200  0.253800  1.0  0.0894
  H  H251  1  0.623700  0.125700  0.195400  1.0  0.1009
  H  H252  1  0.637500  0.072700  0.241800  1.0  0.0898
  H  H253  1  0.656900  0.116000  0.089400  1.0  0.0894
  H  H254  1  0.691800  0.056800  0.068000  1.0  0.0876
  H  H255  1  0.774600  0.178000  0.181100  1.0  0.0876
  H  H256  1  0.707500  0.190400  0.158300  1.0  0.0979
  H  H257  1  0.690900  0.983000  0.208700  1.0  0.0673
  H  H258  1  0.713600  0.977000  0.140900  1.0  0.0854
  H  H259  1  0.797900  0.038000  0.104100  1.0  0.0868
  H  H260  1  0.829200  0.085400  0.148300  1.0  0.0911
  H  H261  1  0.240600  0.444200  0.721400  1.0  0.0995
  H  H262  1  0.294700  0.403800  0.746200  1.0  0.0897
  H  H263  1  0.123700  0.374300  0.804600  1.0  0.1007
  H  H264  1  0.137500  0.427300  0.758200  1.0  0.0894
  H  H265  1  0.156900  0.384000  0.910600  1.0  0.0899
  H  H266  1  0.191800  0.443200  0.932000  1.0  0.0873
  H  H267  1  0.274600  0.322000  0.818900  1.0  0.0893
  H  H268  1  0.207500  0.309600  0.841700  1.0  0.0988
  H  H269  1  0.190900  0.517000  0.791300  1.0  0.0663
  H  H270  1  0.213600  0.523000  0.859100  1.0  0.0885
  H  H271  1  0.297900  0.462000  0.895900  1.0  0.0876
  H  H272  1  0.329200  0.414600  0.851700  1.0  0.0904
  H  H273  1  0.759400  0.944200  0.778600  1.0  0.0991
  H  H274  1  0.705300  0.903800  0.753800  1.0  0.0876
  H  H275  1  0.876300  0.874300  0.695400  1.0  0.1005
  H  H276  1  0.862500  0.927300  0.741800  1.0  0.0888
  H  H277  1  0.843100  0.884000  0.589400  1.0  0.0892
  H  H278  1  0.808200  0.943200  0.568000  1.0  0.0877
  H  H279  1  0.725400  0.822000  0.681100  1.0  0.0893
  H  H280  1  0.792500  0.809600  0.658300  1.0  0.0985
  H  H281  1  0.809100  0.017000  0.708700  1.0  0.0666
  H  H282  1  0.786400  0.023000  0.640900  1.0  0.0889
  H  H283  1  0.702100  0.962000  0.604100  1.0  0.0882
  H  H284  1  0.670800  0.914600  0.648300  1.0  0.0891
  H  H285  1  0.259400  0.555800  0.221400  1.0  0.0992
  H  H286  1  0.205300  0.596200  0.246200  1.0  0.0873
  H  H287  1  0.376300  0.625700  0.304600  1.0  0.1002
  H  H288  1  0.362500  0.572700  0.258200  1.0  0.0891
  H  H289  1  0.343100  0.616000  0.410600  1.0  0.0883
  H  H290  1  0.308200  0.556800  0.432000  1.0  0.0874
  H  H291  1  0.225400  0.678000  0.318900  1.0  0.0883
  H  H292  1  0.292500  0.690400  0.341700  1.0  0.0976
  H  H293  1  0.309100  0.483000  0.291300  1.0  0.066
  H  H294  1  0.286400  0.477000  0.359100  1.0  0.0873
  H  H295  1  0.202100  0.538000  0.395900  1.0  0.0895
  H  H296  1  0.170800  0.585400  0.351700  1.0  0.0909
  H  H297  1  0.278600  0.740600  0.055800  1.0  0.0991
  H  H298  1  0.253800  0.794700  0.096200  1.0  0.0871
  H  H299  1  0.195400  0.623700  0.125700  1.0  0.0983
  H  H300  1  0.241800  0.637500  0.072700  1.0  0.0889
  H  H301  1  0.089400  0.656900  0.116000  1.0  0.0889
  H  H302  1  0.068000  0.691800  0.056800  1.0  0.0842
  H  H303  1  0.181100  0.774600  0.178000  1.0  0.0853
  H  H304  1  0.158300  0.707500  0.190400  1.0  0.0964
  H  H305  1  0.208700  0.690900  0.983000  1.0  0.0622
  H  H306  1  0.140900  0.713600  0.977000  1.0  0.086
  H  H307  1  0.104100  0.797900  0.038000  1.0  0.0877
  H  H308  1  0.148300  0.829200  0.085400  1.0  0.0932
  H  H309  1  0.721400  0.240600  0.444200  1.0  0.0987
  H  H310  1  0.746200  0.294700  0.403800  1.0  0.0879
  H  H311  1  0.804600  0.123700  0.374300  1.0  0.0979
  H  H312  1  0.758200  0.137500  0.427300  1.0  0.0886
  H  H313  1  0.910600  0.156900  0.384000  1.0  0.0886
  H  H314  1  0.932000  0.191800  0.443200  1.0  0.0854
  H  H315  1  0.818900  0.274600  0.322000  1.0  0.0852
  H  H316  1  0.841700  0.207500  0.309600  1.0  0.0964
  H  H317  1  0.791300  0.190900  0.517000  1.0  0.0632
  H  H318  1  0.859100  0.213600  0.523000  1.0  0.0857
  H  H319  1  0.895900  0.297900  0.462000  1.0  0.0877
  H  H320  1  0.851700  0.329200  0.414600  1.0  0.0919
  H  H321  1  0.778600  0.759400  0.944200  1.0  0.0983
  H  H322  1  0.753800  0.705300  0.903800  1.0  0.0871
  H  H323  1  0.695400  0.876300  0.874300  1.0  0.0975
  H  H324  1  0.741800  0.862500  0.927300  1.0  0.0883
  H  H325  1  0.589400  0.843100  0.884000  1.0  0.0893
  H  H326  1  0.568000  0.808200  0.943200  1.0  0.0856
  H  H327  1  0.681100  0.725400  0.822000  1.0  0.0865
  H  H328  1  0.658300  0.792500  0.809600  1.0  0.0956
  H  H329  1  0.708700  0.809100  0.017000  1.0  0.0644
  H  H330  1  0.640900  0.786400  0.023000  1.0  0.0868
  H  H331  1  0.604100  0.702100  0.962000  1.0  0.089
  H  H332  1  0.648300  0.670800  0.914600  1.0  0.0925
  H  H333  1  0.221400  0.259400  0.555800  1.0  0.0982
  H  H334  1  0.246200  0.205300  0.596200  1.0  0.0884
  H  H335  1  0.304600  0.376300  0.625700  1.0  0.0971
  H  H336  1  0.258200  0.362500  0.572700  1.0  0.0873
  H  H337  1  0.410600  0.343100  0.616000  1.0  0.0884
  H  H338  1  0.432000  0.308200  0.556800  1.0  0.0869
  H  H339  1  0.318900  0.225400  0.678000  1.0  0.0873
  H  H340  1  0.341700  0.292500  0.690400  1.0  0.0967
  H  H341  1  0.291300  0.309100  0.483000  1.0  0.0621
  H  H342  1  0.359100  0.286400  0.477000  1.0  0.0869
  H  H343  1  0.395900  0.202100  0.538000  1.0  0.0877
  H  H344  1  0.351700  0.170800  0.585400  1.0  0.0938
  C  C345  1  0.922700  0.757100  0.244000  1.0  0.1111
  C  C346  1  0.905200  0.793100  0.346500  1.0  0.0864
  C  C347  1  0.915100  0.898100  0.314000  1.0  0.1114
  C  C348  1  0.841300  0.829400  0.263900  1.0  0.0687
  C  C349  1  0.994400  0.825900  0.292900  1.0  0.1158
  C  C350  1  0.933700  0.862500  0.209400  1.0  0.0811
  C  C351  1  0.577300  0.242900  0.744000  1.0  0.1113
  C  C352  1  0.594800  0.206900  0.846500  1.0  0.0851
  C  C353  1  0.584900  0.101900  0.814000  1.0  0.1123
  C  C354  1  0.658700  0.170600  0.763900  1.0  0.0709
  C  C355  1  0.505600  0.174100  0.792900  1.0  0.1165
  C  C356  1  0.566300  0.137500  0.709400  1.0  0.0804
  C  C357  1  0.077300  0.257100  0.256000  1.0  0.1121
  C  C358  1  0.094800  0.293100  0.153500  1.0  0.0825
  C  C359  1  0.084900  0.398100  0.186000  1.0  0.1115
  C  C360  1  0.158700  0.329400  0.236100  1.0  0.0724
  C  C361  1  0.005600  0.325900  0.207100  1.0  0.116
  C  C362  1  0.066300  0.362500  0.290600  1.0  0.0795
  C  C363  1  0.422700  0.742900  0.756000  1.0  0.1113
  C  C364  1  0.405200  0.706900  0.653500  1.0  0.0839
  C  C365  1  0.415100  0.601900  0.686000  1.0  0.1132
  C  C366  1  0.341300  0.670600  0.736100  1.0  0.0695
  C  C367  1  0.494400  0.674100  0.707100  1.0  0.1142
  C  C368  1  0.433700  0.637500  0.790600  1.0  0.0826
  C  C369  1  0.244000  0.922700  0.757100  1.0  0.112
  C  C370  1  0.346500  0.905200  0.793100  1.0  0.0823
  C  C371  1  0.314000  0.915100  0.898100  1.0  0.1118
  C  C372  1  0.263900  0.841300  0.829400  1.0  0.0774
  C  C373  1  0.292900  0.994400  0.825900  1.0  0.117
  C  C374  1  0.209400  0.933700  0.862500  1.0  0.0755
  C  C375  1  0.744000  0.577300  0.242900  1.0  0.1127
  C  C376  1  0.846500  0.594800  0.206900  1.0  0.0829
  C  C377  1  0.814000  0.584900  0.101900  1.0  0.1135
  C  C378  1  0.763900  0.658700  0.170600  1.0  0.075
  C  C379  1  0.792900  0.505600  0.174100  1.0  0.1214
  C  C380  1  0.709400  0.566300  0.137500  1.0  0.0756
  C  C381  1  0.256000  0.077300  0.257100  1.0  0.1117
  C  C382  1  0.153500  0.094800  0.293100  1.0  0.082
  C  C383  1  0.186000  0.084900  0.398100  1.0  0.1127
  C  C384  1  0.236100  0.158700  0.329400  1.0  0.0749
  C  C385  1  0.207100  0.005600  0.325900  1.0  0.1218
  C  C386  1  0.290600  0.066300  0.362500  1.0  0.0752
  C  C387  1  0.756000  0.422700  0.742900  1.0  0.113
  C  C388  1  0.653500  0.405200  0.706900  1.0  0.0815
  C  C389  1  0.686000  0.415100  0.601900  1.0  0.1115
  C  C390  1  0.736100  0.341300  0.670600  1.0  0.0763
  C  C391  1  0.707100  0.494400  0.674100  1.0  0.1197
  C  C392  1  0.790600  0.433700  0.637500  1.0  0.0756
  C  C393  1  0.757100  0.244000  0.922700  1.0  0.1135
  C  C394  1  0.793100  0.346500  0.905200  1.0  0.0855
  C  C395  1  0.898100  0.314000  0.915100  1.0  0.116
  C  C396  1  0.829400  0.263900  0.841300  1.0  0.0718
  C  C397  1  0.825900  0.292900  0.994400  1.0  0.1179
  C  C398  1  0.862500  0.209400  0.933700  1.0  0.0801
  C  C399  1  0.242900  0.744000  0.577300  1.0  0.1125
  C  C400  1  0.206900  0.846500  0.594800  1.0  0.0847
  C  C401  1  0.101900  0.814000  0.584900  1.0  0.1154
  C  C402  1  0.170600  0.763900  0.658700  1.0  0.0732
  C  C403  1  0.174100  0.792900  0.505600  1.0  0.1172
  C  C404  1  0.137500  0.709400  0.566300  1.0  0.0791
  C  C405  1  0.257100  0.256000  0.077300  1.0  0.1131
  C  C406  1  0.293100  0.153500  0.094800  1.0  0.0863
  C  C407  1  0.398100  0.186000  0.084900  1.0  0.1151
  C  C408  1  0.329400  0.236100  0.158700  1.0  0.0745
  C  C409  1  0.325900  0.207100  0.005600  1.0  0.1162
  C  C410  1  0.362500  0.290600  0.066300  1.0  0.077
  C  C411  1  0.742900  0.756000  0.422700  1.0  0.1146
  C  C412  1  0.706900  0.653500  0.405200  1.0  0.0856
  C  C413  1  0.601900  0.686000  0.415100  1.0  0.1156
  C  C414  1  0.670600  0.736100  0.341300  1.0  0.0722
  C  C415  1  0.674100  0.707100  0.494400  1.0  0.1195
  C  C416  1  0.637500  0.790600  0.433700  1.0  0.0765
  C  C417  1  0.077300  0.242900  0.756000  1.0  0.1112
  C  C418  1  0.094800  0.206900  0.653500  1.0  0.0836
  C  C419  1  0.084900  0.101900  0.686000  1.0  0.1117
  C  C420  1  0.158700  0.170600  0.736100  1.0  0.0723
  C  C421  1  0.005600  0.174100  0.707100  1.0  0.1158
  C  C422  1  0.066300  0.137500  0.790600  1.0  0.0812
  C  C423  1  0.422700  0.757100  0.256000  1.0  0.1121
  C  C424  1  0.405200  0.793100  0.153500  1.0  0.0837
  C  C425  1  0.415100  0.898100  0.186000  1.0  0.1118
  C  C426  1  0.341300  0.829400  0.236100  1.0  0.0691
  C  C427  1  0.494400  0.825900  0.207100  1.0  0.1142
  C  C428  1  0.433700  0.862500  0.290600  1.0  0.0808
  C  C429  1  0.922700  0.742900  0.744000  1.0  0.1111
  C  C430  1  0.905200  0.706900  0.846500  1.0  0.0848
  C  C431  1  0.915100  0.601900  0.814000  1.0  0.1138
  C  C432  1  0.841300  0.670600  0.763900  1.0  0.0691
  C  C433  1  0.994400  0.674100  0.792900  1.0  0.1159
  C  C434  1  0.933700  0.637500  0.709400  1.0  0.0819
  C  C435  1  0.577300  0.257100  0.244000  1.0  0.1111
  C  C436  1  0.594800  0.293100  0.346500  1.0  0.0862
  C  C437  1  0.584900  0.398100  0.314000  1.0  0.1103
  C  C438  1  0.658700  0.329400  0.263900  1.0  0.071
  C  C439  1  0.505600  0.325900  0.292900  1.0  0.1163
  C  C440  1  0.566300  0.362500  0.209400  1.0  0.0798
  C  C441  1  0.756000  0.077300  0.242900  1.0  0.1127
  C  C442  1  0.653500  0.094800  0.206900  1.0  0.0831
  C  C443  1  0.686000  0.084900  0.101900  1.0  0.112
  C  C444  1  0.736100  0.158700  0.170600  1.0  0.0742
  C  C445  1  0.707100  0.005600  0.174100  1.0  0.1216
  C  C446  1  0.790600  0.066300  0.137500  1.0  0.0753
  C  C447  1  0.256000  0.422700  0.757100  1.0  0.1121
  C  C448  1  0.153500  0.405200  0.793100  1.0  0.081
  C  C449  1  0.186000  0.415100  0.898100  1.0  0.1123
  C  C450  1  0.236100  0.341300  0.829400  1.0  0.077
  C  C451  1  0.207100  0.494400  0.825900  1.0  0.1193
  C  C452  1  0.290600  0.433700  0.862500  1.0  0.075
  C  C453  1  0.744000  0.922700  0.742900  1.0  0.113
  C  C454  1  0.846500  0.905200  0.706900  1.0  0.0821
  C  C455  1  0.814000  0.915100  0.601900  1.0  0.1128
  C  C456  1  0.763900  0.841300  0.670600  1.0  0.0768
  C  C457  1  0.792900  0.994400  0.674100  1.0  0.1174
  C  C458  1  0.709400  0.933700  0.637500  1.0  0.0751
  C  C459  1  0.244000  0.577300  0.257100  1.0  0.1117
  C  C460  1  0.346500  0.594800  0.293100  1.0  0.0828
  C  C461  1  0.314000  0.584900  0.398100  1.0  0.1122
  C  C462  1  0.263900  0.658700  0.329400  1.0  0.0755
  C  C463  1  0.292900  0.505600  0.325900  1.0  0.1213
  C  C464  1  0.209400  0.566300  0.362500  1.0  0.0762
  C  C465  1  0.242900  0.756000  0.077300  1.0  0.1134
  C  C466  1  0.206900  0.653500  0.094800  1.0  0.0849
  C  C467  1  0.101900  0.686000  0.084900  1.0  0.1148
  C  C468  1  0.170600  0.736100  0.158700  1.0  0.0739
  C  C469  1  0.174100  0.707100  0.005600  1.0  0.1168
  C  C470  1  0.137500  0.790600  0.066300  1.0  0.0759
  C  C471  1  0.757100  0.256000  0.422700  1.0  0.1142
  C  C472  1  0.793100  0.153500  0.405200  1.0  0.0866
  C  C473  1  0.898100  0.186000  0.415100  1.0  0.116
  C  C474  1  0.829400  0.236100  0.341300  1.0  0.0715
  C  C475  1  0.825900  0.207100  0.494400  1.0  0.1192
  C  C476  1  0.862500  0.290600  0.433700  1.0  0.0775
  C  C477  1  0.742900  0.744000  0.922700  1.0  0.1136
  C  C478  1  0.706900  0.846500  0.905200  1.0  0.0847
  C  C479  1  0.601900  0.814000  0.915100  1.0  0.1151
  C  C480  1  0.670600  0.763900  0.841300  1.0  0.0722
  C  C481  1  0.674100  0.792900  0.994400  1.0  0.1178
  C  C482  1  0.637500  0.709400  0.933700  1.0  0.0801
  C  C483  1  0.257100  0.244000  0.577300  1.0  0.1128
  C  C484  1  0.293100  0.346500  0.594800  1.0  0.0859
  C  C485  1  0.398100  0.314000  0.584900  1.0  0.1165
  C  C486  1  0.329400  0.263900  0.658700  1.0  0.074
  C  C487  1  0.325900  0.292900  0.505600  1.0  0.1167
  C  C488  1  0.362500  0.209400  0.566300  1.0  0.0789
  N  N489  1  0.948400  0.845000  0.337900  1.0  -0.3607
  N  N490  1  0.885700  0.882100  0.254300  1.0  -0.1877
  N  N491  1  0.874700  0.775600  0.288400  1.0  -0.2224
  N  N492  1  0.967300  0.808700  0.234400  1.0  -0.1763
  N  N493  1  0.551600  0.155000  0.837900  1.0  -0.3608
  N  N494  1  0.614300  0.117900  0.754300  1.0  -0.1888
  N  N495  1  0.625300  0.224400  0.788400  1.0  -0.2242
  N  N496  1  0.532700  0.191300  0.734400  1.0  -0.1756
  N  N497  1  0.051600  0.345000  0.162100  1.0  -0.3589
  N  N498  1  0.114300  0.382100  0.245700  1.0  -0.1884
  N  N499  1  0.125300  0.275600  0.211600  1.0  -0.2227
  N  N500  1  0.032700  0.308700  0.265600  1.0  -0.176
  N  N501  1  0.448400  0.655000  0.662100  1.0  -0.3612
  N  N502  1  0.385700  0.617900  0.745700  1.0  -0.1889
  N  N503  1  0.374700  0.724400  0.711600  1.0  -0.2239
  N  N504  1  0.467300  0.691300  0.765600  1.0  -0.1766
  N  N505  1  0.337900  0.948400  0.845000  1.0  -0.3611
  N  N506  1  0.254300  0.885700  0.882100  1.0  -0.1885
  N  N507  1  0.288400  0.874700  0.775600  1.0  -0.2231
  N  N508  1  0.234400  0.967300  0.808700  1.0  -0.1748
  N  N509  1  0.837900  0.551600  0.155000  1.0  -0.3594
  N  N510  1  0.754300  0.614300  0.117900  1.0  -0.1867
  N  N511  1  0.788400  0.625300  0.224400  1.0  -0.2245
  N  N512  1  0.734400  0.532700  0.191300  1.0  -0.175
  N  N513  1  0.162100  0.051600  0.345000  1.0  -0.3604
  N  N514  1  0.245700  0.114300  0.382100  1.0  -0.1873
  N  N515  1  0.211600  0.125300  0.275600  1.0  -0.2232
  N  N516  1  0.265600  0.032700  0.308700  1.0  -0.1754
  N  N517  1  0.662100  0.448400  0.655000  1.0  -0.3606
  N  N518  1  0.745700  0.385700  0.617900  1.0  -0.1875
  N  N519  1  0.711600  0.374700  0.724400  1.0  -0.2219
  N  N520  1  0.765600  0.467300  0.691300  1.0  -0.1756
  N  N521  1  0.845000  0.337900  0.948400  1.0  -0.3642
  N  N522  1  0.882100  0.254300  0.885700  1.0  -0.1912
  N  N523  1  0.775600  0.288400  0.874700  1.0  -0.2255
  N  N524  1  0.808700  0.234400  0.967300  1.0  -0.1706
  N  N525  1  0.155000  0.837900  0.551600  1.0  -0.3647
  N  N526  1  0.117900  0.754300  0.614300  1.0  -0.1916
  N  N527  1  0.224400  0.788400  0.625300  1.0  -0.2259
  N  N528  1  0.191300  0.734400  0.532700  1.0  -0.1724
  N  N529  1  0.345000  0.162100  0.051600  1.0  -0.3654
  N  N530  1  0.382100  0.245700  0.114300  1.0  -0.1913
  N  N531  1  0.275600  0.211600  0.125300  1.0  -0.2246
  N  N532  1  0.308700  0.265600  0.032700  1.0  -0.1696
  N  N533  1  0.655000  0.662100  0.448400  1.0  -0.3661
  N  N534  1  0.617900  0.745700  0.385700  1.0  -0.1914
  N  N535  1  0.724400  0.711600  0.374700  1.0  -0.2268
  N  N536  1  0.691300  0.765600  0.467300  1.0  -0.1703
  N  N537  1  0.051600  0.155000  0.662100  1.0  -0.3615
  N  N538  1  0.114300  0.117900  0.745700  1.0  -0.1893
  N  N539  1  0.125300  0.224400  0.711600  1.0  -0.2241
  N  N540  1  0.032700  0.191300  0.765600  1.0  -0.1755
  N  N541  1  0.448400  0.845000  0.162100  1.0  -0.3593
  N  N542  1  0.385700  0.882100  0.245700  1.0  -0.1888
  N  N543  1  0.374700  0.775600  0.211600  1.0  -0.2228
  N  N544  1  0.467300  0.808700  0.265600  1.0  -0.1772
  N  N545  1  0.948400  0.655000  0.837900  1.0  -0.3607
  N  N546  1  0.885700  0.617900  0.754300  1.0  -0.1885
  N  N547  1  0.874700  0.724400  0.788400  1.0  -0.2238
  N  N548  1  0.967300  0.691300  0.734400  1.0  -0.1755
  N  N549  1  0.551600  0.345000  0.337900  1.0  -0.3599
  N  N550  1  0.614300  0.382100  0.254300  1.0  -0.1877
  N  N551  1  0.625300  0.275600  0.288400  1.0  -0.2228
  N  N552  1  0.532700  0.308700  0.234400  1.0  -0.1766
  N  N553  1  0.662100  0.051600  0.155000  1.0  -0.3612
  N  N554  1  0.745700  0.114300  0.117900  1.0  -0.1862
  N  N555  1  0.711600  0.125300  0.224400  1.0  -0.2243
  N  N556  1  0.765600  0.032700  0.191300  1.0  -0.1761
  N  N557  1  0.162100  0.448400  0.845000  1.0  -0.3609
  N  N558  1  0.245700  0.385700  0.882100  1.0  -0.1881
  N  N559  1  0.211600  0.374700  0.775600  1.0  -0.2231
  N  N560  1  0.265600  0.467300  0.808700  1.0  -0.1752
  N  N561  1  0.837900  0.948400  0.655000  1.0  -0.3607
  N  N562  1  0.754300  0.885700  0.617900  1.0  -0.1884
  N  N563  1  0.788400  0.874700  0.724400  1.0  -0.2224
  N  N564  1  0.734400  0.967300  0.691300  1.0  -0.1746
  N  N565  1  0.337900  0.551600  0.345000  1.0  -0.3591
  N  N566  1  0.254300  0.614300  0.382100  1.0  -0.188
  N  N567  1  0.288400  0.625300  0.275600  1.0  -0.2233
  N  N568  1  0.234400  0.532700  0.308700  1.0  -0.1748
  N  N569  1  0.155000  0.662100  0.051600  1.0  -0.366
  N  N570  1  0.117900  0.745700  0.114300  1.0  -0.1913
  N  N571  1  0.224400  0.711600  0.125300  1.0  -0.2257
  N  N572  1  0.191300  0.765600  0.032700  1.0  -0.1693
  N  N573  1  0.845000  0.162100  0.448400  1.0  -0.3657
  N  N574  1  0.882100  0.245700  0.385700  1.0  -0.1904
  N  N575  1  0.775600  0.211600  0.374700  1.0  -0.2261
  N  N576  1  0.808700  0.265600  0.467300  1.0  -0.1693
  N  N577  1  0.655000  0.837900  0.948400  1.0  -0.3655
  N  N578  1  0.617900  0.754300  0.885700  1.0  -0.1926
  N  N579  1  0.724400  0.788400  0.874700  1.0  -0.227
  N  N580  1  0.691300  0.734400  0.967300  1.0  -0.171
  N  N581  1  0.345000  0.337900  0.551600  1.0  -0.3643
  N  N582  1  0.382100  0.254300  0.614300  1.0  -0.1921
  N  N583  1  0.275600  0.288400  0.625300  1.0  -0.2247
  N  N584  1  0.308700  0.234400  0.532700  1.0  -0.1731
  F  F585  1  0.965700  0.778200  0.499100  1.0  -0.4056
  F  F586  1  0.855100  0.742800  0.581200  1.0  -0.394
  F  F587  1  0.951200  0.709800  0.570600  1.0  -0.4511
  F  F588  1  0.887600  0.714700  0.489500  1.0  -0.3679
  F  F589  1  0.931400  0.808000  0.589400  1.0  -0.4218
  F  F590  1  0.870200  0.810600  0.508300  1.0  -0.434
  F  F591  1  0.534300  0.221800  0.999100  1.0  -0.4024
  F  F592  1  0.644900  0.257200  0.081200  1.0  -0.395
  F  F593  1  0.548800  0.290200  0.070600  1.0  -0.4541
  F  F594  1  0.612400  0.285300  0.989500  1.0  -0.3693
  F  F595  1  0.568600  0.192000  0.089400  1.0  -0.4227
  F  F596  1  0.629800  0.189400  0.008300  1.0  -0.4347
  F  F597  1  0.034300  0.278200  0.000900  1.0  -0.4026
  F  F598  1  0.144900  0.242800  0.918800  1.0  -0.3949
  F  F599  1  0.048800  0.209800  0.929400  1.0  -0.4514
  F  F600  1  0.112400  0.214700  0.010500  1.0  -0.3677
  F  F601  1  0.068600  0.308000  0.910600  1.0  -0.4238
  F  F602  1  0.129800  0.310600  0.991700  1.0  -0.4338
  F  F603  1  0.465700  0.721800  0.500900  1.0  -0.4038
  F  F604  1  0.355100  0.757200  0.418800  1.0  -0.3947
  F  F605  1  0.451200  0.790200  0.429400  1.0  -0.4529
  F  F606  1  0.387600  0.785300  0.510500  1.0  -0.3701
  F  F607  1  0.431400  0.692000  0.410600  1.0  -0.4223
  F  F608  1  0.370200  0.689400  0.491700  1.0  -0.4342
  F  F609  1  0.499100  0.965700  0.778200  1.0  -0.4036
  F  F610  1  0.581200  0.855100  0.742800  1.0  -0.3975
  F  F611  1  0.570600  0.951200  0.709800  1.0  -0.4564
  F  F612  1  0.489500  0.887600  0.714700  1.0  -0.3665
  F  F613  1  0.589400  0.931400  0.808000  1.0  -0.4224
  F  F614  1  0.508300  0.870200  0.810600  1.0  -0.4339
  F  F615  1  0.999100  0.534300  0.221800  1.0  -0.4034
  F  F616  1  0.081200  0.644900  0.257200  1.0  -0.3974
  F  F617  1  0.070600  0.548800  0.290200  1.0  -0.4502
  F  F618  1  0.989500  0.612400  0.285300  1.0  -0.3681
  F  F619  1  0.089400  0.568600  0.192000  1.0  -0.4229
  F  F620  1  0.008300  0.629800  0.189400  1.0  -0.4349
  F  F621  1  0.000900  0.034300  0.278200  1.0  -0.4027
  F  F622  1  0.918800  0.144900  0.242800  1.0  -0.3982
  F  F623  1  0.929400  0.048800  0.209800  1.0  -0.456
  F  F624  1  0.010500  0.112400  0.214700  1.0  -0.3672
  F  F625  1  0.910600  0.068600  0.308000  1.0  -0.4212
  F  F626  1  0.991700  0.129800  0.310600  1.0  -0.4328
  F  F627  1  0.500900  0.465700  0.721800  1.0  -0.404
  F  F628  1  0.418800  0.355100  0.757200  1.0  -0.3965
  F  F629  1  0.429400  0.451200  0.790200  1.0  -0.452
  F  F630  1  0.510500  0.387600  0.785300  1.0  -0.3695
  F  F631  1  0.410600  0.431400  0.692000  1.0  -0.4219
  F  F632  1  0.491700  0.370200  0.689400  1.0  -0.4338
  F  F633  1  0.778200  0.499100  0.965700  1.0  -0.4046
  F  F634  1  0.742800  0.581200  0.855100  1.0  -0.3963
  F  F635  1  0.709800  0.570600  0.951200  1.0  -0.448
  F  F636  1  0.714700  0.489500  0.887600  1.0  -0.3673
  F  F637  1  0.808000  0.589400  0.931400  1.0  -0.4201
  F  F638  1  0.810600  0.508300  0.870200  1.0  -0.4358
  F  F639  1  0.221800  0.999100  0.534300  1.0  -0.4049
  F  F640  1  0.257200  0.081200  0.644900  1.0  -0.3974
  F  F641  1  0.290200  0.070600  0.548800  1.0  -0.4503
  F  F642  1  0.285300  0.989500  0.612400  1.0  -0.3638
  F  F643  1  0.192000  0.089400  0.568600  1.0  -0.421
  F  F644  1  0.189400  0.008300  0.629800  1.0  -0.4358
  F  F645  1  0.278200  0.000900  0.034300  1.0  -0.4045
  F  F646  1  0.242800  0.918800  0.144900  1.0  -0.3961
  F  F647  1  0.209800  0.929400  0.048800  1.0  -0.4509
  F  F648  1  0.214700  0.010500  0.112400  1.0  -0.3658
  F  F649  1  0.308000  0.910600  0.068600  1.0  -0.4202
  F  F650  1  0.310600  0.991700  0.129800  1.0  -0.4349
  F  F651  1  0.721800  0.500900  0.465700  1.0  -0.4061
  F  F652  1  0.757200  0.418800  0.355100  1.0  -0.3967
  F  F653  1  0.790200  0.429400  0.451200  1.0  -0.4495
  F  F654  1  0.785300  0.510500  0.387600  1.0  -0.3654
  F  F655  1  0.692000  0.410600  0.431400  1.0  -0.4211
  F  F656  1  0.689400  0.491700  0.370200  1.0  -0.4348
  F  F657  1  0.034300  0.221800  0.500900  1.0  -0.4021
  F  F658  1  0.144900  0.257200  0.418800  1.0  -0.395
  F  F659  1  0.048800  0.290200  0.429400  1.0  -0.4529
  F  F660  1  0.112400  0.285300  0.510500  1.0  -0.3696
  F  F661  1  0.068600  0.192000  0.410600  1.0  -0.4235
  F  F662  1  0.129800  0.189400  0.491700  1.0  -0.4341
  F  F663  1  0.465700  0.778200  0.000900  1.0  -0.4042
  F  F664  1  0.355100  0.742800  0.918800  1.0  -0.3941
  F  F665  1  0.451200  0.709800  0.929400  1.0  -0.4514
  F  F666  1  0.387600  0.714700  0.010500  1.0  -0.3684
  F  F667  1  0.431400  0.808000  0.910600  1.0  -0.4229
  F  F668  1  0.370200  0.810600  0.991700  1.0  -0.4335
  F  F669  1  0.965700  0.721800  0.999100  1.0  -0.4055
  F  F670  1  0.855100  0.757200  0.081200  1.0  -0.3942
  F  F671  1  0.951200  0.790200  0.070600  1.0  -0.4545
  F  F672  1  0.887600  0.785300  0.989500  1.0  -0.3694
  F  F673  1  0.931400  0.692000  0.089400  1.0  -0.4212
  F  F674  1  0.870200  0.689400  0.008300  1.0  -0.4346
  F  F675  1  0.534300  0.278200  0.499100  1.0  -0.4028
  F  F676  1  0.644900  0.242800  0.581200  1.0  -0.3951
  F  F677  1  0.548800  0.209800  0.570600  1.0  -0.4507
  F  F678  1  0.612400  0.214700  0.489500  1.0  -0.3678
  F  F679  1  0.568600  0.308000  0.589400  1.0  -0.4228
  F  F680  1  0.629800  0.310600  0.508300  1.0  -0.4346
  F  F681  1  0.500900  0.034300  0.221800  1.0  -0.4034
  F  F682  1  0.418800  0.144900  0.257200  1.0  -0.3968
  F  F683  1  0.429400  0.048800  0.290200  1.0  -0.4516
  F  F684  1  0.510500  0.112400  0.285300  1.0  -0.369
  F  F685  1  0.410600  0.068600  0.192000  1.0  -0.4219
  F  F686  1  0.491700  0.129800  0.189400  1.0  -0.4341
  F  F687  1  0.000900  0.465700  0.778200  1.0  -0.4036
  F  F688  1  0.918800  0.355100  0.742800  1.0  -0.3984
  F  F689  1  0.929400  0.451200  0.709800  1.0  -0.4562
  F  F690  1  0.010500  0.387600  0.714700  1.0  -0.3679
  F  F691  1  0.910600  0.431400  0.808000  1.0  -0.4209
  F  F692  1  0.991700  0.370200  0.810600  1.0  -0.433
  F  F693  1  0.999100  0.965700  0.721800  1.0  -0.404
  F  F694  1  0.081200  0.855100  0.757200  1.0  -0.3965
  F  F695  1  0.070600  0.951200  0.790200  1.0  -0.4512
  F  F696  1  0.989500  0.887600  0.785300  1.0  -0.3685
  F  F697  1  0.089400  0.931400  0.692000  1.0  -0.4235
  F  F698  1  0.008300  0.870200  0.689400  1.0  -0.4345
  F  F699  1  0.499100  0.534300  0.278200  1.0  -0.4027
  F  F700  1  0.581200  0.644900  0.242800  1.0  -0.3984
  F  F701  1  0.570600  0.548800  0.209800  1.0  -0.4563
  F  F702  1  0.489500  0.612400  0.214700  1.0  -0.3658
  F  F703  1  0.589400  0.568600  0.308000  1.0  -0.422
  F  F704  1  0.508300  0.629800  0.310600  1.0  -0.4338
  F  F705  1  0.221800  0.500900  0.034300  1.0  -0.4049
  F  F706  1  0.257200  0.418800  0.144900  1.0  -0.3976
  F  F707  1  0.290200  0.429400  0.048800  1.0  -0.4513
  F  F708  1  0.285300  0.510500  0.112400  1.0  -0.3644
  F  F709  1  0.192000  0.410600  0.068600  1.0  -0.4208
  F  F710  1  0.189400  0.491700  0.129800  1.0  -0.4351
  F  F711  1  0.778200  0.000900  0.465700  1.0  -0.4054
  F  F712  1  0.742800  0.918800  0.355100  1.0  -0.3967
  F  F713  1  0.709800  0.929400  0.451200  1.0  -0.4488
  F  F714  1  0.714700  0.010500  0.387600  1.0  -0.3664
  F  F715  1  0.808000  0.910600  0.431400  1.0  -0.4203
  F  F716  1  0.810600  0.991700  0.370200  1.0  -0.435
  F  F717  1  0.721800  0.999100  0.965700  1.0  -0.4055
  F  F718  1  0.757200  0.081200  0.855100  1.0  -0.3967
  F  F719  1  0.790200  0.070600  0.951200  1.0  -0.4493
  F  F720  1  0.785300  0.989500  0.887600  1.0  -0.3648
  F  F721  1  0.692000  0.089400  0.931400  1.0  -0.4213
  F  F722  1  0.689400  0.008300  0.870200  1.0  -0.4353
  F  F723  1  0.278200  0.499100  0.534300  1.0  -0.4044
  F  F724  1  0.242800  0.581200  0.644900  1.0  -0.3957
  F  F725  1  0.209800  0.570600  0.548800  1.0  -0.4487
  F  F726  1  0.214700  0.489500  0.612400  1.0  -0.3666
  F  F727  1  0.308000  0.589400  0.568600  1.0  -0.4204
  F  F728  1  0.310600  0.508300  0.629800  1.0  -0.4358
