# generated using pymatgen
data_MnH2C10(SO2)2
_symmetry_space_group_name_H-M   'P 1'
_cell_length_a   39.20060000
_cell_length_b   39.20060000
_cell_length_c   39.20060000
_cell_angle_alpha   90.00000000
_cell_angle_beta   90.00000000
_cell_angle_gamma   90.00000000
_symmetry_Int_Tables_number   1
_chemical_formula_structural   MnH2C10(SO2)2
_chemical_formula_sum   'Mn96 H192 C960 S192 O384'
_cell_volume   60239.05399434
_cell_formula_units_Z   96
loop_
 _symmetry_equiv_pos_site_id
 _symmetry_equiv_pos_as_xyz
  1  'x, y, z'
loop_
 _atom_site_type_symbol
 _atom_site_label
 _atom_site_symmetry_multiplicity
 _atom_site_fract_x
 _atom_site_fract_y
 _atom_site_fract_z
 _atom_site_occupancy
 _atom_site_charge
  Mn  Mn1  1  0.683860  0.500000  0.771630  1.0  1.1387
  Mn  Mn2  1  0.683860  0.000000  0.271630  1.0  1.1387
  Mn  Mn3  1  0.183860  0.500000  0.271630  1.0  1.1387
  Mn  Mn4  1  0.183860  0.000000  0.771630  1.0  1.1387
  Mn  Mn5  1  0.316140  0.500000  0.771630  1.0  1.1377
  Mn  Mn6  1  0.316140  0.000000  0.271630  1.0  1.1377
  Mn  Mn7  1  0.816140  0.500000  0.271630  1.0  1.1377
  Mn  Mn8  1  0.816140  0.000000  0.771630  1.0  1.1377
  Mn  Mn9  1  0.316140  0.500000  0.228370  1.0  1.1379
  Mn  Mn10  1  0.316140  0.000000  0.728370  1.0  1.1379
  Mn  Mn11  1  0.816140  0.500000  0.728370  1.0  1.1379
  Mn  Mn12  1  0.816140  0.000000  0.228370  1.0  1.1379
  Mn  Mn13  1  0.683860  0.500000  0.228370  1.0  1.1392
  Mn  Mn14  1  0.683860  0.000000  0.728370  1.0  1.1392
  Mn  Mn15  1  0.183860  0.500000  0.728370  1.0  1.1392
  Mn  Mn16  1  0.183860  0.000000  0.228370  1.0  1.1392
  Mn  Mn17  1  0.771630  0.683860  0.500000  1.0  1.1398
  Mn  Mn18  1  0.771630  0.183860  0.000000  1.0  1.1398
  Mn  Mn19  1  0.271630  0.683860  0.000000  1.0  1.1398
  Mn  Mn20  1  0.271630  0.183860  0.500000  1.0  1.1398
  Mn  Mn21  1  0.771630  0.316140  0.500000  1.0  1.1377
  Mn  Mn22  1  0.771630  0.816140  0.000000  1.0  1.1377
  Mn  Mn23  1  0.271630  0.316140  0.000000  1.0  1.1377
  Mn  Mn24  1  0.271630  0.816140  0.500000  1.0  1.1377
  Mn  Mn25  1  0.228370  0.316140  0.500000  1.0  1.1386
  Mn  Mn26  1  0.228370  0.816140  0.000000  1.0  1.1386
  Mn  Mn27  1  0.728370  0.316140  0.000000  1.0  1.1386
  Mn  Mn28  1  0.728370  0.816140  0.500000  1.0  1.1386
  Mn  Mn29  1  0.228370  0.683860  0.500000  1.0  1.1409
  Mn  Mn30  1  0.228370  0.183860  0.000000  1.0  1.1409
  Mn  Mn31  1  0.728370  0.683860  0.000000  1.0  1.1409
  Mn  Mn32  1  0.728370  0.183860  0.500000  1.0  1.1409
  Mn  Mn33  1  0.500000  0.771630  0.683860  1.0  1.1351
  Mn  Mn34  1  0.500000  0.271630  0.183860  1.0  1.1351
  Mn  Mn35  1  0.000000  0.771630  0.183860  1.0  1.1351
  Mn  Mn36  1  0.000000  0.271630  0.683860  1.0  1.1351
  Mn  Mn37  1  0.500000  0.771630  0.316140  1.0  1.1356
  Mn  Mn38  1  0.500000  0.271630  0.816140  1.0  1.1356
  Mn  Mn39  1  0.000000  0.771630  0.816140  1.0  1.1356
  Mn  Mn40  1  0.000000  0.271630  0.316140  1.0  1.1356
  Mn  Mn41  1  0.500000  0.228370  0.316140  1.0  1.136
  Mn  Mn42  1  0.500000  0.728370  0.816140  1.0  1.136
  Mn  Mn43  1  0.000000  0.228370  0.816140  1.0  1.136
  Mn  Mn44  1  0.000000  0.728370  0.316140  1.0  1.136
  Mn  Mn45  1  0.500000  0.228370  0.683860  1.0  1.1353
  Mn  Mn46  1  0.500000  0.728370  0.183860  1.0  1.1353
  Mn  Mn47  1  0.000000  0.228370  0.183860  1.0  1.1353
  Mn  Mn48  1  0.000000  0.728370  0.683860  1.0  1.1353
  Mn  Mn49  1  0.000000  0.183860  0.728370  1.0  1.1407
  Mn  Mn50  1  0.000000  0.683860  0.228370  1.0  1.1407
  Mn  Mn51  1  0.500000  0.183860  0.228370  1.0  1.1407
  Mn  Mn52  1  0.500000  0.683860  0.728370  1.0  1.1407
  Mn  Mn53  1  0.000000  0.816140  0.728370  1.0  1.1393
  Mn  Mn54  1  0.000000  0.316140  0.228370  1.0  1.1392
  Mn  Mn55  1  0.500000  0.816140  0.228370  1.0  1.1392
  Mn  Mn56  1  0.500000  0.316140  0.728370  1.0  1.1393
  Mn  Mn57  1  0.000000  0.816140  0.271630  1.0  1.1386
  Mn  Mn58  1  0.000000  0.316140  0.771630  1.0  1.1386
  Mn  Mn59  1  0.500000  0.816140  0.771630  1.0  1.1386
  Mn  Mn60  1  0.500000  0.316140  0.271630  1.0  1.1386
  Mn  Mn61  1  0.000000  0.183860  0.271630  1.0  1.1409
  Mn  Mn62  1  0.000000  0.683860  0.771630  1.0  1.1409
  Mn  Mn63  1  0.500000  0.183860  0.771630  1.0  1.1409
  Mn  Mn64  1  0.500000  0.683860  0.271630  1.0  1.1409
  Mn  Mn65  1  0.183860  0.271630  0.000000  1.0  1.1387
  Mn  Mn66  1  0.183860  0.771630  0.500000  1.0  1.1387
  Mn  Mn67  1  0.683860  0.271630  0.500000  1.0  1.1387
  Mn  Mn68  1  0.683860  0.771630  0.000000  1.0  1.1387
  Mn  Mn69  1  0.816140  0.271630  0.000000  1.0  1.1371
  Mn  Mn70  1  0.816140  0.771630  0.500000  1.0  1.1371
  Mn  Mn71  1  0.316140  0.271630  0.500000  1.0  1.1371
  Mn  Mn72  1  0.316140  0.771630  0.000000  1.0  1.1371
  Mn  Mn73  1  0.816140  0.728370  0.000000  1.0  1.138
  Mn  Mn74  1  0.816140  0.228370  0.500000  1.0  1.138
  Mn  Mn75  1  0.316140  0.728370  0.500000  1.0  1.138
  Mn  Mn76  1  0.316140  0.228370  0.000000  1.0  1.138
  Mn  Mn77  1  0.183860  0.728370  0.000000  1.0  1.1387
  Mn  Mn78  1  0.183860  0.228370  0.500000  1.0  1.1387
  Mn  Mn79  1  0.683860  0.728370  0.500000  1.0  1.1387
  Mn  Mn80  1  0.683860  0.228370  0.000000  1.0  1.1387
  Mn  Mn81  1  0.271630  0.000000  0.816140  1.0  1.1351
  Mn  Mn82  1  0.271630  0.500000  0.316140  1.0  1.1351
  Mn  Mn83  1  0.771630  0.000000  0.316140  1.0  1.1351
  Mn  Mn84  1  0.771630  0.500000  0.816140  1.0  1.1351
  Mn  Mn85  1  0.271630  0.000000  0.183860  1.0  1.1342
  Mn  Mn86  1  0.271630  0.500000  0.683860  1.0  1.1342
  Mn  Mn87  1  0.771630  0.000000  0.683860  1.0  1.1342
  Mn  Mn88  1  0.771630  0.500000  0.183860  1.0  1.1342
  Mn  Mn89  1  0.728370  0.000000  0.183860  1.0  1.1352
  Mn  Mn90  1  0.728370  0.500000  0.683860  1.0  1.1352
  Mn  Mn91  1  0.228370  0.000000  0.683860  1.0  1.1352
  Mn  Mn92  1  0.228370  0.500000  0.183860  1.0  1.1352
  Mn  Mn93  1  0.728370  0.000000  0.816140  1.0  1.1356
  Mn  Mn94  1  0.728370  0.500000  0.316140  1.0  1.1356
  Mn  Mn95  1  0.228370  0.000000  0.316140  1.0  1.1356
  Mn  Mn96  1  0.228370  0.500000  0.816140  1.0  1.1356
  H  H97  1  0.705900  0.579100  0.661800  1.0  0.1734
  H  H98  1  0.705900  0.079100  0.161800  1.0  0.1734
  H  H99  1  0.205900  0.579100  0.161800  1.0  0.1734
  H  H100  1  0.205900  0.079100  0.661800  1.0  0.1734
  H  H101  1  0.294100  0.420900  0.661800  1.0  0.1726
  H  H102  1  0.294100  0.920900  0.161800  1.0  0.1726
  H  H103  1  0.794100  0.420900  0.161800  1.0  0.1726
  H  H104  1  0.794100  0.920900  0.661800  1.0  0.1726
  H  H105  1  0.294100  0.579100  0.338200  1.0  0.1728
  H  H106  1  0.294100  0.079100  0.838200  1.0  0.1728
  H  H107  1  0.794100  0.579100  0.838200  1.0  0.1728
  H  H108  1  0.794100  0.079100  0.338200  1.0  0.1728
  H  H109  1  0.705900  0.420900  0.338200  1.0  0.1734
  H  H110  1  0.705900  0.920900  0.838200  1.0  0.1734
  H  H111  1  0.205900  0.420900  0.838200  1.0  0.1734
  H  H112  1  0.205900  0.920900  0.338200  1.0  0.1734
  H  H113  1  0.661800  0.705900  0.579100  1.0  0.171
  H  H114  1  0.661800  0.205900  0.079100  1.0  0.171
  H  H115  1  0.161800  0.705900  0.079100  1.0  0.171
  H  H116  1  0.161800  0.205900  0.579100  1.0  0.171
  H  H117  1  0.661800  0.294100  0.420900  1.0  0.1716
  H  H118  1  0.661800  0.794100  0.920900  1.0  0.1716
  H  H119  1  0.161800  0.294100  0.920900  1.0  0.1716
  H  H120  1  0.161800  0.794100  0.420900  1.0  0.1716
  H  H121  1  0.338200  0.294100  0.579100  1.0  0.1718
  H  H122  1  0.338200  0.794100  0.079100  1.0  0.1718
  H  H123  1  0.838200  0.294100  0.079100  1.0  0.1718
  H  H124  1  0.838200  0.794100  0.579100  1.0  0.1718
  H  H125  1  0.338200  0.705900  0.420900  1.0  0.1714
  H  H126  1  0.338200  0.205900  0.920900  1.0  0.1714
  H  H127  1  0.838200  0.705900  0.920900  1.0  0.1714
  H  H128  1  0.838200  0.205900  0.420900  1.0  0.1714
  H  H129  1  0.579100  0.661800  0.705900  1.0  0.1724
  H  H130  1  0.579100  0.161800  0.205900  1.0  0.1724
  H  H131  1  0.079100  0.661800  0.205900  1.0  0.1724
  H  H132  1  0.079100  0.161800  0.705900  1.0  0.1724
  H  H133  1  0.420900  0.661800  0.294100  1.0  0.1717
  H  H134  1  0.420900  0.161800  0.794100  1.0  0.1717
  H  H135  1  0.920900  0.661800  0.794100  1.0  0.1717
  H  H136  1  0.920900  0.161800  0.294100  1.0  0.1717
  H  H137  1  0.579100  0.338200  0.294100  1.0  0.1722
  H  H138  1  0.579100  0.838200  0.794100  1.0  0.1722
  H  H139  1  0.079100  0.338200  0.794100  1.0  0.1722
  H  H140  1  0.079100  0.838200  0.294100  1.0  0.1722
  H  H141  1  0.420900  0.338200  0.705900  1.0  0.172
  H  H142  1  0.420900  0.838200  0.205900  1.0  0.172
  H  H143  1  0.920900  0.338200  0.205900  1.0  0.172
  H  H144  1  0.920900  0.838200  0.705900  1.0  0.172
  H  H145  1  0.079100  0.205900  0.838200  1.0  0.1725
  H  H146  1  0.079100  0.705900  0.338200  1.0  0.1725
  H  H147  1  0.579100  0.205900  0.338200  1.0  0.1725
  H  H148  1  0.579100  0.705900  0.838200  1.0  0.1725
  H  H149  1  0.920900  0.794100  0.838200  1.0  0.1732
  H  H150  1  0.920900  0.294100  0.338200  1.0  0.1732
  H  H151  1  0.420900  0.794100  0.338200  1.0  0.1732
  H  H152  1  0.420900  0.294100  0.838200  1.0  0.1732
  H  H153  1  0.079100  0.794100  0.161800  1.0  0.1731
  H  H154  1  0.079100  0.294100  0.661800  1.0  0.1731
  H  H155  1  0.579100  0.794100  0.661800  1.0  0.1731
  H  H156  1  0.579100  0.294100  0.161800  1.0  0.1731
  H  H157  1  0.920900  0.205900  0.161800  1.0  0.1723
  H  H158  1  0.920900  0.705900  0.661800  1.0  0.1723
  H  H159  1  0.420900  0.205900  0.661800  1.0  0.1723
  H  H160  1  0.420900  0.705900  0.161800  1.0  0.1723
  H  H161  1  0.205900  0.161800  0.920900  1.0  0.1727
  H  H162  1  0.205900  0.661800  0.420900  1.0  0.1727
  H  H163  1  0.705900  0.161800  0.420900  1.0  0.1727
  H  H164  1  0.705900  0.661800  0.920900  1.0  0.1727
  H  H165  1  0.794100  0.161800  0.079100  1.0  0.1714
  H  H166  1  0.794100  0.661800  0.579100  1.0  0.1714
  H  H167  1  0.294100  0.161800  0.579100  1.0  0.1714
  H  H168  1  0.294100  0.661800  0.079100  1.0  0.1714
  H  H169  1  0.794100  0.838200  0.920900  1.0  0.1721
  H  H170  1  0.794100  0.338200  0.420900  1.0  0.1721
  H  H171  1  0.294100  0.838200  0.420900  1.0  0.1721
  H  H172  1  0.294100  0.338200  0.920900  1.0  0.1721
  H  H173  1  0.205900  0.838200  0.079100  1.0  0.1726
  H  H174  1  0.205900  0.338200  0.579100  1.0  0.1726
  H  H175  1  0.705900  0.838200  0.579100  1.0  0.1726
  H  H176  1  0.705900  0.338200  0.079100  1.0  0.1726
  H  H177  1  0.161800  0.079100  0.794100  1.0  0.1714
  H  H178  1  0.161800  0.579100  0.294100  1.0  0.1714
  H  H179  1  0.661800  0.079100  0.294100  1.0  0.1714
  H  H180  1  0.661800  0.579100  0.794100  1.0  0.1714
  H  H181  1  0.161800  0.920900  0.205900  1.0  0.1714
  H  H182  1  0.161800  0.420900  0.705900  1.0  0.1714
  H  H183  1  0.661800  0.920900  0.705900  1.0  0.1714
  H  H184  1  0.661800  0.420900  0.205900  1.0  0.1714
  H  H185  1  0.838200  0.079100  0.205900  1.0  0.1722
  H  H186  1  0.838200  0.579100  0.705900  1.0  0.1722
  H  H187  1  0.338200  0.079100  0.705900  1.0  0.1722
  H  H188  1  0.338200  0.579100  0.205900  1.0  0.1722
  H  H189  1  0.838200  0.920900  0.794100  1.0  0.1719
  H  H190  1  0.838200  0.420900  0.294100  1.0  0.1719
  H  H191  1  0.338200  0.920900  0.294100  1.0  0.1719
  H  H192  1  0.338200  0.420900  0.794100  1.0  0.1719
  H  H193  1  0.294100  0.420900  0.338200  1.0  0.1728
  H  H194  1  0.294100  0.920900  0.838200  1.0  0.1728
  H  H195  1  0.794100  0.420900  0.838200  1.0  0.1728
  H  H196  1  0.794100  0.920900  0.338200  1.0  0.1728
  H  H197  1  0.705900  0.579100  0.338200  1.0  0.1736
  H  H198  1  0.705900  0.079100  0.838200  1.0  0.1736
  H  H199  1  0.205900  0.579100  0.838200  1.0  0.1736
  H  H200  1  0.205900  0.079100  0.338200  1.0  0.1736
  H  H201  1  0.705900  0.420900  0.661800  1.0  0.1732
  H  H202  1  0.705900  0.920900  0.161800  1.0  0.1732
  H  H203  1  0.205900  0.420900  0.161800  1.0  0.1732
  H  H204  1  0.205900  0.920900  0.661800  1.0  0.1732
  H  H205  1  0.294100  0.579100  0.661800  1.0  0.1725
  H  H206  1  0.294100  0.079100  0.161800  1.0  0.1725
  H  H207  1  0.794100  0.579100  0.161800  1.0  0.1725
  H  H208  1  0.794100  0.079100  0.661800  1.0  0.1725
  H  H209  1  0.338200  0.294100  0.420900  1.0  0.172
  H  H210  1  0.338200  0.794100  0.920900  1.0  0.172
  H  H211  1  0.838200  0.294100  0.920900  1.0  0.172
  H  H212  1  0.838200  0.794100  0.420900  1.0  0.172
  H  H213  1  0.338200  0.705900  0.579100  1.0  0.1711
  H  H214  1  0.338200  0.205900  0.079100  1.0  0.1711
  H  H215  1  0.838200  0.705900  0.079100  1.0  0.1711
  H  H216  1  0.838200  0.205900  0.579100  1.0  0.1711
  H  H217  1  0.661800  0.705900  0.420900  1.0  0.171
  H  H218  1  0.661800  0.205900  0.920900  1.0  0.171
  H  H219  1  0.161800  0.705900  0.920900  1.0  0.171
  H  H220  1  0.161800  0.205900  0.420900  1.0  0.171
  H  H221  1  0.661800  0.294100  0.579100  1.0  0.1713
  H  H222  1  0.661800  0.794100  0.079100  1.0  0.1713
  H  H223  1  0.161800  0.294100  0.079100  1.0  0.1713
  H  H224  1  0.161800  0.794100  0.579100  1.0  0.1713
  H  H225  1  0.420900  0.338200  0.294100  1.0  0.1723
  H  H226  1  0.420900  0.838200  0.794100  1.0  0.1723
  H  H227  1  0.920900  0.338200  0.794100  1.0  0.1723
  H  H228  1  0.920900  0.838200  0.294100  1.0  0.1723
  H  H229  1  0.579100  0.338200  0.705900  1.0  0.1718
  H  H230  1  0.579100  0.838200  0.205900  1.0  0.1718
  H  H231  1  0.079100  0.338200  0.205900  1.0  0.1718
  H  H232  1  0.079100  0.838200  0.705900  1.0  0.1718
  H  H233  1  0.420900  0.661800  0.705900  1.0  0.1724
  H  H234  1  0.420900  0.161800  0.205900  1.0  0.1724
  H  H235  1  0.920900  0.661800  0.205900  1.0  0.1724
  H  H236  1  0.920900  0.161800  0.705900  1.0  0.1724
  H  H237  1  0.579100  0.661800  0.294100  1.0  0.1718
  H  H238  1  0.579100  0.161800  0.794100  1.0  0.1718
  H  H239  1  0.079100  0.661800  0.794100  1.0  0.1718
  H  H240  1  0.079100  0.161800  0.294100  1.0  0.1718
  H  H241  1  0.920900  0.794100  0.161800  1.0  0.173
  H  H242  1  0.920900  0.294100  0.661800  1.0  0.173
  H  H243  1  0.420900  0.794100  0.661800  1.0  0.173
  H  H244  1  0.420900  0.294100  0.161800  1.0  0.173
  H  H245  1  0.079100  0.205900  0.161800  1.0  0.1725
  H  H246  1  0.079100  0.705900  0.661800  1.0  0.1725
  H  H247  1  0.579100  0.205900  0.661800  1.0  0.1725
  H  H248  1  0.579100  0.705900  0.161800  1.0  0.1725
  H  H249  1  0.920900  0.205900  0.838200  1.0  0.1724
  H  H250  1  0.920900  0.705900  0.338200  1.0  0.1724
  H  H251  1  0.420900  0.205900  0.338200  1.0  0.1724
  H  H252  1  0.420900  0.705900  0.838200  1.0  0.1724
  H  H253  1  0.079100  0.794100  0.838200  1.0  0.1735
  H  H254  1  0.079100  0.294100  0.338200  1.0  0.1735
  H  H255  1  0.579100  0.794100  0.338200  1.0  0.1735
  H  H256  1  0.579100  0.294100  0.838200  1.0  0.1735
  H  H257  1  0.794100  0.838200  0.079100  1.0  0.172
  H  H258  1  0.794100  0.338200  0.579100  1.0  0.172
  H  H259  1  0.294100  0.838200  0.579100  1.0  0.172
  H  H260  1  0.294100  0.338200  0.079100  1.0  0.172
  H  H261  1  0.205900  0.838200  0.920900  1.0  0.1725
  H  H262  1  0.205900  0.338200  0.420900  1.0  0.1725
  H  H263  1  0.705900  0.838200  0.420900  1.0  0.1725
  H  H264  1  0.705900  0.338200  0.920900  1.0  0.1725
  H  H265  1  0.205900  0.161800  0.079100  1.0  0.1724
  H  H266  1  0.205900  0.661800  0.579100  1.0  0.1724
  H  H267  1  0.705900  0.161800  0.579100  1.0  0.1724
  H  H268  1  0.705900  0.661800  0.079100  1.0  0.1724
  H  H269  1  0.794100  0.161800  0.920900  1.0  0.1719
  H  H270  1  0.794100  0.661800  0.420900  1.0  0.1719
  H  H271  1  0.294100  0.161800  0.420900  1.0  0.1719
  H  H272  1  0.294100  0.661800  0.920900  1.0  0.1719
  H  H273  1  0.838200  0.920900  0.205900  1.0  0.1717
  H  H274  1  0.838200  0.420900  0.705900  1.0  0.1717
  H  H275  1  0.338200  0.920900  0.705900  1.0  0.1717
  H  H276  1  0.338200  0.420900  0.205900  1.0  0.1717
  H  H277  1  0.838200  0.079100  0.794100  1.0  0.1717
  H  H278  1  0.838200  0.579100  0.294100  1.0  0.1717
  H  H279  1  0.338200  0.079100  0.294100  1.0  0.1717
  H  H280  1  0.338200  0.579100  0.794100  1.0  0.1717
  H  H281  1  0.161800  0.920900  0.794100  1.0  0.1716
  H  H282  1  0.161800  0.420900  0.294100  1.0  0.1716
  H  H283  1  0.661800  0.920900  0.294100  1.0  0.1716
  H  H284  1  0.661800  0.420900  0.794100  1.0  0.1716
  H  H285  1  0.161800  0.079100  0.205900  1.0  0.172
  H  H286  1  0.161800  0.579100  0.705900  1.0  0.172
  H  H287  1  0.661800  0.079100  0.705900  1.0  0.172
  H  H288  1  0.661800  0.579100  0.205900  1.0  0.172
  C  C289  1  0.676520  0.548920  0.722540  1.0  0.7311
  C  C290  1  0.666520  0.577560  0.699920  1.0  -0.102
  C  C291  1  0.685450  0.588770  0.670430  1.0  -0.047
  C  C292  1  0.666667  0.618140  0.656460  1.0  -0.0425
  C  C293  1  0.637700  0.627440  0.675470  1.0  -0.1154
  C  C294  1  0.676520  0.048920  0.222540  1.0  0.7311
  C  C295  1  0.666520  0.077560  0.199920  1.0  -0.102
  C  C296  1  0.685450  0.088770  0.170430  1.0  -0.0465
  C  C297  1  0.666667  0.118140  0.156460  1.0  -0.0475
  C  C298  1  0.637700  0.127440  0.175470  1.0  -0.113
  C  C299  1  0.176520  0.548920  0.222540  1.0  0.7311
  C  C300  1  0.166520  0.577560  0.199920  1.0  -0.102
  C  C301  1  0.185450  0.588770  0.170430  1.0  -0.0459
  C  C302  1  0.166700  0.618140  0.156460  1.0  -0.0517
  C  C303  1  0.137700  0.627440  0.175470  1.0  -0.1182
  C  C304  1  0.176520  0.048920  0.722540  1.0  0.7311
  C  C305  1  0.166520  0.077560  0.699920  1.0  -0.102
  C  C306  1  0.185450  0.088770  0.670430  1.0  -0.0473
  C  C307  1  0.166700  0.118140  0.656460  1.0  -0.0548
  C  C308  1  0.137700  0.127440  0.675470  1.0  -0.1115
  C  C309  1  0.323480  0.451080  0.722540  1.0  0.7327
  C  C310  1  0.333480  0.422440  0.699920  1.0  -0.1012
  C  C311  1  0.314550  0.411230  0.670430  1.0  -0.048
  C  C312  1  0.333333  0.381860  0.656460  1.0  -0.0424
  C  C313  1  0.362300  0.372560  0.675470  1.0  -0.1145
  C  C314  1  0.323480  0.951080  0.222540  1.0  0.7327
  C  C315  1  0.333480  0.922440  0.199920  1.0  -0.1012
  C  C316  1  0.314550  0.911230  0.170430  1.0  -0.0476
  C  C317  1  0.333333  0.881860  0.156460  1.0  -0.0478
  C  C318  1  0.362300  0.872560  0.175470  1.0  -0.1133
  C  C319  1  0.823480  0.451080  0.222540  1.0  0.7327
  C  C320  1  0.833480  0.422440  0.199920  1.0  -0.1012
  C  C321  1  0.814550  0.411230  0.170430  1.0  -0.0469
  C  C322  1  0.833300  0.381860  0.156460  1.0  -0.0519
  C  C323  1  0.862300  0.372560  0.175470  1.0  -0.1173
  C  C324  1  0.823480  0.951080  0.722540  1.0  0.7327
  C  C325  1  0.833480  0.922440  0.699920  1.0  -0.1012
  C  C326  1  0.814550  0.911230  0.670430  1.0  -0.0485
  C  C327  1  0.833300  0.881860  0.656460  1.0  -0.055
  C  C328  1  0.862300  0.872560  0.675470  1.0  -0.111
  C  C329  1  0.323480  0.548920  0.277460  1.0  0.7325
  C  C330  1  0.333480  0.577560  0.300080  1.0  -0.101
  C  C331  1  0.314550  0.588770  0.329570  1.0  -0.0472
  C  C332  1  0.333333  0.618140  0.343540  1.0  -0.0422
  C  C333  1  0.362300  0.627440  0.324530  1.0  -0.116
  C  C334  1  0.323480  0.048920  0.777460  1.0  0.7325
  C  C335  1  0.333480  0.077560  0.800080  1.0  -0.101
  C  C336  1  0.314550  0.088770  0.829570  1.0  -0.0467
  C  C337  1  0.333333  0.118140  0.843540  1.0  -0.0476
  C  C338  1  0.362300  0.127440  0.824530  1.0  -0.1146
  C  C339  1  0.823480  0.548920  0.777460  1.0  0.7325
  C  C340  1  0.833480  0.577560  0.800080  1.0  -0.101
  C  C341  1  0.814550  0.588770  0.829570  1.0  -0.0459
  C  C342  1  0.833300  0.618140  0.843540  1.0  -0.0518
  C  C343  1  0.862300  0.627440  0.824530  1.0  -0.1191
  C  C344  1  0.823480  0.048920  0.277460  1.0  0.7325
  C  C345  1  0.833480  0.077560  0.300080  1.0  -0.101
  C  C346  1  0.814550  0.088770  0.329570  1.0  -0.0475
  C  C347  1  0.833300  0.118140  0.343540  1.0  -0.055
  C  C348  1  0.862300  0.127440  0.324530  1.0  -0.1128
  C  C349  1  0.676520  0.451080  0.277460  1.0  0.7308
  C  C350  1  0.666520  0.422440  0.300080  1.0  -0.1023
  C  C351  1  0.685450  0.411230  0.329570  1.0  -0.047
  C  C352  1  0.666667  0.381860  0.343540  1.0  -0.0425
  C  C353  1  0.637700  0.372560  0.324530  1.0  -0.1157
  C  C354  1  0.676520  0.951080  0.777460  1.0  0.7308
  C  C355  1  0.666520  0.922440  0.800080  1.0  -0.1023
  C  C356  1  0.685450  0.911230  0.829570  1.0  -0.0464
  C  C357  1  0.666667  0.881860  0.843540  1.0  -0.0478
  C  C358  1  0.637700  0.872560  0.824530  1.0  -0.1143
  C  C359  1  0.176520  0.451080  0.777460  1.0  0.7308
  C  C360  1  0.166520  0.422440  0.800080  1.0  -0.1023
  C  C361  1  0.185450  0.411230  0.829570  1.0  -0.0458
  C  C362  1  0.166700  0.381860  0.843540  1.0  -0.0519
  C  C363  1  0.137700  0.372560  0.824530  1.0  -0.1191
  C  C364  1  0.176520  0.951080  0.277460  1.0  0.7308
  C  C365  1  0.166520  0.922440  0.300080  1.0  -0.1023
  C  C366  1  0.185450  0.911230  0.329570  1.0  -0.0472
  C  C367  1  0.166700  0.881860  0.343540  1.0  -0.055
  C  C368  1  0.137700  0.872560  0.324530  1.0  -0.1124
  C  C369  1  0.722540  0.676520  0.548920  1.0  0.7307
  C  C370  1  0.699920  0.666520  0.577560  1.0  -0.1027
  C  C371  1  0.670430  0.685450  0.588770  1.0  -0.0468
  C  C372  1  0.656460  0.666667  0.618140  1.0  -0.0422
  C  C373  1  0.675470  0.637700  0.627440  1.0  -0.1142
  C  C374  1  0.722540  0.176520  0.048920  1.0  0.7307
  C  C375  1  0.699920  0.166520  0.077560  1.0  -0.1027
  C  C376  1  0.670430  0.185450  0.088770  1.0  -0.0473
  C  C377  1  0.656460  0.166700  0.118140  1.0  -0.0548
  C  C378  1  0.675470  0.137700  0.127440  1.0  -0.1106
  C  C379  1  0.222540  0.676520  0.048920  1.0  0.7307
  C  C380  1  0.199920  0.666520  0.077560  1.0  -0.1027
  C  C381  1  0.170430  0.685450  0.088770  1.0  -0.0463
  C  C382  1  0.156460  0.666667  0.118140  1.0  -0.0472
  C  C383  1  0.175470  0.637700  0.127440  1.0  -0.112
  C  C384  1  0.222540  0.176520  0.548920  1.0  0.7307
  C  C385  1  0.199920  0.166520  0.577560  1.0  -0.1027
  C  C386  1  0.170430  0.185450  0.588770  1.0  -0.0459
  C  C387  1  0.156460  0.166700  0.618140  1.0  -0.0518
  C  C388  1  0.175470  0.137700  0.627440  1.0  -0.1169
  C  C389  1  0.722540  0.323480  0.451080  1.0  0.7301
  C  C390  1  0.699920  0.333480  0.422440  1.0  -0.1025
  C  C391  1  0.670430  0.314550  0.411230  1.0  -0.0479
  C  C392  1  0.656460  0.333333  0.381860  1.0  -0.042
  C  C393  1  0.675470  0.362300  0.372560  1.0  -0.1143
  C  C394  1  0.722540  0.823480  0.951080  1.0  0.7301
  C  C395  1  0.699920  0.833480  0.922440  1.0  -0.1024
  C  C396  1  0.670430  0.814550  0.911230  1.0  -0.0478
  C  C397  1  0.656460  0.833300  0.881860  1.0  -0.0546
  C  C398  1  0.675470  0.862300  0.872560  1.0  -0.1108
  C  C399  1  0.222540  0.323480  0.951080  1.0  0.7301
  C  C400  1  0.199920  0.333480  0.922440  1.0  -0.1025
  C  C401  1  0.170430  0.314550  0.911230  1.0  -0.0469
  C  C402  1  0.156460  0.333333  0.881860  1.0  -0.0471
  C  C403  1  0.175470  0.362300  0.872560  1.0  -0.1126
  C  C404  1  0.222540  0.823480  0.451080  1.0  0.7301
  C  C405  1  0.199920  0.833480  0.422440  1.0  -0.1024
  C  C406  1  0.170430  0.814550  0.411230  1.0  -0.0464
  C  C407  1  0.156460  0.833300  0.381860  1.0  -0.0518
  C  C408  1  0.175470  0.862300  0.372560  1.0  -0.1171
  C  C409  1  0.277460  0.323480  0.548920  1.0  0.7296
  C  C410  1  0.300080  0.333480  0.577560  1.0  -0.1032
  C  C411  1  0.329570  0.314550  0.588770  1.0  -0.0459
  C  C412  1  0.343540  0.333333  0.618140  1.0  -0.0424
  C  C413  1  0.324530  0.362300  0.627440  1.0  -0.1155
  C  C414  1  0.277460  0.823480  0.048920  1.0  0.7296
  C  C415  1  0.300080  0.833480  0.077560  1.0  -0.1031
  C  C416  1  0.329570  0.814550  0.088770  1.0  -0.0464
  C  C417  1  0.343540  0.833300  0.118140  1.0  -0.0544
  C  C418  1  0.324530  0.862300  0.127440  1.0  -0.1119
  C  C419  1  0.777460  0.323480  0.048920  1.0  0.7296
  C  C420  1  0.800080  0.333480  0.077560  1.0  -0.1032
  C  C421  1  0.829570  0.314550  0.088770  1.0  -0.0454
  C  C422  1  0.843540  0.333333  0.118140  1.0  -0.047
  C  C423  1  0.824530  0.362300  0.127440  1.0  -0.1127
  C  C424  1  0.777460  0.823480  0.548920  1.0  0.7296
  C  C425  1  0.800080  0.833480  0.577560  1.0  -0.1031
  C  C426  1  0.829570  0.814550  0.588770  1.0  -0.0451
  C  C427  1  0.843540  0.833300  0.618140  1.0  -0.0519
  C  C428  1  0.824530  0.862300  0.627440  1.0  -0.1184
  C  C429  1  0.277460  0.676520  0.451080  1.0  0.7311
  C  C430  1  0.300080  0.666520  0.422440  1.0  -0.1039
  C  C431  1  0.329570  0.685450  0.411230  1.0  -0.0461
  C  C432  1  0.343540  0.666667  0.381860  1.0  -0.0428
  C  C433  1  0.324530  0.637700  0.372560  1.0  -0.1159
  C  C434  1  0.277460  0.176520  0.951080  1.0  0.7311
  C  C435  1  0.300080  0.166520  0.922440  1.0  -0.1039
  C  C436  1  0.329570  0.185450  0.911230  1.0  -0.0464
  C  C437  1  0.343540  0.166700  0.881860  1.0  -0.0549
  C  C438  1  0.324530  0.137700  0.872560  1.0  -0.1128
  C  C439  1  0.777460  0.676520  0.951080  1.0  0.7311
  C  C440  1  0.800080  0.666520  0.922440  1.0  -0.1039
  C  C441  1  0.829570  0.685450  0.911230  1.0  -0.0455
  C  C442  1  0.843540  0.666667  0.881860  1.0  -0.0474
  C  C443  1  0.824530  0.637700  0.872560  1.0  -0.113
  C  C444  1  0.777460  0.176520  0.451080  1.0  0.7311
  C  C445  1  0.800080  0.166520  0.422440  1.0  -0.1039
  C  C446  1  0.829570  0.185450  0.411230  1.0  -0.0451
  C  C447  1  0.843540  0.166700  0.381860  1.0  -0.0524
  C  C448  1  0.824530  0.137700  0.372560  1.0  -0.1189
  C  C449  1  0.548920  0.722540  0.676520  1.0  0.731
  C  C450  1  0.577560  0.699920  0.666520  1.0  -0.1043
  C  C451  1  0.588770  0.670430  0.685450  1.0  -0.0469
  C  C452  1  0.618140  0.656460  0.666667  1.0  -0.0427
  C  C453  1  0.627440  0.675470  0.637700  1.0  -0.115
  C  C454  1  0.548920  0.222540  0.176520  1.0  0.731
  C  C455  1  0.577560  0.199920  0.166520  1.0  -0.1042
  C  C456  1  0.588770  0.170430  0.185450  1.0  -0.0455
  C  C457  1  0.618140  0.156460  0.166700  1.0  -0.0526
  C  C458  1  0.627440  0.175470  0.137700  1.0  -0.1178
  C  C459  1  0.048920  0.722540  0.176520  1.0  0.731
  C  C460  1  0.077560  0.699920  0.166520  1.0  -0.1042
  C  C461  1  0.088770  0.670430  0.185450  1.0  -0.0471
  C  C462  1  0.118140  0.656460  0.166700  1.0  -0.0553
  C  C463  1  0.127440  0.675470  0.137700  1.0  -0.1118
  C  C464  1  0.048920  0.222540  0.676520  1.0  0.731
  C  C465  1  0.077560  0.199920  0.666520  1.0  -0.1043
  C  C466  1  0.088770  0.170430  0.685450  1.0  -0.0461
  C  C467  1  0.118140  0.156460  0.666667  1.0  -0.0478
  C  C468  1  0.127440  0.175470  0.637700  1.0  -0.1138
  C  C469  1  0.451080  0.722540  0.323480  1.0  0.7298
  C  C470  1  0.422440  0.699920  0.333480  1.0  -0.103
  C  C471  1  0.411230  0.670430  0.314550  1.0  -0.0457
  C  C472  1  0.381860  0.656460  0.333333  1.0  -0.0423
  C  C473  1  0.372560  0.675470  0.362300  1.0  -0.1154
  C  C474  1  0.451080  0.222540  0.823480  1.0  0.7298
  C  C475  1  0.422440  0.199920  0.833480  1.0  -0.103
  C  C476  1  0.411230  0.170430  0.814550  1.0  -0.0443
  C  C477  1  0.381860  0.156460  0.833300  1.0  -0.0521
  C  C478  1  0.372560  0.175470  0.862300  1.0  -0.1183
  C  C479  1  0.951080  0.722540  0.823480  1.0  0.7298
  C  C480  1  0.922440  0.699920  0.833480  1.0  -0.103
  C  C481  1  0.911230  0.670430  0.814550  1.0  -0.0459
  C  C482  1  0.881860  0.656460  0.833300  1.0  -0.0549
  C  C483  1  0.872560  0.675470  0.862300  1.0  -0.1122
  C  C484  1  0.951080  0.222540  0.323480  1.0  0.7298
  C  C485  1  0.922440  0.199920  0.333480  1.0  -0.103
  C  C486  1  0.911230  0.170430  0.314550  1.0  -0.0446
  C  C487  1  0.881860  0.156460  0.333333  1.0  -0.0473
  C  C488  1  0.872560  0.175470  0.362300  1.0  -0.1139
  C  C489  1  0.548920  0.277460  0.323480  1.0  0.7307
  C  C490  1  0.577560  0.300080  0.333480  1.0  -0.1029
  C  C491  1  0.588770  0.329570  0.314550  1.0  -0.0469
  C  C492  1  0.618140  0.343540  0.333333  1.0  -0.0428
  C  C493  1  0.627440  0.324530  0.362300  1.0  -0.1155
  C  C494  1  0.548920  0.777460  0.823480  1.0  0.7307
  C  C495  1  0.577560  0.800080  0.833480  1.0  -0.1028
  C  C496  1  0.588770  0.829570  0.814550  1.0  -0.0456
  C  C497  1  0.618140  0.843540  0.833300  1.0  -0.0526
  C  C498  1  0.627440  0.824530  0.862300  1.0  -0.1185
  C  C499  1  0.048920  0.277460  0.823480  1.0  0.7307
  C  C500  1  0.077560  0.300080  0.833480  1.0  -0.1028
  C  C501  1  0.088770  0.329570  0.814550  1.0  -0.047
  C  C502  1  0.118140  0.343540  0.833300  1.0  -0.0554
  C  C503  1  0.127440  0.324530  0.862300  1.0  -0.112
  C  C504  1  0.048920  0.777460  0.323480  1.0  0.7307
  C  C505  1  0.077560  0.800080  0.333480  1.0  -0.1029
  C  C506  1  0.088770  0.829570  0.314550  1.0  -0.046
  C  C507  1  0.118140  0.843540  0.333333  1.0  -0.0478
  C  C508  1  0.127440  0.824530  0.362300  1.0  -0.1139
  C  C509  1  0.451080  0.277460  0.676520  1.0  0.7306
  C  C510  1  0.422440  0.300080  0.666520  1.0  -0.1054
  C  C511  1  0.411230  0.329570  0.685450  1.0  -0.0463
  C  C512  1  0.381860  0.343540  0.666667  1.0  -0.0424
  C  C513  1  0.372560  0.324530  0.637700  1.0  -0.1154
  C  C514  1  0.451080  0.777460  0.176520  1.0  0.7306
  C  C515  1  0.422440  0.800080  0.166520  1.0  -0.1053
  C  C516  1  0.411230  0.829570  0.185450  1.0  -0.0447
  C  C517  1  0.381860  0.843540  0.166700  1.0  -0.0522
  C  C518  1  0.372560  0.824530  0.137700  1.0  -0.1183
  C  C519  1  0.951080  0.277460  0.176520  1.0  0.7306
  C  C520  1  0.922440  0.300080  0.166520  1.0  -0.1053
  C  C521  1  0.911230  0.329570  0.185450  1.0  -0.0464
  C  C522  1  0.881860  0.343540  0.166700  1.0  -0.0551
  C  C523  1  0.872560  0.324530  0.137700  1.0  -0.1121
  C  C524  1  0.951080  0.777460  0.676520  1.0  0.7306
  C  C525  1  0.922440  0.800080  0.666520  1.0  -0.1054
  C  C526  1  0.911230  0.829570  0.685450  1.0  -0.0454
  C  C527  1  0.881860  0.843540  0.666667  1.0  -0.0475
  C  C528  1  0.872560  0.824530  0.637700  1.0  -0.114
  C  C529  1  0.048920  0.176520  0.777460  1.0  0.7309
  C  C530  1  0.077560  0.166520  0.800080  1.0  -0.1029
  C  C531  1  0.088770  0.185450  0.829570  1.0  -0.0453
  C  C532  1  0.118140  0.166700  0.843540  1.0  -0.0505
  C  C533  1  0.127440  0.137700  0.824530  1.0  -0.1208
  C  C534  1  0.048920  0.676520  0.277460  1.0  0.7309
  C  C535  1  0.077560  0.666520  0.300080  1.0  -0.1029
  C  C536  1  0.088770  0.685450  0.329570  1.0  -0.0462
  C  C537  1  0.118140  0.666667  0.343540  1.0  -0.047
  C  C538  1  0.127440  0.637700  0.324530  1.0  -0.1155
  C  C539  1  0.548920  0.176520  0.277460  1.0  0.7309
  C  C540  1  0.577560  0.166520  0.300080  1.0  -0.1029
  C  C541  1  0.588770  0.185450  0.329570  1.0  -0.0468
  C  C542  1  0.618140  0.166700  0.343540  1.0  -0.0555
  C  C543  1  0.627440  0.137700  0.324530  1.0  -0.1144
  C  C544  1  0.548920  0.676520  0.777460  1.0  0.7309
  C  C545  1  0.577560  0.666520  0.800080  1.0  -0.1029
  C  C546  1  0.588770  0.685450  0.829570  1.0  -0.0458
  C  C547  1  0.618140  0.666667  0.843540  1.0  -0.0499
  C  C548  1  0.627440  0.637700  0.824530  1.0  -0.1171
  C  C549  1  0.951080  0.823480  0.777460  1.0  0.7296
  C  C550  1  0.922440  0.833480  0.800080  1.0  -0.1029
  C  C551  1  0.911230  0.814550  0.829570  1.0  -0.0438
  C  C552  1  0.881860  0.833300  0.843540  1.0  -0.0498
  C  C553  1  0.872560  0.862300  0.824530  1.0  -0.1193
  C  C554  1  0.951080  0.323480  0.277460  1.0  0.7296
  C  C555  1  0.922440  0.333480  0.300080  1.0  -0.1029
  C  C556  1  0.911230  0.314550  0.329570  1.0  -0.0451
  C  C557  1  0.881860  0.333333  0.343540  1.0  -0.0465
  C  C558  1  0.872560  0.362300  0.324530  1.0  -0.1139
  C  C559  1  0.451080  0.823480  0.277460  1.0  0.7296
  C  C560  1  0.422440  0.833480  0.300080  1.0  -0.1029
  C  C561  1  0.411230  0.814550  0.329570  1.0  -0.0454
  C  C562  1  0.381860  0.833300  0.343540  1.0  -0.0549
  C  C563  1  0.372560  0.862300  0.324530  1.0  -0.1128
  C  C564  1  0.451080  0.323480  0.777460  1.0  0.7296
  C  C565  1  0.422440  0.333480  0.800080  1.0  -0.1029
  C  C566  1  0.411230  0.314550  0.829570  1.0  -0.0443
  C  C567  1  0.381860  0.333333  0.843540  1.0  -0.0495
  C  C568  1  0.372560  0.362300  0.824530  1.0  -0.1156
  C  C569  1  0.048920  0.823480  0.222540  1.0  0.7302
  C  C570  1  0.077560  0.833480  0.199920  1.0  -0.1028
  C  C571  1  0.088770  0.814550  0.170430  1.0  -0.0461
  C  C572  1  0.118140  0.833300  0.156460  1.0  -0.0501
  C  C573  1  0.127440  0.862300  0.175470  1.0  -0.1184
  C  C574  1  0.048920  0.323480  0.722540  1.0  0.7302
  C  C575  1  0.077560  0.333480  0.699920  1.0  -0.1028
  C  C576  1  0.088770  0.314550  0.670430  1.0  -0.0472
  C  C577  1  0.118140  0.333333  0.656460  1.0  -0.0467
  C  C578  1  0.127440  0.362300  0.675470  1.0  -0.1134
  C  C579  1  0.548920  0.823480  0.722540  1.0  0.7302
  C  C580  1  0.577560  0.833480  0.699920  1.0  -0.1028
  C  C581  1  0.588770  0.814550  0.670430  1.0  -0.0476
  C  C582  1  0.618140  0.833300  0.656460  1.0  -0.0552
  C  C583  1  0.627440  0.862300  0.675470  1.0  -0.1117
  C  C584  1  0.548920  0.323480  0.222540  1.0  0.7302
  C  C585  1  0.577560  0.333480  0.199920  1.0  -0.1028
  C  C586  1  0.588770  0.314550  0.170430  1.0  -0.0464
  C  C587  1  0.618140  0.333333  0.156460  1.0  -0.0497
  C  C588  1  0.627440  0.362300  0.175470  1.0  -0.1152
  C  C589  1  0.951080  0.176520  0.222540  1.0  0.7308
  C  C590  1  0.922440  0.166520  0.199920  1.0  -0.1035
  C  C591  1  0.911230  0.185450  0.170430  1.0  -0.0445
  C  C592  1  0.881860  0.166700  0.156460  1.0  -0.0501
  C  C593  1  0.872560  0.137700  0.175470  1.0  -0.1183
  C  C594  1  0.951080  0.676520  0.722540  1.0  0.7308
  C  C595  1  0.922440  0.666520  0.699920  1.0  -0.1035
  C  C596  1  0.911230  0.685450  0.670430  1.0  -0.0455
  C  C597  1  0.881860  0.666667  0.656460  1.0  -0.0467
  C  C598  1  0.872560  0.637700  0.675470  1.0  -0.113
  C  C599  1  0.451080  0.176520  0.722540  1.0  0.7308
  C  C600  1  0.422440  0.166520  0.699920  1.0  -0.1035
  C  C601  1  0.411230  0.185450  0.670430  1.0  -0.0461
  C  C602  1  0.381860  0.166700  0.656460  1.0  -0.0553
  C  C603  1  0.372560  0.137700  0.675470  1.0  -0.1119
  C  C604  1  0.451080  0.676520  0.222540  1.0  0.7308
  C  C605  1  0.422440  0.666520  0.199920  1.0  -0.1035
  C  C606  1  0.411230  0.685450  0.170430  1.0  -0.0448
  C  C607  1  0.381860  0.666667  0.156460  1.0  -0.0497
  C  C608  1  0.372560  0.637700  0.175470  1.0  -0.1149
  C  C609  1  0.176520  0.222540  0.951080  1.0  0.7315
  C  C610  1  0.166520  0.199920  0.922440  1.0  -0.1023
  C  C611  1  0.185450  0.170430  0.911230  1.0  -0.0447
  C  C612  1  0.166700  0.156460  0.881860  1.0  -0.0498
  C  C613  1  0.137700  0.175470  0.872560  1.0  -0.1178
  C  C614  1  0.176520  0.722540  0.451080  1.0  0.7315
  C  C615  1  0.166520  0.699920  0.422440  1.0  -0.1023
  C  C616  1  0.185450  0.670430  0.411230  1.0  -0.0461
  C  C617  1  0.166700  0.656460  0.381860  1.0  -0.0545
  C  C618  1  0.137700  0.675470  0.372560  1.0  -0.1117
  C  C619  1  0.676520  0.222540  0.451080  1.0  0.7315
  C  C620  1  0.666520  0.199920  0.422440  1.0  -0.1023
  C  C621  1  0.685450  0.170430  0.411230  1.0  -0.0453
  C  C622  1  0.666667  0.156460  0.381860  1.0  -0.0489
  C  C623  1  0.637700  0.175470  0.372560  1.0  -0.1154
  C  C624  1  0.676520  0.722540  0.951080  1.0  0.7315
  C  C625  1  0.666520  0.699920  0.922440  1.0  -0.1023
  C  C626  1  0.685450  0.670430  0.911230  1.0  -0.046
  C  C627  1  0.666667  0.656460  0.881860  1.0  -0.046
  C  C628  1  0.637700  0.675470  0.872560  1.0  -0.1124
  C  C629  1  0.823480  0.222540  0.048920  1.0  0.7328
  C  C630  1  0.833480  0.199920  0.077560  1.0  -0.1012
  C  C631  1  0.814550  0.170430  0.088770  1.0  -0.0454
  C  C632  1  0.833300  0.156460  0.118140  1.0  -0.0495
  C  C633  1  0.862300  0.175470  0.127440  1.0  -0.1172
  C  C634  1  0.823480  0.722540  0.548920  1.0  0.7328
  C  C635  1  0.833480  0.699920  0.577560  1.0  -0.1012
  C  C636  1  0.814550  0.670430  0.588770  1.0  -0.0471
  C  C637  1  0.833300  0.656460  0.618140  1.0  -0.0543
  C  C638  1  0.862300  0.675470  0.627440  1.0  -0.1117
  C  C639  1  0.323480  0.222540  0.548920  1.0  0.7328
  C  C640  1  0.333480  0.199920  0.577560  1.0  -0.1012
  C  C641  1  0.314550  0.170430  0.588770  1.0  -0.0461
  C  C642  1  0.333333  0.156460  0.618140  1.0  -0.0488
  C  C643  1  0.362300  0.175470  0.627440  1.0  -0.1151
  C  C644  1  0.323480  0.722540  0.048920  1.0  0.7328
  C  C645  1  0.333480  0.699920  0.077560  1.0  -0.1012
  C  C646  1  0.314550  0.670430  0.088770  1.0  -0.0466
  C  C647  1  0.333333  0.656460  0.118140  1.0  -0.0457
  C  C648  1  0.362300  0.675470  0.127440  1.0  -0.1126
  C  C649  1  0.823480  0.777460  0.951080  1.0  0.7336
  C  C650  1  0.833480  0.800080  0.922440  1.0  -0.1015
  C  C651  1  0.814550  0.829570  0.911230  1.0  -0.0457
  C  C652  1  0.833300  0.843540  0.881860  1.0  -0.0499
  C  C653  1  0.862300  0.824530  0.872560  1.0  -0.1179
  C  C654  1  0.823480  0.277460  0.451080  1.0  0.7336
  C  C655  1  0.833480  0.300080  0.422440  1.0  -0.1015
  C  C656  1  0.814550  0.329570  0.411230  1.0  -0.0473
  C  C657  1  0.833300  0.343540  0.381860  1.0  -0.0546
  C  C658  1  0.862300  0.324530  0.372560  1.0  -0.1118
  C  C659  1  0.323480  0.777460  0.451080  1.0  0.7336
  C  C660  1  0.333480  0.800080  0.422440  1.0  -0.1015
  C  C661  1  0.314550  0.829570  0.411230  1.0  -0.0465
  C  C662  1  0.333333  0.843540  0.381860  1.0  -0.0491
  C  C663  1  0.362300  0.824530  0.372560  1.0  -0.1152
  C  C664  1  0.323480  0.277460  0.951080  1.0  0.7336
  C  C665  1  0.333480  0.300080  0.922440  1.0  -0.1015
  C  C666  1  0.314550  0.329570  0.911230  1.0  -0.0472
  C  C667  1  0.333333  0.343540  0.881860  1.0  -0.046
  C  C668  1  0.362300  0.324530  0.872560  1.0  -0.1129
  C  C669  1  0.176520  0.777460  0.048920  1.0  0.7312
  C  C670  1  0.166520  0.800080  0.077560  1.0  -0.1023
  C  C671  1  0.185450  0.829570  0.088770  1.0  -0.0451
  C  C672  1  0.166700  0.843540  0.118140  1.0  -0.0497
  C  C673  1  0.137700  0.824530  0.127440  1.0  -0.1186
  C  C674  1  0.176520  0.277460  0.548920  1.0  0.7312
  C  C675  1  0.166520  0.300080  0.577560  1.0  -0.1023
  C  C676  1  0.185450  0.329570  0.588770  1.0  -0.0464
  C  C677  1  0.166700  0.343540  0.618140  1.0  -0.0545
  C  C678  1  0.137700  0.324530  0.627440  1.0  -0.1126
  C  C679  1  0.676520  0.777460  0.548920  1.0  0.7312
  C  C680  1  0.666520  0.800080  0.577560  1.0  -0.1023
  C  C681  1  0.685450  0.829570  0.588770  1.0  -0.0457
  C  C682  1  0.666667  0.843540  0.618140  1.0  -0.0489
  C  C683  1  0.637700  0.824530  0.627440  1.0  -0.1159
  C  C684  1  0.676520  0.277460  0.048920  1.0  0.7312
  C  C685  1  0.666520  0.300080  0.077560  1.0  -0.1023
  C  C686  1  0.685450  0.329570  0.088770  1.0  -0.0461
  C  C687  1  0.666667  0.343540  0.118140  1.0  -0.0459
  C  C688  1  0.637700  0.324530  0.127440  1.0  -0.1133
  C  C689  1  0.222540  0.048920  0.823480  1.0  0.7306
  C  C690  1  0.199920  0.077560  0.833480  1.0  -0.1023
  C  C691  1  0.170430  0.088770  0.814550  1.0  -0.047
  C  C692  1  0.156460  0.118140  0.833300  1.0  -0.0489
  C  C693  1  0.175470  0.127440  0.862300  1.0  -0.1167
  C  C694  1  0.222540  0.548920  0.323480  1.0  0.7306
  C  C695  1  0.199920  0.577560  0.333480  1.0  -0.1023
  C  C696  1  0.170430  0.588770  0.314550  1.0  -0.0476
  C  C697  1  0.156460  0.618140  0.333333  1.0  -0.0481
  C  C698  1  0.175470  0.627440  0.362300  1.0  -0.1136
  C  C699  1  0.722540  0.048920  0.323480  1.0  0.7306
  C  C700  1  0.699920  0.077560  0.333480  1.0  -0.1023
  C  C701  1  0.670430  0.088770  0.314550  1.0  -0.0484
  C  C702  1  0.656460  0.118140  0.333333  1.0  -0.0451
  C  C703  1  0.675470  0.127440  0.362300  1.0  -0.112
  C  C704  1  0.722540  0.548920  0.823480  1.0  0.7306
  C  C705  1  0.699920  0.577560  0.833480  1.0  -0.1023
  C  C706  1  0.670430  0.588770  0.814550  1.0  -0.0484
  C  C707  1  0.656460  0.618140  0.833300  1.0  -0.0536
  C  C708  1  0.675470  0.627440  0.862300  1.0  -0.1105
  C  C709  1  0.222540  0.951080  0.176520  1.0  0.7313
  C  C710  1  0.199920  0.922440  0.166520  1.0  -0.104
  C  C711  1  0.170430  0.911230  0.185450  1.0  -0.0475
  C  C712  1  0.156460  0.881860  0.166700  1.0  -0.0493
  C  C713  1  0.175470  0.872560  0.137700  1.0  -0.1163
  C  C714  1  0.222540  0.451080  0.676520  1.0  0.7313
  C  C715  1  0.199920  0.422440  0.666520  1.0  -0.1041
  C  C716  1  0.170430  0.411230  0.685450  1.0  -0.0485
  C  C717  1  0.156460  0.381860  0.666667  1.0  -0.0487
  C  C718  1  0.175470  0.372560  0.637700  1.0  -0.1137
  C  C719  1  0.722540  0.951080  0.676520  1.0  0.7313
  C  C720  1  0.699920  0.922440  0.666520  1.0  -0.1041
  C  C721  1  0.670430  0.911230  0.685450  1.0  -0.049
  C  C722  1  0.656460  0.881860  0.666667  1.0  -0.0456
  C  C723  1  0.675470  0.872560  0.637700  1.0  -0.1122
  C  C724  1  0.722540  0.451080  0.176520  1.0  0.7313
  C  C725  1  0.699920  0.422440  0.166520  1.0  -0.104
  C  C726  1  0.670430  0.411230  0.185450  1.0  -0.0491
  C  C727  1  0.656460  0.381860  0.166700  1.0  -0.054
  C  C728  1  0.675470  0.372560  0.137700  1.0  -0.1103
  C  C729  1  0.777460  0.048920  0.176520  1.0  0.731
  C  C730  1  0.800080  0.077560  0.166520  1.0  -0.1048
  C  C731  1  0.829570  0.088770  0.185450  1.0  -0.0458
  C  C732  1  0.843540  0.118140  0.166700  1.0  -0.0492
  C  C733  1  0.824530  0.127440  0.137700  1.0  -0.1186
  C  C734  1  0.777460  0.548920  0.676520  1.0  0.731
  C  C735  1  0.800080  0.577560  0.666520  1.0  -0.1049
  C  C736  1  0.829570  0.588770  0.685450  1.0  -0.0467
  C  C737  1  0.843540  0.618140  0.666667  1.0  -0.0483
  C  C738  1  0.824530  0.627440  0.637700  1.0  -0.1154
  C  C739  1  0.277460  0.048920  0.676520  1.0  0.731
  C  C740  1  0.300080  0.077560  0.666520  1.0  -0.1049
  C  C741  1  0.329570  0.088770  0.685450  1.0  -0.0471
  C  C742  1  0.343540  0.118140  0.666667  1.0  -0.0454
  C  C743  1  0.324530  0.127440  0.637700  1.0  -0.1141
  C  C744  1  0.277460  0.548920  0.176520  1.0  0.731
  C  C745  1  0.300080  0.577560  0.166520  1.0  -0.1048
  C  C746  1  0.329570  0.588770  0.185450  1.0  -0.0472
  C  C747  1  0.343540  0.618140  0.166700  1.0  -0.0539
  C  C748  1  0.324530  0.627440  0.137700  1.0  -0.1125
  C  C749  1  0.777460  0.951080  0.823480  1.0  0.7307
  C  C750  1  0.800080  0.922440  0.833480  1.0  -0.1031
  C  C751  1  0.829570  0.911230  0.814550  1.0  -0.0464
  C  C752  1  0.843540  0.881860  0.833300  1.0  -0.0493
  C  C753  1  0.824530  0.872560  0.862300  1.0  -0.1177
  C  C754  1  0.777460  0.451080  0.323480  1.0  0.7307
  C  C755  1  0.800080  0.422440  0.333480  1.0  -0.1031
  C  C756  1  0.829570  0.411230  0.314550  1.0  -0.0468
  C  C757  1  0.843540  0.381860  0.333333  1.0  -0.0484
  C  C758  1  0.824530  0.372560  0.362300  1.0  -0.1144
  C  C759  1  0.277460  0.951080  0.323480  1.0  0.7307
  C  C760  1  0.300080  0.922440  0.333480  1.0  -0.1031
  C  C761  1  0.329570  0.911230  0.314550  1.0  -0.0473
  C  C762  1  0.343540  0.881860  0.333333  1.0  -0.0454
  C  C763  1  0.324530  0.872560  0.362300  1.0  -0.1126
  C  C764  1  0.277460  0.451080  0.823480  1.0  0.7307
  C  C765  1  0.300080  0.422440  0.833480  1.0  -0.1031
  C  C766  1  0.329570  0.411230  0.814550  1.0  -0.0476
  C  C767  1  0.343540  0.381860  0.833300  1.0  -0.0537
  C  C768  1  0.324530  0.372560  0.862300  1.0  -0.1112
  C  C769  1  0.323480  0.451080  0.277460  1.0  0.7324
  C  C770  1  0.333480  0.422440  0.300080  1.0  -0.1011
  C  C771  1  0.314550  0.411230  0.329570  1.0  -0.0477
  C  C772  1  0.333333  0.381860  0.343540  1.0  -0.0423
  C  C773  1  0.362300  0.372560  0.324530  1.0  -0.1148
  C  C774  1  0.323480  0.951080  0.777460  1.0  0.7324
  C  C775  1  0.333480  0.922440  0.800080  1.0  -0.1011
  C  C776  1  0.314550  0.911230  0.829570  1.0  -0.0473
  C  C777  1  0.333333  0.881860  0.843540  1.0  -0.0478
  C  C778  1  0.362300  0.872560  0.824530  1.0  -0.1138
  C  C779  1  0.823480  0.451080  0.777460  1.0  0.7324
  C  C780  1  0.833480  0.422440  0.800080  1.0  -0.1012
  C  C781  1  0.814550  0.411230  0.829570  1.0  -0.0465
  C  C782  1  0.833300  0.381860  0.843540  1.0  -0.0519
  C  C783  1  0.862300  0.372560  0.824530  1.0  -0.1181
  C  C784  1  0.823480  0.951080  0.277460  1.0  0.7324
  C  C785  1  0.833480  0.922440  0.300080  1.0  -0.1012
  C  C786  1  0.814550  0.911230  0.329570  1.0  -0.0481
  C  C787  1  0.833300  0.881860  0.343540  1.0  -0.0551
  C  C788  1  0.862300  0.872560  0.324530  1.0  -0.1119
  C  C789  1  0.676520  0.548920  0.277460  1.0  0.7308
  C  C790  1  0.666520  0.577560  0.300080  1.0  -0.1022
  C  C791  1  0.685450  0.588770  0.329570  1.0  -0.0465
  C  C792  1  0.666667  0.618140  0.343540  1.0  -0.0424
  C  C793  1  0.637700  0.627440  0.324530  1.0  -0.1172
  C  C794  1  0.676520  0.048920  0.777460  1.0  0.7308
  C  C795  1  0.666520  0.077560  0.800080  1.0  -0.1022
  C  C796  1  0.685450  0.088770  0.829570  1.0  -0.0459
  C  C797  1  0.666667  0.118140  0.843540  1.0  -0.0476
  C  C798  1  0.637700  0.127440  0.824530  1.0  -0.1156
  C  C799  1  0.176520  0.548920  0.777460  1.0  0.7308
  C  C800  1  0.166520  0.577560  0.800080  1.0  -0.1022
  C  C801  1  0.185450  0.588770  0.829570  1.0  -0.0451
  C  C802  1  0.166700  0.618140  0.843540  1.0  -0.0517
  C  C803  1  0.137700  0.627440  0.824530  1.0  -0.1205
  C  C804  1  0.176520  0.048920  0.277460  1.0  0.7308
  C  C805  1  0.166520  0.077560  0.300080  1.0  -0.1022
  C  C806  1  0.185450  0.088770  0.329570  1.0  -0.0465
  C  C807  1  0.166700  0.118140  0.343540  1.0  -0.055
  C  C808  1  0.137700  0.127440  0.324530  1.0  -0.1138
  C  C809  1  0.676520  0.451080  0.722540  1.0  0.7309
  C  C810  1  0.666520  0.422440  0.699920  1.0  -0.1019
  C  C811  1  0.685450  0.411230  0.670430  1.0  -0.0472
  C  C812  1  0.666667  0.381860  0.656460  1.0  -0.0425
  C  C813  1  0.637700  0.372560  0.675470  1.0  -0.1147
  C  C814  1  0.676520  0.951080  0.222540  1.0  0.7309
  C  C815  1  0.666520  0.922440  0.199920  1.0  -0.1019
  C  C816  1  0.685450  0.911230  0.170430  1.0  -0.0469
  C  C817  1  0.666667  0.881860  0.156460  1.0  -0.0478
  C  C818  1  0.637700  0.872560  0.175470  1.0  -0.1128
  C  C819  1  0.176520  0.451080  0.222540  1.0  0.7309
  C  C820  1  0.166520  0.422440  0.199920  1.0  -0.1019
  C  C821  1  0.185450  0.411230  0.170430  1.0  -0.0463
  C  C822  1  0.166700  0.381860  0.156460  1.0  -0.0518
  C  C823  1  0.137700  0.372560  0.175470  1.0  -0.1177
  C  C824  1  0.176520  0.951080  0.722540  1.0  0.7309
  C  C825  1  0.166520  0.922440  0.699920  1.0  -0.1019
  C  C826  1  0.185450  0.911230  0.670430  1.0  -0.0477
  C  C827  1  0.166700  0.881860  0.656460  1.0  -0.055
  C  C828  1  0.137700  0.872560  0.675470  1.0  -0.1108
  C  C829  1  0.323480  0.548920  0.722540  1.0  0.733
  C  C830  1  0.333480  0.577560  0.699920  1.0  -0.1011
  C  C831  1  0.314550  0.588770  0.670430  1.0  -0.0477
  C  C832  1  0.333333  0.618140  0.656460  1.0  -0.0424
  C  C833  1  0.362300  0.627440  0.675470  1.0  -0.1148
  C  C834  1  0.323480  0.048920  0.222540  1.0  0.733
  C  C835  1  0.333480  0.077560  0.199920  1.0  -0.1011
  C  C836  1  0.314550  0.088770  0.170430  1.0  -0.0472
  C  C837  1  0.333333  0.118140  0.156460  1.0  -0.0476
  C  C838  1  0.362300  0.127440  0.175470  1.0  -0.113
  C  C839  1  0.823480  0.548920  0.222540  1.0  0.733
  C  C840  1  0.833480  0.577560  0.199920  1.0  -0.1011
  C  C841  1  0.814550  0.588770  0.170430  1.0  -0.0465
  C  C842  1  0.833300  0.618140  0.156460  1.0  -0.0518
  C  C843  1  0.862300  0.627440  0.175470  1.0  -0.1174
  C  C844  1  0.823480  0.048920  0.722540  1.0  0.733
  C  C845  1  0.833480  0.077560  0.699920  1.0  -0.1011
  C  C846  1  0.814550  0.088770  0.670430  1.0  -0.0481
  C  C847  1  0.833300  0.118140  0.656460  1.0  -0.0549
  C  C848  1  0.862300  0.127440  0.675470  1.0  -0.1112
  C  C849  1  0.277460  0.323480  0.451080  1.0  0.7298
  C  C850  1  0.300080  0.333480  0.422440  1.0  -0.1035
  C  C851  1  0.329570  0.314550  0.411230  1.0  -0.0462
  C  C852  1  0.343540  0.333333  0.381860  1.0  -0.0424
  C  C853  1  0.324530  0.362300  0.372560  1.0  -0.1152
  C  C854  1  0.277460  0.823480  0.951080  1.0  0.7298
  C  C855  1  0.300080  0.833480  0.922440  1.0  -0.1035
  C  C856  1  0.329570  0.814550  0.911230  1.0  -0.0463
  C  C857  1  0.343540  0.833300  0.881860  1.0  -0.0544
  C  C858  1  0.324530  0.862300  0.872560  1.0  -0.1118
  C  C859  1  0.777460  0.323480  0.951080  1.0  0.7298
  C  C860  1  0.800080  0.333480  0.922440  1.0  -0.1035
  C  C861  1  0.829570  0.314550  0.911230  1.0  -0.0454
  C  C862  1  0.843540  0.333333  0.881860  1.0  -0.047
  C  C863  1  0.824530  0.362300  0.872560  1.0  -0.1127
  C  C864  1  0.777460  0.823480  0.451080  1.0  0.7298
  C  C865  1  0.800080  0.833480  0.422440  1.0  -0.1035
  C  C866  1  0.829570  0.814550  0.411230  1.0  -0.045
  C  C867  1  0.843540  0.833300  0.381860  1.0  -0.052
  C  C868  1  0.824530  0.862300  0.372560  1.0  -0.1182
  C  C869  1  0.277460  0.676520  0.548920  1.0  0.7306
  C  C870  1  0.300080  0.666520  0.577560  1.0  -0.1036
  C  C871  1  0.329570  0.685450  0.588770  1.0  -0.0458
  C  C872  1  0.343540  0.666667  0.618140  1.0  -0.0426
  C  C873  1  0.324530  0.637700  0.627440  1.0  -0.1162
  C  C874  1  0.277460  0.176520  0.048920  1.0  0.7306
  C  C875  1  0.300080  0.166520  0.077560  1.0  -0.1036
  C  C876  1  0.329570  0.185450  0.088770  1.0  -0.0465
  C  C877  1  0.343540  0.166700  0.118140  1.0  -0.0548
  C  C878  1  0.324530  0.137700  0.127440  1.0  -0.113
  C  C879  1  0.777460  0.676520  0.048920  1.0  0.7306
  C  C880  1  0.800080  0.666520  0.077560  1.0  -0.1036
  C  C881  1  0.829570  0.685450  0.088770  1.0  -0.0455
  C  C882  1  0.843540  0.666667  0.118140  1.0  -0.0472
  C  C883  1  0.824530  0.637700  0.127440  1.0  -0.1132
  C  C884  1  0.777460  0.176520  0.548920  1.0  0.7306
  C  C885  1  0.800080  0.166520  0.577560  1.0  -0.1036
  C  C886  1  0.829570  0.185450  0.588770  1.0  -0.0452
  C  C887  1  0.843540  0.166700  0.618140  1.0  -0.0522
  C  C888  1  0.824530  0.137700  0.627440  1.0  -0.1191
  C  C889  1  0.722540  0.676520  0.451080  1.0  0.7313
  C  C890  1  0.699920  0.666520  0.422440  1.0  -0.1028
  C  C891  1  0.670430  0.685450  0.411230  1.0  -0.0472
  C  C892  1  0.656460  0.666667  0.381860  1.0  -0.0423
  C  C893  1  0.675470  0.637700  0.372560  1.0  -0.1143
  C  C894  1  0.722540  0.176520  0.951080  1.0  0.7313
  C  C895  1  0.699920  0.166520  0.922440  1.0  -0.1028
  C  C896  1  0.670430  0.185450  0.911230  1.0  -0.0474
  C  C897  1  0.656460  0.166700  0.881860  1.0  -0.0549
  C  C898  1  0.675470  0.137700  0.872560  1.0  -0.1108
  C  C899  1  0.222540  0.676520  0.951080  1.0  0.7313
  C  C900  1  0.199920  0.666520  0.922440  1.0  -0.1028
  C  C901  1  0.170430  0.685450  0.911230  1.0  -0.0465
  C  C902  1  0.156460  0.666667  0.881860  1.0  -0.0474
  C  C903  1  0.175470  0.637700  0.872560  1.0  -0.1124
  C  C904  1  0.222540  0.176520  0.451080  1.0  0.7313
  C  C905  1  0.199920  0.166520  0.422440  1.0  -0.1028
  C  C906  1  0.170430  0.185450  0.411230  1.0  -0.0459
  C  C907  1  0.156460  0.166700  0.381860  1.0  -0.0521
  C  C908  1  0.175470  0.137700  0.372560  1.0  -0.1171
  C  C909  1  0.722540  0.323480  0.548920  1.0  0.7299
  C  C910  1  0.699920  0.333480  0.577560  1.0  -0.1023
  C  C911  1  0.670430  0.314550  0.588770  1.0  -0.0475
  C  C912  1  0.656460  0.333333  0.618140  1.0  -0.042
  C  C913  1  0.675470  0.362300  0.627440  1.0  -0.1142
  C  C914  1  0.722540  0.823480  0.048920  1.0  0.7299
  C  C915  1  0.699920  0.833480  0.077560  1.0  -0.1023
  C  C916  1  0.670430  0.814550  0.088770  1.0  -0.0477
  C  C917  1  0.656460  0.833300  0.118140  1.0  -0.0545
  C  C918  1  0.675470  0.862300  0.127440  1.0  -0.1106
  C  C919  1  0.222540  0.323480  0.048920  1.0  0.7299
  C  C920  1  0.199920  0.333480  0.077560  1.0  -0.1023
  C  C921  1  0.170430  0.314550  0.088770  1.0  -0.0468
  C  C922  1  0.156460  0.333333  0.118140  1.0  -0.047
  C  C923  1  0.175470  0.362300  0.127440  1.0  -0.1121
  C  C924  1  0.222540  0.823480  0.548920  1.0  0.7299
  C  C925  1  0.199920  0.833480  0.577560  1.0  -0.1023
  C  C926  1  0.170430  0.814550  0.588770  1.0  -0.0463
  C  C927  1  0.156460  0.833300  0.618140  1.0  -0.0516
  C  C928  1  0.175470  0.862300  0.627440  1.0  -0.1169
  C  C929  1  0.451080  0.277460  0.323480  1.0  0.73
  C  C930  1  0.422440  0.300080  0.333480  1.0  -0.1032
  C  C931  1  0.411230  0.329570  0.314550  1.0  -0.0459
  C  C932  1  0.381860  0.343540  0.333333  1.0  -0.0423
  C  C933  1  0.372560  0.324530  0.362300  1.0  -0.1153
  C  C934  1  0.451080  0.777460  0.823480  1.0  0.73
  C  C935  1  0.422440  0.800080  0.833480  1.0  -0.1032
  C  C936  1  0.411230  0.829570  0.814550  1.0  -0.0445
  C  C937  1  0.381860  0.843540  0.833300  1.0  -0.052
  C  C938  1  0.372560  0.824530  0.862300  1.0  -0.1182
  C  C939  1  0.951080  0.277460  0.823480  1.0  0.73
  C  C940  1  0.922440  0.300080  0.833480  1.0  -0.1032
  C  C941  1  0.911230  0.329570  0.814550  1.0  -0.046
  C  C942  1  0.881860  0.343540  0.833300  1.0  -0.0549
  C  C943  1  0.872560  0.324530  0.862300  1.0  -0.1118
  C  C944  1  0.951080  0.777460  0.323480  1.0  0.73
  C  C945  1  0.922440  0.800080  0.333480  1.0  -0.1032
  C  C946  1  0.911230  0.829570  0.314550  1.0  -0.0449
  C  C947  1  0.881860  0.843540  0.333333  1.0  -0.0473
  C  C948  1  0.872560  0.824530  0.362300  1.0  -0.1135
  C  C949  1  0.548920  0.277460  0.676520  1.0  0.7313
  C  C950  1  0.577560  0.300080  0.666520  1.0  -0.1049
  C  C951  1  0.588770  0.329570  0.685450  1.0  -0.0473
  C  C952  1  0.618140  0.343540  0.666667  1.0  -0.0429
  C  C953  1  0.627440  0.324530  0.637700  1.0  -0.116
  C  C954  1  0.548920  0.777460  0.176520  1.0  0.7313
  C  C955  1  0.577560  0.800080  0.166520  1.0  -0.1048
  C  C956  1  0.588770  0.829570  0.185450  1.0  -0.0459
  C  C957  1  0.618140  0.843540  0.166700  1.0  -0.0527
  C  C958  1  0.627440  0.824530  0.137700  1.0  -0.1189
  C  C959  1  0.048920  0.277460  0.176520  1.0  0.7313
  C  C960  1  0.077560  0.300080  0.166520  1.0  -0.1048
  C  C961  1  0.088770  0.329570  0.185450  1.0  -0.0474
  C  C962  1  0.118140  0.343540  0.166700  1.0  -0.0555
  C  C963  1  0.127440  0.324530  0.137700  1.0  -0.1127
  C  C964  1  0.048920  0.777460  0.676520  1.0  0.7313
  C  C965  1  0.077560  0.800080  0.666520  1.0  -0.1049
  C  C966  1  0.088770  0.829570  0.685450  1.0  -0.0466
  C  C967  1  0.118140  0.843540  0.666667  1.0  -0.0479
  C  C968  1  0.127440  0.824530  0.637700  1.0  -0.115
  C  C969  1  0.451080  0.722540  0.676520  1.0  0.7304
  C  C970  1  0.422440  0.699920  0.666520  1.0  -0.1048
  C  C971  1  0.411230  0.670430  0.685450  1.0  -0.0458
  C  C972  1  0.381860  0.656460  0.666667  1.0  -0.0423
  C  C973  1  0.372560  0.675470  0.637700  1.0  -0.1149
  C  C974  1  0.451080  0.222540  0.176520  1.0  0.7304
  C  C975  1  0.422440  0.199920  0.166520  1.0  -0.1047
  C  C976  1  0.411230  0.170430  0.185450  1.0  -0.0443
  C  C977  1  0.381860  0.156460  0.166700  1.0  -0.0521
  C  C978  1  0.372560  0.175470  0.137700  1.0  -0.1177
  C  C979  1  0.951080  0.722540  0.176520  1.0  0.7304
  C  C980  1  0.922440  0.699920  0.166520  1.0  -0.1047
  C  C981  1  0.911230  0.670430  0.185450  1.0  -0.046
  C  C982  1  0.881860  0.656460  0.166700  1.0  -0.0549
  C  C983  1  0.872560  0.675470  0.137700  1.0  -0.1118
  C  C984  1  0.951080  0.222540  0.676520  1.0  0.7304
  C  C985  1  0.922440  0.199920  0.666520  1.0  -0.1048
  C  C986  1  0.911230  0.170430  0.685450  1.0  -0.0449
  C  C987  1  0.881860  0.156460  0.666667  1.0  -0.0473
  C  C988  1  0.872560  0.175470  0.637700  1.0  -0.1135
  C  C989  1  0.548920  0.722540  0.323480  1.0  0.7304
  C  C990  1  0.577560  0.699920  0.333480  1.0  -0.1028
  C  C991  1  0.588770  0.670430  0.314550  1.0  -0.0467
  C  C992  1  0.618140  0.656460  0.333333  1.0  -0.0427
  C  C993  1  0.627440  0.675470  0.362300  1.0  -0.1152
  C  C994  1  0.548920  0.222540  0.823480  1.0  0.7304
  C  C995  1  0.577560  0.199920  0.833480  1.0  -0.1028
  C  C996  1  0.588770  0.170430  0.814550  1.0  -0.0453
  C  C997  1  0.618140  0.156460  0.833300  1.0  -0.0526
  C  C998  1  0.627440  0.175470  0.862300  1.0  -0.1182
  C  C999  1  0.048920  0.722540  0.823480  1.0  0.7304
  C  C1000  1  0.077560  0.699920  0.833480  1.0  -0.1028
  C  C1001  1  0.088770  0.670430  0.814550  1.0  -0.0469
  C  C1002  1  0.118140  0.656460  0.833300  1.0  -0.0553
  C  C1003  1  0.127440  0.675470  0.862300  1.0  -0.1118
  C  C1004  1  0.048920  0.222540  0.323480  1.0  0.7304
  C  C1005  1  0.077560  0.199920  0.333480  1.0  -0.1028
  C  C1006  1  0.088770  0.170430  0.314550  1.0  -0.0457
  C  C1007  1  0.118140  0.156460  0.333333  1.0  -0.0477
  C  C1008  1  0.127440  0.175470  0.362300  1.0  -0.1138
  C  C1009  1  0.951080  0.823480  0.222540  1.0  0.7297
  C  C1010  1  0.922440  0.833480  0.199920  1.0  -0.103
  C  C1011  1  0.911230  0.814550  0.170430  1.0  -0.0445
  C  C1012  1  0.881860  0.833300  0.156460  1.0  -0.0497
  C  C1013  1  0.872560  0.862300  0.175470  1.0  -0.1184
  C  C1014  1  0.951080  0.323480  0.722540  1.0  0.7297
  C  C1015  1  0.922440  0.333480  0.699920  1.0  -0.103
  C  C1016  1  0.911230  0.314550  0.670430  1.0  -0.0456
  C  C1017  1  0.881860  0.333333  0.656460  1.0  -0.0465
  C  C1018  1  0.872560  0.362300  0.675470  1.0  -0.1134
  C  C1019  1  0.451080  0.823480  0.722540  1.0  0.7297
  C  C1020  1  0.422440  0.833480  0.699920  1.0  -0.103
  C  C1021  1  0.411230  0.814550  0.670430  1.0  -0.046
  C  C1022  1  0.381860  0.833300  0.656460  1.0  -0.055
  C  C1023  1  0.372560  0.862300  0.675470  1.0  -0.1118
  C  C1024  1  0.451080  0.323480  0.222540  1.0  0.7297
  C  C1025  1  0.422440  0.333480  0.199920  1.0  -0.103
  C  C1026  1  0.411230  0.314550  0.170430  1.0  -0.0448
  C  C1027  1  0.381860  0.333333  0.156460  1.0  -0.0496
  C  C1028  1  0.372560  0.362300  0.175470  1.0  -0.1151
  C  C1029  1  0.048920  0.176520  0.222540  1.0  0.7316
  C  C1030  1  0.077560  0.166520  0.199920  1.0  -0.1032
  C  C1031  1  0.088770  0.185450  0.170430  1.0  -0.0457
  C  C1032  1  0.118140  0.166700  0.156460  1.0  -0.0505
  C  C1033  1  0.127440  0.137700  0.175470  1.0  -0.1189
  C  C1034  1  0.048920  0.676520  0.722540  1.0  0.7316
  C  C1035  1  0.077560  0.666520  0.699920  1.0  -0.1032
  C  C1036  1  0.088770  0.685450  0.670430  1.0  -0.0465
  C  C1037  1  0.118140  0.666667  0.656460  1.0  -0.0469
  C  C1038  1  0.127440  0.637700  0.675470  1.0  -0.1136
  C  C1039  1  0.548920  0.176520  0.722540  1.0  0.7316
  C  C1040  1  0.577560  0.166520  0.699920  1.0  -0.1032
  C  C1041  1  0.588770  0.185450  0.670430  1.0  -0.0471
  C  C1042  1  0.618140  0.166700  0.656460  1.0  -0.0555
  C  C1043  1  0.627440  0.137700  0.675470  1.0  -0.1125
  C  C1044  1  0.548920  0.676520  0.222540  1.0  0.7316
  C  C1045  1  0.577560  0.666520  0.199920  1.0  -0.1032
  C  C1046  1  0.588770  0.685450  0.170430  1.0  -0.046
  C  C1047  1  0.618140  0.666667  0.156460  1.0  -0.0499
  C  C1048  1  0.627440  0.637700  0.175470  1.0  -0.1157
  C  C1049  1  0.951080  0.176520  0.777460  1.0  0.7301
  C  C1050  1  0.922440  0.166520  0.800080  1.0  -0.1032
  C  C1051  1  0.911230  0.185450  0.829570  1.0  -0.0441
  C  C1052  1  0.881860  0.166700  0.843540  1.0  -0.0503
  C  C1053  1  0.872560  0.137700  0.824530  1.0  -0.1196
  C  C1054  1  0.951080  0.676520  0.277460  1.0  0.7301
  C  C1055  1  0.922440  0.666520  0.300080  1.0  -0.1032
  C  C1056  1  0.911230  0.685450  0.329570  1.0  -0.045
  C  C1057  1  0.881860  0.666667  0.343540  1.0  -0.0468
  C  C1058  1  0.872560  0.637700  0.324530  1.0  -0.1141
  C  C1059  1  0.451080  0.176520  0.277460  1.0  0.7301
  C  C1060  1  0.422440  0.166520  0.300080  1.0  -0.1032
  C  C1061  1  0.411230  0.185450  0.329570  1.0  -0.0457
  C  C1062  1  0.381860  0.166700  0.343540  1.0  -0.0553
  C  C1063  1  0.372560  0.137700  0.324530  1.0  -0.1132
  C  C1064  1  0.451080  0.676520  0.777460  1.0  0.7301
  C  C1065  1  0.422440  0.666520  0.800080  1.0  -0.1032
  C  C1066  1  0.411230  0.685450  0.829570  1.0  -0.0444
  C  C1067  1  0.381860  0.666667  0.843540  1.0  -0.0498
  C  C1068  1  0.372560  0.637700  0.824530  1.0  -0.1157
  C  C1069  1  0.048920  0.823480  0.777460  1.0  0.7301
  C  C1070  1  0.077560  0.833480  0.800080  1.0  -0.1026
  C  C1071  1  0.088770  0.814550  0.829570  1.0  -0.0453
  C  C1072  1  0.118140  0.833300  0.843540  1.0  -0.0501
  C  C1073  1  0.127440  0.862300  0.824530  1.0  -0.1198
  C  C1074  1  0.048920  0.323480  0.277460  1.0  0.7301
  C  C1075  1  0.077560  0.333480  0.300080  1.0  -0.1026
  C  C1076  1  0.088770  0.314550  0.329570  1.0  -0.0466
  C  C1077  1  0.118140  0.333333  0.343540  1.0  -0.0467
  C  C1078  1  0.127440  0.362300  0.324530  1.0  -0.1145
  C  C1079  1  0.548920  0.823480  0.277460  1.0  0.7301
  C  C1080  1  0.577560  0.833480  0.300080  1.0  -0.1026
  C  C1081  1  0.588770  0.814550  0.329570  1.0  -0.0469
  C  C1082  1  0.618140  0.833300  0.343540  1.0  -0.0551
  C  C1083  1  0.627440  0.862300  0.324530  1.0  -0.1132
  C  C1084  1  0.548920  0.323480  0.777460  1.0  0.7301
  C  C1085  1  0.577560  0.333480  0.800080  1.0  -0.1026
  C  C1086  1  0.588770  0.314550  0.829570  1.0  -0.0458
  C  C1087  1  0.618140  0.333333  0.843540  1.0  -0.0496
  C  C1088  1  0.627440  0.362300  0.824530  1.0  -0.1161
  C  C1089  1  0.823480  0.777460  0.048920  1.0  0.733
  C  C1090  1  0.833480  0.800080  0.077560  1.0  -0.1015
  C  C1091  1  0.814550  0.829570  0.088770  1.0  -0.0457
  C  C1092  1  0.833300  0.843540  0.118140  1.0  -0.0497
  C  C1093  1  0.862300  0.824530  0.127440  1.0  -0.1174
  C  C1094  1  0.823480  0.277460  0.548920  1.0  0.733
  C  C1095  1  0.833480  0.300080  0.577560  1.0  -0.1015
  C  C1096  1  0.814550  0.329570  0.588770  1.0  -0.0472
  C  C1097  1  0.833300  0.343540  0.618140  1.0  -0.0544
  C  C1098  1  0.862300  0.324530  0.627440  1.0  -0.1115
  C  C1099  1  0.323480  0.777460  0.548920  1.0  0.733
  C  C1100  1  0.333480  0.800080  0.577560  1.0  -0.1014
  C  C1101  1  0.314550  0.829570  0.588770  1.0  -0.0463
  C  C1102  1  0.333333  0.843540  0.618140  1.0  -0.0489
  C  C1103  1  0.362300  0.824530  0.627440  1.0  -0.1147
  C  C1104  1  0.323480  0.277460  0.048920  1.0  0.733
  C  C1105  1  0.333480  0.300080  0.077560  1.0  -0.1014
  C  C1106  1  0.314550  0.329570  0.088770  1.0  -0.0468
  C  C1107  1  0.333333  0.343540  0.118140  1.0  -0.0458
  C  C1108  1  0.362300  0.324530  0.127440  1.0  -0.1124
  C  C1109  1  0.176520  0.777460  0.951080  1.0  0.7318
  C  C1110  1  0.166520  0.800080  0.922440  1.0  -0.1026
  C  C1111  1  0.185450  0.829570  0.911230  1.0  -0.045
  C  C1112  1  0.166700  0.843540  0.881860  1.0  -0.0499
  C  C1113  1  0.137700  0.824530  0.872560  1.0  -0.1188
  C  C1114  1  0.176520  0.277460  0.451080  1.0  0.7318
  C  C1115  1  0.166520  0.300080  0.422440  1.0  -0.1026
  C  C1116  1  0.185450  0.329570  0.411230  1.0  -0.0464
  C  C1117  1  0.166700  0.343540  0.381860  1.0  -0.0547
  C  C1118  1  0.137700  0.324530  0.372560  1.0  -0.1125
  C  C1119  1  0.676520  0.777460  0.451080  1.0  0.7318
  C  C1120  1  0.666520  0.800080  0.422440  1.0  -0.1026
  C  C1121  1  0.685450  0.829570  0.411230  1.0  -0.0457
  C  C1122  1  0.666667  0.843540  0.381860  1.0  -0.0491
  C  C1123  1  0.637700  0.824530  0.372560  1.0  -0.1161
  C  C1124  1  0.676520  0.277460  0.951080  1.0  0.7318
  C  C1125  1  0.666520  0.300080  0.922440  1.0  -0.1026
  C  C1126  1  0.685450  0.329570  0.911230  1.0  -0.0463
  C  C1127  1  0.666667  0.343540  0.881860  1.0  -0.0461
  C  C1128  1  0.637700  0.324530  0.872560  1.0  -0.1133
  C  C1129  1  0.176520  0.222540  0.048920  1.0  0.7313
  C  C1130  1  0.166520  0.199920  0.077560  1.0  -0.102
  C  C1131  1  0.185450  0.170430  0.088770  1.0  -0.0449
  C  C1132  1  0.166700  0.156460  0.118140  1.0  -0.0497
  C  C1133  1  0.137700  0.175470  0.127440  1.0  -0.1178
  C  C1134  1  0.176520  0.722540  0.548920  1.0  0.7313
  C  C1135  1  0.166520  0.699920  0.577560  1.0  -0.102
  C  C1136  1  0.185450  0.670430  0.588770  1.0  -0.0463
  C  C1137  1  0.166700  0.656460  0.618140  1.0  -0.0545
  C  C1138  1  0.137700  0.675470  0.627440  1.0  -0.1118
  C  C1139  1  0.676520  0.222540  0.548920  1.0  0.7313
  C  C1140  1  0.666520  0.199920  0.577560  1.0  -0.102
  C  C1141  1  0.685450  0.170430  0.588770  1.0  -0.0455
  C  C1142  1  0.666667  0.156460  0.618140  1.0  -0.0489
  C  C1143  1  0.637700  0.175470  0.627440  1.0  -0.1153
  C  C1144  1  0.676520  0.722540  0.048920  1.0  0.7313
  C  C1145  1  0.666520  0.699920  0.077560  1.0  -0.102
  C  C1146  1  0.685450  0.670430  0.088770  1.0  -0.0459
  C  C1147  1  0.666667  0.656460  0.118140  1.0  -0.0459
  C  C1148  1  0.637700  0.675470  0.127440  1.0  -0.1126
  C  C1149  1  0.823480  0.222540  0.951080  1.0  0.7333
  C  C1150  1  0.833480  0.199920  0.922440  1.0  -0.1012
  C  C1151  1  0.814550  0.170430  0.911230  1.0  -0.0453
  C  C1152  1  0.833300  0.156460  0.881860  1.0  -0.0497
  C  C1153  1  0.862300  0.175470  0.872560  1.0  -0.1176
  C  C1154  1  0.823480  0.722540  0.451080  1.0  0.7333
  C  C1155  1  0.833480  0.699920  0.422440  1.0  -0.1012
  C  C1156  1  0.814550  0.670430  0.411230  1.0  -0.047
  C  C1157  1  0.833300  0.656460  0.381860  1.0  -0.0544
  C  C1158  1  0.862300  0.675470  0.372560  1.0  -0.112
  C  C1159  1  0.323480  0.222540  0.451080  1.0  0.7333
  C  C1160  1  0.333480  0.199920  0.422440  1.0  -0.1011
  C  C1161  1  0.314550  0.170430  0.411230  1.0  -0.0461
  C  C1162  1  0.333333  0.156460  0.381860  1.0  -0.0489
  C  C1163  1  0.362300  0.175470  0.372560  1.0  -0.1155
  C  C1164  1  0.323480  0.722540  0.951080  1.0  0.7333
  C  C1165  1  0.333480  0.699920  0.922440  1.0  -0.1011
  C  C1166  1  0.314550  0.670430  0.911230  1.0  -0.0468
  C  C1167  1  0.333333  0.656460  0.881860  1.0  -0.0459
  C  C1168  1  0.362300  0.675470  0.872560  1.0  -0.1129
  C  C1169  1  0.777460  0.951080  0.176520  1.0  0.731
  C  C1170  1  0.800080  0.922440  0.166520  1.0  -0.1051
  C  C1171  1  0.829570  0.911230  0.185450  1.0  -0.0465
  C  C1172  1  0.843540  0.881860  0.166700  1.0  -0.0495
  C  C1173  1  0.824530  0.872560  0.137700  1.0  -0.1174
  C  C1174  1  0.777460  0.451080  0.676520  1.0  0.731
  C  C1175  1  0.800080  0.422440  0.666520  1.0  -0.1052
  C  C1176  1  0.829570  0.411230  0.685450  1.0  -0.0473
  C  C1177  1  0.843540  0.381860  0.666667  1.0  -0.0487
  C  C1178  1  0.824530  0.372560  0.637700  1.0  -0.1144
  C  C1179  1  0.277460  0.951080  0.676520  1.0  0.731
  C  C1180  1  0.300080  0.922440  0.666520  1.0  -0.1052
  C  C1181  1  0.329570  0.911230  0.685450  1.0  -0.0477
  C  C1182  1  0.343540  0.881860  0.666667  1.0  -0.0457
  C  C1183  1  0.324530  0.872560  0.637700  1.0  -0.1128
  C  C1184  1  0.277460  0.451080  0.176520  1.0  0.731
  C  C1185  1  0.300080  0.422440  0.166520  1.0  -0.1051
  C  C1186  1  0.329570  0.411230  0.185450  1.0  -0.0479
  C  C1187  1  0.343540  0.381860  0.166700  1.0  -0.054
  C  C1188  1  0.324530  0.372560  0.137700  1.0  -0.1112
  C  C1189  1  0.777460  0.048920  0.823480  1.0  0.7306
  C  C1190  1  0.800080  0.077560  0.833480  1.0  -0.103
  C  C1191  1  0.829570  0.088770  0.814550  1.0  -0.0459
  C  C1192  1  0.843540  0.118140  0.833300  1.0  -0.049
  C  C1193  1  0.824530  0.127440  0.862300  1.0  -0.118
  C  C1194  1  0.777460  0.548920  0.323480  1.0  0.7306
  C  C1195  1  0.800080  0.577560  0.333480  1.0  -0.103
  C  C1196  1  0.829570  0.588770  0.314550  1.0  -0.0464
  C  C1197  1  0.843540  0.618140  0.333333  1.0  -0.048
  C  C1198  1  0.824530  0.627440  0.362300  1.0  -0.1146
  C  C1199  1  0.277460  0.048920  0.323480  1.0  0.7306
  C  C1200  1  0.300080  0.077560  0.333480  1.0  -0.103
  C  C1201  1  0.329570  0.088770  0.314550  1.0  -0.047
  C  C1202  1  0.343540  0.118140  0.333333  1.0  -0.0451
  C  C1203  1  0.324530  0.127440  0.362300  1.0  -0.1128
  C  C1204  1  0.277460  0.548920  0.823480  1.0  0.7306
  C  C1205  1  0.300080  0.577560  0.833480  1.0  -0.103
  C  C1206  1  0.329570  0.588770  0.814550  1.0  -0.0472
  C  C1207  1  0.343540  0.618140  0.833300  1.0  -0.0536
  C  C1208  1  0.324530  0.627440  0.862300  1.0  -0.1116
  C  C1209  1  0.222540  0.951080  0.823480  1.0  0.7307
  C  C1210  1  0.199920  0.922440  0.833480  1.0  -0.1024
  C  C1211  1  0.170430  0.911230  0.814550  1.0  -0.0471
  C  C1212  1  0.156460  0.881860  0.833300  1.0  -0.0492
  C  C1213  1  0.175470  0.872560  0.862300  1.0  -0.1167
  C  C1214  1  0.222540  0.451080  0.323480  1.0  0.7307
  C  C1215  1  0.199920  0.422440  0.333480  1.0  -0.1024
  C  C1216  1  0.170430  0.411230  0.314550  1.0  -0.0477
  C  C1217  1  0.156460  0.381860  0.333333  1.0  -0.0486
  C  C1218  1  0.175470  0.372560  0.362300  1.0  -0.1139
  C  C1219  1  0.722540  0.951080  0.323480  1.0  0.7307
  C  C1220  1  0.699920  0.922440  0.333480  1.0  -0.1024
  C  C1221  1  0.670430  0.911230  0.314550  1.0  -0.0484
  C  C1222  1  0.656460  0.881860  0.333333  1.0  -0.0454
  C  C1223  1  0.675470  0.872560  0.362300  1.0  -0.1125
  C  C1224  1  0.722540  0.451080  0.823480  1.0  0.7307
  C  C1225  1  0.699920  0.422440  0.833480  1.0  -0.1024
  C  C1226  1  0.670430  0.411230  0.814550  1.0  -0.0485
  C  C1227  1  0.656460  0.381860  0.833300  1.0  -0.0539
  C  C1228  1  0.675470  0.372560  0.862300  1.0  -0.1105
  C  C1229  1  0.222540  0.048920  0.176520  1.0  0.7312
  C  C1230  1  0.199920  0.077560  0.166520  1.0  -0.1036
  C  C1231  1  0.170430  0.088770  0.185450  1.0  -0.047
  C  C1232  1  0.156460  0.118140  0.166700  1.0  -0.0489
  C  C1233  1  0.175470  0.127440  0.137700  1.0  -0.1173
  C  C1234  1  0.222540  0.548920  0.676520  1.0  0.7312
  C  C1235  1  0.199920  0.577560  0.666520  1.0  -0.1037
  C  C1236  1  0.170430  0.588770  0.685450  1.0  -0.048
  C  C1237  1  0.156460  0.618140  0.666667  1.0  -0.0482
  C  C1238  1  0.175470  0.627440  0.637700  1.0  -0.1144
  C  C1239  1  0.722540  0.048920  0.676520  1.0  0.7312
  C  C1240  1  0.699920  0.077560  0.666520  1.0  -0.1037
  C  C1241  1  0.670430  0.088770  0.685450  1.0  -0.0486
  C  C1242  1  0.656460  0.118140  0.666667  1.0  -0.0451
  C  C1243  1  0.675470  0.127440  0.637700  1.0  -0.1129
  C  C1244  1  0.722540  0.548920  0.176520  1.0  0.7312
  C  C1245  1  0.699920  0.577560  0.166520  1.0  -0.1036
  C  C1246  1  0.670430  0.588770  0.185450  1.0  -0.0486
  C  C1247  1  0.656460  0.618140  0.166700  1.0  -0.0537
  C  C1248  1  0.675470  0.627440  0.137700  1.0  -0.1112
  S  S1249  1  0.629900  0.600910  0.709360  1.0  0.0767
  S  S1250  1  0.629900  0.100910  0.209360  1.0  0.0766
  S  S1251  1  0.129900  0.600910  0.209360  1.0  0.075
  S  S1252  1  0.129900  0.100910  0.709360  1.0  0.0757
  S  S1253  1  0.370100  0.399090  0.709360  1.0  0.0772
  S  S1254  1  0.370100  0.899090  0.209360  1.0  0.077
  S  S1255  1  0.870100  0.399090  0.209360  1.0  0.0756
  S  S1256  1  0.870100  0.899090  0.709360  1.0  0.0763
  S  S1257  1  0.370100  0.600910  0.290640  1.0  0.078
  S  S1258  1  0.370100  0.100910  0.790640  1.0  0.0778
  S  S1259  1  0.870100  0.600910  0.790640  1.0  0.0763
  S  S1260  1  0.870100  0.100910  0.290640  1.0  0.077
  S  S1261  1  0.629900  0.399090  0.290640  1.0  0.0776
  S  S1262  1  0.629900  0.899090  0.790640  1.0  0.0775
  S  S1263  1  0.129900  0.399090  0.790640  1.0  0.0759
  S  S1264  1  0.129900  0.899090  0.290640  1.0  0.0766
  S  S1265  1  0.709360  0.629900  0.600910  1.0  0.0825
  S  S1266  1  0.709360  0.129900  0.100910  1.0  0.0814
  S  S1267  1  0.209360  0.629900  0.100910  1.0  0.0826
  S  S1268  1  0.209360  0.129900  0.600910  1.0  0.0807
  S  S1269  1  0.709360  0.370100  0.399090  1.0  0.0821
  S  S1270  1  0.709360  0.870100  0.899090  1.0  0.0809
  S  S1271  1  0.209360  0.370100  0.899090  1.0  0.082
  S  S1272  1  0.209360  0.870100  0.399090  1.0  0.0802
  S  S1273  1  0.290640  0.370100  0.600910  1.0  0.0822
  S  S1274  1  0.290640  0.870100  0.100910  1.0  0.0809
  S  S1275  1  0.790640  0.370100  0.100910  1.0  0.0822
  S  S1276  1  0.790640  0.870100  0.600910  1.0  0.0802
  S  S1277  1  0.290640  0.629900  0.399090  1.0  0.082
  S  S1278  1  0.290640  0.129900  0.899090  1.0  0.0809
  S  S1279  1  0.790640  0.629900  0.899090  1.0  0.0821
  S  S1280  1  0.790640  0.129900  0.399090  1.0  0.0801
  S  S1281  1  0.600910  0.709360  0.629900  1.0  0.0781
  S  S1282  1  0.600910  0.209360  0.129900  1.0  0.0761
  S  S1283  1  0.100910  0.709360  0.129900  1.0  0.0768
  S  S1284  1  0.100910  0.209360  0.629900  1.0  0.0781
  S  S1285  1  0.399090  0.709360  0.370100  1.0  0.0796
  S  S1286  1  0.399090  0.209360  0.870100  1.0  0.0777
  S  S1287  1  0.899090  0.709360  0.870100  1.0  0.0784
  S  S1288  1  0.899090  0.209360  0.370100  1.0  0.0794
  S  S1289  1  0.600910  0.290640  0.370100  1.0  0.0788
  S  S1290  1  0.600910  0.790640  0.870100  1.0  0.0769
  S  S1291  1  0.100910  0.290640  0.870100  1.0  0.0776
  S  S1292  1  0.100910  0.790640  0.370100  1.0  0.0786
  S  S1293  1  0.399090  0.290640  0.629900  1.0  0.0787
  S  S1294  1  0.399090  0.790640  0.129900  1.0  0.0767
  S  S1295  1  0.899090  0.290640  0.129900  1.0  0.0775
  S  S1296  1  0.899090  0.790640  0.629900  1.0  0.0787
  S  S1297  1  0.100910  0.129900  0.790640  1.0  0.078
  S  S1298  1  0.100910  0.629900  0.290640  1.0  0.0797
  S  S1299  1  0.600910  0.129900  0.290640  1.0  0.0787
  S  S1300  1  0.600910  0.629900  0.790640  1.0  0.0796
  S  S1301  1  0.899090  0.870100  0.790640  1.0  0.0758
  S  S1302  1  0.899090  0.370100  0.290640  1.0  0.0776
  S  S1303  1  0.399090  0.870100  0.290640  1.0  0.0765
  S  S1304  1  0.399090  0.370100  0.790640  1.0  0.0775
  S  S1305  1  0.100910  0.870100  0.209360  1.0  0.0757
  S  S1306  1  0.100910  0.370100  0.709360  1.0  0.0775
  S  S1307  1  0.600910  0.870100  0.709360  1.0  0.0764
  S  S1308  1  0.600910  0.370100  0.209360  1.0  0.0773
  S  S1309  1  0.899090  0.129900  0.209360  1.0  0.0755
  S  S1310  1  0.899090  0.629900  0.709360  1.0  0.0772
  S  S1311  1  0.399090  0.129900  0.709360  1.0  0.0762
  S  S1312  1  0.399090  0.629900  0.209360  1.0  0.0771
  S  S1313  1  0.129900  0.209360  0.899090  1.0  0.0789
  S  S1314  1  0.129900  0.709360  0.399090  1.0  0.0796
  S  S1315  1  0.629900  0.209360  0.399090  1.0  0.0808
  S  S1316  1  0.629900  0.709360  0.899090  1.0  0.0809
  S  S1317  1  0.870100  0.209360  0.100910  1.0  0.0787
  S  S1318  1  0.870100  0.709360  0.600910  1.0  0.0794
  S  S1319  1  0.370100  0.209360  0.600910  1.0  0.081
  S  S1320  1  0.370100  0.709360  0.100910  1.0  0.0806
  S  S1321  1  0.870100  0.790640  0.899090  1.0  0.0782
  S  S1322  1  0.870100  0.290640  0.399090  1.0  0.0789
  S  S1323  1  0.370100  0.790640  0.399090  1.0  0.0805
  S  S1324  1  0.370100  0.290640  0.899090  1.0  0.0801
  S  S1325  1  0.129900  0.790640  0.100910  1.0  0.079
  S  S1326  1  0.129900  0.290640  0.600910  1.0  0.0798
  S  S1327  1  0.629900  0.790640  0.600910  1.0  0.0813
  S  S1328  1  0.629900  0.290640  0.100910  1.0  0.0811
  S  S1329  1  0.209360  0.100910  0.870100  1.0  0.0783
  S  S1330  1  0.209360  0.600910  0.370100  1.0  0.0798
  S  S1331  1  0.709360  0.100910  0.370100  1.0  0.0799
  S  S1332  1  0.709360  0.600910  0.870100  1.0  0.079
  S  S1333  1  0.209360  0.899090  0.129900  1.0  0.0768
  S  S1334  1  0.209360  0.399090  0.629900  1.0  0.0787
  S  S1335  1  0.709360  0.899090  0.629900  1.0  0.0786
  S  S1336  1  0.709360  0.399090  0.129900  1.0  0.0775
  S  S1337  1  0.790640  0.100910  0.129900  1.0  0.0784
  S  S1338  1  0.790640  0.600910  0.629900  1.0  0.0805
  S  S1339  1  0.290640  0.100910  0.629900  1.0  0.0803
  S  S1340  1  0.290640  0.600910  0.129900  1.0  0.0791
  S  S1341  1  0.790640  0.899090  0.870100  1.0  0.0789
  S  S1342  1  0.790640  0.399090  0.370100  1.0  0.0807
  S  S1343  1  0.290640  0.899090  0.370100  1.0  0.0807
  S  S1344  1  0.290640  0.399090  0.870100  1.0  0.0796
  S  S1345  1  0.370100  0.399090  0.290640  1.0  0.0776
  S  S1346  1  0.370100  0.899090  0.790640  1.0  0.0775
  S  S1347  1  0.870100  0.399090  0.790640  1.0  0.076
  S  S1348  1  0.870100  0.899090  0.290640  1.0  0.0767
  S  S1349  1  0.629900  0.600910  0.290640  1.0  0.0782
  S  S1350  1  0.629900  0.100910  0.790640  1.0  0.078
  S  S1351  1  0.129900  0.600910  0.790640  1.0  0.0764
  S  S1352  1  0.129900  0.100910  0.290640  1.0  0.0771
  S  S1353  1  0.629900  0.399090  0.709360  1.0  0.0769
  S  S1354  1  0.629900  0.899090  0.209360  1.0  0.0768
  S  S1355  1  0.129900  0.399090  0.209360  1.0  0.0752
  S  S1356  1  0.129900  0.899090  0.709360  1.0  0.0759
  S  S1357  1  0.370100  0.600910  0.709360  1.0  0.0767
  S  S1358  1  0.370100  0.100910  0.209360  1.0  0.0766
  S  S1359  1  0.870100  0.600910  0.209360  1.0  0.0752
  S  S1360  1  0.870100  0.100910  0.709360  1.0  0.0759
  S  S1361  1  0.290640  0.370100  0.399090  1.0  0.0823
  S  S1362  1  0.290640  0.870100  0.899090  1.0  0.081
  S  S1363  1  0.790640  0.370100  0.899090  1.0  0.0822
  S  S1364  1  0.790640  0.870100  0.399090  1.0  0.0803
  S  S1365  1  0.290640  0.629900  0.600910  1.0  0.0828
  S  S1366  1  0.290640  0.129900  0.100910  1.0  0.0816
  S  S1367  1  0.790640  0.629900  0.100910  1.0  0.0829
  S  S1368  1  0.790640  0.129900  0.600910  1.0  0.0809
  S  S1369  1  0.709360  0.629900  0.399090  1.0  0.0816
  S  S1370  1  0.709360  0.129900  0.899090  1.0  0.0806
  S  S1371  1  0.209360  0.629900  0.899090  1.0  0.0816
  S  S1372  1  0.209360  0.129900  0.399090  1.0  0.0798
  S  S1373  1  0.709360  0.370100  0.600910  1.0  0.0824
  S  S1374  1  0.709360  0.870100  0.100910  1.0  0.0812
  S  S1375  1  0.209360  0.370100  0.100910  1.0  0.0824
  S  S1376  1  0.209360  0.870100  0.600910  1.0  0.0805
  S  S1377  1  0.399090  0.290640  0.370100  1.0  0.0791
  S  S1378  1  0.399090  0.790640  0.870100  1.0  0.0772
  S  S1379  1  0.899090  0.290640  0.870100  1.0  0.0779
  S  S1380  1  0.899090  0.790640  0.370100  1.0  0.0789
  S  S1381  1  0.600910  0.290640  0.629900  1.0  0.0792
  S  S1382  1  0.600910  0.790640  0.129900  1.0  0.0773
  S  S1383  1  0.100910  0.290640  0.129900  1.0  0.078
  S  S1384  1  0.100910  0.790640  0.629900  1.0  0.0792
  S  S1385  1  0.399090  0.709360  0.629900  1.0  0.0773
  S  S1386  1  0.399090  0.209360  0.129900  1.0  0.0753
  S  S1387  1  0.899090  0.709360  0.129900  1.0  0.076
  S  S1388  1  0.899090  0.209360  0.629900  1.0  0.0773
  S  S1389  1  0.600910  0.709360  0.370100  1.0  0.0795
  S  S1390  1  0.600910  0.209360  0.870100  1.0  0.0776
  S  S1391  1  0.100910  0.709360  0.870100  1.0  0.0783
  S  S1392  1  0.100910  0.209360  0.370100  1.0  0.0793
  S  S1393  1  0.899090  0.870100  0.209360  1.0  0.0759
  S  S1394  1  0.899090  0.370100  0.709360  1.0  0.0777
  S  S1395  1  0.399090  0.870100  0.709360  1.0  0.0766
  S  S1396  1  0.399090  0.370100  0.209360  1.0  0.0776
  S  S1397  1  0.100910  0.129900  0.209360  1.0  0.0753
  S  S1398  1  0.100910  0.629900  0.709360  1.0  0.077
  S  S1399  1  0.600910  0.129900  0.709360  1.0  0.076
  S  S1400  1  0.600910  0.629900  0.209360  1.0  0.0769
  S  S1401  1  0.899090  0.129900  0.790640  1.0  0.0778
  S  S1402  1  0.899090  0.629900  0.290640  1.0  0.0796
  S  S1403  1  0.399090  0.129900  0.290640  1.0  0.0785
  S  S1404  1  0.399090  0.629900  0.790640  1.0  0.0795
  S  S1405  1  0.100910  0.870100  0.790640  1.0  0.0759
  S  S1406  1  0.100910  0.370100  0.290640  1.0  0.0777
  S  S1407  1  0.600910  0.870100  0.290640  1.0  0.0766
  S  S1408  1  0.600910  0.370100  0.790640  1.0  0.0776
  S  S1409  1  0.870100  0.790640  0.100910  1.0  0.079
  S  S1410  1  0.870100  0.290640  0.600910  1.0  0.0797
  S  S1411  1  0.370100  0.790640  0.600910  1.0  0.0812
  S  S1412  1  0.370100  0.290640  0.100910  1.0  0.0808
  S  S1413  1  0.129900  0.790640  0.899090  1.0  0.0785
  S  S1414  1  0.129900  0.290640  0.399090  1.0  0.0792
  S  S1415  1  0.629900  0.790640  0.399090  1.0  0.0807
  S  S1416  1  0.629900  0.290640  0.899090  1.0  0.0806
  S  S1417  1  0.129900  0.209360  0.100910  1.0  0.0789
  S  S1418  1  0.129900  0.709360  0.600910  1.0  0.0796
  S  S1419  1  0.629900  0.209360  0.600910  1.0  0.081
  S  S1420  1  0.629900  0.709360  0.100910  1.0  0.081
  S  S1421  1  0.870100  0.209360  0.899090  1.0  0.0785
  S  S1422  1  0.870100  0.709360  0.399090  1.0  0.0792
  S  S1423  1  0.370100  0.209360  0.399090  1.0  0.0806
  S  S1424  1  0.370100  0.709360  0.899090  1.0  0.0803
  S  S1425  1  0.790640  0.899090  0.129900  1.0  0.0778
  S  S1426  1  0.790640  0.399090  0.629900  1.0  0.0799
  S  S1427  1  0.290640  0.899090  0.629900  1.0  0.0797
  S  S1428  1  0.290640  0.399090  0.129900  1.0  0.0785
  S  S1429  1  0.790640  0.100910  0.870100  1.0  0.0786
  S  S1430  1  0.790640  0.600910  0.370100  1.0  0.0804
  S  S1431  1  0.290640  0.100910  0.370100  1.0  0.0804
  S  S1432  1  0.290640  0.600910  0.870100  1.0  0.0793
  S  S1433  1  0.209360  0.899090  0.870100  1.0  0.0788
  S  S1434  1  0.209360  0.399090  0.370100  1.0  0.0803
  S  S1435  1  0.709360  0.899090  0.370100  1.0  0.0804
  S  S1436  1  0.709360  0.399090  0.870100  1.0  0.0795
  S  S1437  1  0.209360  0.100910  0.129900  1.0  0.0772
  S  S1438  1  0.209360  0.600910  0.629900  1.0  0.0791
  S  S1439  1  0.709360  0.100910  0.629900  1.0  0.0791
  S  S1440  1  0.709360  0.600910  0.129900  1.0  0.0779
  O  O1441  1  0.655960  0.540920  0.745890  1.0  -0.5941
  O  O1442  1  0.705200  0.535150  0.718300  1.0  -0.6427
  O  O1443  1  0.655960  0.040920  0.245890  1.0  -0.5941
  O  O1444  1  0.705200  0.035150  0.218300  1.0  -0.6427
  O  O1445  1  0.155960  0.540920  0.245890  1.0  -0.5941
  O  O1446  1  0.205200  0.535150  0.218300  1.0  -0.6427
  O  O1447  1  0.155960  0.040920  0.745890  1.0  -0.5941
  O  O1448  1  0.205200  0.035150  0.718300  1.0  -0.6427
  O  O1449  1  0.344040  0.459080  0.745890  1.0  -0.5923
  O  O1450  1  0.294800  0.464850  0.718300  1.0  -0.642
  O  O1451  1  0.344040  0.959080  0.245890  1.0  -0.5923
  O  O1452  1  0.294800  0.964850  0.218300  1.0  -0.642
  O  O1453  1  0.844040  0.459080  0.245890  1.0  -0.5923
  O  O1454  1  0.794800  0.464850  0.218300  1.0  -0.642
  O  O1455  1  0.844040  0.959080  0.745890  1.0  -0.5923
  O  O1456  1  0.794800  0.964850  0.718300  1.0  -0.642
  O  O1457  1  0.344040  0.540920  0.254110  1.0  -0.5917
  O  O1458  1  0.294800  0.535150  0.281700  1.0  -0.6423
  O  O1459  1  0.344040  0.040920  0.754110  1.0  -0.5917
  O  O1460  1  0.294800  0.035150  0.781700  1.0  -0.6423
  O  O1461  1  0.844040  0.540920  0.754110  1.0  -0.5917
  O  O1462  1  0.794800  0.535150  0.781700  1.0  -0.6423
  O  O1463  1  0.844040  0.040920  0.254110  1.0  -0.5917
  O  O1464  1  0.794800  0.035150  0.281700  1.0  -0.6423
  O  O1465  1  0.655960  0.459080  0.254110  1.0  -0.5933
  O  O1466  1  0.705200  0.464850  0.281700  1.0  -0.6422
  O  O1467  1  0.655960  0.959080  0.754110  1.0  -0.5933
  O  O1468  1  0.705200  0.964850  0.781700  1.0  -0.6422
  O  O1469  1  0.155960  0.459080  0.754110  1.0  -0.5933
  O  O1470  1  0.205200  0.464850  0.781700  1.0  -0.6422
  O  O1471  1  0.155960  0.959080  0.254110  1.0  -0.5933
  O  O1472  1  0.205200  0.964850  0.281700  1.0  -0.6422
  O  O1473  1  0.745890  0.655960  0.540920  1.0  -0.5915
  O  O1474  1  0.718300  0.705200  0.535150  1.0  -0.6447
  O  O1475  1  0.745890  0.155960  0.040920  1.0  -0.5915
  O  O1476  1  0.718300  0.205200  0.035150  1.0  -0.6447
  O  O1477  1  0.245890  0.655960  0.040920  1.0  -0.5915
  O  O1478  1  0.218300  0.705200  0.035150  1.0  -0.6447
  O  O1479  1  0.245890  0.155960  0.540920  1.0  -0.5915
  O  O1480  1  0.218300  0.205200  0.535150  1.0  -0.6447
  O  O1481  1  0.745890  0.344040  0.459080  1.0  -0.5914
  O  O1482  1  0.718300  0.294800  0.464850  1.0  -0.6452
  O  O1483  1  0.745890  0.844040  0.959080  1.0  -0.5914
  O  O1484  1  0.718300  0.794800  0.964850  1.0  -0.6452
  O  O1485  1  0.245890  0.344040  0.959080  1.0  -0.5914
  O  O1486  1  0.218300  0.294800  0.964850  1.0  -0.6452
  O  O1487  1  0.245890  0.844040  0.459080  1.0  -0.5914
  O  O1488  1  0.218300  0.794800  0.464850  1.0  -0.6452
  O  O1489  1  0.254110  0.344040  0.540920  1.0  -0.5936
  O  O1490  1  0.281700  0.294800  0.535150  1.0  -0.6448
  O  O1491  1  0.254110  0.844040  0.040920  1.0  -0.5936
  O  O1492  1  0.281700  0.794800  0.035150  1.0  -0.6448
  O  O1493  1  0.754110  0.344040  0.040920  1.0  -0.5936
  O  O1494  1  0.781700  0.294800  0.035150  1.0  -0.6448
  O  O1495  1  0.754110  0.844040  0.540920  1.0  -0.5936
  O  O1496  1  0.781700  0.794800  0.535150  1.0  -0.6448
  O  O1497  1  0.254110  0.655960  0.459080  1.0  -0.5925
  O  O1498  1  0.281700  0.705200  0.464850  1.0  -0.6441
  O  O1499  1  0.254110  0.155960  0.959080  1.0  -0.5925
  O  O1500  1  0.281700  0.205200  0.964850  1.0  -0.6441
  O  O1501  1  0.754110  0.655960  0.959080  1.0  -0.5925
  O  O1502  1  0.781700  0.705200  0.964850  1.0  -0.6441
  O  O1503  1  0.754110  0.155960  0.459080  1.0  -0.5925
  O  O1504  1  0.781700  0.205200  0.464850  1.0  -0.6441
  O  O1505  1  0.540920  0.745890  0.655960  1.0  -0.5972
  O  O1506  1  0.535150  0.718300  0.705200  1.0  -0.6433
  O  O1507  1  0.540920  0.245890  0.155960  1.0  -0.5972
  O  O1508  1  0.535150  0.218300  0.205200  1.0  -0.6433
  O  O1509  1  0.040920  0.745890  0.155960  1.0  -0.5972
  O  O1510  1  0.035150  0.718300  0.205200  1.0  -0.6433
  O  O1511  1  0.040920  0.245890  0.655960  1.0  -0.5972
  O  O1512  1  0.035150  0.218300  0.705200  1.0  -0.6433
  O  O1513  1  0.459080  0.745890  0.344040  1.0  -0.597
  O  O1514  1  0.464850  0.718300  0.294800  1.0  -0.6443
  O  O1515  1  0.459080  0.245890  0.844040  1.0  -0.597
  O  O1516  1  0.464850  0.218300  0.794800  1.0  -0.6443
  O  O1517  1  0.959080  0.745890  0.844040  1.0  -0.597
  O  O1518  1  0.964850  0.718300  0.794800  1.0  -0.6443
  O  O1519  1  0.959080  0.245890  0.344040  1.0  -0.597
  O  O1520  1  0.964850  0.218300  0.294800  1.0  -0.6443
  O  O1521  1  0.540920  0.254110  0.344040  1.0  -0.5972
  O  O1522  1  0.535150  0.281700  0.294800  1.0  -0.6433
  O  O1523  1  0.540920  0.754110  0.844040  1.0  -0.5972
  O  O1524  1  0.535150  0.781700  0.794800  1.0  -0.6433
  O  O1525  1  0.040920  0.254110  0.844040  1.0  -0.5972
  O  O1526  1  0.035150  0.281700  0.794800  1.0  -0.6433
  O  O1527  1  0.040920  0.754110  0.344040  1.0  -0.5972
  O  O1528  1  0.035150  0.781700  0.294800  1.0  -0.6433
  O  O1529  1  0.459080  0.254110  0.655960  1.0  -0.5972
  O  O1530  1  0.464850  0.281700  0.705200  1.0  -0.6443
  O  O1531  1  0.459080  0.754110  0.155960  1.0  -0.5972
  O  O1532  1  0.464850  0.781700  0.205200  1.0  -0.6443
  O  O1533  1  0.959080  0.254110  0.155960  1.0  -0.5972
  O  O1534  1  0.964850  0.281700  0.205200  1.0  -0.6443
  O  O1535  1  0.959080  0.754110  0.655960  1.0  -0.5972
  O  O1536  1  0.964850  0.781700  0.705200  1.0  -0.6443
  O  O1537  1  0.040920  0.155960  0.754110  1.0  -0.5921
  O  O1538  1  0.035150  0.205200  0.781700  1.0  -0.6451
  O  O1539  1  0.040920  0.655960  0.254110  1.0  -0.5921
  O  O1540  1  0.035150  0.705200  0.281700  1.0  -0.6451
  O  O1541  1  0.540920  0.155960  0.254110  1.0  -0.5921
  O  O1542  1  0.535150  0.205200  0.281700  1.0  -0.6451
  O  O1543  1  0.540920  0.655960  0.754110  1.0  -0.5921
  O  O1544  1  0.535150  0.705200  0.781700  1.0  -0.6451
  O  O1545  1  0.959080  0.844040  0.754110  1.0  -0.5938
  O  O1546  1  0.964850  0.794800  0.781700  1.0  -0.6463
  O  O1547  1  0.959080  0.344040  0.254110  1.0  -0.5938
  O  O1548  1  0.964850  0.294800  0.281700  1.0  -0.6463
  O  O1549  1  0.459080  0.844040  0.254110  1.0  -0.5938
  O  O1550  1  0.464850  0.794800  0.281700  1.0  -0.6463
  O  O1551  1  0.459080  0.344040  0.754110  1.0  -0.5938
  O  O1552  1  0.464850  0.294800  0.781700  1.0  -0.6463
  O  O1553  1  0.040920  0.844040  0.245890  1.0  -0.5923
  O  O1554  1  0.035150  0.794800  0.218300  1.0  -0.6461
  O  O1555  1  0.040920  0.344040  0.745890  1.0  -0.5923
  O  O1556  1  0.035150  0.294800  0.718300  1.0  -0.6461
  O  O1557  1  0.540920  0.844040  0.745890  1.0  -0.5923
  O  O1558  1  0.535150  0.794800  0.718300  1.0  -0.6461
  O  O1559  1  0.540920  0.344040  0.245890  1.0  -0.5923
  O  O1560  1  0.535150  0.294800  0.218300  1.0  -0.6461
  O  O1561  1  0.959080  0.155960  0.245890  1.0  -0.5926
  O  O1562  1  0.964850  0.205200  0.218300  1.0  -0.6454
  O  O1563  1  0.959080  0.655960  0.745890  1.0  -0.5926
  O  O1564  1  0.964850  0.705200  0.718300  1.0  -0.6454
  O  O1565  1  0.459080  0.155960  0.745890  1.0  -0.5926
  O  O1566  1  0.464850  0.205200  0.718300  1.0  -0.6454
  O  O1567  1  0.459080  0.655960  0.245890  1.0  -0.5926
  O  O1568  1  0.464850  0.705200  0.218300  1.0  -0.6454
  O  O1569  1  0.155960  0.245890  0.959080  1.0  -0.5932
  O  O1570  1  0.205200  0.218300  0.964850  1.0  -0.6422
  O  O1571  1  0.155960  0.745890  0.459080  1.0  -0.5932
  O  O1572  1  0.205200  0.718300  0.464850  1.0  -0.6422
  O  O1573  1  0.655960  0.245890  0.459080  1.0  -0.5932
  O  O1574  1  0.705200  0.218300  0.464850  1.0  -0.6422
  O  O1575  1  0.655960  0.745890  0.959080  1.0  -0.5932
  O  O1576  1  0.705200  0.718300  0.964850  1.0  -0.6422
  O  O1577  1  0.844040  0.245890  0.040920  1.0  -0.5923
  O  O1578  1  0.794800  0.218300  0.035150  1.0  -0.6416
  O  O1579  1  0.844040  0.745890  0.540920  1.0  -0.5923
  O  O1580  1  0.794800  0.718300  0.535150  1.0  -0.6416
  O  O1581  1  0.344040  0.245890  0.540920  1.0  -0.5923
  O  O1582  1  0.294800  0.218300  0.535150  1.0  -0.6416
  O  O1583  1  0.344040  0.745890  0.040920  1.0  -0.5923
  O  O1584  1  0.294800  0.718300  0.035150  1.0  -0.6416
  O  O1585  1  0.844040  0.754110  0.959080  1.0  -0.5919
  O  O1586  1  0.794800  0.781700  0.964850  1.0  -0.6421
  O  O1587  1  0.844040  0.254110  0.459080  1.0  -0.5919
  O  O1588  1  0.794800  0.281700  0.464850  1.0  -0.6421
  O  O1589  1  0.344040  0.754110  0.459080  1.0  -0.5919
  O  O1590  1  0.294800  0.781700  0.464850  1.0  -0.6421
  O  O1591  1  0.344040  0.254110  0.959080  1.0  -0.5919
  O  O1592  1  0.294800  0.281700  0.964850  1.0  -0.6421
  O  O1593  1  0.155960  0.754110  0.040920  1.0  -0.5931
  O  O1594  1  0.205200  0.781700  0.035150  1.0  -0.6422
  O  O1595  1  0.155960  0.254110  0.540920  1.0  -0.5931
  O  O1596  1  0.205200  0.281700  0.535150  1.0  -0.6422
  O  O1597  1  0.655960  0.754110  0.540920  1.0  -0.5931
  O  O1598  1  0.705200  0.781700  0.535150  1.0  -0.6422
  O  O1599  1  0.655960  0.254110  0.040920  1.0  -0.5931
  O  O1600  1  0.705200  0.281700  0.035150  1.0  -0.6422
  O  O1601  1  0.245890  0.040920  0.844040  1.0  -0.595
  O  O1602  1  0.218300  0.035150  0.794800  1.0  -0.6436
  O  O1603  1  0.245890  0.540920  0.344040  1.0  -0.595
  O  O1604  1  0.218300  0.535150  0.294800  1.0  -0.6436
  O  O1605  1  0.745890  0.040920  0.344040  1.0  -0.595
  O  O1606  1  0.718300  0.035150  0.294800  1.0  -0.6436
  O  O1607  1  0.745890  0.540920  0.844040  1.0  -0.595
  O  O1608  1  0.718300  0.535150  0.794800  1.0  -0.6436
  O  O1609  1  0.245890  0.959080  0.155960  1.0  -0.5959
  O  O1610  1  0.218300  0.964850  0.205200  1.0  -0.643
  O  O1611  1  0.245890  0.459080  0.655960  1.0  -0.5959
  O  O1612  1  0.218300  0.464850  0.705200  1.0  -0.643
  O  O1613  1  0.745890  0.959080  0.655960  1.0  -0.5959
  O  O1614  1  0.718300  0.964850  0.705200  1.0  -0.643
  O  O1615  1  0.745890  0.459080  0.155960  1.0  -0.5959
  O  O1616  1  0.718300  0.464850  0.205200  1.0  -0.643
  O  O1617  1  0.754110  0.040920  0.155960  1.0  -0.5953
  O  O1618  1  0.781700  0.035150  0.205200  1.0  -0.6433
  O  O1619  1  0.754110  0.540920  0.655960  1.0  -0.5953
  O  O1620  1  0.781700  0.535150  0.705200  1.0  -0.6433
  O  O1621  1  0.254110  0.040920  0.655960  1.0  -0.5953
  O  O1622  1  0.281700  0.035150  0.705200  1.0  -0.6433
  O  O1623  1  0.254110  0.540920  0.155960  1.0  -0.5953
  O  O1624  1  0.281700  0.535150  0.205200  1.0  -0.6433
  O  O1625  1  0.754110  0.959080  0.844040  1.0  -0.5959
  O  O1626  1  0.781700  0.964850  0.794800  1.0  -0.6426
  O  O1627  1  0.754110  0.459080  0.344040  1.0  -0.5959
  O  O1628  1  0.781700  0.464850  0.294800  1.0  -0.6426
  O  O1629  1  0.254110  0.959080  0.344040  1.0  -0.5959
  O  O1630  1  0.281700  0.964850  0.294800  1.0  -0.6426
  O  O1631  1  0.254110  0.459080  0.844040  1.0  -0.5959
  O  O1632  1  0.281700  0.464850  0.794800  1.0  -0.6426
  O  O1633  1  0.344040  0.459080  0.254110  1.0  -0.5923
  O  O1634  1  0.294800  0.464850  0.281700  1.0  -0.6419
  O  O1635  1  0.344040  0.959080  0.754110  1.0  -0.5923
  O  O1636  1  0.294800  0.964850  0.781700  1.0  -0.6419
  O  O1637  1  0.844040  0.459080  0.754110  1.0  -0.5923
  O  O1638  1  0.794800  0.464850  0.781700  1.0  -0.6419
  O  O1639  1  0.844040  0.959080  0.254110  1.0  -0.5923
  O  O1640  1  0.794800  0.964850  0.281700  1.0  -0.6419
  O  O1641  1  0.655960  0.540920  0.254110  1.0  -0.5931
  O  O1642  1  0.705200  0.535150  0.281700  1.0  -0.6428
  O  O1643  1  0.655960  0.040920  0.754110  1.0  -0.5931
  O  O1644  1  0.705200  0.035150  0.781700  1.0  -0.6428
  O  O1645  1  0.155960  0.540920  0.754110  1.0  -0.5931
  O  O1646  1  0.205200  0.535150  0.781700  1.0  -0.6428
  O  O1647  1  0.155960  0.040920  0.254110  1.0  -0.5931
  O  O1648  1  0.205200  0.035150  0.281700  1.0  -0.6428
  O  O1649  1  0.655960  0.459080  0.745890  1.0  -0.5942
  O  O1650  1  0.705200  0.464850  0.718300  1.0  -0.6423
  O  O1651  1  0.655960  0.959080  0.245890  1.0  -0.5942
  O  O1652  1  0.705200  0.964850  0.218300  1.0  -0.6423
  O  O1653  1  0.155960  0.459080  0.245890  1.0  -0.5942
  O  O1654  1  0.205200  0.464850  0.218300  1.0  -0.6423
  O  O1655  1  0.155960  0.959080  0.745890  1.0  -0.5942
  O  O1656  1  0.205200  0.964850  0.718300  1.0  -0.6423
  O  O1657  1  0.344040  0.540920  0.745890  1.0  -0.5919
  O  O1658  1  0.294800  0.535150  0.718300  1.0  -0.6424
  O  O1659  1  0.344040  0.040920  0.245890  1.0  -0.5919
  O  O1660  1  0.294800  0.035150  0.218300  1.0  -0.6424
  O  O1661  1  0.844040  0.540920  0.245890  1.0  -0.5919
  O  O1662  1  0.794800  0.535150  0.218300  1.0  -0.6424
  O  O1663  1  0.844040  0.040920  0.745890  1.0  -0.5919
  O  O1664  1  0.794800  0.035150  0.718300  1.0  -0.6424
  O  O1665  1  0.254110  0.344040  0.459080  1.0  -0.5923
  O  O1666  1  0.281700  0.294800  0.464850  1.0  -0.6449
  O  O1667  1  0.254110  0.844040  0.959080  1.0  -0.5923
  O  O1668  1  0.281700  0.794800  0.964850  1.0  -0.6449
  O  O1669  1  0.754110  0.344040  0.959080  1.0  -0.5923
  O  O1670  1  0.781700  0.294800  0.964850  1.0  -0.6449
  O  O1671  1  0.754110  0.844040  0.459080  1.0  -0.5923
  O  O1672  1  0.781700  0.794800  0.464850  1.0  -0.6449
  O  O1673  1  0.254110  0.655960  0.540920  1.0  -0.5929
  O  O1674  1  0.281700  0.705200  0.535150  1.0  -0.6442
  O  O1675  1  0.254110  0.155960  0.040920  1.0  -0.5929
  O  O1676  1  0.281700  0.205200  0.035150  1.0  -0.6442
  O  O1677  1  0.754110  0.655960  0.040920  1.0  -0.5929
  O  O1678  1  0.781700  0.705200  0.035150  1.0  -0.6442
  O  O1679  1  0.754110  0.155960  0.540920  1.0  -0.5929
  O  O1680  1  0.781700  0.205200  0.535150  1.0  -0.6442
  O  O1681  1  0.745890  0.655960  0.459080  1.0  -0.5908
  O  O1682  1  0.718300  0.705200  0.464850  1.0  -0.6446
  O  O1683  1  0.745890  0.155960  0.959080  1.0  -0.5908
  O  O1684  1  0.718300  0.205200  0.964850  1.0  -0.6446
  O  O1685  1  0.245890  0.655960  0.959080  1.0  -0.5908
  O  O1686  1  0.218300  0.705200  0.964850  1.0  -0.6446
  O  O1687  1  0.245890  0.155960  0.459080  1.0  -0.5908
  O  O1688  1  0.218300  0.205200  0.464850  1.0  -0.6446
  O  O1689  1  0.745890  0.344040  0.540920  1.0  -0.5925
  O  O1690  1  0.718300  0.294800  0.535150  1.0  -0.645
  O  O1691  1  0.745890  0.844040  0.040920  1.0  -0.5925
  O  O1692  1  0.718300  0.794800  0.035150  1.0  -0.645
  O  O1693  1  0.245890  0.344040  0.040920  1.0  -0.5925
  O  O1694  1  0.218300  0.294800  0.035150  1.0  -0.645
  O  O1695  1  0.245890  0.844040  0.540920  1.0  -0.5925
  O  O1696  1  0.218300  0.794800  0.535150  1.0  -0.645
  O  O1697  1  0.459080  0.254110  0.344040  1.0  -0.5979
  O  O1698  1  0.464850  0.281700  0.294800  1.0  -0.644
  O  O1699  1  0.459080  0.754110  0.844040  1.0  -0.5979
  O  O1700  1  0.464850  0.781700  0.794800  1.0  -0.644
  O  O1701  1  0.959080  0.254110  0.844040  1.0  -0.5979
  O  O1702  1  0.964850  0.281700  0.794800  1.0  -0.644
  O  O1703  1  0.959080  0.754110  0.344040  1.0  -0.5979
  O  O1704  1  0.964850  0.781700  0.294800  1.0  -0.644
  O  O1705  1  0.540920  0.254110  0.655960  1.0  -0.5966
  O  O1706  1  0.535150  0.281700  0.705200  1.0  -0.6437
  O  O1707  1  0.540920  0.754110  0.155960  1.0  -0.5966
  O  O1708  1  0.535150  0.781700  0.205200  1.0  -0.6437
  O  O1709  1  0.040920  0.254110  0.155960  1.0  -0.5966
  O  O1710  1  0.035150  0.281700  0.205200  1.0  -0.6437
  O  O1711  1  0.040920  0.754110  0.655960  1.0  -0.5966
  O  O1712  1  0.035150  0.781700  0.705200  1.0  -0.6437
  O  O1713  1  0.459080  0.745890  0.655960  1.0  -0.5982
  O  O1714  1  0.464850  0.718300  0.705200  1.0  -0.644
  O  O1715  1  0.459080  0.245890  0.155960  1.0  -0.5982
  O  O1716  1  0.464850  0.218300  0.205200  1.0  -0.644
  O  O1717  1  0.959080  0.745890  0.155960  1.0  -0.5982
  O  O1718  1  0.964850  0.718300  0.205200  1.0  -0.644
  O  O1719  1  0.959080  0.245890  0.655960  1.0  -0.5982
  O  O1720  1  0.964850  0.218300  0.705200  1.0  -0.644
  O  O1721  1  0.540920  0.745890  0.344040  1.0  -0.5966
  O  O1722  1  0.535150  0.718300  0.294800  1.0  -0.6437
  O  O1723  1  0.540920  0.245890  0.844040  1.0  -0.5966
  O  O1724  1  0.535150  0.218300  0.794800  1.0  -0.6437
  O  O1725  1  0.040920  0.745890  0.844040  1.0  -0.5966
  O  O1726  1  0.035150  0.718300  0.794800  1.0  -0.6437
  O  O1727  1  0.040920  0.245890  0.344040  1.0  -0.5966
  O  O1728  1  0.035150  0.218300  0.294800  1.0  -0.6437
  O  O1729  1  0.959080  0.844040  0.245890  1.0  -0.5929
  O  O1730  1  0.964850  0.794800  0.218300  1.0  -0.6462
  O  O1731  1  0.959080  0.344040  0.745890  1.0  -0.5929
  O  O1732  1  0.964850  0.294800  0.718300  1.0  -0.6462
  O  O1733  1  0.459080  0.844040  0.745890  1.0  -0.5929
  O  O1734  1  0.464850  0.794800  0.718300  1.0  -0.6462
  O  O1735  1  0.459080  0.344040  0.245890  1.0  -0.5929
  O  O1736  1  0.464850  0.294800  0.218300  1.0  -0.6462
  O  O1737  1  0.040920  0.155960  0.245890  1.0  -0.5924
  O  O1738  1  0.035150  0.205200  0.218300  1.0  -0.6452
  O  O1739  1  0.040920  0.655960  0.745890  1.0  -0.5924
  O  O1740  1  0.035150  0.705200  0.718300  1.0  -0.6452
  O  O1741  1  0.540920  0.155960  0.745890  1.0  -0.5924
  O  O1742  1  0.535150  0.205200  0.718300  1.0  -0.6452
  O  O1743  1  0.540920  0.655960  0.245890  1.0  -0.5924
  O  O1744  1  0.535150  0.705200  0.218300  1.0  -0.6452
  O  O1745  1  0.959080  0.155960  0.754110  1.0  -0.5925
  O  O1746  1  0.964850  0.205200  0.781700  1.0  -0.6455
  O  O1747  1  0.959080  0.655960  0.254110  1.0  -0.5925
  O  O1748  1  0.964850  0.705200  0.281700  1.0  -0.6455
  O  O1749  1  0.459080  0.155960  0.254110  1.0  -0.5925
  O  O1750  1  0.464850  0.205200  0.281700  1.0  -0.6455
  O  O1751  1  0.459080  0.655960  0.754110  1.0  -0.5925
  O  O1752  1  0.464850  0.705200  0.781700  1.0  -0.6455
  O  O1753  1  0.040920  0.844040  0.754110  1.0  -0.5932
  O  O1754  1  0.035150  0.794800  0.781700  1.0  -0.6461
  O  O1755  1  0.040920  0.344040  0.254110  1.0  -0.5932
  O  O1756  1  0.035150  0.294800  0.281700  1.0  -0.6461
  O  O1757  1  0.540920  0.844040  0.254110  1.0  -0.5932
  O  O1758  1  0.535150  0.794800  0.281700  1.0  -0.6461
  O  O1759  1  0.540920  0.344040  0.754110  1.0  -0.5932
  O  O1760  1  0.535150  0.294800  0.781700  1.0  -0.6461
  O  O1761  1  0.844040  0.754110  0.040920  1.0  -0.5921
  O  O1762  1  0.794800  0.781700  0.035150  1.0  -0.6416
  O  O1763  1  0.844040  0.254110  0.540920  1.0  -0.5921
  O  O1764  1  0.794800  0.281700  0.535150  1.0  -0.6416
  O  O1765  1  0.344040  0.754110  0.540920  1.0  -0.5921
  O  O1766  1  0.294800  0.781700  0.535150  1.0  -0.6416
  O  O1767  1  0.344040  0.254110  0.040920  1.0  -0.5921
  O  O1768  1  0.294800  0.281700  0.035150  1.0  -0.6416
  O  O1769  1  0.155960  0.754110  0.959080  1.0  -0.5927
  O  O1770  1  0.205200  0.781700  0.964850  1.0  -0.6424
  O  O1771  1  0.155960  0.254110  0.459080  1.0  -0.5927
  O  O1772  1  0.205200  0.281700  0.464850  1.0  -0.6424
  O  O1773  1  0.655960  0.754110  0.459080  1.0  -0.5927
  O  O1774  1  0.705200  0.781700  0.464850  1.0  -0.6424
  O  O1775  1  0.655960  0.254110  0.959080  1.0  -0.5927
  O  O1776  1  0.705200  0.281700  0.964850  1.0  -0.6424
  O  O1777  1  0.155960  0.245890  0.040920  1.0  -0.594
  O  O1778  1  0.205200  0.218300  0.035150  1.0  -0.642
  O  O1779  1  0.155960  0.745890  0.540920  1.0  -0.594
  O  O1780  1  0.205200  0.718300  0.535150  1.0  -0.642
  O  O1781  1  0.655960  0.245890  0.540920  1.0  -0.594
  O  O1782  1  0.705200  0.218300  0.535150  1.0  -0.642
  O  O1783  1  0.655960  0.745890  0.040920  1.0  -0.594
  O  O1784  1  0.705200  0.718300  0.035150  1.0  -0.642
  O  O1785  1  0.844040  0.245890  0.959080  1.0  -0.5917
  O  O1786  1  0.794800  0.218300  0.964850  1.0  -0.6419
  O  O1787  1  0.844040  0.745890  0.459080  1.0  -0.5917
  O  O1788  1  0.794800  0.718300  0.464850  1.0  -0.6419
  O  O1789  1  0.344040  0.245890  0.459080  1.0  -0.5917
  O  O1790  1  0.294800  0.218300  0.464850  1.0  -0.6419
  O  O1791  1  0.344040  0.745890  0.959080  1.0  -0.5917
  O  O1792  1  0.294800  0.718300  0.964850  1.0  -0.6419
  O  O1793  1  0.754110  0.959080  0.155960  1.0  -0.5958
  O  O1794  1  0.781700  0.964850  0.205200  1.0  -0.6424
  O  O1795  1  0.754110  0.459080  0.655960  1.0  -0.5958
  O  O1796  1  0.781700  0.464850  0.705200  1.0  -0.6424
  O  O1797  1  0.254110  0.959080  0.655960  1.0  -0.5958
  O  O1798  1  0.281700  0.964850  0.705200  1.0  -0.6424
  O  O1799  1  0.254110  0.459080  0.155960  1.0  -0.5958
  O  O1800  1  0.281700  0.464850  0.205200  1.0  -0.6424
  O  O1801  1  0.754110  0.040920  0.844040  1.0  -0.5962
  O  O1802  1  0.781700  0.035150  0.794800  1.0  -0.6432
  O  O1803  1  0.754110  0.540920  0.344040  1.0  -0.5962
  O  O1804  1  0.781700  0.535150  0.294800  1.0  -0.6432
  O  O1805  1  0.254110  0.040920  0.344040  1.0  -0.5962
  O  O1806  1  0.281700  0.035150  0.294800  1.0  -0.6432
  O  O1807  1  0.254110  0.540920  0.844040  1.0  -0.5962
  O  O1808  1  0.281700  0.535150  0.794800  1.0  -0.6432
  O  O1809  1  0.245890  0.959080  0.844040  1.0  -0.5951
  O  O1810  1  0.218300  0.964850  0.794800  1.0  -0.6433
  O  O1811  1  0.245890  0.459080  0.344040  1.0  -0.5951
  O  O1812  1  0.218300  0.464850  0.294800  1.0  -0.6433
  O  O1813  1  0.745890  0.959080  0.344040  1.0  -0.5951
  O  O1814  1  0.718300  0.964850  0.294800  1.0  -0.6433
  O  O1815  1  0.745890  0.459080  0.844040  1.0  -0.5951
  O  O1816  1  0.718300  0.464850  0.794800  1.0  -0.6433
  O  O1817  1  0.245890  0.040920  0.155960  1.0  -0.5951
  O  O1818  1  0.218300  0.035150  0.205200  1.0  -0.6437
  O  O1819  1  0.245890  0.540920  0.655960  1.0  -0.5951
  O  O1820  1  0.218300  0.535150  0.705200  1.0  -0.6437
  O  O1821  1  0.745890  0.040920  0.655960  1.0  -0.5951
  O  O1822  1  0.718300  0.035150  0.705200  1.0  -0.6437
  O  O1823  1  0.745890  0.540920  0.155960  1.0  -0.5951
  O  O1824  1  0.718300  0.535150  0.205200  1.0  -0.6437
