# generated using pymatgen
data_CoH19C25N3O4
_symmetry_space_group_name_H-M   'P 1'
_cell_length_a   52.34900000
_cell_length_b   20.42100000
_cell_length_c   9.91110000
_cell_angle_alpha   90.00000000
_cell_angle_beta   90.00000000
_cell_angle_gamma   90.00000000
_symmetry_Int_Tables_number   1
_chemical_formula_structural   CoH19C25N3O4
_chemical_formula_sum   'Co16 H304 C400 N48 O64'
_cell_volume   10595.15350721
_cell_formula_units_Z   16
loop_
 _symmetry_equiv_pos_site_id
 _symmetry_equiv_pos_as_xyz
  1  'x, y, z'
loop_
 _atom_site_type_symbol
 _atom_site_label
 _atom_site_symmetry_multiplicity
 _atom_site_fract_x
 _atom_site_fract_y
 _atom_site_fract_z
 _atom_site_occupancy
 _atom_site_charge
  Co  Co1  1  0.461790  0.339560  0.165360  1.0  0.7991
  Co  Co2  1  0.461790  0.839560  0.665360  1.0  0.7991
  Co  Co3  1  0.961790  0.339560  0.665360  1.0  0.7991
  Co  Co4  1  0.961790  0.839560  0.165360  1.0  0.7991
  Co  Co5  1  0.711790  0.910440  0.415360  1.0  0.7991
  Co  Co6  1  0.711790  0.410440  0.915360  1.0  0.7991
  Co  Co7  1  0.211790  0.910440  0.915360  1.0  0.7991
  Co  Co8  1  0.211790  0.410440  0.415360  1.0  0.7991
  Co  Co9  1  0.538210  0.660440  0.165360  1.0  0.799
  Co  Co10  1  0.538210  0.160440  0.665360  1.0  0.799
  Co  Co11  1  0.038210  0.660440  0.665360  1.0  0.799
  Co  Co12  1  0.038210  0.160440  0.165360  1.0  0.799
  Co  Co13  1  0.788210  0.589560  0.415360  1.0  0.799
  Co  Co14  1  0.788210  0.089560  0.915360  1.0  0.799
  Co  Co15  1  0.288210  0.589560  0.915360  1.0  0.799
  Co  Co16  1  0.288210  0.089560  0.415360  1.0  0.799
  H  H17  1  0.465000  0.510900  0.461200  1.0  0.1162
  H  H18  1  0.461800  0.341200  0.669900  1.0  0.1128
  H  H19  1  0.463200  0.513900  0.870200  1.0  0.108
  H  H20  1  0.447900  0.722600  0.485700  1.0  0.0974
  H  H21  1  0.447100  0.610100  0.483700  1.0  0.1244
  H  H22  1  0.481700  0.611000  0.846900  1.0  0.1038
  H  H23  1  0.481700  0.724200  0.838700  1.0  0.089
  H  H24  1  0.589900  0.409600  0.194900  1.0  0.117
  H  H25  1  0.592200  0.343900  0.107900  1.0  0.1162
  H  H26  1  0.501100  0.445100  0.199700  1.0  0.088
  H  H27  1  0.544100  0.467600  0.177700  1.0  0.1325
  H  H28  1  0.555700  0.277200  0.089200  1.0  0.1269
  H  H29  1  0.512200  0.260500  0.106700  1.0  0.0841
  H  H30  1  0.583000  0.471600  0.003700  1.0  0.1071
  H  H31  1  0.580300  0.407300  0.912000  1.0  0.102
  H  H32  1  0.671400  0.481800  0.082700  1.0  0.0733
  H  H33  1  0.627700  0.487200  0.119200  1.0  0.1204
  H  H34  1  0.617900  0.368100  0.802900  1.0  0.1227
  H  H35  1  0.661700  0.363200  0.779600  1.0  0.0826
  H  H36  1  0.465000  0.010900  0.961200  1.0  0.1162
  H  H37  1  0.461800  0.841200  0.169900  1.0  0.1128
  H  H38  1  0.463200  0.013900  0.370200  1.0  0.108
  H  H39  1  0.447900  0.222600  0.985700  1.0  0.0974
  H  H40  1  0.447100  0.110100  0.983700  1.0  0.1244
  H  H41  1  0.481700  0.111000  0.346900  1.0  0.1038
  H  H42  1  0.481700  0.224200  0.338700  1.0  0.089
  H  H43  1  0.589900  0.909600  0.694900  1.0  0.117
  H  H44  1  0.592200  0.843900  0.607900  1.0  0.1162
  H  H45  1  0.501100  0.945100  0.699700  1.0  0.088
  H  H46  1  0.544100  0.967600  0.677700  1.0  0.1325
  H  H47  1  0.555700  0.777200  0.589200  1.0  0.1269
  H  H48  1  0.512200  0.760500  0.606700  1.0  0.0841
  H  H49  1  0.583000  0.971600  0.503700  1.0  0.1071
  H  H50  1  0.580300  0.907300  0.412000  1.0  0.102
  H  H51  1  0.671400  0.981800  0.582700  1.0  0.0733
  H  H52  1  0.627700  0.987200  0.619200  1.0  0.1204
  H  H53  1  0.617900  0.868100  0.302900  1.0  0.1227
  H  H54  1  0.661700  0.863200  0.279600  1.0  0.0826
  H  H55  1  0.965000  0.510900  0.961200  1.0  0.1162
  H  H56  1  0.961800  0.341200  0.169900  1.0  0.1128
  H  H57  1  0.963200  0.513900  0.370200  1.0  0.108
  H  H58  1  0.947900  0.722600  0.985700  1.0  0.0974
  H  H59  1  0.947100  0.610100  0.983700  1.0  0.1244
  H  H60  1  0.981700  0.611000  0.346900  1.0  0.1038
  H  H61  1  0.981700  0.724200  0.338700  1.0  0.089
  H  H62  1  0.089900  0.409600  0.694900  1.0  0.117
  H  H63  1  0.092200  0.343900  0.607900  1.0  0.1162
  H  H64  1  0.001100  0.445100  0.699700  1.0  0.088
  H  H65  1  0.044100  0.467600  0.677700  1.0  0.1325
  H  H66  1  0.055700  0.277200  0.589200  1.0  0.1269
  H  H67  1  0.012200  0.260500  0.606700  1.0  0.0841
  H  H68  1  0.083000  0.471600  0.503700  1.0  0.1071
  H  H69  1  0.080300  0.407300  0.412000  1.0  0.102
  H  H70  1  0.171400  0.481800  0.582700  1.0  0.0733
  H  H71  1  0.127700  0.487200  0.619200  1.0  0.1204
  H  H72  1  0.117900  0.368100  0.302900  1.0  0.1227
  H  H73  1  0.161700  0.363200  0.279600  1.0  0.0826
  H  H74  1  0.965000  0.010900  0.461200  1.0  0.1162
  H  H75  1  0.961800  0.841200  0.669900  1.0  0.1128
  H  H76  1  0.963200  0.013900  0.870200  1.0  0.108
  H  H77  1  0.947900  0.222600  0.485700  1.0  0.0974
  H  H78  1  0.947100  0.110100  0.483700  1.0  0.1244
  H  H79  1  0.981700  0.111000  0.846900  1.0  0.1038
  H  H80  1  0.981700  0.224200  0.838700  1.0  0.089
  H  H81  1  0.089900  0.909600  0.194900  1.0  0.117
  H  H82  1  0.092200  0.843900  0.107900  1.0  0.1162
  H  H83  1  0.001100  0.945100  0.199700  1.0  0.088
  H  H84  1  0.044100  0.967600  0.177700  1.0  0.1325
  H  H85  1  0.055700  0.777200  0.089200  1.0  0.1269
  H  H86  1  0.012200  0.760500  0.106700  1.0  0.0841
  H  H87  1  0.083000  0.971600  0.003700  1.0  0.1071
  H  H88  1  0.080300  0.907300  0.912000  1.0  0.102
  H  H89  1  0.171400  0.981800  0.082700  1.0  0.0733
  H  H90  1  0.127700  0.987200  0.119200  1.0  0.1204
  H  H91  1  0.117900  0.868100  0.802900  1.0  0.1227
  H  H92  1  0.161700  0.863200  0.779600  1.0  0.0826
  H  H93  1  0.715000  0.739100  0.711200  1.0  0.1162
  H  H94  1  0.711800  0.908800  0.919900  1.0  0.1123
  H  H95  1  0.713200  0.736100  0.120200  1.0  0.1078
  H  H96  1  0.697900  0.527400  0.735700  1.0  0.0979
  H  H97  1  0.697100  0.639900  0.733700  1.0  0.1244
  H  H98  1  0.731700  0.639000  0.096900  1.0  0.1038
  H  H99  1  0.731700  0.525800  0.088700  1.0  0.0891
  H  H100  1  0.839900  0.840400  0.444900  1.0  0.117
  H  H101  1  0.842200  0.906100  0.357900  1.0  0.1137
  H  H102  1  0.751100  0.804900  0.449700  1.0  0.0879
  H  H103  1  0.794100  0.782400  0.427700  1.0  0.1325
  H  H104  1  0.805700  0.972800  0.339200  1.0  0.1268
  H  H105  1  0.762200  0.989500  0.356700  1.0  0.0839
  H  H106  1  0.833000  0.778400  0.253700  1.0  0.1101
  H  H107  1  0.830300  0.842700  0.162000  1.0  0.1016
  H  H108  1  0.921400  0.768200  0.332700  1.0  0.0734
  H  H109  1  0.877700  0.762800  0.369200  1.0  0.1207
  H  H110  1  0.867900  0.881900  0.052900  1.0  0.1226
  H  H111  1  0.911700  0.886800  0.029600  1.0  0.0827
  H  H112  1  0.715000  0.239100  0.211200  1.0  0.1162
  H  H113  1  0.711800  0.408800  0.419900  1.0  0.1123
  H  H114  1  0.713200  0.236100  0.620200  1.0  0.1078
  H  H115  1  0.697900  0.027400  0.235700  1.0  0.0979
  H  H116  1  0.697100  0.139900  0.233700  1.0  0.1244
  H  H117  1  0.731700  0.139000  0.596900  1.0  0.1038
  H  H118  1  0.731700  0.025800  0.588700  1.0  0.0891
  H  H119  1  0.839900  0.340400  0.944900  1.0  0.117
  H  H120  1  0.842200  0.406100  0.857900  1.0  0.1137
  H  H121  1  0.751100  0.304900  0.949700  1.0  0.0879
  H  H122  1  0.794100  0.282400  0.927700  1.0  0.1325
  H  H123  1  0.805700  0.472800  0.839200  1.0  0.1268
  H  H124  1  0.762200  0.489500  0.856700  1.0  0.0839
  H  H125  1  0.833000  0.278400  0.753700  1.0  0.1101
  H  H126  1  0.830300  0.342700  0.662000  1.0  0.1016
  H  H127  1  0.921400  0.268200  0.832700  1.0  0.0734
  H  H128  1  0.877700  0.262800  0.869200  1.0  0.1207
  H  H129  1  0.867900  0.381900  0.552900  1.0  0.1226
  H  H130  1  0.911700  0.386800  0.529600  1.0  0.0827
  H  H131  1  0.215000  0.739100  0.211200  1.0  0.1162
  H  H132  1  0.211800  0.908800  0.419900  1.0  0.1123
  H  H133  1  0.213200  0.736100  0.620200  1.0  0.1078
  H  H134  1  0.197900  0.527400  0.235700  1.0  0.0979
  H  H135  1  0.197100  0.639900  0.233700  1.0  0.1244
  H  H136  1  0.231700  0.639000  0.596900  1.0  0.1038
  H  H137  1  0.231700  0.525800  0.588700  1.0  0.0891
  H  H138  1  0.339900  0.840400  0.944900  1.0  0.1158
  H  H139  1  0.342200  0.906100  0.857900  1.0  0.1138
  H  H140  1  0.251100  0.804900  0.949700  1.0  0.0879
  H  H141  1  0.294100  0.782400  0.927700  1.0  0.1325
  H  H142  1  0.305700  0.972800  0.839200  1.0  0.1268
  H  H143  1  0.262200  0.989500  0.856700  1.0  0.0839
  H  H144  1  0.333000  0.778400  0.753700  1.0  0.1101
  H  H145  1  0.330300  0.842700  0.662000  1.0  0.1015
  H  H146  1  0.421400  0.768200  0.832700  1.0  0.0734
  H  H147  1  0.377700  0.762800  0.869200  1.0  0.1207
  H  H148  1  0.367900  0.881900  0.552900  1.0  0.1226
  H  H149  1  0.411700  0.886800  0.529600  1.0  0.0826
  H  H150  1  0.215000  0.239100  0.711200  1.0  0.1162
  H  H151  1  0.211800  0.408800  0.919900  1.0  0.1123
  H  H152  1  0.213200  0.236100  0.120200  1.0  0.1078
  H  H153  1  0.197900  0.027400  0.735700  1.0  0.0979
  H  H154  1  0.197100  0.139900  0.733700  1.0  0.1244
  H  H155  1  0.231700  0.139000  0.096900  1.0  0.1038
  H  H156  1  0.231700  0.025800  0.088700  1.0  0.0891
  H  H157  1  0.339900  0.340400  0.444900  1.0  0.1158
  H  H158  1  0.342200  0.406100  0.357900  1.0  0.1138
  H  H159  1  0.251100  0.304900  0.449700  1.0  0.0879
  H  H160  1  0.294100  0.282400  0.427700  1.0  0.1325
  H  H161  1  0.305700  0.472800  0.339200  1.0  0.1268
  H  H162  1  0.262200  0.489500  0.356700  1.0  0.0839
  H  H163  1  0.333000  0.278400  0.253700  1.0  0.1101
  H  H164  1  0.330300  0.342700  0.162000  1.0  0.1015
  H  H165  1  0.421400  0.268200  0.332700  1.0  0.0734
  H  H166  1  0.377700  0.262800  0.369200  1.0  0.1207
  H  H167  1  0.367900  0.381900  0.052900  1.0  0.1226
  H  H168  1  0.411700  0.386800  0.029600  1.0  0.0826
  H  H169  1  0.535000  0.489100  0.461200  1.0  0.1159
  H  H170  1  0.538200  0.658800  0.669900  1.0  0.1123
  H  H171  1  0.536800  0.486100  0.870200  1.0  0.1076
  H  H172  1  0.552100  0.277400  0.485700  1.0  0.0977
  H  H173  1  0.552900  0.389900  0.483700  1.0  0.1247
  H  H174  1  0.518300  0.389000  0.846900  1.0  0.1042
  H  H175  1  0.518300  0.275800  0.838700  1.0  0.0891
  H  H176  1  0.410100  0.590400  0.194900  1.0  0.1171
  H  H177  1  0.407800  0.656100  0.107900  1.0  0.1141
  H  H178  1  0.498900  0.554900  0.199700  1.0  0.0885
  H  H179  1  0.455900  0.532400  0.177700  1.0  0.1329
  H  H180  1  0.444300  0.722800  0.089200  1.0  0.1271
  H  H181  1  0.487800  0.739500  0.106700  1.0  0.0839
  H  H182  1  0.417000  0.528400  0.003700  1.0  0.109
  H  H183  1  0.419700  0.592700  0.912000  1.0  0.1013
  H  H184  1  0.328600  0.518200  0.082700  1.0  0.0736
  H  H185  1  0.372300  0.512800  0.119200  1.0  0.1206
  H  H186  1  0.382100  0.631900  0.802900  1.0  0.1229
  H  H187  1  0.338300  0.636800  0.779600  1.0  0.0822
  H  H188  1  0.535000  0.989100  0.961200  1.0  0.1159
  H  H189  1  0.538200  0.158800  0.169900  1.0  0.1123
  H  H190  1  0.536800  0.986100  0.370200  1.0  0.1076
  H  H191  1  0.552100  0.777400  0.985700  1.0  0.0977
  H  H192  1  0.552900  0.889900  0.983700  1.0  0.1247
  H  H193  1  0.518300  0.889000  0.346900  1.0  0.1042
  H  H194  1  0.518300  0.775800  0.338700  1.0  0.0891
  H  H195  1  0.410100  0.090400  0.694900  1.0  0.1171
  H  H196  1  0.407800  0.156100  0.607900  1.0  0.1141
  H  H197  1  0.498900  0.054900  0.699700  1.0  0.0885
  H  H198  1  0.455900  0.032400  0.677700  1.0  0.1329
  H  H199  1  0.444300  0.222800  0.589200  1.0  0.1271
  H  H200  1  0.487800  0.239500  0.606700  1.0  0.0839
  H  H201  1  0.417000  0.028400  0.503700  1.0  0.109
  H  H202  1  0.419700  0.092700  0.412000  1.0  0.1013
  H  H203  1  0.328600  0.018200  0.582700  1.0  0.0736
  H  H204  1  0.372300  0.012800  0.619200  1.0  0.1206
  H  H205  1  0.382100  0.131900  0.302900  1.0  0.1229
  H  H206  1  0.338300  0.136800  0.279600  1.0  0.0822
  H  H207  1  0.035000  0.489100  0.961200  1.0  0.1159
  H  H208  1  0.038200  0.658800  0.169900  1.0  0.1123
  H  H209  1  0.036800  0.486100  0.370200  1.0  0.1076
  H  H210  1  0.052100  0.277400  0.985700  1.0  0.0977
  H  H211  1  0.052900  0.389900  0.983700  1.0  0.1247
  H  H212  1  0.018300  0.389000  0.346900  1.0  0.1042
  H  H213  1  0.018300  0.275800  0.338700  1.0  0.0891
  H  H214  1  0.910100  0.590400  0.694900  1.0  0.1171
  H  H215  1  0.907800  0.656100  0.607900  1.0  0.1141
  H  H216  1  0.998900  0.554900  0.699700  1.0  0.0885
  H  H217  1  0.955900  0.532400  0.677700  1.0  0.1329
  H  H218  1  0.944300  0.722800  0.589200  1.0  0.1271
  H  H219  1  0.987800  0.739500  0.606700  1.0  0.0839
  H  H220  1  0.917000  0.528400  0.503700  1.0  0.109
  H  H221  1  0.919700  0.592700  0.412000  1.0  0.1013
  H  H222  1  0.828600  0.518200  0.582700  1.0  0.0736
  H  H223  1  0.872300  0.512800  0.619200  1.0  0.1206
  H  H224  1  0.882100  0.631900  0.302900  1.0  0.1229
  H  H225  1  0.838300  0.636800  0.279600  1.0  0.0822
  H  H226  1  0.035000  0.989100  0.461200  1.0  0.1159
  H  H227  1  0.038200  0.158800  0.669900  1.0  0.1123
  H  H228  1  0.036800  0.986100  0.870200  1.0  0.1076
  H  H229  1  0.052100  0.777400  0.485700  1.0  0.0977
  H  H230  1  0.052900  0.889900  0.483700  1.0  0.1247
  H  H231  1  0.018300  0.889000  0.846900  1.0  0.1042
  H  H232  1  0.018300  0.775800  0.838700  1.0  0.0891
  H  H233  1  0.910100  0.090400  0.194900  1.0  0.1171
  H  H234  1  0.907800  0.156100  0.107900  1.0  0.1141
  H  H235  1  0.998900  0.054900  0.199700  1.0  0.0885
  H  H236  1  0.955900  0.032400  0.177700  1.0  0.1329
  H  H237  1  0.944300  0.222800  0.089200  1.0  0.1271
  H  H238  1  0.987800  0.239500  0.106700  1.0  0.0839
  H  H239  1  0.917000  0.028400  0.003700  1.0  0.109
  H  H240  1  0.919700  0.092700  0.912000  1.0  0.1013
  H  H241  1  0.828600  0.018200  0.082700  1.0  0.0736
  H  H242  1  0.872300  0.012800  0.119200  1.0  0.1206
  H  H243  1  0.882100  0.131900  0.802900  1.0  0.1229
  H  H244  1  0.838300  0.136800  0.779600  1.0  0.0822
  H  H245  1  0.785000  0.760900  0.711200  1.0  0.1159
  H  H246  1  0.788200  0.591200  0.919900  1.0  0.1125
  H  H247  1  0.786800  0.763900  0.120200  1.0  0.1079
  H  H248  1  0.802100  0.972600  0.735700  1.0  0.0974
  H  H249  1  0.802900  0.860100  0.733700  1.0  0.1246
  H  H250  1  0.768300  0.861000  0.096900  1.0  0.1042
  H  H251  1  0.768300  0.974200  0.088700  1.0  0.0889
  H  H252  1  0.660100  0.659600  0.444900  1.0  0.116
  H  H253  1  0.657800  0.593900  0.357900  1.0  0.1156
  H  H254  1  0.748900  0.695100  0.449700  1.0  0.0882
  H  H255  1  0.705900  0.717600  0.427700  1.0  0.133
  H  H256  1  0.694300  0.527200  0.339200  1.0  0.1269
  H  H257  1  0.737800  0.510500  0.356700  1.0  0.0842
  H  H258  1  0.667000  0.721600  0.253700  1.0  0.1069
  H  H259  1  0.669700  0.657300  0.162000  1.0  0.1016
  H  H260  1  0.578600  0.731800  0.332700  1.0  0.0735
  H  H261  1  0.622300  0.737200  0.369200  1.0  0.1204
  H  H262  1  0.632100  0.618100  0.052900  1.0  0.1231
  H  H263  1  0.588300  0.613200  0.029600  1.0  0.0825
  H  H264  1  0.785000  0.260900  0.211200  1.0  0.1159
  H  H265  1  0.788200  0.091200  0.419900  1.0  0.1125
  H  H266  1  0.786800  0.263900  0.620200  1.0  0.1079
  H  H267  1  0.802100  0.472600  0.235700  1.0  0.0974
  H  H268  1  0.802900  0.360100  0.233700  1.0  0.1246
  H  H269  1  0.768300  0.361000  0.596900  1.0  0.1042
  H  H270  1  0.768300  0.474200  0.588700  1.0  0.0889
  H  H271  1  0.660100  0.159600  0.944900  1.0  0.116
  H  H272  1  0.657800  0.093900  0.857900  1.0  0.1156
  H  H273  1  0.748900  0.195100  0.949700  1.0  0.0882
  H  H274  1  0.705900  0.217600  0.927700  1.0  0.133
  H  H275  1  0.694300  0.027200  0.839200  1.0  0.1269
  H  H276  1  0.737800  0.010500  0.856700  1.0  0.0842
  H  H277  1  0.667000  0.221600  0.753700  1.0  0.1069
  H  H278  1  0.669700  0.157300  0.662000  1.0  0.1016
  H  H279  1  0.578600  0.231800  0.832700  1.0  0.0735
  H  H280  1  0.622300  0.237200  0.869200  1.0  0.1204
  H  H281  1  0.632100  0.118100  0.552900  1.0  0.1231
  H  H282  1  0.588300  0.113200  0.529600  1.0  0.0825
  H  H283  1  0.285000  0.760900  0.211200  1.0  0.1159
  H  H284  1  0.288200  0.591200  0.419900  1.0  0.1125
  H  H285  1  0.286800  0.763900  0.620200  1.0  0.1079
  H  H286  1  0.302100  0.972600  0.235700  1.0  0.0974
  H  H287  1  0.302900  0.860100  0.233700  1.0  0.1246
  H  H288  1  0.268300  0.861000  0.596900  1.0  0.1042
  H  H289  1  0.268300  0.974200  0.588700  1.0  0.0889
  H  H290  1  0.160100  0.659600  0.944900  1.0  0.1173
  H  H291  1  0.157800  0.593900  0.857900  1.0  0.116
  H  H292  1  0.248900  0.695100  0.949700  1.0  0.0882
  H  H293  1  0.205900  0.717600  0.927700  1.0  0.133
  H  H294  1  0.194300  0.527200  0.839200  1.0  0.1269
  H  H295  1  0.237800  0.510500  0.856700  1.0  0.0842
  H  H296  1  0.167000  0.721600  0.753700  1.0  0.1069
  H  H297  1  0.169700  0.657300  0.662000  1.0  0.1017
  H  H298  1  0.078600  0.731800  0.832700  1.0  0.0735
  H  H299  1  0.122300  0.737200  0.869200  1.0  0.1204
  H  H300  1  0.132100  0.618100  0.552900  1.0  0.1231
  H  H301  1  0.088300  0.613200  0.529600  1.0  0.0826
  H  H302  1  0.285000  0.260900  0.711200  1.0  0.1159
  H  H303  1  0.288200  0.091200  0.919900  1.0  0.1125
  H  H304  1  0.286800  0.263900  0.120200  1.0  0.1079
  H  H305  1  0.302100  0.472600  0.735700  1.0  0.0974
  H  H306  1  0.302900  0.360100  0.733700  1.0  0.1246
  H  H307  1  0.268300  0.361000  0.096900  1.0  0.1042
  H  H308  1  0.268300  0.474200  0.088700  1.0  0.0889
  H  H309  1  0.160100  0.159600  0.444900  1.0  0.1173
  H  H310  1  0.157800  0.093900  0.357900  1.0  0.116
  H  H311  1  0.248900  0.195100  0.449700  1.0  0.0882
  H  H312  1  0.205900  0.217600  0.427700  1.0  0.133
  H  H313  1  0.194300  0.027200  0.339200  1.0  0.1269
  H  H314  1  0.237800  0.010500  0.356700  1.0  0.0842
  H  H315  1  0.167000  0.221600  0.253700  1.0  0.1069
  H  H316  1  0.169700  0.157300  0.162000  1.0  0.1017
  H  H317  1  0.078600  0.231800  0.332700  1.0  0.0735
  H  H318  1  0.122300  0.237200  0.369200  1.0  0.1204
  H  H319  1  0.132100  0.118100  0.052900  1.0  0.1231
  H  H320  1  0.088300  0.113200  0.029600  1.0  0.0826
  C  C321  1  0.464170  0.524280  0.665900  1.0  0.0249
  C  C322  1  0.464230  0.488590  0.545100  1.0  -0.0833
  C  C323  1  0.463170  0.420700  0.547800  1.0  -0.1243
  C  C324  1  0.462260  0.387710  0.668700  1.0  0.0031
  C  C325  1  0.462040  0.422820  0.790000  1.0  -0.141
  C  C326  1  0.463140  0.490270  0.787600  1.0  -0.0955
  C  C327  1  0.454810  0.699670  0.560600  1.0  0.1745
  C  C328  1  0.454440  0.632360  0.558600  1.0  -0.1874
  C  C329  1  0.464580  0.596740  0.664500  1.0  0.0974
  C  C330  1  0.474660  0.632770  0.770800  1.0  -0.2047
  C  C331  1  0.474380  0.700630  0.765600  1.0  0.1682
  C  C332  1  0.462480  0.384010  0.416500  1.0  0.671
  C  C333  1  0.460580  0.386750  0.921900  1.0  0.6504
  C  C334  1  0.583310  0.386460  0.114300  1.0  -0.2782
  C  C335  1  0.512390  0.410390  0.176600  1.0  0.169
  C  C336  1  0.538050  0.424230  0.164300  1.0  -0.2091
  C  C337  1  0.555030  0.374280  0.132200  1.0  0.1481
  C  C338  1  0.544840  0.312810  0.111600  1.0  -0.2494
  C  C339  1  0.518790  0.303090  0.123600  1.0  0.1663
  C  C340  1  0.589250  0.426290  0.991000  1.0  -0.2327
  C  C341  1  0.660430  0.457260  0.025600  1.0  0.1731
  C  C342  1  0.634210  0.461220  0.047400  1.0  -0.2356
  C  C343  1  0.617660  0.427420  0.964900  1.0  0.1286
  C  C344  1  0.628420  0.391560  0.864000  1.0  -0.2243
  C  C345  1  0.654800  0.389180  0.850100  1.0  0.1703
  C  C346  1  0.464170  0.024280  0.165900  1.0  0.0249
  C  C347  1  0.464230  0.988590  0.045100  1.0  -0.0833
  C  C348  1  0.463170  0.920700  0.047800  1.0  -0.1243
  C  C349  1  0.462260  0.887710  0.168700  1.0  0.0031
  C  C350  1  0.462040  0.922820  0.290000  1.0  -0.141
  C  C351  1  0.463140  0.990270  0.287600  1.0  -0.0955
  C  C352  1  0.454810  0.199670  0.060600  1.0  0.1745
  C  C353  1  0.454440  0.132360  0.058600  1.0  -0.1874
  C  C354  1  0.464580  0.096740  0.164500  1.0  0.0974
  C  C355  1  0.474660  0.132770  0.270800  1.0  -0.2047
  C  C356  1  0.474380  0.200630  0.265600  1.0  0.1682
  C  C357  1  0.462480  0.884010  0.916500  1.0  0.671
  C  C358  1  0.460580  0.886750  0.421900  1.0  0.6504
  C  C359  1  0.583310  0.886460  0.614300  1.0  -0.2782
  C  C360  1  0.512390  0.910390  0.676600  1.0  0.169
  C  C361  1  0.538050  0.924230  0.664300  1.0  -0.2091
  C  C362  1  0.555030  0.874280  0.632200  1.0  0.1481
  C  C363  1  0.544840  0.812810  0.611600  1.0  -0.2494
  C  C364  1  0.518790  0.803090  0.623600  1.0  0.1663
  C  C365  1  0.589250  0.926290  0.491000  1.0  -0.2327
  C  C366  1  0.660430  0.957260  0.525600  1.0  0.1731
  C  C367  1  0.634210  0.961220  0.547400  1.0  -0.2356
  C  C368  1  0.617660  0.927420  0.464900  1.0  0.1286
  C  C369  1  0.628420  0.891560  0.364000  1.0  -0.2243
  C  C370  1  0.654800  0.889180  0.350100  1.0  0.1703
  C  C371  1  0.964170  0.524280  0.165900  1.0  0.0249
  C  C372  1  0.964230  0.488590  0.045100  1.0  -0.0833
  C  C373  1  0.963170  0.420700  0.047800  1.0  -0.1243
  C  C374  1  0.962260  0.387710  0.168700  1.0  0.0031
  C  C375  1  0.962040  0.422820  0.290000  1.0  -0.141
  C  C376  1  0.963140  0.490270  0.287600  1.0  -0.0955
  C  C377  1  0.954810  0.699670  0.060600  1.0  0.1745
  C  C378  1  0.954440  0.632360  0.058600  1.0  -0.1874
  C  C379  1  0.964580  0.596740  0.164500  1.0  0.0974
  C  C380  1  0.974660  0.632770  0.270800  1.0  -0.2047
  C  C381  1  0.974380  0.700630  0.265600  1.0  0.1682
  C  C382  1  0.962480  0.384010  0.916500  1.0  0.671
  C  C383  1  0.960580  0.386750  0.421900  1.0  0.6504
  C  C384  1  0.083310  0.386460  0.614300  1.0  -0.2782
  C  C385  1  0.012390  0.410390  0.676600  1.0  0.169
  C  C386  1  0.038050  0.424230  0.664300  1.0  -0.2091
  C  C387  1  0.055030  0.374280  0.632200  1.0  0.1481
  C  C388  1  0.044840  0.312810  0.611600  1.0  -0.2494
  C  C389  1  0.018790  0.303090  0.623600  1.0  0.1663
  C  C390  1  0.089250  0.426290  0.491000  1.0  -0.2327
  C  C391  1  0.160430  0.457260  0.525600  1.0  0.1731
  C  C392  1  0.134210  0.461220  0.547400  1.0  -0.2356
  C  C393  1  0.117660  0.427420  0.464900  1.0  0.1286
  C  C394  1  0.128420  0.391560  0.364000  1.0  -0.2243
  C  C395  1  0.154800  0.389180  0.350100  1.0  0.1703
  C  C396  1  0.964170  0.024280  0.665900  1.0  0.0249
  C  C397  1  0.964230  0.988590  0.545100  1.0  -0.0833
  C  C398  1  0.963170  0.920700  0.547800  1.0  -0.1243
  C  C399  1  0.962260  0.887710  0.668700  1.0  0.0031
  C  C400  1  0.962040  0.922820  0.790000  1.0  -0.141
  C  C401  1  0.963140  0.990270  0.787600  1.0  -0.0955
  C  C402  1  0.954810  0.199670  0.560600  1.0  0.1745
  C  C403  1  0.954440  0.132360  0.558600  1.0  -0.1874
  C  C404  1  0.964580  0.096740  0.664500  1.0  0.0974
  C  C405  1  0.974660  0.132770  0.770800  1.0  -0.2047
  C  C406  1  0.974380  0.200630  0.765600  1.0  0.1682
  C  C407  1  0.962480  0.884010  0.416500  1.0  0.671
  C  C408  1  0.960580  0.886750  0.921900  1.0  0.6504
  C  C409  1  0.083310  0.886460  0.114300  1.0  -0.2782
  C  C410  1  0.012390  0.910390  0.176600  1.0  0.169
  C  C411  1  0.038050  0.924230  0.164300  1.0  -0.2091
  C  C412  1  0.055030  0.874280  0.132200  1.0  0.1481
  C  C413  1  0.044840  0.812810  0.111600  1.0  -0.2494
  C  C414  1  0.018790  0.803090  0.123600  1.0  0.1663
  C  C415  1  0.089250  0.926290  0.991000  1.0  -0.2327
  C  C416  1  0.160430  0.957260  0.025600  1.0  0.1731
  C  C417  1  0.134210  0.961220  0.047400  1.0  -0.2356
  C  C418  1  0.117660  0.927420  0.964900  1.0  0.1286
  C  C419  1  0.128420  0.891560  0.864000  1.0  -0.2243
  C  C420  1  0.154800  0.889180  0.850100  1.0  0.1703
  C  C421  1  0.714170  0.725720  0.915900  1.0  0.0245
  C  C422  1  0.714230  0.761410  0.795100  1.0  -0.0834
  C  C423  1  0.713170  0.829300  0.797800  1.0  -0.1237
  C  C424  1  0.712260  0.862290  0.918700  1.0  0.0042
  C  C425  1  0.712040  0.827180  0.040000  1.0  -0.1408
  C  C426  1  0.713140  0.759730  0.037600  1.0  -0.0959
  C  C427  1  0.704810  0.550330  0.810600  1.0  0.1737
  C  C428  1  0.704440  0.617640  0.808600  1.0  -0.1869
  C  C429  1  0.714580  0.653260  0.914500  1.0  0.097
  C  C430  1  0.724660  0.617230  0.020800  1.0  -0.2052
  C  C431  1  0.724380  0.549370  0.015600  1.0  0.1686
  C  C432  1  0.712480  0.865990  0.666500  1.0  0.6711
  C  C433  1  0.710580  0.863250  0.171900  1.0  0.6512
  C  C434  1  0.833310  0.863540  0.364300  1.0  -0.2783
  C  C435  1  0.762390  0.839610  0.426600  1.0  0.1689
  C  C436  1  0.788050  0.825770  0.414300  1.0  -0.2103
  C  C437  1  0.805030  0.875720  0.382200  1.0  0.1478
  C  C438  1  0.794840  0.937190  0.361600  1.0  -0.2507
  C  C439  1  0.768790  0.946910  0.373600  1.0  0.1665
  C  C440  1  0.839250  0.823710  0.241000  1.0  -0.232
  C  C441  1  0.910430  0.792740  0.275600  1.0  0.1726
  C  C442  1  0.884210  0.788780  0.297400  1.0  -0.236
  C  C443  1  0.867660  0.822580  0.214900  1.0  0.1288
  C  C444  1  0.878420  0.858440  0.114000  1.0  -0.2242
  C  C445  1  0.904800  0.860820  0.100100  1.0  0.1709
  C  C446  1  0.714170  0.225720  0.415900  1.0  0.0245
  C  C447  1  0.714230  0.261410  0.295100  1.0  -0.0834
  C  C448  1  0.713170  0.329300  0.297800  1.0  -0.1237
  C  C449  1  0.712260  0.362290  0.418700  1.0  0.0042
  C  C450  1  0.712040  0.327180  0.540000  1.0  -0.1408
  C  C451  1  0.713140  0.259730  0.537600  1.0  -0.0959
  C  C452  1  0.704810  0.050330  0.310600  1.0  0.1737
  C  C453  1  0.704440  0.117640  0.308600  1.0  -0.1869
  C  C454  1  0.714580  0.153260  0.414500  1.0  0.097
  C  C455  1  0.724660  0.117230  0.520800  1.0  -0.2052
  C  C456  1  0.724380  0.049370  0.515600  1.0  0.1686
  C  C457  1  0.712480  0.365990  0.166500  1.0  0.6711
  C  C458  1  0.710580  0.363250  0.671900  1.0  0.6512
  C  C459  1  0.833310  0.363540  0.864300  1.0  -0.2783
  C  C460  1  0.762390  0.339610  0.926600  1.0  0.1689
  C  C461  1  0.788050  0.325770  0.914300  1.0  -0.2103
  C  C462  1  0.805030  0.375720  0.882200  1.0  0.1478
  C  C463  1  0.794840  0.437190  0.861600  1.0  -0.2507
  C  C464  1  0.768790  0.446910  0.873600  1.0  0.1665
  C  C465  1  0.839250  0.323710  0.741000  1.0  -0.232
  C  C466  1  0.910430  0.292740  0.775600  1.0  0.1726
  C  C467  1  0.884210  0.288780  0.797400  1.0  -0.236
  C  C468  1  0.867660  0.322580  0.714900  1.0  0.1288
  C  C469  1  0.878420  0.358440  0.614000  1.0  -0.2242
  C  C470  1  0.904800  0.360820  0.600100  1.0  0.1709
  C  C471  1  0.214170  0.725720  0.415900  1.0  0.0245
  C  C472  1  0.214230  0.761410  0.295100  1.0  -0.0834
  C  C473  1  0.213170  0.829300  0.297800  1.0  -0.1237
  C  C474  1  0.212260  0.862290  0.418700  1.0  0.0042
  C  C475  1  0.212040  0.827180  0.540000  1.0  -0.1408
  C  C476  1  0.213140  0.759730  0.537600  1.0  -0.0959
  C  C477  1  0.204810  0.550330  0.310600  1.0  0.1737
  C  C478  1  0.204440  0.617640  0.308600  1.0  -0.1869
  C  C479  1  0.214580  0.653260  0.414500  1.0  0.097
  C  C480  1  0.224660  0.617230  0.520800  1.0  -0.2052
  C  C481  1  0.224380  0.549370  0.515600  1.0  0.1686
  C  C482  1  0.212480  0.865990  0.166500  1.0  0.6711
  C  C483  1  0.210580  0.863250  0.671900  1.0  0.6512
  C  C484  1  0.333333  0.863540  0.864300  1.0  -0.2795
  C  C485  1  0.262390  0.839610  0.926600  1.0  0.1689
  C  C486  1  0.288050  0.825770  0.914300  1.0  -0.2104
  C  C487  1  0.305030  0.875720  0.882200  1.0  0.148
  C  C488  1  0.294840  0.937190  0.861600  1.0  -0.2507
  C  C489  1  0.268790  0.946910  0.873600  1.0  0.1665
  C  C490  1  0.339250  0.823710  0.741000  1.0  -0.2317
  C  C491  1  0.410430  0.792740  0.775600  1.0  0.1726
  C  C492  1  0.384210  0.788780  0.797400  1.0  -0.236
  C  C493  1  0.367660  0.822580  0.714900  1.0  0.1289
  C  C494  1  0.378420  0.858440  0.614000  1.0  -0.2242
  C  C495  1  0.404800  0.860820  0.600100  1.0  0.1709
  C  C496  1  0.214170  0.225720  0.915900  1.0  0.0245
  C  C497  1  0.214230  0.261410  0.795100  1.0  -0.0834
  C  C498  1  0.213170  0.329300  0.797800  1.0  -0.1237
  C  C499  1  0.212260  0.362290  0.918700  1.0  0.0042
  C  C500  1  0.212040  0.327180  0.040000  1.0  -0.1408
  C  C501  1  0.213140  0.259730  0.037600  1.0  -0.0959
  C  C502  1  0.204810  0.050330  0.810600  1.0  0.1737
  C  C503  1  0.204440  0.117640  0.808600  1.0  -0.1869
  C  C504  1  0.214580  0.153260  0.914500  1.0  0.097
  C  C505  1  0.224660  0.117230  0.020800  1.0  -0.2052
  C  C506  1  0.224380  0.049370  0.015600  1.0  0.1686
  C  C507  1  0.212480  0.365990  0.666500  1.0  0.6711
  C  C508  1  0.210580  0.363250  0.171900  1.0  0.6512
  C  C509  1  0.333333  0.363540  0.364300  1.0  -0.2795
  C  C510  1  0.262390  0.339610  0.426600  1.0  0.1689
  C  C511  1  0.288050  0.325770  0.414300  1.0  -0.2104
  C  C512  1  0.305030  0.375720  0.382200  1.0  0.148
  C  C513  1  0.294840  0.437190  0.361600  1.0  -0.2507
  C  C514  1  0.268790  0.446910  0.373600  1.0  0.1665
  C  C515  1  0.339250  0.323710  0.241000  1.0  -0.2317
  C  C516  1  0.410430  0.292740  0.275600  1.0  0.1726
  C  C517  1  0.384210  0.288780  0.297400  1.0  -0.236
  C  C518  1  0.367660  0.322580  0.214900  1.0  0.1289
  C  C519  1  0.378420  0.358440  0.114000  1.0  -0.2242
  C  C520  1  0.404800  0.360820  0.100100  1.0  0.1709
  C  C521  1  0.535830  0.475720  0.665900  1.0  0.0249
  C  C522  1  0.535770  0.511410  0.545100  1.0  -0.0851
  C  C523  1  0.536830  0.579300  0.547800  1.0  -0.1216
  C  C524  1  0.537740  0.612290  0.668700  1.0  0.0041
  C  C525  1  0.537960  0.577180  0.790000  1.0  -0.1406
  C  C526  1  0.536860  0.509730  0.787600  1.0  -0.0963
  C  C527  1  0.545190  0.300330  0.560600  1.0  0.173
  C  C528  1  0.545560  0.367640  0.558600  1.0  -0.1869
  C  C529  1  0.535420  0.403260  0.664500  1.0  0.0966
  C  C530  1  0.525340  0.367230  0.770800  1.0  -0.2056
  C  C531  1  0.525620  0.299370  0.765600  1.0  0.1685
  C  C532  1  0.537520  0.615990  0.416500  1.0  0.6707
  C  C533  1  0.539420  0.613250  0.921900  1.0  0.6502
  C  C534  1  0.416690  0.613540  0.114300  1.0  -0.2768
  C  C535  1  0.487610  0.589610  0.176600  1.0  0.1687
  C  C536  1  0.461950  0.575770  0.164300  1.0  -0.2108
  C  C537  1  0.444970  0.625720  0.132200  1.0  0.1474
  C  C538  1  0.455160  0.687190  0.111600  1.0  -0.2537
  C  C539  1  0.481210  0.696910  0.123600  1.0  0.1672
  C  C540  1  0.410750  0.573710  0.991000  1.0  -0.2341
  C  C541  1  0.339570  0.542740  0.025600  1.0  0.1726
  C  C542  1  0.365790  0.538780  0.047400  1.0  -0.2351
  C  C543  1  0.382340  0.572580  0.964900  1.0  0.1286
  C  C544  1  0.371580  0.608440  0.864000  1.0  -0.2233
  C  C545  1  0.345200  0.610820  0.850100  1.0  0.1706
  C  C546  1  0.535830  0.975720  0.165900  1.0  0.0249
  C  C547  1  0.535770  0.011410  0.045100  1.0  -0.0851
  C  C548  1  0.536830  0.079300  0.047800  1.0  -0.1216
  C  C549  1  0.537740  0.112290  0.168700  1.0  0.0041
  C  C550  1  0.537960  0.077180  0.290000  1.0  -0.1406
  C  C551  1  0.536860  0.009730  0.287600  1.0  -0.0963
  C  C552  1  0.545190  0.800330  0.060600  1.0  0.173
  C  C553  1  0.545560  0.867640  0.058600  1.0  -0.1869
  C  C554  1  0.535420  0.903260  0.164500  1.0  0.0966
  C  C555  1  0.525340  0.867230  0.270800  1.0  -0.2056
  C  C556  1  0.525620  0.799370  0.265600  1.0  0.1685
  C  C557  1  0.537520  0.115990  0.916500  1.0  0.6707
  C  C558  1  0.539420  0.113250  0.421900  1.0  0.6502
  C  C559  1  0.416690  0.113540  0.614300  1.0  -0.2768
  C  C560  1  0.487610  0.089610  0.676600  1.0  0.1687
  C  C561  1  0.461950  0.075770  0.664300  1.0  -0.2108
  C  C562  1  0.444970  0.125720  0.632200  1.0  0.1474
  C  C563  1  0.455160  0.187190  0.611600  1.0  -0.2537
  C  C564  1  0.481210  0.196910  0.623600  1.0  0.1672
  C  C565  1  0.410750  0.073710  0.491000  1.0  -0.2341
  C  C566  1  0.339570  0.042740  0.525600  1.0  0.1726
  C  C567  1  0.365790  0.038780  0.547400  1.0  -0.2351
  C  C568  1  0.382340  0.072580  0.464900  1.0  0.1286
  C  C569  1  0.371580  0.108440  0.364000  1.0  -0.2233
  C  C570  1  0.345200  0.110820  0.350100  1.0  0.1706
  C  C571  1  0.035830  0.475720  0.165900  1.0  0.0249
  C  C572  1  0.035770  0.511410  0.045100  1.0  -0.0851
  C  C573  1  0.036830  0.579300  0.047800  1.0  -0.1216
  C  C574  1  0.037740  0.612290  0.168700  1.0  0.0041
  C  C575  1  0.037960  0.577180  0.290000  1.0  -0.1406
  C  C576  1  0.036860  0.509730  0.287600  1.0  -0.0963
  C  C577  1  0.045190  0.300330  0.060600  1.0  0.173
  C  C578  1  0.045560  0.367640  0.058600  1.0  -0.1869
  C  C579  1  0.035420  0.403260  0.164500  1.0  0.0966
  C  C580  1  0.025340  0.367230  0.270800  1.0  -0.2056
  C  C581  1  0.025620  0.299370  0.265600  1.0  0.1685
  C  C582  1  0.037520  0.615990  0.916500  1.0  0.6707
  C  C583  1  0.039420  0.613250  0.421900  1.0  0.6502
  C  C584  1  0.916690  0.613540  0.614300  1.0  -0.2768
  C  C585  1  0.987610  0.589610  0.676600  1.0  0.1687
  C  C586  1  0.961950  0.575770  0.664300  1.0  -0.2108
  C  C587  1  0.944970  0.625720  0.632200  1.0  0.1474
  C  C588  1  0.955160  0.687190  0.611600  1.0  -0.2537
  C  C589  1  0.981210  0.696910  0.623600  1.0  0.1672
  C  C590  1  0.910750  0.573710  0.491000  1.0  -0.2341
  C  C591  1  0.839570  0.542740  0.525600  1.0  0.1726
  C  C592  1  0.865790  0.538780  0.547400  1.0  -0.2351
  C  C593  1  0.882340  0.572580  0.464900  1.0  0.1286
  C  C594  1  0.871580  0.608440  0.364000  1.0  -0.2233
  C  C595  1  0.845200  0.610820  0.350100  1.0  0.1706
  C  C596  1  0.035830  0.975720  0.665900  1.0  0.0249
  C  C597  1  0.035770  0.011410  0.545100  1.0  -0.0851
  C  C598  1  0.036830  0.079300  0.547800  1.0  -0.1216
  C  C599  1  0.037740  0.112290  0.668700  1.0  0.0041
  C  C600  1  0.037960  0.077180  0.790000  1.0  -0.1406
  C  C601  1  0.036860  0.009730  0.787600  1.0  -0.0963
  C  C602  1  0.045190  0.800330  0.560600  1.0  0.173
  C  C603  1  0.045560  0.867640  0.558600  1.0  -0.1869
  C  C604  1  0.035420  0.903260  0.664500  1.0  0.0966
  C  C605  1  0.025340  0.867230  0.770800  1.0  -0.2056
  C  C606  1  0.025620  0.799370  0.765600  1.0  0.1685
  C  C607  1  0.037520  0.115990  0.416500  1.0  0.6707
  C  C608  1  0.039420  0.113250  0.921900  1.0  0.6502
  C  C609  1  0.916690  0.113540  0.114300  1.0  -0.2768
  C  C610  1  0.987610  0.089610  0.176600  1.0  0.1687
  C  C611  1  0.961950  0.075770  0.164300  1.0  -0.2108
  C  C612  1  0.944970  0.125720  0.132200  1.0  0.1474
  C  C613  1  0.955160  0.187190  0.111600  1.0  -0.2537
  C  C614  1  0.981210  0.196910  0.123600  1.0  0.1672
  C  C615  1  0.910750  0.073710  0.991000  1.0  -0.2341
  C  C616  1  0.839570  0.042740  0.025600  1.0  0.1726
  C  C617  1  0.865790  0.038780  0.047400  1.0  -0.2351
  C  C618  1  0.882340  0.072580  0.964900  1.0  0.1286
  C  C619  1  0.871580  0.108440  0.864000  1.0  -0.2233
  C  C620  1  0.845200  0.110820  0.850100  1.0  0.1706
  C  C621  1  0.785830  0.774280  0.915900  1.0  0.0249
  C  C622  1  0.785770  0.738590  0.795100  1.0  -0.0851
  C  C623  1  0.786830  0.670700  0.797800  1.0  -0.1219
  C  C624  1  0.787740  0.637710  0.918700  1.0  0.0032
  C  C625  1  0.787960  0.672820  0.040000  1.0  -0.1407
  C  C626  1  0.786860  0.740270  0.037600  1.0  -0.0959
  C  C627  1  0.795190  0.949670  0.810600  1.0  0.1737
  C  C628  1  0.795560  0.882360  0.808600  1.0  -0.1877
  C  C629  1  0.785420  0.846740  0.914500  1.0  0.097
  C  C630  1  0.775340  0.882770  0.020800  1.0  -0.2053
  C  C631  1  0.775620  0.950630  0.015600  1.0  0.1681
  C  C632  1  0.787520  0.634010  0.666500  1.0  0.6706
  C  C633  1  0.789420  0.636750  0.171900  1.0  0.6504
  C  C634  1  0.666667  0.636460  0.364300  1.0  -0.2778
  C  C635  1  0.737610  0.660390  0.426600  1.0  0.1689
  C  C636  1  0.711950  0.674230  0.414300  1.0  -0.2099
  C  C637  1  0.694970  0.624280  0.382200  1.0  0.1482
  C  C638  1  0.705160  0.562810  0.361600  1.0  -0.2513
  C  C639  1  0.731210  0.553090  0.373600  1.0  0.1673
  C  C640  1  0.660750  0.676290  0.241000  1.0  -0.2332
  C  C641  1  0.589570  0.707260  0.275600  1.0  0.1727
  C  C642  1  0.615790  0.711220  0.297400  1.0  -0.2347
  C  C643  1  0.632340  0.677420  0.214900  1.0  0.1283
  C  C644  1  0.621580  0.641560  0.114000  1.0  -0.2235
  C  C645  1  0.595200  0.639180  0.100100  1.0  0.1702
  C  C646  1  0.785830  0.274280  0.415900  1.0  0.0249
  C  C647  1  0.785770  0.238590  0.295100  1.0  -0.0851
  C  C648  1  0.786830  0.170700  0.297800  1.0  -0.1219
  C  C649  1  0.787740  0.137710  0.418700  1.0  0.0032
  C  C650  1  0.787960  0.172820  0.540000  1.0  -0.1407
  C  C651  1  0.786860  0.240270  0.537600  1.0  -0.0959
  C  C652  1  0.795190  0.449670  0.310600  1.0  0.1737
  C  C653  1  0.795560  0.382360  0.308600  1.0  -0.1877
  C  C654  1  0.785420  0.346740  0.414500  1.0  0.097
  C  C655  1  0.775340  0.382770  0.520800  1.0  -0.2053
  C  C656  1  0.775620  0.450630  0.515600  1.0  0.1681
  C  C657  1  0.787520  0.134010  0.166500  1.0  0.6706
  C  C658  1  0.789420  0.136750  0.671900  1.0  0.6504
  C  C659  1  0.666667  0.136460  0.864300  1.0  -0.2778
  C  C660  1  0.737610  0.160390  0.926600  1.0  0.1689
  C  C661  1  0.711950  0.174230  0.914300  1.0  -0.2099
  C  C662  1  0.694970  0.124280  0.882200  1.0  0.1482
  C  C663  1  0.705160  0.062810  0.861600  1.0  -0.2513
  C  C664  1  0.731210  0.053090  0.873600  1.0  0.1673
  C  C665  1  0.660750  0.176290  0.741000  1.0  -0.2332
  C  C666  1  0.589570  0.207260  0.775600  1.0  0.1727
  C  C667  1  0.615790  0.211220  0.797400  1.0  -0.2347
  C  C668  1  0.632340  0.177420  0.714900  1.0  0.1283
  C  C669  1  0.621580  0.141560  0.614000  1.0  -0.2235
  C  C670  1  0.595200  0.139180  0.600100  1.0  0.1702
  C  C671  1  0.285830  0.774280  0.415900  1.0  0.0249
  C  C672  1  0.285770  0.738590  0.295100  1.0  -0.0851
  C  C673  1  0.286830  0.670700  0.297800  1.0  -0.1219
  C  C674  1  0.287740  0.637710  0.418700  1.0  0.0032
  C  C675  1  0.287960  0.672820  0.540000  1.0  -0.1407
  C  C676  1  0.286860  0.740270  0.537600  1.0  -0.0959
  C  C677  1  0.295190  0.949670  0.310600  1.0  0.1737
  C  C678  1  0.295560  0.882360  0.308600  1.0  -0.1877
  C  C679  1  0.285420  0.846740  0.414500  1.0  0.097
  C  C680  1  0.275340  0.882770  0.520800  1.0  -0.2053
  C  C681  1  0.275620  0.950630  0.515600  1.0  0.1681
  C  C682  1  0.287520  0.634010  0.166500  1.0  0.6706
  C  C683  1  0.289420  0.636750  0.671900  1.0  0.6504
  C  C684  1  0.166690  0.636460  0.864300  1.0  -0.2765
  C  C685  1  0.237610  0.660390  0.926600  1.0  0.1689
  C  C686  1  0.211950  0.674230  0.914300  1.0  -0.2099
  C  C687  1  0.194970  0.624280  0.882200  1.0  0.1481
  C  C688  1  0.205160  0.562810  0.861600  1.0  -0.2515
  C  C689  1  0.231210  0.553090  0.873600  1.0  0.1673
  C  C690  1  0.160750  0.676290  0.741000  1.0  -0.2338
  C  C691  1  0.089570  0.707260  0.775600  1.0  0.1727
  C  C692  1  0.115790  0.711220  0.797400  1.0  -0.2347
  C  C693  1  0.132340  0.677420  0.714900  1.0  0.1282
  C  C694  1  0.121580  0.641560  0.614000  1.0  -0.2235
  C  C695  1  0.095200  0.639180  0.600100  1.0  0.1702
  C  C696  1  0.285830  0.274280  0.915900  1.0  0.0249
  C  C697  1  0.285770  0.238590  0.795100  1.0  -0.0851
  C  C698  1  0.286830  0.170700  0.797800  1.0  -0.1219
  C  C699  1  0.287740  0.137710  0.918700  1.0  0.0032
  C  C700  1  0.287960  0.172820  0.040000  1.0  -0.1407
  C  C701  1  0.286860  0.240270  0.037600  1.0  -0.0959
  C  C702  1  0.295190  0.449670  0.810600  1.0  0.1737
  C  C703  1  0.295560  0.382360  0.808600  1.0  -0.1877
  C  C704  1  0.285420  0.346740  0.914500  1.0  0.097
  C  C705  1  0.275340  0.382770  0.020800  1.0  -0.2053
  C  C706  1  0.275620  0.450630  0.015600  1.0  0.1681
  C  C707  1  0.287520  0.134010  0.666500  1.0  0.6706
  C  C708  1  0.289420  0.136750  0.171900  1.0  0.6504
  C  C709  1  0.166690  0.136460  0.364300  1.0  -0.2765
  C  C710  1  0.237610  0.160390  0.426600  1.0  0.1689
  C  C711  1  0.211950  0.174230  0.414300  1.0  -0.2099
  C  C712  1  0.194970  0.124280  0.382200  1.0  0.1481
  C  C713  1  0.205160  0.062810  0.361600  1.0  -0.2515
  C  C714  1  0.231210  0.053090  0.373600  1.0  0.1673
  C  C715  1  0.160750  0.176290  0.241000  1.0  -0.2338
  C  C716  1  0.089570  0.207260  0.275600  1.0  0.1727
  C  C717  1  0.115790  0.211220  0.297400  1.0  -0.2347
  C  C718  1  0.132340  0.177420  0.214900  1.0  0.1282
  C  C719  1  0.121580  0.141560  0.114000  1.0  -0.2235
  C  C720  1  0.095200  0.139180  0.100100  1.0  0.1702
  N  N721  1  0.464470  0.734470  0.663300  1.0  -0.3174
  N  N722  1  0.502450  0.350570  0.157700  1.0  -0.3261
  N  N723  1  0.670860  0.421180  0.929700  1.0  -0.3118
  N  N724  1  0.464470  0.234470  0.163300  1.0  -0.3174
  N  N725  1  0.502450  0.850570  0.657700  1.0  -0.3261
  N  N726  1  0.670860  0.921180  0.429700  1.0  -0.3118
  N  N727  1  0.964470  0.734470  0.163300  1.0  -0.3174
  N  N728  1  0.002450  0.350570  0.657700  1.0  -0.3261
  N  N729  1  0.170860  0.421180  0.429700  1.0  -0.3118
  N  N730  1  0.964470  0.234470  0.663300  1.0  -0.3174
  N  N731  1  0.002450  0.850570  0.157700  1.0  -0.3261
  N  N732  1  0.170860  0.921180  0.929700  1.0  -0.3118
  N  N733  1  0.714470  0.515530  0.913300  1.0  -0.3173
  N  N734  1  0.752450  0.899430  0.407700  1.0  -0.3267
  N  N735  1  0.920860  0.828820  0.179700  1.0  -0.312
  N  N736  1  0.714470  0.015530  0.413300  1.0  -0.3173
  N  N737  1  0.752450  0.399430  0.907700  1.0  -0.3267
  N  N738  1  0.920860  0.328820  0.679700  1.0  -0.312
  N  N739  1  0.214470  0.515530  0.413300  1.0  -0.3173
  N  N740  1  0.252450  0.899430  0.907700  1.0  -0.3267
  N  N741  1  0.420860  0.828820  0.679700  1.0  -0.312
  N  N742  1  0.214470  0.015530  0.913300  1.0  -0.3173
  N  N743  1  0.252450  0.399430  0.407700  1.0  -0.3267
  N  N744  1  0.420860  0.328820  0.179700  1.0  -0.312
  N  N745  1  0.535530  0.265530  0.663300  1.0  -0.3171
  N  N746  1  0.497550  0.649430  0.157700  1.0  -0.3262
  N  N747  1  0.329140  0.578820  0.929700  1.0  -0.3121
  N  N748  1  0.535530  0.765530  0.163300  1.0  -0.3171
  N  N749  1  0.497550  0.149430  0.657700  1.0  -0.3262
  N  N750  1  0.329140  0.078820  0.429700  1.0  -0.3121
  N  N751  1  0.035530  0.265530  0.163300  1.0  -0.3171
  N  N752  1  0.997550  0.649430  0.657700  1.0  -0.3262
  N  N753  1  0.829140  0.578820  0.429700  1.0  -0.3121
  N  N754  1  0.035530  0.765530  0.663300  1.0  -0.3171
  N  N755  1  0.997550  0.149430  0.157700  1.0  -0.3262
  N  N756  1  0.829140  0.078820  0.929700  1.0  -0.3121
  N  N757  1  0.785530  0.984470  0.913300  1.0  -0.3177
  N  N758  1  0.747550  0.600570  0.407700  1.0  -0.3257
  N  N759  1  0.579140  0.671180  0.179700  1.0  -0.3121
  N  N760  1  0.785530  0.484470  0.413300  1.0  -0.3177
  N  N761  1  0.747550  0.100570  0.907700  1.0  -0.3257
  N  N762  1  0.579140  0.171180  0.679700  1.0  -0.3121
  N  N763  1  0.285530  0.984470  0.413300  1.0  -0.3177
  N  N764  1  0.247550  0.600570  0.907700  1.0  -0.3257
  N  N765  1  0.079140  0.671180  0.679700  1.0  -0.3121
  N  N766  1  0.285530  0.484470  0.913300  1.0  -0.3177
  N  N767  1  0.247550  0.100570  0.407700  1.0  -0.3257
  N  N768  1  0.079140  0.171180  0.179700  1.0  -0.3121
  O  O769  1  0.459390  0.415900  0.309660  1.0  -0.5631
  O  O770  1  0.464880  0.323490  0.415900  1.0  -0.6196
  O  O771  1  0.458870  0.419700  0.028990  1.0  -0.5832
  O  O772  1  0.461250  0.327080  0.925800  1.0  -0.5795
  O  O773  1  0.459390  0.915900  0.809660  1.0  -0.5631
  O  O774  1  0.464880  0.823490  0.915900  1.0  -0.6196
  O  O775  1  0.458870  0.919700  0.528990  1.0  -0.5832
  O  O776  1  0.461250  0.827080  0.425800  1.0  -0.5794
  O  O777  1  0.959390  0.415900  0.809660  1.0  -0.5631
  O  O778  1  0.964880  0.323490  0.915900  1.0  -0.6196
  O  O779  1  0.958870  0.419700  0.528990  1.0  -0.5832
  O  O780  1  0.961250  0.327080  0.425800  1.0  -0.5795
  O  O781  1  0.959390  0.915900  0.309660  1.0  -0.5631
  O  O782  1  0.964880  0.823490  0.415900  1.0  -0.6196
  O  O783  1  0.958870  0.919700  0.028990  1.0  -0.5832
  O  O784  1  0.961250  0.827080  0.925800  1.0  -0.5794
  O  O785  1  0.709390  0.834100  0.559660  1.0  -0.5628
  O  O786  1  0.714880  0.926510  0.665900  1.0  -0.6203
  O  O787  1  0.708870  0.830300  0.278990  1.0  -0.5826
  O  O788  1  0.711250  0.922920  0.175800  1.0  -0.5809
  O  O789  1  0.709390  0.334100  0.059660  1.0  -0.5628
  O  O790  1  0.714880  0.426510  0.165900  1.0  -0.6203
  O  O791  1  0.708870  0.330300  0.778990  1.0  -0.5826
  O  O792  1  0.711250  0.422920  0.675800  1.0  -0.5808
  O  O793  1  0.209390  0.834100  0.059660  1.0  -0.5628
  O  O794  1  0.214880  0.926510  0.165900  1.0  -0.6203
  O  O795  1  0.208870  0.830300  0.778990  1.0  -0.5826
  O  O796  1  0.211250  0.922920  0.675800  1.0  -0.5809
  O  O797  1  0.209390  0.334100  0.559660  1.0  -0.5628
  O  O798  1  0.214880  0.426510  0.665900  1.0  -0.6203
  O  O799  1  0.208870  0.330300  0.278990  1.0  -0.5826
  O  O800  1  0.211250  0.422920  0.175800  1.0  -0.5808
  O  O801  1  0.540610  0.584100  0.309660  1.0  -0.5628
  O  O802  1  0.535120  0.676510  0.415900  1.0  -0.6187
  O  O803  1  0.541130  0.580300  0.028990  1.0  -0.5827
  O  O804  1  0.538750  0.672920  0.925800  1.0  -0.5788
  O  O805  1  0.540610  0.084100  0.809660  1.0  -0.5628
  O  O806  1  0.535120  0.176510  0.915900  1.0  -0.6187
  O  O807  1  0.541130  0.080300  0.528990  1.0  -0.5827
  O  O808  1  0.538750  0.172920  0.425800  1.0  -0.5787
  O  O809  1  0.040610  0.584100  0.809660  1.0  -0.5628
  O  O810  1  0.035120  0.676510  0.915900  1.0  -0.6187
  O  O811  1  0.041130  0.580300  0.528990  1.0  -0.5827
  O  O812  1  0.038750  0.672920  0.425800  1.0  -0.5788
  O  O813  1  0.040610  0.084100  0.309660  1.0  -0.5628
  O  O814  1  0.035120  0.176510  0.415900  1.0  -0.6187
  O  O815  1  0.041130  0.080300  0.028990  1.0  -0.5827
  O  O816  1  0.038750  0.172920  0.925800  1.0  -0.5787
  O  O817  1  0.790610  0.665900  0.559660  1.0  -0.5632
  O  O818  1  0.785120  0.573490  0.665900  1.0  -0.6189
  O  O819  1  0.791130  0.669700  0.278990  1.0  -0.5832
  O  O820  1  0.788750  0.577080  0.175800  1.0  -0.5789
  O  O821  1  0.790610  0.165900  0.059660  1.0  -0.5632
  O  O822  1  0.785120  0.073490  0.165900  1.0  -0.6189
  O  O823  1  0.791130  0.169700  0.778990  1.0  -0.5832
  O  O824  1  0.788750  0.077080  0.675800  1.0  -0.5789
  O  O825  1  0.290610  0.665900  0.059660  1.0  -0.5632
  O  O826  1  0.285120  0.573490  0.165900  1.0  -0.6189
  O  O827  1  0.291130  0.669700  0.778990  1.0  -0.5832
  O  O828  1  0.288750  0.577080  0.675800  1.0  -0.5789
  O  O829  1  0.290610  0.165900  0.559660  1.0  -0.5632
  O  O830  1  0.285120  0.073490  0.665900  1.0  -0.6189
  O  O831  1  0.291130  0.169700  0.278990  1.0  -0.5832
  O  O832  1  0.288750  0.077080  0.175800  1.0  -0.5789
