# generated using pymatgen
data_CoH16C26(SN5)2
_symmetry_space_group_name_H-M   'P 1'
_cell_length_a   45.30670000
_cell_length_b   45.30670000
_cell_length_c   45.30670000
_cell_angle_alpha   60.00000000
_cell_angle_beta   60.00000000
_cell_angle_gamma   60.00000000
_symmetry_Int_Tables_number   1
_chemical_formula_structural   CoH16C26(SN5)2
_chemical_formula_sum   'Co48 H768 C1248 S96 N480'
_cell_volume   65761.58833733
_cell_formula_units_Z   48
loop_
 _symmetry_equiv_pos_site_id
 _symmetry_equiv_pos_as_xyz
  1  'x, y, z'
loop_
 _atom_site_type_symbol
 _atom_site_label
 _atom_site_symmetry_multiplicity
 _atom_site_fract_x
 _atom_site_fract_y
 _atom_site_fract_z
 _atom_site_occupancy
 _atom_site_charge
  Co  Co1  1  0.250000  0.993560  0.750000  1.0  0.6911
  Co  Co2  1  0.993560  0.250000  0.506440  1.0  0.6913
  Co  Co3  1  0.750000  0.506440  0.250000  1.0  0.6914
  Co  Co4  1  0.506440  0.750000  0.993560  1.0  0.6913
  Co  Co5  1  0.750000  0.250000  0.993560  1.0  0.691
  Co  Co6  1  0.506440  0.993560  0.250000  1.0  0.691
  Co  Co7  1  0.250000  0.750000  0.506440  1.0  0.6912
  Co  Co8  1  0.993560  0.506440  0.750000  1.0  0.6918
  Co  Co9  1  0.993560  0.750000  0.250000  1.0  0.6911
  Co  Co10  1  0.250000  0.506440  0.993560  1.0  0.6912
  Co  Co11  1  0.506440  0.250000  0.750000  1.0  0.6914
  Co  Co12  1  0.750000  0.993560  0.506440  1.0  0.6912
  Co  Co13  1  0.750000  0.006440  0.250000  1.0  0.6914
  Co  Co14  1  0.006440  0.750000  0.493560  1.0  0.6913
  Co  Co15  1  0.250000  0.493560  0.750000  1.0  0.6911
  Co  Co16  1  0.493560  0.250000  0.006440  1.0  0.6913
  Co  Co17  1  0.250000  0.750000  0.006440  1.0  0.6913
  Co  Co18  1  0.493560  0.006440  0.750000  1.0  0.6918
  Co  Co19  1  0.750000  0.250000  0.493560  1.0  0.6911
  Co  Co20  1  0.006440  0.493560  0.250000  1.0  0.691
  Co  Co21  1  0.006440  0.250000  0.750000  1.0  0.6915
  Co  Co22  1  0.750000  0.493560  0.006440  1.0  0.6912
  Co  Co23  1  0.493560  0.750000  0.250000  1.0  0.6912
  Co  Co24  1  0.250000  0.006440  0.493560  1.0  0.6912
  Co  Co25  1  0.247880  0.247880  0.502120  1.0  0.6242
  Co  Co26  1  0.502120  0.502120  0.247880  1.0  0.6229
  Co  Co27  1  0.502120  0.247880  0.247880  1.0  0.6234
  Co  Co28  1  0.247880  0.502120  0.502120  1.0  0.624
  Co  Co29  1  0.247880  0.502120  0.247880  1.0  0.6238
  Co  Co30  1  0.502120  0.247880  0.502120  1.0  0.6236
  Co  Co31  1  0.252120  0.252120  0.997880  1.0  0.6238
  Co  Co32  1  0.997880  0.997880  0.252120  1.0  0.6241
  Co  Co33  1  0.997880  0.252120  0.997880  1.0  0.6238
  Co  Co34  1  0.252120  0.997880  0.252120  1.0  0.6244
  Co  Co35  1  0.252120  0.997880  0.997880  1.0  0.6234
  Co  Co36  1  0.997880  0.252120  0.252120  1.0  0.6249
  Co  Co37  1  0.752120  0.752120  0.497880  1.0  0.6229
  Co  Co38  1  0.497880  0.497880  0.752120  1.0  0.6242
  Co  Co39  1  0.497880  0.752120  0.752120  1.0  0.624
  Co  Co40  1  0.752120  0.497880  0.497880  1.0  0.6234
  Co  Co41  1  0.752120  0.497880  0.752120  1.0  0.6236
  Co  Co42  1  0.497880  0.752120  0.497880  1.0  0.6238
  Co  Co43  1  0.747880  0.747880  0.002120  1.0  0.6243
  Co  Co44  1  0.002120  0.002120  0.747880  1.0  0.6229
  Co  Co45  1  0.002120  0.747880  0.002120  1.0  0.6237
  Co  Co46  1  0.747880  0.002120  0.747880  1.0  0.624
  Co  Co47  1  0.747880  0.002120  0.002120  1.0  0.6241
  Co  Co48  1  0.002120  0.747880  0.747880  1.0  0.6236
  H  H49  1  0.039700  0.314300  0.687700  1.0  0.0789
  H  H50  1  0.093600  0.321600  0.644600  1.0  0.1271
  H  H51  1  0.146500  0.270100  0.639500  1.0  0.133
  H  H52  1  0.085400  0.209200  0.724600  1.0  0.0862
  H  H53  1  0.225200  0.075200  0.712400  1.0  0.0972
  H  H54  1  0.129400  0.127600  0.773800  1.0  0.1181
  H  H55  1  0.132300  0.072300  0.821900  1.0  0.1243
  H  H56  1  0.180700  0.020700  0.812900  1.0  0.0817
  H  H57  1  0.262300  0.113100  0.627900  1.0  0.1134
  H  H58  1  0.304200  0.113600  0.570000  1.0  0.1199
  H  H59  1  0.296400  0.166600  0.520600  1.0  0.0873
  H  H60  1  0.208200  0.218000  0.583000  1.0  0.0898
  H  H61  1  0.274000  0.240200  0.558000  1.0  0.0913
  H  H62  1  0.325000  0.227400  0.567200  1.0  0.1235
  H  H63  1  0.381000  0.222400  0.519000  1.0  0.1177
  H  H64  1  0.328500  0.244300  0.456100  1.0  0.0981
  H  H65  1  0.314300  0.039700  0.458300  1.0  0.0785
  H  H66  1  0.321600  0.093600  0.440200  1.0  0.1242
  H  H67  1  0.270100  0.146500  0.443900  1.0  0.1317
  H  H68  1  0.209200  0.085400  0.480800  1.0  0.0838
  H  H69  1  0.075200  0.225200  0.487200  1.0  0.0966
  H  H70  1  0.127600  0.129400  0.469200  1.0  0.1184
  H  H71  1  0.072300  0.132300  0.473500  1.0  0.1242
  H  H72  1  0.020700  0.180700  0.485700  1.0  0.0819
  H  H73  1  0.113100  0.262300  0.496700  1.0  0.1145
  H  H74  1  0.113600  0.304200  0.512200  1.0  0.1192
  H  H75  1  0.166600  0.296400  0.516400  1.0  0.0866
  H  H76  1  0.218000  0.208200  0.490800  1.0  0.0904
  H  H77  1  0.240200  0.274000  0.427800  1.0  0.0908
  H  H78  1  0.227400  0.325000  0.380400  1.0  0.1237
  H  H79  1  0.222400  0.381000  0.377600  1.0  0.1173
  H  H80  1  0.244300  0.328500  0.471100  1.0  0.0969
  H  H81  1  0.687700  0.458300  0.039700  1.0  0.0799
  H  H82  1  0.644600  0.440200  0.093600  1.0  0.1257
  H  H83  1  0.639500  0.443900  0.146500  1.0  0.1319
  H  H84  1  0.724600  0.480800  0.085400  1.0  0.0851
  H  H85  1  0.712400  0.487200  0.225200  1.0  0.0968
  H  H86  1  0.773800  0.469200  0.129400  1.0  0.1185
  H  H87  1  0.821900  0.473500  0.132300  1.0  0.1254
  H  H88  1  0.812900  0.485700  0.180700  1.0  0.0815
  H  H89  1  0.627900  0.496700  0.262300  1.0  0.1151
  H  H90  1  0.570000  0.512200  0.304200  1.0  0.1178
  H  H91  1  0.520600  0.516400  0.296400  1.0  0.0883
  H  H92  1  0.583000  0.490800  0.208200  1.0  0.092
  H  H93  1  0.558000  0.427800  0.274000  1.0  0.0887
  H  H94  1  0.567200  0.380400  0.325000  1.0  0.1252
  H  H95  1  0.519000  0.377600  0.381000  1.0  0.1164
  H  H96  1  0.456100  0.471100  0.328500  1.0  0.0953
  H  H97  1  0.458300  0.687700  0.314300  1.0  0.0786
  H  H98  1  0.440200  0.644600  0.321600  1.0  0.1263
  H  H99  1  0.443900  0.639500  0.270100  1.0  0.1319
  H  H100  1  0.480800  0.724600  0.209200  1.0  0.0851
  H  H101  1  0.487200  0.712400  0.075200  1.0  0.0976
  H  H102  1  0.469200  0.773800  0.127600  1.0  0.117
  H  H103  1  0.473500  0.821900  0.072300  1.0  0.1268
  H  H104  1  0.485700  0.812900  0.020700  1.0  0.0817
  H  H105  1  0.496700  0.627900  0.113100  1.0  0.1143
  H  H106  1  0.512200  0.570000  0.113600  1.0  0.1169
  H  H107  1  0.516400  0.520600  0.166600  1.0  0.0874
  H  H108  1  0.490800  0.583000  0.218000  1.0  0.0905
  H  H109  1  0.427800  0.558000  0.240200  1.0  0.0889
  H  H110  1  0.380400  0.567200  0.227400  1.0  0.1261
  H  H111  1  0.377600  0.519000  0.222400  1.0  0.1168
  H  H112  1  0.471100  0.456100  0.244300  1.0  0.0976
  H  H113  1  0.687700  0.039700  0.314300  1.0  0.0777
  H  H114  1  0.644600  0.093600  0.321600  1.0  0.1261
  H  H115  1  0.639500  0.146500  0.270100  1.0  0.1327
  H  H116  1  0.724600  0.085400  0.209200  1.0  0.0842
  H  H117  1  0.712400  0.225200  0.075200  1.0  0.0975
  H  H118  1  0.773800  0.129400  0.127600  1.0  0.1159
  H  H119  1  0.821900  0.132300  0.072300  1.0  0.1243
  H  H120  1  0.812900  0.180700  0.020700  1.0  0.0819
  H  H121  1  0.627900  0.262300  0.113100  1.0  0.1142
  H  H122  1  0.570000  0.304200  0.113600  1.0  0.1191
  H  H123  1  0.520600  0.296400  0.166600  1.0  0.0883
  H  H124  1  0.583000  0.208200  0.218000  1.0  0.0896
  H  H125  1  0.558000  0.274000  0.240200  1.0  0.0888
  H  H126  1  0.567200  0.325000  0.227400  1.0  0.1237
  H  H127  1  0.519000  0.381000  0.222400  1.0  0.1167
  H  H128  1  0.456100  0.328500  0.244300  1.0  0.0962
  H  H129  1  0.458300  0.314300  0.039700  1.0  0.0785
  H  H130  1  0.440200  0.321600  0.093600  1.0  0.127
  H  H131  1  0.443900  0.270100  0.146500  1.0  0.1331
  H  H132  1  0.480800  0.209200  0.085400  1.0  0.0853
  H  H133  1  0.487200  0.075200  0.225200  1.0  0.0991
  H  H134  1  0.469200  0.127600  0.129400  1.0  0.1172
  H  H135  1  0.473500  0.072300  0.132300  1.0  0.1235
  H  H136  1  0.485700  0.020700  0.180700  1.0  0.0833
  H  H137  1  0.496700  0.113100  0.262300  1.0  0.1141
  H  H138  1  0.512200  0.113600  0.304200  1.0  0.1205
  H  H139  1  0.516400  0.166600  0.296400  1.0  0.0886
  H  H140  1  0.490800  0.218000  0.208200  1.0  0.0902
  H  H141  1  0.427800  0.240200  0.274000  1.0  0.0898
  H  H142  1  0.380400  0.227400  0.325000  1.0  0.1239
  H  H143  1  0.377600  0.222400  0.381000  1.0  0.117
  H  H144  1  0.471100  0.244300  0.328500  1.0  0.0958
  H  H145  1  0.039700  0.687700  0.458300  1.0  0.0777
  H  H146  1  0.093600  0.644600  0.440200  1.0  0.1266
  H  H147  1  0.146500  0.639500  0.443900  1.0  0.1328
  H  H148  1  0.085400  0.724600  0.480800  1.0  0.0849
  H  H149  1  0.225200  0.712400  0.487200  1.0  0.0976
  H  H150  1  0.129400  0.773800  0.469200  1.0  0.1175
  H  H151  1  0.132300  0.821900  0.473500  1.0  0.1263
  H  H152  1  0.180700  0.812900  0.485700  1.0  0.0814
  H  H153  1  0.262300  0.627900  0.496700  1.0  0.1142
  H  H154  1  0.304200  0.570000  0.512200  1.0  0.119
  H  H155  1  0.296400  0.520600  0.516400  1.0  0.0859
  H  H156  1  0.208200  0.583000  0.490800  1.0  0.0893
  H  H157  1  0.274000  0.558000  0.427800  1.0  0.0902
  H  H158  1  0.325000  0.567200  0.380400  1.0  0.1261
  H  H159  1  0.381000  0.519000  0.377600  1.0  0.1178
  H  H160  1  0.328500  0.456100  0.471100  1.0  0.0977
  H  H161  1  0.314300  0.458300  0.687700  1.0  0.0774
  H  H162  1  0.321600  0.440200  0.644600  1.0  0.1258
  H  H163  1  0.270100  0.443900  0.639500  1.0  0.1322
  H  H164  1  0.209200  0.480800  0.724600  1.0  0.0836
  H  H165  1  0.075200  0.487200  0.712400  1.0  0.0996
  H  H166  1  0.127600  0.469200  0.773800  1.0  0.1186
  H  H167  1  0.072300  0.473500  0.821900  1.0  0.125
  H  H168  1  0.020700  0.485700  0.812900  1.0  0.0834
  H  H169  1  0.113100  0.496700  0.627900  1.0  0.1146
  H  H170  1  0.113600  0.512200  0.570000  1.0  0.1186
  H  H171  1  0.166600  0.516400  0.520600  1.0  0.0861
  H  H172  1  0.218000  0.490800  0.583000  1.0  0.0892
  H  H173  1  0.240200  0.427800  0.558000  1.0  0.0907
  H  H174  1  0.227400  0.380400  0.567200  1.0  0.1251
  H  H175  1  0.222400  0.377600  0.519000  1.0  0.1166
  H  H176  1  0.244300  0.471100  0.456100  1.0  0.0964
  H  H177  1  0.314300  0.687700  0.039700  1.0  0.0784
  H  H178  1  0.321600  0.644600  0.093600  1.0  0.1266
  H  H179  1  0.270100  0.639500  0.146500  1.0  0.1325
  H  H180  1  0.209200  0.724600  0.085400  1.0  0.0844
  H  H181  1  0.075200  0.712400  0.225200  1.0  0.0975
  H  H182  1  0.127600  0.773800  0.129400  1.0  0.1177
  H  H183  1  0.072300  0.821900  0.132300  1.0  0.1254
  H  H184  1  0.020700  0.812900  0.180700  1.0  0.082
  H  H185  1  0.113100  0.627900  0.262300  1.0  0.1133
  H  H186  1  0.113600  0.570000  0.304200  1.0  0.1206
  H  H187  1  0.166600  0.520600  0.296400  1.0  0.0869
  H  H188  1  0.218000  0.583000  0.208200  1.0  0.0893
  H  H189  1  0.240200  0.558000  0.274000  1.0  0.0891
  H  H190  1  0.227400  0.567200  0.325000  1.0  0.126
  H  H191  1  0.222400  0.519000  0.381000  1.0  0.1178
  H  H192  1  0.244300  0.456100  0.328500  1.0  0.097
  H  H193  1  0.039700  0.458300  0.314300  1.0  0.0793
  H  H194  1  0.093600  0.440200  0.321600  1.0  0.1253
  H  H195  1  0.146500  0.443900  0.270100  1.0  0.1324
  H  H196  1  0.085400  0.480800  0.209200  1.0  0.0861
  H  H197  1  0.225200  0.487200  0.075200  1.0  0.0976
  H  H198  1  0.129400  0.469200  0.127600  1.0  0.1177
  H  H199  1  0.132300  0.473500  0.072300  1.0  0.1233
  H  H200  1  0.180700  0.485700  0.020700  1.0  0.0824
  H  H201  1  0.262300  0.496700  0.113100  1.0  0.1154
  H  H202  1  0.304200  0.512200  0.113600  1.0  0.1192
  H  H203  1  0.296400  0.516400  0.166600  1.0  0.0864
  H  H204  1  0.208200  0.490800  0.218000  1.0  0.0895
  H  H205  1  0.274000  0.427800  0.240200  1.0  0.0896
  H  H206  1  0.325000  0.380400  0.227400  1.0  0.124
  H  H207  1  0.381000  0.377600  0.222400  1.0  0.1182
  H  H208  1  0.328500  0.471100  0.244300  1.0  0.0958
  H  H209  1  0.458300  0.039700  0.687700  1.0  0.0794
  H  H210  1  0.440200  0.093600  0.644600  1.0  0.1261
  H  H211  1  0.443900  0.146500  0.639500  1.0  0.1317
  H  H212  1  0.480800  0.085400  0.724600  1.0  0.0868
  H  H213  1  0.487200  0.225200  0.712400  1.0  0.0975
  H  H214  1  0.469200  0.129400  0.773800  1.0  0.1166
  H  H215  1  0.473500  0.132300  0.821900  1.0  0.1263
  H  H216  1  0.485700  0.180700  0.812900  1.0  0.0833
  H  H217  1  0.496700  0.262300  0.627900  1.0  0.1147
  H  H218  1  0.512200  0.304200  0.570000  1.0  0.1201
  H  H219  1  0.516400  0.296400  0.520600  1.0  0.0859
  H  H220  1  0.490800  0.208200  0.583000  1.0  0.0904
  H  H221  1  0.427800  0.274000  0.558000  1.0  0.0896
  H  H222  1  0.380400  0.325000  0.567200  1.0  0.1246
  H  H223  1  0.377600  0.381000  0.519000  1.0  0.1172
  H  H224  1  0.471100  0.328500  0.456100  1.0  0.0956
  H  H225  1  0.687700  0.314300  0.458300  1.0  0.0785
  H  H226  1  0.644600  0.321600  0.440200  1.0  0.1279
  H  H227  1  0.639500  0.270100  0.443900  1.0  0.1337
  H  H228  1  0.724600  0.209200  0.480800  1.0  0.0862
  H  H229  1  0.712400  0.075200  0.487200  1.0  0.0981
  H  H230  1  0.773800  0.127600  0.469200  1.0  0.1168
  H  H231  1  0.821900  0.072300  0.473500  1.0  0.1254
  H  H232  1  0.812900  0.020700  0.485700  1.0  0.0826
  H  H233  1  0.627900  0.113100  0.496700  1.0  0.1144
  H  H234  1  0.570000  0.113600  0.512200  1.0  0.1204
  H  H235  1  0.520600  0.166600  0.516400  1.0  0.0871
  H  H236  1  0.583000  0.218000  0.490800  1.0  0.0901
  H  H237  1  0.558000  0.240200  0.427800  1.0  0.0886
  H  H238  1  0.567200  0.227400  0.380400  1.0  0.1234
  H  H239  1  0.519000  0.222400  0.377600  1.0  0.1175
  H  H240  1  0.456100  0.244300  0.471100  1.0  0.0951
  H  H241  1  0.460300  0.185700  0.041700  1.0  0.079
  H  H242  1  0.406400  0.178400  0.059800  1.0  0.1268
  H  H243  1  0.353500  0.229900  0.056100  1.0  0.1335
  H  H244  1  0.414600  0.290800  0.019200  1.0  0.0855
  H  H245  1  0.274800  0.424800  0.012800  1.0  0.0973
  H  H246  1  0.370600  0.372400  0.030800  1.0  0.1183
  H  H247  1  0.367700  0.427700  0.026500  1.0  0.124
  H  H248  1  0.319300  0.479300  0.014300  1.0  0.0812
  H  H249  1  0.237700  0.386900  0.003300  1.0  0.1136
  H  H250  1  0.195800  0.386400  0.987800  1.0  0.1199
  H  H251  1  0.203600  0.333400  0.983600  1.0  0.0864
  H  H252  1  0.291800  0.282000  0.009200  1.0  0.0894
  H  H253  1  0.226000  0.259800  0.072200  1.0  0.0916
  H  H254  1  0.175000  0.272600  0.119600  1.0  0.1233
  H  H255  1  0.119000  0.277600  0.122400  1.0  0.1174
  H  H256  1  0.171500  0.255700  0.028900  1.0  0.0976
  H  H257  1  0.185700  0.460300  0.812300  1.0  0.0776
  H  H258  1  0.178400  0.406400  0.855400  1.0  0.1251
  H  H259  1  0.229900  0.353500  0.860500  1.0  0.1317
  H  H260  1  0.290800  0.414600  0.775400  1.0  0.0846
  H  H261  1  0.424800  0.274800  0.787600  1.0  0.0978
  H  H262  1  0.372400  0.370600  0.726200  1.0  0.1184
  H  H263  1  0.427700  0.367700  0.678100  1.0  0.1247
  H  H264  1  0.479300  0.319300  0.687100  1.0  0.0809
  H  H265  1  0.386900  0.237700  0.872100  1.0  0.1143
  H  H266  1  0.386400  0.195800  0.930000  1.0  0.1191
  H  H267  1  0.333400  0.203600  0.979400  1.0  0.0867
  H  H268  1  0.282000  0.291800  0.917000  1.0  0.0906
  H  H269  1  0.259800  0.226000  0.942000  1.0  0.0908
  H  H270  1  0.272600  0.175000  0.932800  1.0  0.1243
  H  H271  1  0.277600  0.119000  0.981000  1.0  0.1168
  H  H272  1  0.255700  0.171500  0.043900  1.0  0.0974
  H  H273  1  0.812300  0.041700  0.185700  1.0  0.0796
  H  H274  1  0.855400  0.059800  0.178400  1.0  0.1263
  H  H275  1  0.860500  0.056100  0.229900  1.0  0.132
  H  H276  1  0.775400  0.019200  0.290800  1.0  0.0855
  H  H277  1  0.787600  0.012800  0.424800  1.0  0.0967
  H  H278  1  0.726200  0.030800  0.372400  1.0  0.1185
  H  H279  1  0.678100  0.026500  0.427700  1.0  0.1244
  H  H280  1  0.687100  0.014300  0.479300  1.0  0.0813
  H  H281  1  0.872100  0.003300  0.386900  1.0  0.115
  H  H282  1  0.930000  0.987800  0.386400  1.0  0.1177
  H  H283  1  0.979400  0.983600  0.333400  1.0  0.0887
  H  H284  1  0.917000  0.009200  0.282000  1.0  0.0916
  H  H285  1  0.942000  0.072200  0.259800  1.0  0.0887
  H  H286  1  0.932800  0.119600  0.272600  1.0  0.1255
  H  H287  1  0.981000  0.122400  0.277600  1.0  0.1165
  H  H288  1  0.043900  0.028900  0.255700  1.0  0.0957
  H  H289  1  0.041700  0.812300  0.460300  1.0  0.0785
  H  H290  1  0.059800  0.855400  0.406400  1.0  0.1262
  H  H291  1  0.056100  0.860500  0.353500  1.0  0.1322
  H  H292  1  0.019200  0.775400  0.414600  1.0  0.0855
  H  H293  1  0.012800  0.787600  0.274800  1.0  0.0974
  H  H294  1  0.030800  0.726200  0.370600  1.0  0.1172
  H  H295  1  0.026500  0.678100  0.367700  1.0  0.1261
  H  H296  1  0.014300  0.687100  0.319300  1.0  0.0821
  H  H297  1  0.003300  0.872100  0.237700  1.0  0.1147
  H  H298  1  0.987800  0.930000  0.195800  1.0  0.1166
  H  H299  1  0.983600  0.979400  0.203600  1.0  0.087
  H  H300  1  0.009200  0.917000  0.291800  1.0  0.0906
  H  H301  1  0.072200  0.942000  0.226000  1.0  0.0879
  H  H302  1  0.119600  0.932800  0.175000  1.0  0.1257
  H  H303  1  0.122400  0.981000  0.119000  1.0  0.1164
  H  H304  1  0.028900  0.043900  0.171500  1.0  0.0975
  H  H305  1  0.812300  0.460300  0.041700  1.0  0.0769
  H  H306  1  0.855400  0.406400  0.059800  1.0  0.1259
  H  H307  1  0.860500  0.353500  0.056100  1.0  0.133
  H  H308  1  0.775400  0.414600  0.019200  1.0  0.0842
  H  H309  1  0.787600  0.274800  0.012800  1.0  0.0974
  H  H310  1  0.726200  0.370600  0.030800  1.0  0.1154
  H  H311  1  0.678100  0.367700  0.026500  1.0  0.125
  H  H312  1  0.687100  0.319300  0.014300  1.0  0.0811
  H  H313  1  0.872100  0.237700  0.003300  1.0  0.1144
  H  H314  1  0.930000  0.195800  0.987800  1.0  0.1188
  H  H315  1  0.979400  0.203600  0.983600  1.0  0.0886
  H  H316  1  0.917000  0.291800  0.009200  1.0  0.0895
  H  H317  1  0.942000  0.226000  0.072200  1.0  0.0893
  H  H318  1  0.932800  0.175000  0.119600  1.0  0.124
  H  H319  1  0.981000  0.119000  0.122400  1.0  0.1165
  H  H320  1  0.043900  0.171500  0.028900  1.0  0.096
  H  H321  1  0.041700  0.185700  0.812300  1.0  0.0796
  H  H322  1  0.059800  0.178400  0.855400  1.0  0.1272
  H  H323  1  0.056100  0.229900  0.860500  1.0  0.1332
  H  H324  1  0.019200  0.290800  0.775400  1.0  0.0848
  H  H325  1  0.012800  0.424800  0.787600  1.0  0.0991
  H  H326  1  0.030800  0.372400  0.726200  1.0  0.1172
  H  H327  1  0.026500  0.427700  0.678100  1.0  0.1236
  H  H328  1  0.014300  0.479300  0.687100  1.0  0.083
  H  H329  1  0.003300  0.386900  0.872100  1.0  0.1141
  H  H330  1  0.987800  0.386400  0.930000  1.0  0.1186
  H  H331  1  0.983600  0.333400  0.979400  1.0  0.0885
  H  H332  1  0.009200  0.282000  0.917000  1.0  0.0901
  H  H333  1  0.072200  0.259800  0.942000  1.0  0.0898
  H  H334  1  0.119600  0.272600  0.932800  1.0  0.1241
  H  H335  1  0.122400  0.277600  0.981000  1.0  0.1166
  H  H336  1  0.028900  0.255700  0.043900  1.0  0.0955
  H  H337  1  0.460300  0.812300  0.185700  1.0  0.0767
  H  H338  1  0.406400  0.855400  0.178400  1.0  0.1269
  H  H339  1  0.353500  0.860500  0.229900  1.0  0.1331
  H  H340  1  0.414600  0.775400  0.290800  1.0  0.0855
  H  H341  1  0.274800  0.787600  0.424800  1.0  0.0979
  H  H342  1  0.370600  0.726200  0.372400  1.0  0.1174
  H  H343  1  0.367700  0.678100  0.427700  1.0  0.1257
  H  H344  1  0.319300  0.687100  0.479300  1.0  0.0816
  H  H345  1  0.237700  0.872100  0.386900  1.0  0.1147
  H  H346  1  0.195800  0.930000  0.386400  1.0  0.1183
  H  H347  1  0.203600  0.979400  0.333400  1.0  0.0872
  H  H348  1  0.291800  0.917000  0.282000  1.0  0.089
  H  H349  1  0.226000  0.942000  0.259800  1.0  0.0902
  H  H350  1  0.175000  0.932800  0.272600  1.0  0.1254
  H  H351  1  0.119000  0.981000  0.277600  1.0  0.1178
  H  H352  1  0.171500  0.043900  0.255700  1.0  0.0975
  H  H353  1  0.185700  0.041700  0.460300  1.0  0.0781
  H  H354  1  0.178400  0.059800  0.406400  1.0  0.1255
  H  H355  1  0.229900  0.056100  0.353500  1.0  0.1322
  H  H356  1  0.290800  0.019200  0.414600  1.0  0.0837
  H  H357  1  0.424800  0.012800  0.274800  1.0  0.099
  H  H358  1  0.372400  0.030800  0.370600  1.0  0.1182
  H  H359  1  0.427700  0.026500  0.367700  1.0  0.1233
  H  H360  1  0.479300  0.014300  0.319300  1.0  0.0834
  H  H361  1  0.386900  0.003300  0.237700  1.0  0.1143
  H  H362  1  0.386400  0.987800  0.195800  1.0  0.1189
  H  H363  1  0.333400  0.983600  0.203600  1.0  0.0867
  H  H364  1  0.282000  0.009200  0.291800  1.0  0.0888
  H  H365  1  0.259800  0.072200  0.226000  1.0  0.0905
  H  H366  1  0.272600  0.119600  0.175000  1.0  0.1251
  H  H367  1  0.277600  0.122400  0.119000  1.0  0.1173
  H  H368  1  0.255700  0.028900  0.171500  1.0  0.0969
  H  H369  1  0.185700  0.812300  0.041700  1.0  0.0787
  H  H370  1  0.178400  0.855400  0.059800  1.0  0.1267
  H  H371  1  0.229900  0.860500  0.056100  1.0  0.1325
  H  H372  1  0.290800  0.775400  0.019200  1.0  0.0856
  H  H373  1  0.424800  0.787600  0.012800  1.0  0.0971
  H  H374  1  0.372400  0.726200  0.030800  1.0  0.1176
  H  H375  1  0.427700  0.678100  0.026500  1.0  0.1253
  H  H376  1  0.479300  0.687100  0.014300  1.0  0.0822
  H  H377  1  0.386900  0.872100  0.003300  1.0  0.1139
  H  H378  1  0.386400  0.930000  0.987800  1.0  0.1191
  H  H379  1  0.333400  0.979400  0.983600  1.0  0.0869
  H  H380  1  0.282000  0.917000  0.009200  1.0  0.0892
  H  H381  1  0.259800  0.942000  0.072200  1.0  0.089
  H  H382  1  0.272600  0.932800  0.119600  1.0  0.1256
  H  H383  1  0.277600  0.981000  0.122400  1.0  0.1176
  H  H384  1  0.255700  0.043900  0.028900  1.0  0.097
  H  H385  1  0.460300  0.041700  0.812300  1.0  0.0785
  H  H386  1  0.406400  0.059800  0.855400  1.0  0.1253
  H  H387  1  0.353500  0.056100  0.860500  1.0  0.1327
  H  H388  1  0.414600  0.019200  0.775400  1.0  0.0858
  H  H389  1  0.274800  0.012800  0.787600  1.0  0.0977
  H  H390  1  0.370600  0.030800  0.726200  1.0  0.1169
  H  H391  1  0.367700  0.026500  0.678100  1.0  0.124
  H  H392  1  0.319300  0.014300  0.687100  1.0  0.0826
  H  H393  1  0.237700  0.003300  0.872100  1.0  0.1158
  H  H394  1  0.195800  0.987800  0.930000  1.0  0.1189
  H  H395  1  0.203600  0.983600  0.979400  1.0  0.0867
  H  H396  1  0.291800  0.009200  0.917000  1.0  0.0887
  H  H397  1  0.226000  0.072200  0.942000  1.0  0.0894
  H  H398  1  0.175000  0.119600  0.932800  1.0  0.1254
  H  H399  1  0.119000  0.122400  0.981000  1.0  0.1188
  H  H400  1  0.171500  0.028900  0.043900  1.0  0.0971
  H  H401  1  0.041700  0.460300  0.185700  1.0  0.0791
  H  H402  1  0.059800  0.406400  0.178400  1.0  0.1261
  H  H403  1  0.056100  0.353500  0.229900  1.0  0.1318
  H  H404  1  0.019200  0.414600  0.290800  1.0  0.0871
  H  H405  1  0.012800  0.274800  0.424800  1.0  0.0978
  H  H406  1  0.030800  0.370600  0.372400  1.0  0.1168
  H  H407  1  0.026500  0.367700  0.427700  1.0  0.1245
  H  H408  1  0.014300  0.319300  0.479300  1.0  0.0828
  H  H409  1  0.003300  0.237700  0.386900  1.0  0.1151
  H  H410  1  0.987800  0.195800  0.386400  1.0  0.1214
  H  H411  1  0.983600  0.203600  0.333400  1.0  0.0863
  H  H412  1  0.009200  0.291800  0.282000  1.0  0.0901
  H  H413  1  0.072200  0.226000  0.259800  1.0  0.0889
  H  H414  1  0.119600  0.175000  0.272600  1.0  0.1242
  H  H415  1  0.122400  0.119000  0.277600  1.0  0.1172
  H  H416  1  0.028900  0.171500  0.255700  1.0  0.0954
  H  H417  1  0.812300  0.185700  0.460300  1.0  0.0797
  H  H418  1  0.855400  0.178400  0.406400  1.0  0.128
  H  H419  1  0.860500  0.229900  0.353500  1.0  0.1337
  H  H420  1  0.775400  0.290800  0.414600  1.0  0.086
  H  H421  1  0.787600  0.424800  0.274800  1.0  0.0976
  H  H422  1  0.726200  0.372400  0.370600  1.0  0.1173
  H  H423  1  0.678100  0.427700  0.367700  1.0  0.1246
  H  H424  1  0.687100  0.479300  0.319300  1.0  0.0826
  H  H425  1  0.872100  0.386900  0.237700  1.0  0.1153
  H  H426  1  0.930000  0.386400  0.195800  1.0  0.1195
  H  H427  1  0.979400  0.333400  0.203600  1.0  0.0869
  H  H428  1  0.917000  0.282000  0.291800  1.0  0.0905
  H  H429  1  0.942000  0.259800  0.226000  1.0  0.0881
  H  H430  1  0.932800  0.272600  0.175000  1.0  0.1229
  H  H431  1  0.981000  0.277600  0.119000  1.0  0.1175
  H  H432  1  0.043900  0.255700  0.171500  1.0  0.0951
  H  H433  1  0.960300  0.685700  0.312300  1.0  0.0785
  H  H434  1  0.906400  0.678400  0.355400  1.0  0.1268
  H  H435  1  0.853500  0.729900  0.360500  1.0  0.1331
  H  H436  1  0.914600  0.790800  0.275400  1.0  0.0854
  H  H437  1  0.774800  0.924800  0.287600  1.0  0.0974
  H  H438  1  0.870600  0.872400  0.226200  1.0  0.1182
  H  H439  1  0.867700  0.927700  0.178100  1.0  0.1238
  H  H440  1  0.819300  0.979300  0.187100  1.0  0.0813
  H  H441  1  0.737700  0.886900  0.372100  1.0  0.1144
  H  H442  1  0.695800  0.886400  0.430000  1.0  0.1192
  H  H443  1  0.703600  0.833400  0.479400  1.0  0.087
  H  H444  1  0.791800  0.782000  0.417000  1.0  0.0895
  H  H445  1  0.726000  0.759800  0.442000  1.0  0.0902
  H  H446  1  0.675000  0.772600  0.432800  1.0  0.1233
  H  H447  1  0.619000  0.777600  0.481000  1.0  0.1178
  H  H448  1  0.671500  0.755700  0.543900  1.0  0.0975
  H  H449  1  0.685700  0.960300  0.541700  1.0  0.0775
  H  H450  1  0.678400  0.906400  0.559800  1.0  0.1253
  H  H451  1  0.729900  0.853500  0.556100  1.0  0.1319
  H  H452  1  0.790800  0.914600  0.519200  1.0  0.0842
  H  H453  1  0.924800  0.774800  0.512800  1.0  0.0974
  H  H454  1  0.872400  0.870600  0.530800  1.0  0.1183
  H  H455  1  0.927700  0.867700  0.526500  1.0  0.1247
  H  H456  1  0.979300  0.819300  0.514300  1.0  0.0815
  H  H457  1  0.886900  0.737700  0.503300  1.0  0.1139
  H  H458  1  0.886400  0.695800  0.487800  1.0  0.1203
  H  H459  1  0.833400  0.703600  0.483600  1.0  0.0868
  H  H460  1  0.782000  0.791800  0.509200  1.0  0.0907
  H  H461  1  0.759800  0.726000  0.572200  1.0  0.091
  H  H462  1  0.772600  0.675000  0.619600  1.0  0.1241
  H  H463  1  0.777600  0.619000  0.622400  1.0  0.1166
  H  H464  1  0.755700  0.671500  0.528900  1.0  0.0974
  H  H465  1  0.312300  0.541700  0.960300  1.0  0.0777
  H  H466  1  0.355400  0.559800  0.906400  1.0  0.1262
  H  H467  1  0.360500  0.556100  0.853500  1.0  0.1324
  H  H468  1  0.275400  0.519200  0.914600  1.0  0.0843
  H  H469  1  0.287600  0.512800  0.774800  1.0  0.0969
  H  H470  1  0.226200  0.530800  0.870600  1.0  0.1172
  H  H471  1  0.178100  0.526500  0.867700  1.0  0.1253
  H  H472  1  0.187100  0.514300  0.819300  1.0  0.0811
  H  H473  1  0.372100  0.503300  0.737700  1.0  0.1151
  H  H474  1  0.430000  0.487800  0.695800  1.0  0.1168
  H  H475  1  0.479400  0.483600  0.703600  1.0  0.0877
  H  H476  1  0.417000  0.509200  0.791800  1.0  0.0913
  H  H477  1  0.442000  0.572200  0.726000  1.0  0.0886
  H  H478  1  0.432800  0.619600  0.675000  1.0  0.1255
  H  H479  1  0.481000  0.622400  0.619000  1.0  0.1166
  H  H480  1  0.543900  0.528900  0.671500  1.0  0.0956
  H  H481  1  0.541700  0.312300  0.685700  1.0  0.0791
  H  H482  1  0.559800  0.355400  0.678400  1.0  0.1267
  H  H483  1  0.556100  0.360500  0.729900  1.0  0.1316
  H  H484  1  0.519200  0.275400  0.790800  1.0  0.0858
  H  H485  1  0.512800  0.287600  0.924800  1.0  0.097
  H  H486  1  0.530800  0.226200  0.872400  1.0  0.118
  H  H487  1  0.526500  0.178100  0.927700  1.0  0.1261
  H  H488  1  0.514300  0.187100  0.979300  1.0  0.0818
  H  H489  1  0.503300  0.372100  0.886900  1.0  0.1149
  H  H490  1  0.487800  0.430000  0.886400  1.0  0.1175
  H  H491  1  0.483600  0.479400  0.833400  1.0  0.0885
  H  H492  1  0.509200  0.417000  0.782000  1.0  0.0908
  H  H493  1  0.572200  0.442000  0.759800  1.0  0.0886
  H  H494  1  0.619600  0.432800  0.772600  1.0  0.1254
  H  H495  1  0.622400  0.481000  0.777600  1.0  0.1169
  H  H496  1  0.528900  0.543900  0.755700  1.0  0.0974
  H  H497  1  0.312300  0.960300  0.685700  1.0  0.0768
  H  H498  1  0.355400  0.906400  0.678400  1.0  0.1263
  H  H499  1  0.360500  0.853500  0.729900  1.0  0.133
  H  H500  1  0.275400  0.914600  0.790800  1.0  0.0844
  H  H501  1  0.287600  0.774800  0.924800  1.0  0.0971
  H  H502  1  0.226200  0.870600  0.872400  1.0  0.1161
  H  H503  1  0.178100  0.867700  0.927700  1.0  0.1251
  H  H504  1  0.187100  0.819300  0.979300  1.0  0.081
  H  H505  1  0.372100  0.737700  0.886900  1.0  0.1148
  H  H506  1  0.430000  0.695800  0.886400  1.0  0.1208
  H  H507  1  0.479400  0.703600  0.833400  1.0  0.0889
  H  H508  1  0.417000  0.791800  0.782000  1.0  0.0899
  H  H509  1  0.442000  0.726000  0.759800  1.0  0.0897
  H  H510  1  0.432800  0.675000  0.772600  1.0  0.124
  H  H511  1  0.481000  0.619000  0.777600  1.0  0.1164
  H  H512  1  0.543900  0.671500  0.755700  1.0  0.0958
  H  H513  1  0.541700  0.685700  0.960300  1.0  0.0783
  H  H514  1  0.559800  0.678400  0.906400  1.0  0.1272
  H  H515  1  0.556100  0.729900  0.853500  1.0  0.1329
  H  H516  1  0.519200  0.790800  0.914600  1.0  0.0844
  H  H517  1  0.512800  0.924800  0.774800  1.0  0.0995
  H  H518  1  0.530800  0.872400  0.870600  1.0  0.1176
  H  H519  1  0.526500  0.927700  0.867700  1.0  0.1237
  H  H520  1  0.514300  0.979300  0.819300  1.0  0.0835
  H  H521  1  0.503300  0.886900  0.737700  1.0  0.1143
  H  H522  1  0.487800  0.886400  0.695800  1.0  0.119
  H  H523  1  0.483600  0.833400  0.703600  1.0  0.0888
  H  H524  1  0.509200  0.782000  0.791800  1.0  0.0899
  H  H525  1  0.572200  0.759800  0.726000  1.0  0.0895
  H  H526  1  0.619600  0.772600  0.675000  1.0  0.1242
  H  H527  1  0.622400  0.777600  0.619000  1.0  0.1169
  H  H528  1  0.528900  0.755700  0.671500  1.0  0.0955
  H  H529  1  0.960300  0.312300  0.541700  1.0  0.0761
  H  H530  1  0.906400  0.355400  0.559800  1.0  0.1264
  H  H531  1  0.853500  0.360500  0.556100  1.0  0.1328
  H  H532  1  0.914600  0.275400  0.519200  1.0  0.0844
  H  H533  1  0.774800  0.287600  0.512800  1.0  0.098
  H  H534  1  0.870600  0.226200  0.530800  1.0  0.1171
  H  H535  1  0.867700  0.178100  0.526500  1.0  0.1264
  H  H536  1  0.819300  0.187100  0.514300  1.0  0.0818
  H  H537  1  0.737700  0.372100  0.503300  1.0  0.1143
  H  H538  1  0.695800  0.430000  0.487800  1.0  0.1184
  H  H539  1  0.703600  0.479400  0.483600  1.0  0.0864
  H  H540  1  0.791800  0.417000  0.509200  1.0  0.0887
  H  H541  1  0.726000  0.442000  0.572200  1.0  0.09
  H  H542  1  0.675000  0.432800  0.619600  1.0  0.1259
  H  H543  1  0.619000  0.481000  0.622400  1.0  0.1179
  H  H544  1  0.671500  0.543900  0.528900  1.0  0.0975
  H  H545  1  0.685700  0.541700  0.312300  1.0  0.0785
  H  H546  1  0.678400  0.559800  0.355400  1.0  0.1256
  H  H547  1  0.729900  0.556100  0.360500  1.0  0.1326
  H  H548  1  0.790800  0.519200  0.275400  1.0  0.0827
  H  H549  1  0.924800  0.512800  0.287600  1.0  0.0988
  H  H550  1  0.872400  0.530800  0.226200  1.0  0.1182
  H  H551  1  0.927700  0.526500  0.178100  1.0  0.1239
  H  H552  1  0.979300  0.514300  0.187100  1.0  0.0826
  H  H553  1  0.886900  0.503300  0.372100  1.0  0.1141
  H  H554  1  0.886400  0.487800  0.430000  1.0  0.1187
  H  H555  1  0.833400  0.483600  0.479400  1.0  0.0854
  H  H556  1  0.782000  0.509200  0.417000  1.0  0.089
  H  H557  1  0.759800  0.572200  0.442000  1.0  0.0905
  H  H558  1  0.772600  0.619600  0.432800  1.0  0.1252
  H  H559  1  0.777600  0.622400  0.481000  1.0  0.1171
  H  H560  1  0.755700  0.528900  0.543900  1.0  0.097
  H  H561  1  0.685700  0.312300  0.960300  1.0  0.0781
  H  H562  1  0.678400  0.355400  0.906400  1.0  0.1269
  H  H563  1  0.729900  0.360500  0.853500  1.0  0.1323
  H  H564  1  0.790800  0.275400  0.914600  1.0  0.0853
  H  H565  1  0.924800  0.287600  0.774800  1.0  0.0975
  H  H566  1  0.872400  0.226200  0.870600  1.0  0.1177
  H  H567  1  0.927700  0.178100  0.867700  1.0  0.1255
  H  H568  1  0.979300  0.187100  0.819300  1.0  0.0823
  H  H569  1  0.886900  0.372100  0.737700  1.0  0.1144
  H  H570  1  0.886400  0.430000  0.695800  1.0  0.1195
  H  H571  1  0.833400  0.479400  0.703600  1.0  0.0869
  H  H572  1  0.782000  0.417000  0.791800  1.0  0.0894
  H  H573  1  0.759800  0.442000  0.726000  1.0  0.0886
  H  H574  1  0.772600  0.432800  0.675000  1.0  0.1249
  H  H575  1  0.777600  0.481000  0.619000  1.0  0.1173
  H  H576  1  0.755700  0.543900  0.671500  1.0  0.0969
  H  H577  1  0.960300  0.541700  0.685700  1.0  0.0785
  H  H578  1  0.906400  0.559800  0.678400  1.0  0.1258
  H  H579  1  0.853500  0.556100  0.729900  1.0  0.1327
  H  H580  1  0.914600  0.519200  0.790800  1.0  0.0868
  H  H581  1  0.774800  0.512800  0.924800  1.0  0.0975
  H  H582  1  0.870600  0.530800  0.872400  1.0  0.1169
  H  H583  1  0.867700  0.526500  0.927700  1.0  0.1238
  H  H584  1  0.819300  0.514300  0.979300  1.0  0.082
  H  H585  1  0.737700  0.503300  0.886900  1.0  0.1151
  H  H586  1  0.695800  0.487800  0.886400  1.0  0.12
  H  H587  1  0.703600  0.483600  0.833400  1.0  0.0863
  H  H588  1  0.791800  0.509200  0.782000  1.0  0.0888
  H  H589  1  0.726000  0.572200  0.759800  1.0  0.0897
  H  H590  1  0.675000  0.619600  0.772600  1.0  0.1252
  H  H591  1  0.619000  0.622400  0.777600  1.0  0.1184
  H  H592  1  0.671500  0.528900  0.755700  1.0  0.0968
  H  H593  1  0.541700  0.960300  0.312300  1.0  0.0779
  H  H594  1  0.559800  0.906400  0.355400  1.0  0.1255
  H  H595  1  0.556100  0.853500  0.360500  1.0  0.1318
  H  H596  1  0.519200  0.914600  0.275400  1.0  0.0853
  H  H597  1  0.512800  0.774800  0.287600  1.0  0.0982
  H  H598  1  0.530800  0.870600  0.226200  1.0  0.1168
  H  H599  1  0.526500  0.867700  0.178100  1.0  0.1256
  H  H600  1  0.514300  0.819300  0.187100  1.0  0.0828
  H  H601  1  0.503300  0.737700  0.372100  1.0  0.1154
  H  H602  1  0.487800  0.695800  0.430000  1.0  0.1203
  H  H603  1  0.483600  0.703600  0.479400  1.0  0.087
  H  H604  1  0.509200  0.791800  0.417000  1.0  0.0901
  H  H605  1  0.572200  0.726000  0.442000  1.0  0.0894
  H  H606  1  0.619600  0.675000  0.432800  1.0  0.1243
  H  H607  1  0.622400  0.619000  0.481000  1.0  0.1173
  H  H608  1  0.528900  0.671500  0.543900  1.0  0.0953
  H  H609  1  0.312300  0.685700  0.541700  1.0  0.0788
  H  H610  1  0.355400  0.678400  0.559800  1.0  0.1276
  H  H611  1  0.360500  0.729900  0.556100  1.0  0.1342
  H  H612  1  0.275400  0.790800  0.519200  1.0  0.0858
  H  H613  1  0.287600  0.924800  0.512800  1.0  0.0976
  H  H614  1  0.226200  0.872400  0.530800  1.0  0.1171
  H  H615  1  0.178100  0.927700  0.526500  1.0  0.1254
  H  H616  1  0.187100  0.979300  0.514300  1.0  0.0823
  H  H617  1  0.372100  0.886900  0.503300  1.0  0.1145
  H  H618  1  0.430000  0.886400  0.487800  1.0  0.1201
  H  H619  1  0.479400  0.833400  0.483600  1.0  0.0871
  H  H620  1  0.417000  0.782000  0.509200  1.0  0.0903
  H  H621  1  0.442000  0.759800  0.572200  1.0  0.0885
  H  H622  1  0.432800  0.772600  0.619600  1.0  0.1234
  H  H623  1  0.481000  0.777600  0.622400  1.0  0.1176
  H  H624  1  0.543900  0.755700  0.528900  1.0  0.0952
  H  H625  1  0.539700  0.814300  0.958300  1.0  0.0782
  H  H626  1  0.593600  0.821600  0.940200  1.0  0.1264
  H  H627  1  0.646500  0.770100  0.943900  1.0  0.1325
  H  H628  1  0.585400  0.709200  0.980800  1.0  0.0859
  H  H629  1  0.725200  0.575200  0.987200  1.0  0.0971
  H  H630  1  0.629400  0.627600  0.969200  1.0  0.1182
  H  H631  1  0.632300  0.572300  0.973500  1.0  0.1239
  H  H632  1  0.680700  0.520700  0.985700  1.0  0.0812
  H  H633  1  0.762300  0.613100  0.996700  1.0  0.1139
  H  H634  1  0.804200  0.613600  0.012200  1.0  0.1196
  H  H635  1  0.796400  0.666667  0.016400  1.0  0.0871
  H  H636  1  0.708200  0.718000  0.990800  1.0  0.0898
  H  H637  1  0.774000  0.740200  0.927800  1.0  0.0909
  H  H638  1  0.825000  0.727400  0.880400  1.0  0.1234
  H  H639  1  0.881000  0.722400  0.877600  1.0  0.1175
  H  H640  1  0.828500  0.744300  0.971100  1.0  0.0972
  H  H641  1  0.814300  0.539700  0.187700  1.0  0.0782
  H  H642  1  0.821600  0.593600  0.144600  1.0  0.1249
  H  H643  1  0.770100  0.646500  0.139500  1.0  0.1321
  H  H644  1  0.709200  0.585400  0.224600  1.0  0.0833
  H  H645  1  0.575200  0.725200  0.212400  1.0  0.097
  H  H646  1  0.627600  0.629400  0.273800  1.0  0.1185
  H  H647  1  0.572300  0.632300  0.321900  1.0  0.1254
  H  H648  1  0.520700  0.680700  0.312900  1.0  0.082
  H  H649  1  0.613100  0.762300  0.127900  1.0  0.1136
  H  H650  1  0.613600  0.804200  0.070000  1.0  0.1194
  H  H651  1  0.666667  0.796400  0.020600  1.0  0.0865
  H  H652  1  0.718000  0.708200  0.083000  1.0  0.0903
  H  H653  1  0.740200  0.774000  0.058000  1.0  0.0912
  H  H654  1  0.727400  0.825000  0.067200  1.0  0.1237
  H  H655  1  0.722400  0.881000  0.019000  1.0  0.1168
  H  H656  1  0.744300  0.828500  0.956100  1.0  0.0976
  H  H657  1  0.187700  0.958300  0.814300  1.0  0.0786
  H  H658  1  0.144600  0.940200  0.821600  1.0  0.126
  H  H659  1  0.139500  0.943900  0.770100  1.0  0.132
  H  H660  1  0.224600  0.980800  0.709200  1.0  0.084
  H  H661  1  0.212400  0.987200  0.575200  1.0  0.0971
  H  H662  1  0.273800  0.969200  0.627600  1.0  0.1174
  H  H663  1  0.321900  0.973500  0.572300  1.0  0.1245
  H  H664  1  0.312900  0.985700  0.520700  1.0  0.0814
  H  H665  1  0.127900  0.996700  0.613100  1.0  0.1146
  H  H666  1  0.070000  0.012200  0.613600  1.0  0.1169
  H  H667  1  0.020600  0.016400  0.666667  1.0  0.0878
  H  H668  1  0.083000  0.990800  0.718000  1.0  0.0915
  H  H669  1  0.058000  0.927800  0.740200  1.0  0.088
  H  H670  1  0.067200  0.880400  0.727400  1.0  0.1254
  H  H671  1  0.019000  0.877600  0.722400  1.0  0.1162
  H  H672  1  0.956100  0.971100  0.744300  1.0  0.0955
  H  H673  1  0.958300  0.187700  0.539700  1.0  0.0797
  H  H674  1  0.940200  0.144600  0.593600  1.0  0.1256
  H  H675  1  0.943900  0.139500  0.646500  1.0  0.1319
  H  H676  1  0.980800  0.224600  0.585400  1.0  0.0855
  H  H677  1  0.987200  0.212400  0.725200  1.0  0.0973
  H  H678  1  0.969200  0.273800  0.629400  1.0  0.118
  H  H679  1  0.973500  0.321900  0.632300  1.0  0.1256
  H  H680  1  0.985700  0.312900  0.680700  1.0  0.0818
  H  H681  1  0.996700  0.127900  0.762300  1.0  0.1141
  H  H682  1  0.012200  0.070000  0.804200  1.0  0.1176
  H  H683  1  0.016400  0.020600  0.796400  1.0  0.0878
  H  H684  1  0.990800  0.083000  0.708200  1.0  0.0912
  H  H685  1  0.927800  0.058000  0.774000  1.0  0.0894
  H  H686  1  0.880400  0.067200  0.825000  1.0  0.1261
  H  H687  1  0.877600  0.019000  0.881000  1.0  0.1168
  H  H688  1  0.971100  0.956100  0.828500  1.0  0.0976
  H  H689  1  0.187700  0.539700  0.958300  1.0  0.077
  H  H690  1  0.144600  0.593600  0.940200  1.0  0.126
  H  H691  1  0.139500  0.646500  0.943900  1.0  0.133
  H  H692  1  0.224600  0.585400  0.980800  1.0  0.0839
  H  H693  1  0.212400  0.725200  0.987200  1.0  0.0974
  H  H694  1  0.273800  0.629400  0.969200  1.0  0.1163
  H  H695  1  0.321900  0.632300  0.973500  1.0  0.1252
  H  H696  1  0.312900  0.680700  0.985700  1.0  0.0821
  H  H697  1  0.127900  0.762300  0.996700  1.0  0.1144
  H  H698  1  0.070000  0.804200  0.012200  1.0  0.1186
  H  H699  1  0.020600  0.796400  0.016400  1.0  0.0884
  H  H700  1  0.083000  0.708200  0.990800  1.0  0.0898
  H  H701  1  0.058000  0.774000  0.927800  1.0  0.0888
  H  H702  1  0.067200  0.825000  0.880400  1.0  0.1237
  H  H703  1  0.019000  0.881000  0.877600  1.0  0.1173
  H  H704  1  0.956100  0.828500  0.971100  1.0  0.0961
  H  H705  1  0.958300  0.814300  0.187700  1.0  0.0773
  H  H706  1  0.940200  0.821600  0.144600  1.0  0.1274
  H  H707  1  0.943900  0.770100  0.139500  1.0  0.1327
  H  H708  1  0.980800  0.709200  0.224600  1.0  0.085
  H  H709  1  0.987200  0.575200  0.212400  1.0  0.0996
  H  H710  1  0.969200  0.627600  0.273800  1.0  0.1173
  H  H711  1  0.973500  0.572300  0.321900  1.0  0.124
  H  H712  1  0.985700  0.520700  0.312900  1.0  0.0836
  H  H713  1  0.996700  0.613100  0.127900  1.0  0.1143
  H  H714  1  0.012200  0.613600  0.070000  1.0  0.119
  H  H715  1  0.016400  0.666667  0.020600  1.0  0.0893
  H  H716  1  0.990800  0.718000  0.083000  1.0  0.09
  H  H717  1  0.927800  0.740200  0.058000  1.0  0.0899
  H  H718  1  0.880400  0.727400  0.067200  1.0  0.1246
  H  H719  1  0.877600  0.722400  0.019000  1.0  0.1171
  H  H720  1  0.971100  0.744300  0.956100  1.0  0.0956
  H  H721  1  0.539700  0.187700  0.814300  1.0  0.0772
  H  H722  1  0.593600  0.144600  0.821600  1.0  0.1266
  H  H723  1  0.646500  0.139500  0.770100  1.0  0.1329
  H  H724  1  0.585400  0.224600  0.709200  1.0  0.084
  H  H725  1  0.725200  0.212400  0.575200  1.0  0.0979
  H  H726  1  0.629400  0.273800  0.627600  1.0  0.1168
  H  H727  1  0.632300  0.321900  0.572300  1.0  0.1252
  H  H728  1  0.680700  0.312900  0.520700  1.0  0.0815
  H  H729  1  0.762300  0.127900  0.613100  1.0  0.114
  H  H730  1  0.804200  0.070000  0.613600  1.0  0.1183
  H  H731  1  0.796400  0.020600  0.666667  1.0  0.0863
  H  H732  1  0.708200  0.083000  0.718000  1.0  0.0886
  H  H733  1  0.774000  0.058000  0.740200  1.0  0.0901
  H  H734  1  0.825000  0.067200  0.727400  1.0  0.1261
  H  H735  1  0.881000  0.019000  0.722400  1.0  0.1175
  H  H736  1  0.828500  0.956100  0.744300  1.0  0.0979
  H  H737  1  0.814300  0.958300  0.539700  1.0  0.0784
  H  H738  1  0.821600  0.940200  0.593600  1.0  0.1257
  H  H739  1  0.770100  0.943900  0.646500  1.0  0.1323
  H  H740  1  0.709200  0.980800  0.585400  1.0  0.0828
  H  H741  1  0.575200  0.987200  0.725200  1.0  0.099
  H  H742  1  0.627600  0.969200  0.629400  1.0  0.118
  H  H743  1  0.572300  0.973500  0.632300  1.0  0.1233
  H  H744  1  0.520700  0.985700  0.680700  1.0  0.0831
  H  H745  1  0.613100  0.996700  0.762300  1.0  0.1144
  H  H746  1  0.613600  0.012200  0.804200  1.0  0.1194
  H  H747  1  0.666667  0.016400  0.796400  1.0  0.0865
  H  H748  1  0.718000  0.990800  0.708200  1.0  0.0891
  H  H749  1  0.740200  0.927800  0.774000  1.0  0.091
  H  H750  1  0.727400  0.880400  0.825000  1.0  0.1239
  H  H751  1  0.722400  0.877600  0.881000  1.0  0.1167
  H  H752  1  0.744300  0.971100  0.828500  1.0  0.0963
  H  H753  1  0.814300  0.187700  0.958300  1.0  0.078
  H  H754  1  0.821600  0.144600  0.940200  1.0  0.1266
  H  H755  1  0.770100  0.139500  0.943900  1.0  0.1322
  H  H756  1  0.709200  0.224600  0.980800  1.0  0.0843
  H  H757  1  0.575200  0.212400  0.987200  1.0  0.0975
  H  H758  1  0.627600  0.273800  0.969200  1.0  0.1174
  H  H759  1  0.572300  0.321900  0.973500  1.0  0.1254
  H  H760  1  0.520700  0.312900  0.985700  1.0  0.0822
  H  H761  1  0.613100  0.127900  0.996700  1.0  0.114
  H  H762  1  0.613600  0.070000  0.012200  1.0  0.1196
  H  H763  1  0.666667  0.020600  0.016400  1.0  0.0864
  H  H764  1  0.718000  0.083000  0.990800  1.0  0.0893
  H  H765  1  0.740200  0.058000  0.927800  1.0  0.0899
  H  H766  1  0.727400  0.067200  0.880400  1.0  0.1261
  H  H767  1  0.722400  0.019000  0.877600  1.0  0.1177
  H  H768  1  0.744300  0.956100  0.971100  1.0  0.097
  H  H769  1  0.539700  0.958300  0.187700  1.0  0.0795
  H  H770  1  0.593600  0.940200  0.144600  1.0  0.1255
  H  H771  1  0.646500  0.943900  0.139500  1.0  0.1321
  H  H772  1  0.585400  0.980800  0.224600  1.0  0.0865
  H  H773  1  0.725200  0.987200  0.212400  1.0  0.0974
  H  H774  1  0.629400  0.969200  0.273800  1.0  0.1173
  H  H775  1  0.632300  0.973500  0.321900  1.0  0.1241
  H  H776  1  0.680700  0.985700  0.312900  1.0  0.0824
  H  H777  1  0.762300  0.996700  0.127900  1.0  0.1151
  H  H778  1  0.804200  0.012200  0.070000  1.0  0.119
  H  H779  1  0.796400  0.016400  0.020600  1.0  0.0859
  H  H780  1  0.708200  0.990800  0.083000  1.0  0.0896
  H  H781  1  0.774000  0.927800  0.058000  1.0  0.0894
  H  H782  1  0.825000  0.880400  0.067200  1.0  0.1252
  H  H783  1  0.881000  0.877600  0.019000  1.0  0.1181
  H  H784  1  0.828500  0.971100  0.956100  1.0  0.0964
  H  H785  1  0.958300  0.539700  0.814300  1.0  0.0784
  H  H786  1  0.940200  0.593600  0.821600  1.0  0.1256
  H  H787  1  0.943900  0.646500  0.770100  1.0  0.1316
  H  H788  1  0.980800  0.585400  0.709200  1.0  0.0857
  H  H789  1  0.987200  0.725200  0.575200  1.0  0.0975
  H  H790  1  0.969200  0.629400  0.627600  1.0  0.117
  H  H791  1  0.973500  0.632300  0.572300  1.0  0.124
  H  H792  1  0.985700  0.680700  0.520700  1.0  0.0836
  H  H793  1  0.996700  0.762300  0.613100  1.0  0.1151
  H  H794  1  0.012200  0.804200  0.613600  1.0  0.1204
  H  H795  1  0.016400  0.796400  0.666667  1.0  0.0865
  H  H796  1  0.990800  0.708200  0.718000  1.0  0.0904
  H  H797  1  0.927800  0.774000  0.740200  1.0  0.0894
  H  H798  1  0.880400  0.825000  0.727400  1.0  0.124
  H  H799  1  0.877600  0.881000  0.722400  1.0  0.1178
  H  H800  1  0.971100  0.828500  0.744300  1.0  0.0954
  H  H801  1  0.187700  0.814300  0.539700  1.0  0.0782
  H  H802  1  0.144600  0.821600  0.593600  1.0  0.1276
  H  H803  1  0.139500  0.770100  0.646500  1.0  0.1339
  H  H804  1  0.224600  0.709200  0.585400  1.0  0.0856
  H  H805  1  0.212400  0.575200  0.725200  1.0  0.0975
  H  H806  1  0.273800  0.627600  0.629400  1.0  0.1171
  H  H807  1  0.321900  0.572300  0.632300  1.0  0.1246
  H  H808  1  0.312900  0.520700  0.680700  1.0  0.0826
  H  H809  1  0.127900  0.613100  0.762300  1.0  0.114
  H  H810  1  0.070000  0.613600  0.804200  1.0  0.1205
  H  H811  1  0.020600  0.666667  0.796400  1.0  0.0871
  H  H812  1  0.083000  0.718000  0.708200  1.0  0.0903
  H  H813  1  0.058000  0.740200  0.774000  1.0  0.0884
  H  H814  1  0.067200  0.727400  0.825000  1.0  0.1236
  H  H815  1  0.019000  0.722400  0.881000  1.0  0.1174
  H  H816  1  0.956100  0.744300  0.828500  1.0  0.0955
  C  C817  1  0.060580  0.293440  0.686300  1.0  0.1776
  C  C818  1  0.092600  0.298060  0.660440  1.0  -0.1705
  C  C819  1  0.124040  0.267740  0.657520  1.0  -0.0713
  C  C820  1  0.120860  0.234100  0.682260  1.0  -0.1229
  C  C821  1  0.087190  0.232210  0.707730  1.0  0.1895
  C  C822  1  0.228780  0.961660  0.835980  1.0  0.2636
  C  C823  1  0.205980  0.074760  0.734660  1.0  0.2045
  C  C824  1  0.177950  0.106850  0.737850  1.0  -0.1591
  C  C825  1  0.149310  0.106150  0.770930  1.0  -0.0282
  C  C826  1  0.150850  0.073710  0.799010  1.0  -0.126
  C  C827  1  0.180060  0.042860  0.793360  1.0  0.1762
  C  C828  1  0.177510  0.140290  0.706090  1.0  0.401
  C  C829  1  0.202650  0.168150  0.646710  1.0  0.409
  C  C830  1  0.151300  0.200000  0.680240  1.0  0.2759
  C  C831  1  0.230560  0.166200  0.611420  1.0  -0.1846
  C  C832  1  0.259580  0.134420  0.607520  1.0  -0.0205
  C  C833  1  0.284170  0.134690  0.573510  1.0  -0.1303
  C  C834  1  0.279270  0.166690  0.543950  1.0  0.1669
  C  C835  1  0.227920  0.196600  0.580360  1.0  0.2063
  C  C836  1  0.203740  0.297540  0.552840  1.0  0.2911
  C  C837  1  0.296180  0.238340  0.538480  1.0  0.1665
  C  C838  1  0.326310  0.230730  0.544230  1.0  -0.1602
  C  C839  1  0.359480  0.227900  0.515740  1.0  -0.0448
  C  C840  1  0.359700  0.233560  0.482400  1.0  -0.1578
  C  C841  1  0.327880  0.240940  0.478800  1.0  0.1893
  C  C842  1  0.393490  0.232490  0.450830  1.0  0.3822
  C  C843  1  0.293440  0.060580  0.459680  1.0  0.1797
  C  C844  1  0.298060  0.092600  0.448900  1.0  -0.168
  C  C845  1  0.267740  0.124040  0.450700  1.0  -0.0706
  C  C846  1  0.234100  0.120860  0.462780  1.0  -0.1246
  C  C847  1  0.232210  0.087190  0.472870  1.0  0.1895
  C  C848  1  0.961660  0.228780  0.473580  1.0  0.2499
  C  C849  1  0.074760  0.205980  0.484600  1.0  0.2031
  C  C850  1  0.106850  0.177950  0.477350  1.0  -0.1591
  C  C851  1  0.106150  0.149310  0.473610  1.0  -0.0303
  C  C852  1  0.073710  0.150850  0.476430  1.0  -0.127
  C  C853  1  0.042860  0.180060  0.483720  1.0  0.1763
  C  C854  1  0.140290  0.177510  0.476110  1.0  0.401
  C  C855  1  0.168150  0.202650  0.482490  1.0  0.4096
  C  C856  1  0.200000  0.151300  0.468460  1.0  0.2768
  C  C857  1  0.166200  0.230560  0.491820  1.0  -0.1848
  C  C858  1  0.134420  0.259580  0.498480  1.0  -0.02
  C  C859  1  0.134690  0.284170  0.507630  1.0  -0.1345
  C  C860  1  0.166690  0.279270  0.510090  1.0  0.168
  C  C861  1  0.196600  0.227920  0.495120  1.0  0.2067
  C  C862  1  0.297540  0.203740  0.445880  1.0  0.2916
  C  C863  1  0.238340  0.296180  0.427000  1.0  0.1658
  C  C864  1  0.230730  0.326310  0.398730  1.0  -0.1585
  C  C865  1  0.227900  0.359480  0.396880  1.0  -0.0446
  C  C866  1  0.233560  0.359700  0.424340  1.0  -0.1576
  C  C867  1  0.240940  0.327880  0.452380  1.0  0.1876
  C  C868  1  0.232490  0.393490  0.423190  1.0  0.3823
  C  C869  1  0.686300  0.459680  0.060580  1.0  0.181
  C  C870  1  0.660440  0.448900  0.092600  1.0  -0.1726
  C  C871  1  0.657520  0.450700  0.124040  1.0  -0.0703
  C  C872  1  0.682260  0.462780  0.120860  1.0  -0.1227
  C  C873  1  0.707730  0.472870  0.087190  1.0  0.1884
  C  C874  1  0.835980  0.473580  0.228780  1.0  0.2517
  C  C875  1  0.734660  0.484600  0.205980  1.0  0.2055
  C  C876  1  0.737850  0.477350  0.177950  1.0  -0.1572
  C  C877  1  0.770930  0.473610  0.149310  1.0  -0.0303
  C  C878  1  0.799010  0.476430  0.150850  1.0  -0.1217
  C  C879  1  0.793360  0.483720  0.180060  1.0  0.1824
  C  C880  1  0.706090  0.476110  0.177510  1.0  0.4009
  C  C881  1  0.646710  0.482490  0.202650  1.0  0.4105
  C  C882  1  0.680240  0.468460  0.151300  1.0  0.2759
  C  C883  1  0.611420  0.491820  0.230560  1.0  -0.1833
  C  C884  1  0.607520  0.498480  0.259580  1.0  -0.0207
  C  C885  1  0.573510  0.507630  0.284170  1.0  -0.1287
  C  C886  1  0.543950  0.510090  0.279270  1.0  0.1665
  C  C887  1  0.580360  0.495120  0.227920  1.0  0.2081
  C  C888  1  0.552840  0.445880  0.203740  1.0  0.2882
  C  C889  1  0.538480  0.427000  0.296180  1.0  0.1693
  C  C890  1  0.544230  0.398730  0.326310  1.0  -0.1638
  C  C891  1  0.515740  0.396880  0.359480  1.0  -0.0456
  C  C892  1  0.482400  0.424340  0.359700  1.0  -0.1577
  C  C893  1  0.478800  0.452380  0.327880  1.0  0.1885
  C  C894  1  0.450830  0.423190  0.393490  1.0  0.3815
  C  C895  1  0.459680  0.686300  0.293440  1.0  0.1773
  C  C896  1  0.448900  0.660440  0.298060  1.0  -0.1713
  C  C897  1  0.450700  0.657520  0.267740  1.0  -0.0689
  C  C898  1  0.462780  0.682260  0.234100  1.0  -0.1226
  C  C899  1  0.472870  0.707730  0.232210  1.0  0.1892
  C  C900  1  0.473580  0.835980  0.961660  1.0  0.2523
  C  C901  1  0.484600  0.734660  0.074760  1.0  0.2047
  C  C902  1  0.477350  0.737850  0.106850  1.0  -0.1595
  C  C903  1  0.473610  0.770930  0.106150  1.0  -0.0287
  C  C904  1  0.476430  0.799010  0.073710  1.0  -0.1244
  C  C905  1  0.483720  0.793360  0.042860  1.0  0.1782
  C  C906  1  0.476110  0.706090  0.140290  1.0  0.4009
  C  C907  1  0.482490  0.646710  0.168150  1.0  0.4098
  C  C908  1  0.468460  0.680240  0.200000  1.0  0.2765
  C  C909  1  0.491820  0.611420  0.166200  1.0  -0.1837
  C  C910  1  0.498480  0.607520  0.134420  1.0  -0.0254
  C  C911  1  0.507630  0.573510  0.134690  1.0  -0.1289
  C  C912  1  0.510090  0.543950  0.166690  1.0  0.1666
  C  C913  1  0.495120  0.580360  0.196600  1.0  0.206
  C  C914  1  0.445880  0.552840  0.297540  1.0  0.2937
  C  C915  1  0.427000  0.538480  0.238340  1.0  0.1712
  C  C916  1  0.398730  0.544230  0.230730  1.0  -0.1617
  C  C917  1  0.396880  0.515740  0.227900  1.0  -0.044
  C  C918  1  0.424340  0.482400  0.233560  1.0  -0.1592
  C  C919  1  0.452380  0.478800  0.240940  1.0  0.1873
  C  C920  1  0.423190  0.450830  0.232490  1.0  0.3823
  C  C921  1  0.686300  0.060580  0.293440  1.0  0.1784
  C  C922  1  0.660440  0.092600  0.298060  1.0  -0.1715
  C  C923  1  0.657520  0.124040  0.267740  1.0  -0.0711
  C  C924  1  0.682260  0.120860  0.234100  1.0  -0.1235
  C  C925  1  0.707730  0.087190  0.232210  1.0  0.1886
  C  C926  1  0.835980  0.228780  0.961660  1.0  0.2734
  C  C927  1  0.734660  0.205980  0.074760  1.0  0.2024
  C  C928  1  0.737850  0.177950  0.106850  1.0  -0.1581
  C  C929  1  0.770930  0.149310  0.106150  1.0  -0.0309
  C  C930  1  0.799010  0.150850  0.073710  1.0  -0.1239
  C  C931  1  0.793360  0.180060  0.042860  1.0  0.177
  C  C932  1  0.706090  0.177510  0.140290  1.0  0.4004
  C  C933  1  0.646710  0.202650  0.168150  1.0  0.4107
  C  C934  1  0.680240  0.151300  0.200000  1.0  0.2768
  C  C935  1  0.611420  0.230560  0.166200  1.0  -0.184
  C  C936  1  0.607520  0.259580  0.134420  1.0  -0.0202
  C  C937  1  0.573510  0.284170  0.134690  1.0  -0.1347
  C  C938  1  0.543950  0.279270  0.166690  1.0  0.1672
  C  C939  1  0.580360  0.227920  0.196600  1.0  0.2051
  C  C940  1  0.552840  0.203740  0.297540  1.0  0.2924
  C  C941  1  0.538480  0.296180  0.238340  1.0  0.1682
  C  C942  1  0.544230  0.326310  0.230730  1.0  -0.1617
  C  C943  1  0.515740  0.359480  0.227900  1.0  -0.0432
  C  C944  1  0.482400  0.359700  0.233560  1.0  -0.1575
  C  C945  1  0.478800  0.327880  0.240940  1.0  0.1872
  C  C946  1  0.450830  0.393490  0.232490  1.0  0.3824
  C  C947  1  0.459680  0.293440  0.060580  1.0  0.1792
  C  C948  1  0.448900  0.298060  0.092600  1.0  -0.1699
  C  C949  1  0.450700  0.267740  0.124040  1.0  -0.0728
  C  C950  1  0.462780  0.234100  0.120860  1.0  -0.1221
  C  C951  1  0.472870  0.232210  0.087190  1.0  0.1929
  C  C952  1  0.473580  0.961660  0.228780  1.0  0.2455
  C  C953  1  0.484600  0.074760  0.205980  1.0  0.2052
  C  C954  1  0.477350  0.106850  0.177950  1.0  -0.1585
  C  C955  1  0.473610  0.106150  0.149310  1.0  -0.0304
  C  C956  1  0.476430  0.073710  0.150850  1.0  -0.1214
  C  C957  1  0.483720  0.042860  0.180060  1.0  0.1773
  C  C958  1  0.476110  0.140290  0.177510  1.0  0.4012
  C  C959  1  0.482490  0.168150  0.202650  1.0  0.4096
  C  C960  1  0.468460  0.200000  0.151300  1.0  0.2763
  C  C961  1  0.491820  0.166200  0.230560  1.0  -0.1832
  C  C962  1  0.498480  0.134420  0.259580  1.0  -0.0184
  C  C963  1  0.507630  0.134690  0.284170  1.0  -0.1326
  C  C964  1  0.510090  0.166690  0.279270  1.0  0.1663
  C  C965  1  0.495120  0.196600  0.227920  1.0  0.2084
  C  C966  1  0.445880  0.297540  0.203740  1.0  0.2922
  C  C967  1  0.427000  0.238340  0.296180  1.0  0.1696
  C  C968  1  0.398730  0.230730  0.326310  1.0  -0.1619
  C  C969  1  0.396880  0.227900  0.359480  1.0  -0.0439
  C  C970  1  0.424340  0.233560  0.359700  1.0  -0.1585
  C  C971  1  0.452380  0.240940  0.327880  1.0  0.1878
  C  C972  1  0.423190  0.232490  0.393490  1.0  0.3816
  C  C973  1  0.060580  0.686300  0.459680  1.0  0.1766
  C  C974  1  0.092600  0.660440  0.448900  1.0  -0.1722
  C  C975  1  0.124040  0.657520  0.450700  1.0  -0.0741
  C  C976  1  0.120860  0.682260  0.462780  1.0  -0.1234
  C  C977  1  0.087190  0.707730  0.472870  1.0  0.1892
  C  C978  1  0.228780  0.835980  0.473580  1.0  0.2462
  C  C979  1  0.205980  0.734660  0.484600  1.0  0.2037
  C  C980  1  0.177950  0.737850  0.477350  1.0  -0.1607
  C  C981  1  0.149310  0.770930  0.473610  1.0  -0.0296
  C  C982  1  0.150850  0.799010  0.476430  1.0  -0.1264
  C  C983  1  0.180060  0.793360  0.483720  1.0  0.1752
  C  C984  1  0.177510  0.706090  0.476110  1.0  0.4008
  C  C985  1  0.202650  0.646710  0.482490  1.0  0.4098
  C  C986  1  0.151300  0.680240  0.468460  1.0  0.2759
  C  C987  1  0.230560  0.611420  0.491820  1.0  -0.1835
  C  C988  1  0.259580  0.607520  0.498480  1.0  -0.0206
  C  C989  1  0.284170  0.573510  0.507630  1.0  -0.1303
  C  C990  1  0.279270  0.543950  0.510090  1.0  0.1655
  C  C991  1  0.227920  0.580360  0.495120  1.0  0.2076
  C  C992  1  0.203740  0.552840  0.445880  1.0  0.2917
  C  C993  1  0.296180  0.538480  0.427000  1.0  0.1658
  C  C994  1  0.326310  0.544230  0.398730  1.0  -0.1641
  C  C995  1  0.359480  0.515740  0.396880  1.0  -0.043
  C  C996  1  0.359700  0.482400  0.424340  1.0  -0.1581
  C  C997  1  0.327880  0.478800  0.452380  1.0  0.1866
  C  C998  1  0.393490  0.450830  0.423190  1.0  0.3829
  C  C999  1  0.293440  0.459680  0.686300  1.0  0.183
  C  C1000  1  0.298060  0.448900  0.660440  1.0  -0.171
  C  C1001  1  0.267740  0.450700  0.657520  1.0  -0.0736
  C  C1002  1  0.234100  0.462780  0.682260  1.0  -0.1217
  C  C1003  1  0.232210  0.472870  0.707730  1.0  0.1892
  C  C1004  1  0.961660  0.473580  0.835980  1.0  0.2498
  C  C1005  1  0.074760  0.484600  0.734660  1.0  0.2042
  C  C1006  1  0.106850  0.477350  0.737850  1.0  -0.1597
  C  C1007  1  0.106150  0.473610  0.770930  1.0  -0.0279
  C  C1008  1  0.073710  0.476430  0.799010  1.0  -0.1219
  C  C1009  1  0.042860  0.483720  0.793360  1.0  0.1757
  C  C1010  1  0.140290  0.476110  0.706090  1.0  0.4007
  C  C1011  1  0.168150  0.482490  0.646710  1.0  0.4095
  C  C1012  1  0.200000  0.468460  0.680240  1.0  0.2761
  C  C1013  1  0.166200  0.491820  0.611420  1.0  -0.1869
  C  C1014  1  0.134420  0.498480  0.607520  1.0  -0.0196
  C  C1015  1  0.134690  0.507630  0.573510  1.0  -0.1305
  C  C1016  1  0.166690  0.510090  0.543950  1.0  0.1707
  C  C1017  1  0.196600  0.495120  0.580360  1.0  0.2057
  C  C1018  1  0.297540  0.445880  0.552840  1.0  0.2915
  C  C1019  1  0.238340  0.427000  0.538480  1.0  0.1673
  C  C1020  1  0.230730  0.398730  0.544230  1.0  -0.1641
  C  C1021  1  0.227900  0.396880  0.515740  1.0  -0.0448
  C  C1022  1  0.233560  0.424340  0.482400  1.0  -0.156
  C  C1023  1  0.240940  0.452380  0.478800  1.0  0.1891
  C  C1024  1  0.232490  0.423190  0.450830  1.0  0.3821
  C  C1025  1  0.293440  0.686300  0.060580  1.0  0.1781
  C  C1026  1  0.298060  0.660440  0.092600  1.0  -0.172
  C  C1027  1  0.267740  0.657520  0.124040  1.0  -0.0717
  C  C1028  1  0.234100  0.682260  0.120860  1.0  -0.121
  C  C1029  1  0.232210  0.707730  0.087190  1.0  0.189
  C  C1030  1  0.961660  0.835980  0.228780  1.0  0.2631
  C  C1031  1  0.074760  0.734660  0.205980  1.0  0.2032
  C  C1032  1  0.106850  0.737850  0.177950  1.0  -0.1594
  C  C1033  1  0.106150  0.770930  0.149310  1.0  -0.0287
  C  C1034  1  0.073710  0.799010  0.150850  1.0  -0.1247
  C  C1035  1  0.042860  0.793360  0.180060  1.0  0.175
  C  C1036  1  0.140290  0.706090  0.177510  1.0  0.4019
  C  C1037  1  0.168150  0.646710  0.202650  1.0  0.4099
  C  C1038  1  0.200000  0.680240  0.151300  1.0  0.2764
  C  C1039  1  0.166200  0.611420  0.230560  1.0  -0.1838
  C  C1040  1  0.134420  0.607520  0.259580  1.0  -0.0193
  C  C1041  1  0.134690  0.573510  0.284170  1.0  -0.131
  C  C1042  1  0.166690  0.543950  0.279270  1.0  0.1666
  C  C1043  1  0.196600  0.580360  0.227920  1.0  0.2057
  C  C1044  1  0.297540  0.552840  0.203740  1.0  0.297
  C  C1045  1  0.238340  0.538480  0.296180  1.0  0.1692
  C  C1046  1  0.230730  0.544230  0.326310  1.0  -0.1635
  C  C1047  1  0.227900  0.515740  0.359480  1.0  -0.0431
  C  C1048  1  0.233560  0.482400  0.359700  1.0  -0.1547
  C  C1049  1  0.240940  0.478800  0.327880  1.0  0.1903
  C  C1050  1  0.232490  0.450830  0.393490  1.0  0.3818
  C  C1051  1  0.060580  0.459680  0.293440  1.0  0.1778
  C  C1052  1  0.092600  0.448900  0.298060  1.0  -0.1694
  C  C1053  1  0.124040  0.450700  0.267740  1.0  -0.0709
  C  C1054  1  0.120860  0.462780  0.234100  1.0  -0.1237
  C  C1055  1  0.087190  0.472870  0.232210  1.0  0.191
  C  C1056  1  0.228780  0.473580  0.961660  1.0  0.2479
  C  C1057  1  0.205980  0.484600  0.074760  1.0  0.2036
  C  C1058  1  0.177950  0.477350  0.106850  1.0  -0.1602
  C  C1059  1  0.149310  0.473610  0.106150  1.0  -0.0269
  C  C1060  1  0.150850  0.476430  0.073710  1.0  -0.1231
  C  C1061  1  0.180060  0.483720  0.042860  1.0  0.1802
  C  C1062  1  0.177510  0.476110  0.140290  1.0  0.4005
  C  C1063  1  0.202650  0.482490  0.168150  1.0  0.4095
  C  C1064  1  0.151300  0.468460  0.200000  1.0  0.2763
  C  C1065  1  0.230560  0.491820  0.166200  1.0  -0.1821
  C  C1066  1  0.259580  0.498480  0.134420  1.0  -0.0232
  C  C1067  1  0.284170  0.507630  0.134690  1.0  -0.128
  C  C1068  1  0.279270  0.510090  0.166690  1.0  0.1734
  C  C1069  1  0.227920  0.495120  0.196600  1.0  0.2071
  C  C1070  1  0.203740  0.445880  0.297540  1.0  0.298
  C  C1071  1  0.296180  0.427000  0.238340  1.0  0.1681
  C  C1072  1  0.326310  0.398730  0.230730  1.0  -0.1647
  C  C1073  1  0.359480  0.396880  0.227900  1.0  -0.0456
  C  C1074  1  0.359700  0.424340  0.233560  1.0  -0.1591
  C  C1075  1  0.327880  0.452380  0.240940  1.0  0.1878
  C  C1076  1  0.393490  0.423190  0.232490  1.0  0.382
  C  C1077  1  0.459680  0.060580  0.686300  1.0  0.177
  C  C1078  1  0.448900  0.092600  0.660440  1.0  -0.1677
  C  C1079  1  0.450700  0.124040  0.657520  1.0  -0.0713
  C  C1080  1  0.462780  0.120860  0.682260  1.0  -0.1236
  C  C1081  1  0.472870  0.087190  0.707730  1.0  0.1901
  C  C1082  1  0.473580  0.228780  0.835980  1.0  0.246
  C  C1083  1  0.484600  0.205980  0.734660  1.0  0.2025
  C  C1084  1  0.477350  0.177950  0.737850  1.0  -0.1603
  C  C1085  1  0.473610  0.149310  0.770930  1.0  -0.028
  C  C1086  1  0.476430  0.150850  0.799010  1.0  -0.1289
  C  C1087  1  0.483720  0.180060  0.793360  1.0  0.176
  C  C1088  1  0.476110  0.177510  0.706090  1.0  0.4007
  C  C1089  1  0.482490  0.202650  0.646710  1.0  0.4097
  C  C1090  1  0.468460  0.151300  0.680240  1.0  0.2764
  C  C1091  1  0.491820  0.230560  0.611420  1.0  -0.1809
  C  C1092  1  0.498480  0.259580  0.607520  1.0  -0.0206
  C  C1093  1  0.507630  0.284170  0.573510  1.0  -0.132
  C  C1094  1  0.510090  0.279270  0.543950  1.0  0.1704
  C  C1095  1  0.495120  0.227920  0.580360  1.0  0.2082
  C  C1096  1  0.445880  0.203740  0.552840  1.0  0.2988
  C  C1097  1  0.427000  0.296180  0.538480  1.0  0.1683
  C  C1098  1  0.398730  0.326310  0.544230  1.0  -0.1641
  C  C1099  1  0.396880  0.359480  0.515740  1.0  -0.0418
  C  C1100  1  0.424340  0.359700  0.482400  1.0  -0.1578
  C  C1101  1  0.452380  0.327880  0.478800  1.0  0.1886
  C  C1102  1  0.423190  0.393490  0.450830  1.0  0.3826
  C  C1103  1  0.686300  0.293440  0.459680  1.0  0.1775
  C  C1104  1  0.660440  0.298060  0.448900  1.0  -0.1721
  C  C1105  1  0.657520  0.267740  0.450700  1.0  -0.0733
  C  C1106  1  0.682260  0.234100  0.462780  1.0  -0.1235
  C  C1107  1  0.707730  0.232210  0.472870  1.0  0.1878
  C  C1108  1  0.835980  0.961660  0.473580  1.0  0.2587
  C  C1109  1  0.734660  0.074760  0.484600  1.0  0.2038
  C  C1110  1  0.737850  0.106850  0.477350  1.0  -0.1597
  C  C1111  1  0.770930  0.106150  0.473610  1.0  -0.0287
  C  C1112  1  0.799010  0.073710  0.476430  1.0  -0.121
  C  C1113  1  0.793360  0.042860  0.483720  1.0  0.1781
  C  C1114  1  0.706090  0.140290  0.476110  1.0  0.4009
  C  C1115  1  0.646710  0.168150  0.482490  1.0  0.4101
  C  C1116  1  0.680240  0.200000  0.468460  1.0  0.2761
  C  C1117  1  0.611420  0.166200  0.491820  1.0  -0.1846
  C  C1118  1  0.607520  0.134420  0.498480  1.0  -0.0206
  C  C1119  1  0.573510  0.134690  0.507630  1.0  -0.131
  C  C1120  1  0.543950  0.166690  0.510090  1.0  0.1668
  C  C1121  1  0.580360  0.196600  0.495120  1.0  0.2054
  C  C1122  1  0.552840  0.297540  0.445880  1.0  0.296
  C  C1123  1  0.538480  0.238340  0.427000  1.0  0.1716
  C  C1124  1  0.544230  0.230730  0.398730  1.0  -0.1615
  C  C1125  1  0.515740  0.227900  0.396880  1.0  -0.0451
  C  C1126  1  0.482400  0.233560  0.424340  1.0  -0.1543
  C  C1127  1  0.478800  0.240940  0.452380  1.0  0.1893
  C  C1128  1  0.450830  0.232490  0.423190  1.0  0.382
  C  C1129  1  0.439420  0.206560  0.040320  1.0  0.1772
  C  C1130  1  0.407400  0.201940  0.051100  1.0  -0.1721
  C  C1131  1  0.375960  0.232260  0.049300  1.0  -0.0723
  C  C1132  1  0.379140  0.265900  0.037220  1.0  -0.123
  C  C1133  1  0.412810  0.267790  0.027130  1.0  0.1888
  C  C1134  1  0.271220  0.538340  0.026420  1.0  0.2441
  C  C1135  1  0.294020  0.425240  0.015400  1.0  0.2053
  C  C1136  1  0.322050  0.393150  0.022650  1.0  -0.1603
  C  C1137  1  0.350690  0.393850  0.026390  1.0  -0.0282
  C  C1138  1  0.349150  0.426290  0.023570  1.0  -0.1225
  C  C1139  1  0.319940  0.457140  0.016280  1.0  0.1763
  C  C1140  1  0.322490  0.359710  0.023890  1.0  0.4013
  C  C1141  1  0.297350  0.331850  0.017510  1.0  0.4094
  C  C1142  1  0.348700  0.300000  0.031540  1.0  0.2764
  C  C1143  1  0.269440  0.333800  0.008180  1.0  -0.1856
  C  C1144  1  0.240420  0.365580  0.001520  1.0  -0.0205
  C  C1145  1  0.215830  0.365310  0.992370  1.0  -0.1319
  C  C1146  1  0.220730  0.333333  0.989910  1.0  0.1668
  C  C1147  1  0.272080  0.303400  0.004880  1.0  0.2045
  C  C1148  1  0.296260  0.202460  0.054120  1.0  0.2917
  C  C1149  1  0.203820  0.261660  0.073000  1.0  0.1672
  C  C1150  1  0.173690  0.269270  0.101270  1.0  -0.1602
  C  C1151  1  0.140520  0.272100  0.103120  1.0  -0.0466
  C  C1152  1  0.140300  0.266440  0.075660  1.0  -0.1582
  C  C1153  1  0.172120  0.259060  0.047620  1.0  0.1894
  C  C1154  1  0.106510  0.267510  0.076810  1.0  0.3822
  C  C1155  1  0.206560  0.439420  0.813700  1.0  0.1805
  C  C1156  1  0.201940  0.407400  0.839560  1.0  -0.1702
  C  C1157  1  0.232260  0.375960  0.842480  1.0  -0.0703
  C  C1158  1  0.265900  0.379140  0.817740  1.0  -0.1243
  C  C1159  1  0.267790  0.412810  0.792270  1.0  0.19
  C  C1160  1  0.538340  0.271220  0.664020  1.0  0.267
  C  C1161  1  0.425240  0.294020  0.765340  1.0  0.2036
  C  C1162  1  0.393150  0.322050  0.762150  1.0  -0.1591
  C  C1163  1  0.393850  0.350690  0.729070  1.0  -0.031
  C  C1164  1  0.426290  0.349150  0.700990  1.0  -0.128
  C  C1165  1  0.457140  0.319940  0.706640  1.0  0.1762
  C  C1166  1  0.359710  0.322490  0.793910  1.0  0.4006
  C  C1167  1  0.331850  0.297350  0.853290  1.0  0.4099
  C  C1168  1  0.300000  0.348700  0.819760  1.0  0.2768
  C  C1169  1  0.333800  0.269440  0.888580  1.0  -0.1844
  C  C1170  1  0.365580  0.240420  0.892480  1.0  -0.0202
  C  C1171  1  0.365310  0.215830  0.926490  1.0  -0.1329
  C  C1172  1  0.333333  0.220730  0.956050  1.0  0.1712
  C  C1173  1  0.303400  0.272080  0.919640  1.0  0.2045
  C  C1174  1  0.202460  0.296260  0.947160  1.0  0.2931
  C  C1175  1  0.261660  0.203820  0.961520  1.0  0.1668
  C  C1176  1  0.269270  0.173690  0.955770  1.0  -0.1583
  C  C1177  1  0.272100  0.140520  0.984260  1.0  -0.0452
  C  C1178  1  0.266440  0.140300  0.017600  1.0  -0.1574
  C  C1179  1  0.259060  0.172120  0.021200  1.0  0.1886
  C  C1180  1  0.267510  0.106510  0.049170  1.0  0.3825
  C  C1181  1  0.813700  0.040320  0.206560  1.0  0.1825
  C  C1182  1  0.839560  0.051100  0.201940  1.0  -0.1703
  C  C1183  1  0.842480  0.049300  0.232260  1.0  -0.0695
  C  C1184  1  0.817740  0.037220  0.265900  1.0  -0.1235
  C  C1185  1  0.792270  0.027130  0.267790  1.0  0.189
  C  C1186  1  0.664020  0.026420  0.538340  1.0  0.2566
  C  C1187  1  0.765340  0.015400  0.425240  1.0  0.2054
  C  C1188  1  0.762150  0.022650  0.393150  1.0  -0.1574
  C  C1189  1  0.729070  0.026390  0.393850  1.0  -0.0295
  C  C1190  1  0.700990  0.023570  0.426290  1.0  -0.1228
  C  C1191  1  0.706640  0.016280  0.457140  1.0  0.1823
  C  C1192  1  0.793910  0.023890  0.359710  1.0  0.401
  C  C1193  1  0.853290  0.017510  0.331850  1.0  0.4098
  C  C1194  1  0.819760  0.031540  0.300000  1.0  0.2763
  C  C1195  1  0.888580  0.008180  0.333800  1.0  -0.1836
  C  C1196  1  0.892480  0.001520  0.365580  1.0  -0.0213
  C  C1197  1  0.926490  0.992370  0.365310  1.0  -0.1285
  C  C1198  1  0.956050  0.989910  0.333333  1.0  0.1666
  C  C1199  1  0.919640  0.004880  0.303400  1.0  0.2073
  C  C1200  1  0.947160  0.054120  0.202460  1.0  0.2903
  C  C1201  1  0.961520  0.073000  0.261660  1.0  0.1705
  C  C1202  1  0.955770  0.101270  0.269270  1.0  -0.1626
  C  C1203  1  0.984260  0.103120  0.272100  1.0  -0.0434
  C  C1204  1  0.017600  0.075660  0.266440  1.0  -0.1584
  C  C1205  1  0.021200  0.047620  0.259060  1.0  0.188
  C  C1206  1  0.049170  0.076810  0.267510  1.0  0.3818
  C  C1207  1  0.040320  0.813700  0.439420  1.0  0.1764
  C  C1208  1  0.051100  0.839560  0.407400  1.0  -0.1708
  C  C1209  1  0.049300  0.842480  0.375960  1.0  -0.0702
  C  C1210  1  0.037220  0.817740  0.379140  1.0  -0.1229
  C  C1211  1  0.027130  0.792270  0.412810  1.0  0.1886
  C  C1212  1  0.026420  0.664020  0.271220  1.0  0.2497
  C  C1213  1  0.015400  0.765340  0.294020  1.0  0.2052
  C  C1214  1  0.022650  0.762150  0.322050  1.0  -0.1595
  C  C1215  1  0.026390  0.729070  0.350690  1.0  -0.029
  C  C1216  1  0.023570  0.700990  0.349150  1.0  -0.1281
  C  C1217  1  0.016280  0.706640  0.319940  1.0  0.1781
  C  C1218  1  0.023890  0.793910  0.322490  1.0  0.4011
  C  C1219  1  0.017510  0.853290  0.297350  1.0  0.4099
  C  C1220  1  0.031540  0.819760  0.348700  1.0  0.2759
  C  C1221  1  0.008180  0.888580  0.269440  1.0  -0.1841
  C  C1222  1  0.001520  0.892480  0.240420  1.0  -0.0235
  C  C1223  1  0.992370  0.926490  0.215830  1.0  -0.1284
  C  C1224  1  0.989910  0.956050  0.220730  1.0  0.165
  C  C1225  1  0.004880  0.919640  0.272080  1.0  0.2073
  C  C1226  1  0.054120  0.947160  0.296260  1.0  0.2922
  C  C1227  1  0.073000  0.961520  0.203820  1.0  0.1735
  C  C1228  1  0.101270  0.955770  0.173690  1.0  -0.1623
  C  C1229  1  0.103120  0.984260  0.140520  1.0  -0.043
  C  C1230  1  0.075660  0.017600  0.140300  1.0  -0.1583
  C  C1231  1  0.047620  0.021200  0.172120  1.0  0.1868
  C  C1232  1  0.076810  0.049170  0.106510  1.0  0.3821
  C  C1233  1  0.813700  0.439420  0.040320  1.0  0.1789
  C  C1234  1  0.839560  0.407400  0.051100  1.0  -0.1702
  C  C1235  1  0.842480  0.375960  0.049300  1.0  -0.0713
  C  C1236  1  0.817740  0.379140  0.037220  1.0  -0.1245
  C  C1237  1  0.792270  0.412810  0.027130  1.0  0.1893
  C  C1238  1  0.664020  0.271220  0.026420  1.0  0.2536
  C  C1239  1  0.765340  0.294020  0.015400  1.0  0.2037
  C  C1240  1  0.762150  0.322050  0.022650  1.0  -0.1578
  C  C1241  1  0.729070  0.350690  0.026390  1.0  -0.0311
  C  C1242  1  0.700990  0.349150  0.023570  1.0  -0.1273
  C  C1243  1  0.706640  0.319940  0.016280  1.0  0.177
  C  C1244  1  0.793910  0.322490  0.023890  1.0  0.4005
  C  C1245  1  0.853290  0.297350  0.017510  1.0  0.41
  C  C1246  1  0.819760  0.348700  0.031540  1.0  0.2768
  C  C1247  1  0.888580  0.269440  0.008180  1.0  -0.1837
  C  C1248  1  0.892480  0.240420  0.001520  1.0  -0.0194
  C  C1249  1  0.926490  0.215830  0.992370  1.0  -0.1348
  C  C1250  1  0.956050  0.220730  0.989910  1.0  0.1656
  C  C1251  1  0.919640  0.272080  0.004880  1.0  0.204
  C  C1252  1  0.947160  0.296260  0.054120  1.0  0.2927
  C  C1253  1  0.961520  0.203820  0.073000  1.0  0.1685
  C  C1254  1  0.955770  0.173690  0.101270  1.0  -0.1617
  C  C1255  1  0.984260  0.140520  0.103120  1.0  -0.0442
  C  C1256  1  0.017600  0.140300  0.075660  1.0  -0.1577
  C  C1257  1  0.021200  0.172120  0.047620  1.0  0.1872
  C  C1258  1  0.049170  0.106510  0.076810  1.0  0.3824
  C  C1259  1  0.040320  0.206560  0.813700  1.0  0.1775
  C  C1260  1  0.051100  0.201940  0.839560  1.0  -0.1717
  C  C1261  1  0.049300  0.232260  0.842480  1.0  -0.0724
  C  C1262  1  0.037220  0.265900  0.817740  1.0  -0.1224
  C  C1263  1  0.027130  0.267790  0.792270  1.0  0.1939
  C  C1264  1  0.026420  0.538340  0.664020  1.0  0.2513
  C  C1265  1  0.015400  0.425240  0.765340  1.0  0.2053
  C  C1266  1  0.022650  0.393150  0.762150  1.0  -0.1588
  C  C1267  1  0.026390  0.393850  0.729070  1.0  -0.0319
  C  C1268  1  0.023570  0.426290  0.700990  1.0  -0.1213
  C  C1269  1  0.016280  0.457140  0.706640  1.0  0.1769
  C  C1270  1  0.023890  0.359710  0.793910  1.0  0.4012
  C  C1271  1  0.017510  0.331850  0.853290  1.0  0.4099
  C  C1272  1  0.031540  0.300000  0.819760  1.0  0.2756
  C  C1273  1  0.008180  0.333800  0.888580  1.0  -0.1828
  C  C1274  1  0.001520  0.365580  0.892480  1.0  -0.0193
  C  C1275  1  0.992370  0.365310  0.926490  1.0  -0.1317
  C  C1276  1  0.989910  0.333333  0.956050  1.0  0.1658
  C  C1277  1  0.004880  0.303400  0.919640  1.0  0.2073
  C  C1278  1  0.054120  0.202460  0.947160  1.0  0.2911
  C  C1279  1  0.073000  0.261660  0.961520  1.0  0.169
  C  C1280  1  0.101270  0.269270  0.955770  1.0  -0.1611
  C  C1281  1  0.103120  0.272100  0.984260  1.0  -0.0418
  C  C1282  1  0.075660  0.266440  0.017600  1.0  -0.1585
  C  C1283  1  0.047620  0.259060  0.021200  1.0  0.1885
  C  C1284  1  0.076810  0.267510  0.049170  1.0  0.3815
  C  C1285  1  0.439420  0.813700  0.206560  1.0  0.177
  C  C1286  1  0.407400  0.839560  0.201940  1.0  -0.1712
  C  C1287  1  0.375960  0.842480  0.232260  1.0  -0.0737
  C  C1288  1  0.379140  0.817740  0.265900  1.0  -0.1229
  C  C1289  1  0.412810  0.792270  0.267790  1.0  0.1887
  C  C1290  1  0.271220  0.664020  0.538340  1.0  0.2689
  C  C1291  1  0.294020  0.765340  0.425240  1.0  0.2029
  C  C1292  1  0.322050  0.762150  0.393150  1.0  -0.1589
  C  C1293  1  0.350690  0.729070  0.393850  1.0  -0.0298
  C  C1294  1  0.349150  0.700990  0.426290  1.0  -0.1252
  C  C1295  1  0.319940  0.706640  0.457140  1.0  0.1761
  C  C1296  1  0.322490  0.793910  0.359710  1.0  0.4005
  C  C1297  1  0.297350  0.853290  0.331850  1.0  0.4099
  C  C1298  1  0.348700  0.819760  0.300000  1.0  0.2763
  C  C1299  1  0.269440  0.888580  0.333800  1.0  -0.1829
  C  C1300  1  0.240420  0.892480  0.365580  1.0  -0.0205
  C  C1301  1  0.215830  0.926490  0.365310  1.0  -0.1331
  C  C1302  1  0.220730  0.956050  0.333333  1.0  0.1641
  C  C1303  1  0.272080  0.919640  0.303400  1.0  0.2069
  C  C1304  1  0.296260  0.947160  0.202460  1.0  0.2916
  C  C1305  1  0.203820  0.961520  0.261660  1.0  0.1663
  C  C1306  1  0.173690  0.955770  0.269270  1.0  -0.1638
  C  C1307  1  0.140520  0.984260  0.272100  1.0  -0.0443
  C  C1308  1  0.140300  0.017600  0.266440  1.0  -0.1578
  C  C1309  1  0.172120  0.021200  0.259060  1.0  0.1865
  C  C1310  1  0.106510  0.049170  0.267510  1.0  0.3823
  C  C1311  1  0.206560  0.040320  0.439420  1.0  0.183
  C  C1312  1  0.201940  0.051100  0.407400  1.0  -0.173
  C  C1313  1  0.232260  0.049300  0.375960  1.0  -0.073
  C  C1314  1  0.265900  0.037220  0.379140  1.0  -0.1209
  C  C1315  1  0.267790  0.027130  0.412810  1.0  0.1896
  C  C1316  1  0.538340  0.026420  0.271220  1.0  0.2437
  C  C1317  1  0.425240  0.015400  0.294020  1.0  0.2042
  C  C1318  1  0.393150  0.022650  0.322050  1.0  -0.1602
  C  C1319  1  0.393850  0.026390  0.350690  1.0  -0.028
  C  C1320  1  0.426290  0.023570  0.349150  1.0  -0.122
  C  C1321  1  0.457140  0.016280  0.319940  1.0  0.175
  C  C1322  1  0.359710  0.023890  0.322490  1.0  0.4008
  C  C1323  1  0.331850  0.017510  0.297350  1.0  0.4102
  C  C1324  1  0.300000  0.031540  0.348700  1.0  0.2765
  C  C1325  1  0.333800  0.008180  0.269440  1.0  -0.1881
  C  C1326  1  0.365580  0.001520  0.240420  1.0  -0.0181
  C  C1327  1  0.365310  0.992370  0.215830  1.0  -0.13
  C  C1328  1  0.333333  0.989910  0.220730  1.0  0.17
  C  C1329  1  0.303400  0.004880  0.272080  1.0  0.2054
  C  C1330  1  0.202460  0.054120  0.296260  1.0  0.292
  C  C1331  1  0.261660  0.073000  0.203820  1.0  0.1674
  C  C1332  1  0.269270  0.101270  0.173690  1.0  -0.1628
  C  C1333  1  0.272100  0.103120  0.140520  1.0  -0.0437
  C  C1334  1  0.266440  0.075660  0.140300  1.0  -0.1559
  C  C1335  1  0.259060  0.047620  0.172120  1.0  0.189
  C  C1336  1  0.267510  0.076810  0.106510  1.0  0.3823
  C  C1337  1  0.206560  0.813700  0.040320  1.0  0.178
  C  C1338  1  0.201940  0.839560  0.051100  1.0  -0.1742
  C  C1339  1  0.232260  0.842480  0.049300  1.0  -0.0713
  C  C1340  1  0.265900  0.817740  0.037220  1.0  -0.1205
  C  C1341  1  0.267790  0.792270  0.027130  1.0  0.1895
  C  C1342  1  0.538340  0.664020  0.026420  1.0  0.2546
  C  C1343  1  0.425240  0.765340  0.015400  1.0  0.2035
  C  C1344  1  0.393150  0.762150  0.022650  1.0  -0.1602
  C  C1345  1  0.393850  0.729070  0.026390  1.0  -0.0287
  C  C1346  1  0.426290  0.700990  0.023570  1.0  -0.1272
  C  C1347  1  0.457140  0.706640  0.016280  1.0  0.1758
  C  C1348  1  0.359710  0.793910  0.023890  1.0  0.4012
  C  C1349  1  0.331850  0.853290  0.017510  1.0  0.4103
  C  C1350  1  0.300000  0.819760  0.031540  1.0  0.2763
  C  C1351  1  0.333800  0.888580  0.008180  1.0  -0.1842
  C  C1352  1  0.365580  0.892480  0.001520  1.0  -0.0196
  C  C1353  1  0.365310  0.926490  0.992370  1.0  -0.129
  C  C1354  1  0.333333  0.956050  0.989910  1.0  0.1664
  C  C1355  1  0.303400  0.919640  0.004880  1.0  0.2061
  C  C1356  1  0.202460  0.947160  0.054120  1.0  0.2985
  C  C1357  1  0.261660  0.961520  0.073000  1.0  0.1693
  C  C1358  1  0.269270  0.955770  0.101270  1.0  -0.1657
  C  C1359  1  0.272100  0.984260  0.103120  1.0  -0.0428
  C  C1360  1  0.266440  0.017600  0.075660  1.0  -0.1548
  C  C1361  1  0.259060  0.021200  0.047620  1.0  0.1902
  C  C1362  1  0.267510  0.049170  0.076810  1.0  0.3816
  C  C1363  1  0.439420  0.040320  0.813700  1.0  0.1781
  C  C1364  1  0.407400  0.051100  0.839560  1.0  -0.1703
  C  C1365  1  0.375960  0.049300  0.842480  1.0  -0.072
  C  C1366  1  0.379140  0.037220  0.817740  1.0  -0.1234
  C  C1367  1  0.412810  0.027130  0.792270  1.0  0.1903
  C  C1368  1  0.271220  0.026420  0.664020  1.0  0.2468
  C  C1369  1  0.294020  0.015400  0.765340  1.0  0.2038
  C  C1370  1  0.322050  0.022650  0.762150  1.0  -0.1598
  C  C1371  1  0.350690  0.026390  0.729070  1.0  -0.0274
  C  C1372  1  0.349150  0.023570  0.700990  1.0  -0.1222
  C  C1373  1  0.319940  0.016280  0.706640  1.0  0.1811
  C  C1374  1  0.322490  0.023890  0.793910  1.0  0.4006
  C  C1375  1  0.297350  0.017510  0.853290  1.0  0.4092
  C  C1376  1  0.348700  0.031540  0.819760  1.0  0.2764
  C  C1377  1  0.269440  0.008180  0.888580  1.0  -0.1819
  C  C1378  1  0.240420  0.001520  0.892480  1.0  -0.0221
  C  C1379  1  0.215830  0.992370  0.926490  1.0  -0.13
  C  C1380  1  0.220730  0.989910  0.956050  1.0  0.1743
  C  C1381  1  0.272080  0.004880  0.919640  1.0  0.2056
  C  C1382  1  0.296260  0.054120  0.947160  1.0  0.2961
  C  C1383  1  0.203820  0.073000  0.961520  1.0  0.1688
  C  C1384  1  0.173690  0.101270  0.955770  1.0  -0.1639
  C  C1385  1  0.140520  0.103120  0.984260  1.0  -0.044
  C  C1386  1  0.140300  0.075660  0.017600  1.0  -0.1587
  C  C1387  1  0.172120  0.047620  0.021200  1.0  0.1867
  C  C1388  1  0.106510  0.076810  0.049170  1.0  0.3821
  C  C1389  1  0.040320  0.439420  0.206560  1.0  0.1775
  C  C1390  1  0.051100  0.407400  0.201940  1.0  -0.167
  C  C1391  1  0.049300  0.375960  0.232260  1.0  -0.0719
  C  C1392  1  0.037220  0.379140  0.265900  1.0  -0.124
  C  C1393  1  0.027130  0.412810  0.267790  1.0  0.1887
  C  C1394  1  0.026420  0.271220  0.538340  1.0  0.2473
  C  C1395  1  0.015400  0.294020  0.425240  1.0  0.2027
  C  C1396  1  0.022650  0.322050  0.393150  1.0  -0.1593
  C  C1397  1  0.026390  0.350690  0.393850  1.0  -0.0297
  C  C1398  1  0.023570  0.349150  0.426290  1.0  -0.1267
  C  C1399  1  0.016280  0.319940  0.457140  1.0  0.1757
  C  C1400  1  0.023890  0.322490  0.359710  1.0  0.4009
  C  C1401  1  0.017510  0.297350  0.331850  1.0  0.4094
  C  C1402  1  0.031540  0.348700  0.300000  1.0  0.2766
  C  C1403  1  0.008180  0.269440  0.333800  1.0  -0.1816
  C  C1404  1  0.001520  0.240420  0.365580  1.0  -0.0197
  C  C1405  1  0.992370  0.215830  0.365310  1.0  -0.135
  C  C1406  1  0.989910  0.220730  0.333333  1.0  0.1696
  C  C1407  1  0.004880  0.272080  0.303400  1.0  0.207
  C  C1408  1  0.054120  0.296260  0.202460  1.0  0.2982
  C  C1409  1  0.073000  0.203820  0.261660  1.0  0.1689
  C  C1410  1  0.101270  0.173690  0.269270  1.0  -0.1625
  C  C1411  1  0.103120  0.140520  0.272100  1.0  -0.0425
  C  C1412  1  0.075660  0.140300  0.266440  1.0  -0.1585
  C  C1413  1  0.047620  0.172120  0.259060  1.0  0.1889
  C  C1414  1  0.076810  0.106510  0.267510  1.0  0.3827
  C  C1415  1  0.813700  0.206560  0.439420  1.0  0.1769
  C  C1416  1  0.839560  0.201940  0.407400  1.0  -0.171
  C  C1417  1  0.842480  0.232260  0.375960  1.0  -0.0734
  C  C1418  1  0.817740  0.265900  0.379140  1.0  -0.1228
  C  C1419  1  0.792270  0.267790  0.412810  1.0  0.1895
  C  C1420  1  0.664020  0.538340  0.271220  1.0  0.2684
  C  C1421  1  0.765340  0.425240  0.294020  1.0  0.2047
  C  C1422  1  0.762150  0.393150  0.322050  1.0  -0.1608
  C  C1423  1  0.729070  0.393850  0.350690  1.0  -0.029
  C  C1424  1  0.700990  0.426290  0.349150  1.0  -0.1226
  C  C1425  1  0.706640  0.457140  0.319940  1.0  0.1785
  C  C1426  1  0.793910  0.359710  0.322490  1.0  0.4009
  C  C1427  1  0.853290  0.331850  0.297350  1.0  0.4099
  C  C1428  1  0.819760  0.300000  0.348700  1.0  0.2759
  C  C1429  1  0.888580  0.333800  0.269440  1.0  -0.184
  C  C1430  1  0.892480  0.365580  0.240420  1.0  -0.0215
  C  C1431  1  0.926490  0.365310  0.215830  1.0  -0.1307
  C  C1432  1  0.956050  0.333333  0.220730  1.0  0.1686
  C  C1433  1  0.919640  0.303400  0.272080  1.0  0.205
  C  C1434  1  0.947160  0.202460  0.296260  1.0  0.2975
  C  C1435  1  0.961520  0.261660  0.203820  1.0  0.1709
  C  C1436  1  0.955770  0.269270  0.173690  1.0  -0.163
  C  C1437  1  0.984260  0.272100  0.140520  1.0  -0.0446
  C  C1438  1  0.017600  0.266440  0.140300  1.0  -0.154
  C  C1439  1  0.021200  0.259060  0.172120  1.0  0.1878
  C  C1440  1  0.049170  0.267510  0.106510  1.0  0.3822
  C  C1441  1  0.939420  0.706560  0.313700  1.0  0.1775
  C  C1442  1  0.907400  0.701940  0.339560  1.0  -0.1721
  C  C1443  1  0.875960  0.732260  0.342480  1.0  -0.0725
  C  C1444  1  0.879140  0.765900  0.317740  1.0  -0.123
  C  C1445  1  0.912810  0.767790  0.292270  1.0  0.1894
  C  C1446  1  0.771220  0.038340  0.164020  1.0  0.2648
  C  C1447  1  0.794020  0.925240  0.265340  1.0  0.2053
  C  C1448  1  0.822050  0.893150  0.262150  1.0  -0.1601
  C  C1449  1  0.850690  0.893850  0.229070  1.0  -0.0293
  C  C1450  1  0.849150  0.926290  0.200990  1.0  -0.1228
  C  C1451  1  0.819940  0.957140  0.206640  1.0  0.1766
  C  C1452  1  0.822490  0.859710  0.293910  1.0  0.401
  C  C1453  1  0.797350  0.831850  0.353290  1.0  0.4093
  C  C1454  1  0.848700  0.800000  0.319760  1.0  0.2763
  C  C1455  1  0.769440  0.833800  0.388580  1.0  -0.1844
  C  C1456  1  0.740420  0.865580  0.392480  1.0  -0.0216
  C  C1457  1  0.715830  0.865310  0.426490  1.0  -0.1316
  C  C1458  1  0.720730  0.833310  0.456050  1.0  0.1671
  C  C1459  1  0.772080  0.803400  0.419640  1.0  0.2045
  C  C1460  1  0.796260  0.702460  0.447160  1.0  0.2907
  C  C1461  1  0.703820  0.761660  0.461520  1.0  0.1667
  C  C1462  1  0.673690  0.769270  0.455770  1.0  -0.1585
  C  C1463  1  0.640520  0.772100  0.484260  1.0  -0.047
  C  C1464  1  0.640300  0.766440  0.517600  1.0  -0.1581
  C  C1465  1  0.672120  0.759060  0.521200  1.0  0.1893
  C  C1466  1  0.606510  0.767510  0.549170  1.0  0.3821
  C  C1467  1  0.706560  0.939420  0.540320  1.0  0.18
  C  C1468  1  0.701940  0.907400  0.551100  1.0  -0.1706
  C  C1469  1  0.732260  0.875960  0.549300  1.0  -0.0705
  C  C1470  1  0.765900  0.879140  0.537220  1.0  -0.1243
  C  C1471  1  0.767790  0.912810  0.527130  1.0  0.19
  C  C1472  1  0.038340  0.771220  0.526420  1.0  0.2469
  C  C1473  1  0.925240  0.794020  0.515400  1.0  0.2036
  C  C1474  1  0.893150  0.822050  0.522650  1.0  -0.1595
  C  C1475  1  0.893850  0.850690  0.526390  1.0  -0.0305
  C  C1476  1  0.926290  0.849150  0.523570  1.0  -0.1269
  C  C1477  1  0.957140  0.819940  0.516280  1.0  0.175
  C  C1478  1  0.859710  0.822490  0.523890  1.0  0.4009
  C  C1479  1  0.831850  0.797350  0.517510  1.0  0.4098
  C  C1480  1  0.800000  0.848700  0.531540  1.0  0.2769
  C  C1481  1  0.833800  0.769440  0.508180  1.0  -0.1859
  C  C1482  1  0.865580  0.740420  0.501520  1.0  -0.0193
  C  C1483  1  0.865310  0.715830  0.492370  1.0  -0.1323
  C  C1484  1  0.833310  0.720730  0.489910  1.0  0.1708
  C  C1485  1  0.803400  0.772080  0.504880  1.0  0.2047
  C  C1486  1  0.702460  0.796260  0.554120  1.0  0.2927
  C  C1487  1  0.761660  0.703820  0.573000  1.0  0.1669
  C  C1488  1  0.769270  0.673690  0.601270  1.0  -0.1594
  C  C1489  1  0.772100  0.640520  0.603120  1.0  -0.0443
  C  C1490  1  0.766440  0.640300  0.575660  1.0  -0.1574
  C  C1491  1  0.759060  0.672120  0.547620  1.0  0.1889
  C  C1492  1  0.767510  0.606510  0.576810  1.0  0.3825
  C  C1493  1  0.313700  0.540320  0.939420  1.0  0.1818
  C  C1494  1  0.339560  0.551100  0.907400  1.0  -0.1702
  C  C1495  1  0.342480  0.549300  0.875960  1.0  -0.0691
  C  C1496  1  0.317740  0.537220  0.879140  1.0  -0.1222
  C  C1497  1  0.292270  0.527130  0.912810  1.0  0.1894
  C  C1498  1  0.164020  0.526420  0.771220  1.0  0.25
  C  C1499  1  0.265340  0.515400  0.794020  1.0  0.205
  C  C1500  1  0.262150  0.522650  0.822050  1.0  -0.1572
  C  C1501  1  0.229070  0.526390  0.850690  1.0  -0.0293
  C  C1502  1  0.200990  0.523570  0.849150  1.0  -0.1244
  C  C1503  1  0.206640  0.516280  0.819940  1.0  0.1809
  C  C1504  1  0.293910  0.523890  0.822490  1.0  0.4007
  C  C1505  1  0.353290  0.517510  0.797350  1.0  0.4096
  C  C1506  1  0.319760  0.531540  0.848700  1.0  0.2767
  C  C1507  1  0.388580  0.508180  0.769440  1.0  -0.1834
  C  C1508  1  0.392480  0.501520  0.740420  1.0  -0.0219
  C  C1509  1  0.426490  0.492370  0.715830  1.0  -0.1287
  C  C1510  1  0.456050  0.489910  0.720730  1.0  0.1662
  C  C1511  1  0.419640  0.504880  0.772080  1.0  0.2065
  C  C1512  1  0.447160  0.554120  0.796260  1.0  0.2914
  C  C1513  1  0.461520  0.573000  0.703820  1.0  0.1711
  C  C1514  1  0.455770  0.601270  0.673690  1.0  -0.1629
  C  C1515  1  0.484260  0.603120  0.640520  1.0  -0.0436
  C  C1516  1  0.517600  0.575660  0.640300  1.0  -0.1579
  C  C1517  1  0.521200  0.547620  0.672120  1.0  0.188
  C  C1518  1  0.549170  0.576810  0.606510  1.0  0.3819
  C  C1519  1  0.540320  0.313700  0.706560  1.0  0.1767
  C  C1520  1  0.551100  0.339560  0.701940  1.0  -0.1706
  C  C1521  1  0.549300  0.342480  0.732260  1.0  -0.0708
  C  C1522  1  0.537220  0.317740  0.765900  1.0  -0.1237
  C  C1523  1  0.527130  0.292270  0.767790  1.0  0.1883
  C  C1524  1  0.526420  0.164020  0.038340  1.0  0.2562
  C  C1525  1  0.515400  0.265340  0.925240  1.0  0.2055
  C  C1526  1  0.522650  0.262150  0.893150  1.0  -0.1591
  C  C1527  1  0.526390  0.229070  0.893850  1.0  -0.0303
  C  C1528  1  0.523570  0.200990  0.926290  1.0  -0.127
  C  C1529  1  0.516280  0.206640  0.957140  1.0  0.1791
  C  C1530  1  0.523890  0.293910  0.859710  1.0  0.4014
  C  C1531  1  0.517510  0.353290  0.831850  1.0  0.41
  C  C1532  1  0.531540  0.319760  0.800000  1.0  0.2755
  C  C1533  1  0.508180  0.388580  0.833800  1.0  -0.1843
  C  C1534  1  0.501520  0.392480  0.865580  1.0  -0.0224
  C  C1535  1  0.492370  0.426490  0.865310  1.0  -0.129
  C  C1536  1  0.489910  0.456050  0.833310  1.0  0.1634
  C  C1537  1  0.504880  0.419640  0.803400  1.0  0.2081
  C  C1538  1  0.554120  0.447160  0.702460  1.0  0.2907
  C  C1539  1  0.573000  0.461520  0.761660  1.0  0.1723
  C  C1540  1  0.601270  0.455770  0.769270  1.0  -0.1627
  C  C1541  1  0.603120  0.484260  0.772100  1.0  -0.0433
  C  C1542  1  0.575660  0.517600  0.766440  1.0  -0.1589
  C  C1543  1  0.547620  0.521200  0.759060  1.0  0.1869
  C  C1544  1  0.576810  0.549170  0.767510  1.0  0.3819
  C  C1545  1  0.313700  0.939420  0.706560  1.0  0.1781
  C  C1546  1  0.339560  0.907400  0.701940  1.0  -0.1693
  C  C1547  1  0.342480  0.875960  0.732260  1.0  -0.0733
  C  C1548  1  0.317740  0.879140  0.765900  1.0  -0.1246
  C  C1549  1  0.292270  0.912810  0.767790  1.0  0.1891
  C  C1550  1  0.164020  0.771220  0.038340  1.0  0.2726
  C  C1551  1  0.265340  0.794020  0.925240  1.0  0.2046
  C  C1552  1  0.262150  0.822050  0.893150  1.0  -0.1578
  C  C1553  1  0.229070  0.850690  0.893850  1.0  -0.031
  C  C1554  1  0.200990  0.849150  0.926290  1.0  -0.1274
  C  C1555  1  0.206640  0.819940  0.957140  1.0  0.1775
  C  C1556  1  0.293910  0.822490  0.859710  1.0  0.4005
  C  C1557  1  0.353290  0.797350  0.831850  1.0  0.41
  C  C1558  1  0.319760  0.848700  0.800000  1.0  0.2764
  C  C1559  1  0.388580  0.769440  0.833800  1.0  -0.1839
  C  C1560  1  0.392480  0.740420  0.865580  1.0  -0.0192
  C  C1561  1  0.426490  0.715830  0.865310  1.0  -0.1351
  C  C1562  1  0.456050  0.720730  0.833310  1.0  0.1647
  C  C1563  1  0.419640  0.772080  0.803400  1.0  0.2044
  C  C1564  1  0.447160  0.796260  0.702460  1.0  0.2925
  C  C1565  1  0.461520  0.703820  0.761660  1.0  0.1687
  C  C1566  1  0.455770  0.673690  0.769270  1.0  -0.1609
  C  C1567  1  0.484260  0.640520  0.772100  1.0  -0.0438
  C  C1568  1  0.517600  0.640300  0.766440  1.0  -0.1577
  C  C1569  1  0.521200  0.672120  0.759060  1.0  0.1879
  C  C1570  1  0.549170  0.606510  0.767510  1.0  0.3824
  C  C1571  1  0.540320  0.706560  0.939420  1.0  0.1793
  C  C1572  1  0.551100  0.701940  0.907400  1.0  -0.1717
  C  C1573  1  0.549300  0.732260  0.875960  1.0  -0.0746
  C  C1574  1  0.537220  0.765900  0.879140  1.0  -0.1225
  C  C1575  1  0.527130  0.767790  0.912810  1.0  0.1926
  C  C1576  1  0.526420  0.038340  0.771220  1.0  0.2433
  C  C1577  1  0.515400  0.925240  0.794020  1.0  0.206
  C  C1578  1  0.522650  0.893150  0.822050  1.0  -0.159
  C  C1579  1  0.526390  0.893850  0.850690  1.0  -0.0305
  C  C1580  1  0.523570  0.926290  0.849150  1.0  -0.1217
  C  C1581  1  0.516280  0.957140  0.819940  1.0  0.1757
  C  C1582  1  0.523890  0.859710  0.822490  1.0  0.4011
  C  C1583  1  0.517510  0.831850  0.797350  1.0  0.4094
  C  C1584  1  0.531540  0.800000  0.848700  1.0  0.2755
  C  C1585  1  0.508180  0.833800  0.769440  1.0  -0.1858
  C  C1586  1  0.501520  0.865580  0.740420  1.0  -0.0196
  C  C1587  1  0.492370  0.865310  0.715830  1.0  -0.1308
  C  C1588  1  0.489910  0.833310  0.720730  1.0  0.167
  C  C1589  1  0.504880  0.803400  0.772080  1.0  0.2064
  C  C1590  1  0.554120  0.702460  0.796260  1.0  0.2917
  C  C1591  1  0.573000  0.761660  0.703820  1.0  0.1696
  C  C1592  1  0.601270  0.769270  0.673690  1.0  -0.1615
  C  C1593  1  0.603120  0.772100  0.640520  1.0  -0.0427
  C  C1594  1  0.575660  0.766440  0.640300  1.0  -0.1568
  C  C1595  1  0.547620  0.759060  0.672120  1.0  0.1886
  C  C1596  1  0.576810  0.767510  0.606510  1.0  0.3821
  C  C1597  1  0.939420  0.313700  0.540320  1.0  0.1773
  C  C1598  1  0.907400  0.339560  0.551100  1.0  -0.1716
  C  C1599  1  0.875960  0.342480  0.549300  1.0  -0.0727
  C  C1600  1  0.879140  0.317740  0.537220  1.0  -0.123
  C  C1601  1  0.912810  0.292270  0.527130  1.0  0.1885
  C  C1602  1  0.771220  0.164020  0.526420  1.0  0.2503
  C  C1603  1  0.794020  0.265340  0.515400  1.0  0.202
  C  C1604  1  0.822050  0.262150  0.522650  1.0  -0.1592
  C  C1605  1  0.850690  0.229070  0.526390  1.0  -0.0295
  C  C1606  1  0.849150  0.200990  0.523570  1.0  -0.1255
  C  C1607  1  0.819940  0.206640  0.516280  1.0  0.1754
  C  C1608  1  0.822490  0.293910  0.523890  1.0  0.4006
  C  C1609  1  0.797350  0.353290  0.517510  1.0  0.4098
  C  C1610  1  0.848700  0.319760  0.531540  1.0  0.2767
  C  C1611  1  0.769440  0.388580  0.508180  1.0  -0.1829
  C  C1612  1  0.740420  0.392480  0.501520  1.0  -0.0208
  C  C1613  1  0.715830  0.426490  0.492370  1.0  -0.133
  C  C1614  1  0.720730  0.456050  0.489910  1.0  0.1653
  C  C1615  1  0.772080  0.419640  0.504880  1.0  0.2073
  C  C1616  1  0.796260  0.447160  0.554120  1.0  0.2923
  C  C1617  1  0.703820  0.461520  0.573000  1.0  0.1664
  C  C1618  1  0.673690  0.455770  0.601270  1.0  -0.1643
  C  C1619  1  0.640520  0.484260  0.603120  1.0  -0.0455
  C  C1620  1  0.640300  0.517600  0.575660  1.0  -0.158
  C  C1621  1  0.672120  0.521200  0.547620  1.0  0.1865
  C  C1622  1  0.606510  0.549170  0.576810  1.0  0.3823
  C  C1623  1  0.706560  0.540320  0.313700  1.0  0.1815
  C  C1624  1  0.701940  0.551100  0.339560  1.0  -0.174
  C  C1625  1  0.732260  0.549300  0.342480  1.0  -0.0714
  C  C1626  1  0.765900  0.537220  0.317740  1.0  -0.1204
  C  C1627  1  0.767790  0.527130  0.292270  1.0  0.1903
  C  C1628  1  0.038340  0.526420  0.164020  1.0  0.2521
  C  C1629  1  0.925240  0.515400  0.265340  1.0  0.2039
  C  C1630  1  0.893150  0.522650  0.262150  1.0  -0.1598
  C  C1631  1  0.893850  0.526390  0.229070  1.0  -0.0292
  C  C1632  1  0.926290  0.523570  0.200990  1.0  -0.1215
  C  C1633  1  0.957140  0.516280  0.206640  1.0  0.177
  C  C1634  1  0.859710  0.523890  0.293910  1.0  0.4008
  C  C1635  1  0.831850  0.517510  0.353290  1.0  0.4106
  C  C1636  1  0.800000  0.531540  0.319760  1.0  0.2765
  C  C1637  1  0.833800  0.508180  0.388580  1.0  -0.1849
  C  C1638  1  0.865580  0.501520  0.392480  1.0  -0.0179
  C  C1639  1  0.865310  0.492370  0.426490  1.0  -0.1296
  C  C1640  1  0.833310  0.489910  0.456050  1.0  0.1686
  C  C1641  1  0.803400  0.504880  0.419640  1.0  0.2065
  C  C1642  1  0.702460  0.554120  0.447160  1.0  0.292
  C  C1643  1  0.761660  0.573000  0.461520  1.0  0.1672
  C  C1644  1  0.769270  0.601270  0.455770  1.0  -0.1629
  C  C1645  1  0.772100  0.603120  0.484260  1.0  -0.0434
  C  C1646  1  0.766440  0.575660  0.517600  1.0  -0.1573
  C  C1647  1  0.759060  0.547620  0.521200  1.0  0.189
  C  C1648  1  0.767510  0.576810  0.549170  1.0  0.3817
  C  C1649  1  0.706560  0.313700  0.939420  1.0  0.178
  C  C1650  1  0.701940  0.339560  0.907400  1.0  -0.1726
  C  C1651  1  0.732260  0.342480  0.875960  1.0  -0.0734
  C  C1652  1  0.765900  0.317740  0.879140  1.0  -0.1214
  C  C1653  1  0.767790  0.292270  0.912810  1.0  0.1879
  C  C1654  1  0.038340  0.164020  0.771220  1.0  0.2675
  C  C1655  1  0.925240  0.265340  0.794020  1.0  0.2033
  C  C1656  1  0.893150  0.262150  0.822050  1.0  -0.1603
  C  C1657  1  0.893850  0.229070  0.850690  1.0  -0.0285
  C  C1658  1  0.926290  0.200990  0.849150  1.0  -0.1279
  C  C1659  1  0.957140  0.206640  0.819940  1.0  0.1758
  C  C1660  1  0.859710  0.293910  0.822490  1.0  0.4011
  C  C1661  1  0.831850  0.353290  0.797350  1.0  0.4103
  C  C1662  1  0.800000  0.319760  0.848700  1.0  0.2765
  C  C1663  1  0.833800  0.388580  0.769440  1.0  -0.1842
  C  C1664  1  0.865580  0.392480  0.740420  1.0  -0.02
  C  C1665  1  0.865310  0.426490  0.715830  1.0  -0.1281
  C  C1666  1  0.833310  0.456050  0.720730  1.0  0.1658
  C  C1667  1  0.803400  0.419640  0.772080  1.0  0.2055
  C  C1668  1  0.702460  0.447160  0.796260  1.0  0.2984
  C  C1669  1  0.761660  0.461520  0.703820  1.0  0.17
  C  C1670  1  0.769270  0.455770  0.673690  1.0  -0.1645
  C  C1671  1  0.772100  0.484260  0.640520  1.0  -0.0447
  C  C1672  1  0.766440  0.517600  0.640300  1.0  -0.1541
  C  C1673  1  0.759060  0.521200  0.672120  1.0  0.1895
  C  C1674  1  0.767510  0.549170  0.606510  1.0  0.382
  C  C1675  1  0.939420  0.540320  0.706560  1.0  0.1776
  C  C1676  1  0.907400  0.551100  0.701940  1.0  -0.1677
  C  C1677  1  0.875960  0.549300  0.732260  1.0  -0.0729
  C  C1678  1  0.879140  0.537220  0.765900  1.0  -0.1236
  C  C1679  1  0.912810  0.527130  0.767790  1.0  0.1898
  C  C1680  1  0.771220  0.526420  0.038340  1.0  0.2438
  C  C1681  1  0.794020  0.515400  0.925240  1.0  0.2041
  C  C1682  1  0.822050  0.522650  0.893150  1.0  -0.1583
  C  C1683  1  0.850690  0.526390  0.893850  1.0  -0.0269
  C  C1684  1  0.849150  0.523570  0.926290  1.0  -0.1229
  C  C1685  1  0.819940  0.516280  0.957140  1.0  0.181
  C  C1686  1  0.822490  0.523890  0.859710  1.0  0.401
  C  C1687  1  0.797350  0.517510  0.831850  1.0  0.4093
  C  C1688  1  0.848700  0.531540  0.800000  1.0  0.2764
  C  C1689  1  0.769440  0.508180  0.833800  1.0  -0.1812
  C  C1690  1  0.740420  0.501520  0.865580  1.0  -0.0208
  C  C1691  1  0.715830  0.492370  0.865310  1.0  -0.1313
  C  C1692  1  0.720730  0.489910  0.833310  1.0  0.1716
  C  C1693  1  0.772080  0.504880  0.803400  1.0  0.2053
  C  C1694  1  0.796260  0.554120  0.702460  1.0  0.2962
  C  C1695  1  0.703820  0.573000  0.761660  1.0  0.1692
  C  C1696  1  0.673690  0.601270  0.769270  1.0  -0.1627
  C  C1697  1  0.640520  0.603120  0.772100  1.0  -0.0434
  C  C1698  1  0.640300  0.575660  0.766440  1.0  -0.1585
  C  C1699  1  0.672120  0.547620  0.759060  1.0  0.1872
  C  C1700  1  0.606510  0.576810  0.767510  1.0  0.382
  C  C1701  1  0.540320  0.939420  0.313700  1.0  0.1785
  C  C1702  1  0.551100  0.907400  0.339560  1.0  -0.1685
  C  C1703  1  0.549300  0.875960  0.342480  1.0  -0.0706
  C  C1704  1  0.537220  0.879140  0.317740  1.0  -0.1239
  C  C1705  1  0.527130  0.912810  0.292270  1.0  0.1896
  C  C1706  1  0.526420  0.771220  0.164020  1.0  0.2513
  C  C1707  1  0.515400  0.794020  0.265340  1.0  0.2026
  C  C1708  1  0.522650  0.822050  0.262150  1.0  -0.1611
  C  C1709  1  0.526390  0.850690  0.229070  1.0  -0.0305
  C  C1710  1  0.523570  0.849150  0.200990  1.0  -0.1258
  C  C1711  1  0.516280  0.819940  0.206640  1.0  0.1758
  C  C1712  1  0.523890  0.822490  0.293910  1.0  0.4005
  C  C1713  1  0.517510  0.797350  0.353290  1.0  0.4092
  C  C1714  1  0.531540  0.848700  0.319760  1.0  0.2766
  C  C1715  1  0.508180  0.769440  0.388580  1.0  -0.182
  C  C1716  1  0.501520  0.740420  0.392480  1.0  -0.0214
  C  C1717  1  0.492370  0.715830  0.426490  1.0  -0.1333
  C  C1718  1  0.489910  0.720730  0.456050  1.0  0.1717
  C  C1719  1  0.504880  0.772080  0.419640  1.0  0.2065
  C  C1720  1  0.554120  0.796260  0.447160  1.0  0.2981
  C  C1721  1  0.573000  0.703820  0.461520  1.0  0.168
  C  C1722  1  0.601270  0.673690  0.455770  1.0  -0.1622
  C  C1723  1  0.603120  0.640520  0.484260  1.0  -0.0436
  C  C1724  1  0.575660  0.640300  0.517600  1.0  -0.1589
  C  C1725  1  0.547620  0.672120  0.521200  1.0  0.1884
  C  C1726  1  0.576810  0.606510  0.549170  1.0  0.3827
  C  C1727  1  0.313700  0.706560  0.540320  1.0  0.1766
  C  C1728  1  0.339560  0.701940  0.551100  1.0  -0.1723
  C  C1729  1  0.342480  0.732260  0.549300  1.0  -0.0708
  C  C1730  1  0.317740  0.765900  0.537220  1.0  -0.1227
  C  C1731  1  0.292270  0.767790  0.527130  1.0  0.191
  C  C1732  1  0.164020  0.038340  0.526420  1.0  0.2554
  C  C1733  1  0.265340  0.925240  0.515400  1.0  0.205
  C  C1734  1  0.262150  0.893150  0.522650  1.0  -0.1607
  C  C1735  1  0.229070  0.893850  0.526390  1.0  -0.0292
  C  C1736  1  0.200990  0.926290  0.523570  1.0  -0.122
  C  C1737  1  0.206640  0.957140  0.516280  1.0  0.1788
  C  C1738  1  0.293910  0.859710  0.523890  1.0  0.4009
  C  C1739  1  0.353290  0.831850  0.517510  1.0  0.4099
  C  C1740  1  0.319760  0.800000  0.531540  1.0  0.2759
  C  C1741  1  0.388580  0.833800  0.508180  1.0  -0.184
  C  C1742  1  0.392480  0.865580  0.501520  1.0  -0.0212
  C  C1743  1  0.426490  0.865310  0.492370  1.0  -0.1305
  C  C1744  1  0.456050  0.833310  0.489910  1.0  0.1682
  C  C1745  1  0.419640  0.803400  0.504880  1.0  0.2059
  C  C1746  1  0.447160  0.702460  0.554120  1.0  0.2976
  C  C1747  1  0.461520  0.761660  0.573000  1.0  0.1704
  C  C1748  1  0.455770  0.769270  0.601270  1.0  -0.1633
  C  C1749  1  0.484260  0.772100  0.603120  1.0  -0.0431
  C  C1750  1  0.517600  0.766440  0.575660  1.0  -0.1547
  C  C1751  1  0.521200  0.759060  0.547620  1.0  0.188
  C  C1752  1  0.549170  0.767510  0.576810  1.0  0.3817
  C  C1753  1  0.560580  0.793440  0.959680  1.0  0.1774
  C  C1754  1  0.592600  0.798060  0.948900  1.0  -0.1703
  C  C1755  1  0.624040  0.767740  0.950700  1.0  -0.0709
  C  C1756  1  0.620860  0.734100  0.962780  1.0  -0.123
  C  C1757  1  0.587190  0.732210  0.972870  1.0  0.1898
  C  C1758  1  0.728780  0.461660  0.973580  1.0  0.2487
  C  C1759  1  0.705980  0.574760  0.984600  1.0  0.2042
  C  C1760  1  0.677950  0.606850  0.977350  1.0  -0.1591
  C  C1761  1  0.649310  0.606150  0.973610  1.0  -0.0288
  C  C1762  1  0.650850  0.573710  0.976430  1.0  -0.1255
  C  C1763  1  0.680060  0.542860  0.983720  1.0  0.1777
  C  C1764  1  0.677510  0.640290  0.976110  1.0  0.4007
  C  C1765  1  0.702650  0.668150  0.982490  1.0  0.4092
  C  C1766  1  0.651300  0.700000  0.968460  1.0  0.2758
  C  C1767  1  0.730560  0.666200  0.991820  1.0  -0.1842
  C  C1768  1  0.759580  0.634420  0.998480  1.0  -0.0213
  C  C1769  1  0.784170  0.634690  0.007630  1.0  -0.1306
  C  C1770  1  0.779270  0.666667  0.010090  1.0  0.1679
  C  C1771  1  0.727920  0.696600  0.995120  1.0  0.2059
  C  C1772  1  0.703740  0.797540  0.945880  1.0  0.2906
  C  C1773  1  0.796180  0.738340  0.927000  1.0  0.1667
  C  C1774  1  0.826310  0.730730  0.898730  1.0  -0.1584
  C  C1775  1  0.859480  0.727900  0.896880  1.0  -0.0468
  C  C1776  1  0.859700  0.733560  0.924340  1.0  -0.1581
  C  C1777  1  0.827880  0.740940  0.952380  1.0  0.1887
  C  C1778  1  0.893490  0.732490  0.923190  1.0  0.3822
  C  C1779  1  0.793440  0.560580  0.186300  1.0  0.18
  C  C1780  1  0.798060  0.592600  0.160440  1.0  -0.1685
  C  C1781  1  0.767740  0.624040  0.157520  1.0  -0.0705
  C  C1782  1  0.734100  0.620860  0.182260  1.0  -0.1245
  C  C1783  1  0.732210  0.587190  0.207730  1.0  0.1893
  C  C1784  1  0.461660  0.728780  0.335980  1.0  0.2648
  C  C1785  1  0.574760  0.705980  0.234660  1.0  0.2031
  C  C1786  1  0.606850  0.677950  0.237850  1.0  -0.1592
  C  C1787  1  0.606150  0.649310  0.270930  1.0  -0.0289
  C  C1788  1  0.573710  0.650850  0.299010  1.0  -0.1281
  C  C1789  1  0.542860  0.680060  0.293360  1.0  0.1758
  C  C1790  1  0.640290  0.677510  0.206090  1.0  0.4013
  C  C1791  1  0.668150  0.702650  0.146710  1.0  0.4095
  C  C1792  1  0.700000  0.651300  0.180240  1.0  0.2769
  C  C1793  1  0.666200  0.730560  0.111420  1.0  -0.185
  C  C1794  1  0.634420  0.759580  0.107520  1.0  -0.0192
  C  C1795  1  0.634690  0.784170  0.073510  1.0  -0.1343
  C  C1796  1  0.666667  0.779270  0.043950  1.0  0.1708
  C  C1797  1  0.696600  0.727920  0.080360  1.0  0.2069
  C  C1798  1  0.797540  0.703740  0.052840  1.0  0.293
  C  C1799  1  0.738340  0.796180  0.038480  1.0  0.1661
  C  C1800  1  0.730730  0.826310  0.044230  1.0  -0.1601
  C  C1801  1  0.727900  0.859480  0.015740  1.0  -0.0434
  C  C1802  1  0.733560  0.859700  0.982400  1.0  -0.1574
  C  C1803  1  0.740940  0.827880  0.978800  1.0  0.188
  C  C1804  1  0.732490  0.893490  0.950830  1.0  0.3822
  C  C1805  1  0.186300  0.959680  0.793440  1.0  0.1818
  C  C1806  1  0.160440  0.948900  0.798060  1.0  -0.1716
  C  C1807  1  0.157520  0.950700  0.767740  1.0  -0.0697
  C  C1808  1  0.182260  0.962780  0.734100  1.0  -0.1226
  C  C1809  1  0.207730  0.972870  0.732210  1.0  0.1895
  C  C1810  1  0.335980  0.973580  0.461660  1.0  0.2583
  C  C1811  1  0.234660  0.984600  0.574760  1.0  0.2052
  C  C1812  1  0.237850  0.977350  0.606850  1.0  -0.1568
  C  C1813  1  0.270930  0.973610  0.606150  1.0  -0.0291
  C  C1814  1  0.299010  0.976430  0.573710  1.0  -0.122
  C  C1815  1  0.293360  0.983720  0.542860  1.0  0.1812
  C  C1816  1  0.206090  0.976110  0.640290  1.0  0.4006
  C  C1817  1  0.146710  0.982490  0.668150  1.0  0.4104
  C  C1818  1  0.180240  0.968460  0.700000  1.0  0.2763
  C  C1819  1  0.111420  0.991820  0.666200  1.0  -0.1834
  C  C1820  1  0.107520  0.998480  0.634420  1.0  -0.0233
  C  C1821  1  0.073510  0.007630  0.634690  1.0  -0.1293
  C  C1822  1  0.043950  0.010090  0.666667  1.0  0.1736
  C  C1823  1  0.080360  0.995120  0.696600  1.0  0.2067
  C  C1824  1  0.052840  0.945880  0.797540  1.0  0.2897
  C  C1825  1  0.038480  0.927000  0.738340  1.0  0.1706
  C  C1826  1  0.044230  0.898730  0.730730  1.0  -0.1637
  C  C1827  1  0.015740  0.896880  0.727900  1.0  -0.0457
  C  C1828  1  0.982400  0.924340  0.733560  1.0  -0.1575
  C  C1829  1  0.978800  0.952380  0.740940  1.0  0.1884
  C  C1830  1  0.950830  0.923190  0.732490  1.0  0.3817
  C  C1831  1  0.959680  0.186300  0.560580  1.0  0.1765
  C  C1832  1  0.948900  0.160440  0.592600  1.0  -0.1723
  C  C1833  1  0.950700  0.157520  0.624040  1.0  -0.0697
  C  C1834  1  0.962780  0.182260  0.620860  1.0  -0.1229
  C  C1835  1  0.972870  0.207730  0.587190  1.0  0.1886
  C  C1836  1  0.973580  0.335980  0.728780  1.0  0.2458
  C  C1837  1  0.984600  0.234660  0.705980  1.0  0.2053
  C  C1838  1  0.977350  0.237850  0.677950  1.0  -0.1603
  C  C1839  1  0.973610  0.270930  0.649310  1.0  -0.0292
  C  C1840  1  0.976430  0.299010  0.650850  1.0  -0.1252
  C  C1841  1  0.983720  0.293360  0.680060  1.0  0.1786
  C  C1842  1  0.976110  0.206090  0.677510  1.0  0.4012
  C  C1843  1  0.982490  0.146710  0.702650  1.0  0.4099
  C  C1844  1  0.968460  0.180240  0.651300  1.0  0.2761
  C  C1845  1  0.991820  0.111420  0.730560  1.0  -0.1839
  C  C1846  1  0.998480  0.107520  0.759580  1.0  -0.0219
  C  C1847  1  0.007630  0.073510  0.784170  1.0  -0.1277
  C  C1848  1  0.010090  0.043950  0.779270  1.0  0.1661
  C  C1849  1  0.995120  0.080360  0.727920  1.0  0.2076
  C  C1850  1  0.945880  0.052840  0.703740  1.0  0.2926
  C  C1851  1  0.927000  0.038480  0.796180  1.0  0.1714
  C  C1852  1  0.898730  0.044230  0.826310  1.0  -0.1613
  C  C1853  1  0.896880  0.015740  0.859480  1.0  -0.044
  C  C1854  1  0.924340  0.982400  0.859700  1.0  -0.1588
  C  C1855  1  0.952380  0.978800  0.827880  1.0  0.1875
  C  C1856  1  0.923190  0.950830  0.893490  1.0  0.382
  C  C1857  1  0.186300  0.560580  0.959680  1.0  0.1783
  C  C1858  1  0.160440  0.592600  0.948900  1.0  -0.1705
  C  C1859  1  0.157520  0.624040  0.950700  1.0  -0.0719
  C  C1860  1  0.182260  0.620860  0.962780  1.0  -0.1236
  C  C1861  1  0.207730  0.587190  0.972870  1.0  0.1884
  C  C1862  1  0.335980  0.728780  0.973580  1.0  0.2548
  C  C1863  1  0.234660  0.705980  0.984600  1.0  0.2033
  C  C1864  1  0.237850  0.677950  0.977350  1.0  -0.1584
  C  C1865  1  0.270930  0.649310  0.973610  1.0  -0.0315
  C  C1866  1  0.299010  0.650850  0.976430  1.0  -0.1237
  C  C1867  1  0.293360  0.680060  0.983720  1.0  0.177
  C  C1868  1  0.206090  0.677510  0.976110  1.0  0.4004
  C  C1869  1  0.146710  0.702650  0.982490  1.0  0.4108
  C  C1870  1  0.180240  0.651300  0.968460  1.0  0.2764
  C  C1871  1  0.111420  0.730560  0.991820  1.0  -0.1839
  C  C1872  1  0.107520  0.759580  0.998480  1.0  -0.0193
  C  C1873  1  0.073510  0.784170  0.007630  1.0  -0.133
  C  C1874  1  0.043950  0.779270  0.010090  1.0  0.1663
  C  C1875  1  0.080360  0.727920  0.995120  1.0  0.2046
  C  C1876  1  0.052840  0.703740  0.945880  1.0  0.2912
  C  C1877  1  0.038480  0.796180  0.927000  1.0  0.1682
  C  C1878  1  0.044230  0.826310  0.898730  1.0  -0.1612
  C  C1879  1  0.015740  0.859480  0.896880  1.0  -0.0424
  C  C1880  1  0.982400  0.859700  0.924340  1.0  -0.1573
  C  C1881  1  0.978800  0.827880  0.952380  1.0  0.188
  C  C1882  1  0.950830  0.893490  0.923190  1.0  0.3824
  C  C1883  1  0.959680  0.793440  0.186300  1.0  0.1803
  C  C1884  1  0.948900  0.798060  0.160440  1.0  -0.1704
  C  C1885  1  0.950700  0.767740  0.157520  1.0  -0.0742
  C  C1886  1  0.962780  0.734100  0.182260  1.0  -0.1231
  C  C1887  1  0.972870  0.732210  0.207730  1.0  0.1918
  C  C1888  1  0.973580  0.461660  0.335980  1.0  0.2506
  C  C1889  1  0.984600  0.574760  0.234660  1.0  0.2055
  C  C1890  1  0.977350  0.606850  0.237850  1.0  -0.1586
  C  C1891  1  0.973610  0.606150  0.270930  1.0  -0.0285
  C  C1892  1  0.976430  0.573710  0.299010  1.0  -0.1233
  C  C1893  1  0.983720  0.542860  0.293360  1.0  0.1754
  C  C1894  1  0.976110  0.640290  0.206090  1.0  0.4011
  C  C1895  1  0.982490  0.668150  0.146710  1.0  0.4091
  C  C1896  1  0.968460  0.700000  0.180240  1.0  0.2763
  C  C1897  1  0.991820  0.666200  0.111420  1.0  -0.1852
  C  C1898  1  0.998480  0.634420  0.107520  1.0  -0.0191
  C  C1899  1  0.007630  0.634690  0.073510  1.0  -0.1309
  C  C1900  1  0.010090  0.666667  0.043950  1.0  0.1717
  C  C1901  1  0.995120  0.696600  0.080360  1.0  0.2073
  C  C1902  1  0.945880  0.797540  0.052840  1.0  0.2921
  C  C1903  1  0.927000  0.738340  0.038480  1.0  0.1706
  C  C1904  1  0.898730  0.730730  0.044230  1.0  -0.1627
  C  C1905  1  0.896880  0.727900  0.015740  1.0  -0.0443
  C  C1906  1  0.924340  0.733560  0.982400  1.0  -0.1576
  C  C1907  1  0.952380  0.740940  0.978800  1.0  0.1886
  C  C1908  1  0.923190  0.732490  0.950830  1.0  0.3822
  C  C1909  1  0.560580  0.186300  0.793440  1.0  0.1774
  C  C1910  1  0.592600  0.160440  0.798060  1.0  -0.1738
  C  C1911  1  0.624040  0.157520  0.767740  1.0  -0.0722
  C  C1912  1  0.620860  0.182260  0.734100  1.0  -0.1234
  C  C1913  1  0.587190  0.207730  0.732210  1.0  0.1896
  C  C1914  1  0.728780  0.335980  0.461660  1.0  0.2647
  C  C1915  1  0.705980  0.234660  0.574760  1.0  0.2024
  C  C1916  1  0.677950  0.237850  0.606850  1.0  -0.1596
  C  C1917  1  0.649310  0.270930  0.606150  1.0  -0.0296
  C  C1918  1  0.650850  0.299010  0.573710  1.0  -0.1262
  C  C1919  1  0.680060  0.293360  0.542860  1.0  0.1752
  C  C1920  1  0.677510  0.206090  0.640290  1.0  0.4008
  C  C1921  1  0.702650  0.146710  0.668150  1.0  0.4098
  C  C1922  1  0.651300  0.180240  0.700000  1.0  0.2762
  C  C1923  1  0.730560  0.111420  0.666200  1.0  -0.1836
  C  C1924  1  0.759580  0.107520  0.634420  1.0  -0.0217
  C  C1925  1  0.784170  0.073510  0.634690  1.0  -0.1322
  C  C1926  1  0.779270  0.043950  0.666667  1.0  0.1665
  C  C1927  1  0.727920  0.080360  0.696600  1.0  0.2077
  C  C1928  1  0.703740  0.052840  0.797540  1.0  0.2927
  C  C1929  1  0.796180  0.038480  0.738340  1.0  0.1654
  C  C1930  1  0.826310  0.044230  0.730730  1.0  -0.1627
  C  C1931  1  0.859480  0.015740  0.727900  1.0  -0.0437
  C  C1932  1  0.859700  0.982400  0.733560  1.0  -0.158
  C  C1933  1  0.827880  0.978800  0.740940  1.0  0.1854
  C  C1934  1  0.893490  0.950830  0.732490  1.0  0.3829
  C  C1935  1  0.793440  0.959680  0.560580  1.0  0.1813
  C  C1936  1  0.798060  0.948900  0.592600  1.0  -0.1708
  C  C1937  1  0.767740  0.950700  0.624040  1.0  -0.0718
  C  C1938  1  0.734100  0.962780  0.620860  1.0  -0.1211
  C  C1939  1  0.732210  0.972870  0.587190  1.0  0.1898
  C  C1940  1  0.461660  0.973580  0.728780  1.0  0.2452
  C  C1941  1  0.574760  0.984600  0.705980  1.0  0.2037
  C  C1942  1  0.606850  0.977350  0.677950  1.0  -0.1596
  C  C1943  1  0.606150  0.973610  0.649310  1.0  -0.0301
  C  C1944  1  0.573710  0.976430  0.650850  1.0  -0.1205
  C  C1945  1  0.542860  0.983720  0.680060  1.0  0.1772
  C  C1946  1  0.640290  0.976110  0.677510  1.0  0.4008
  C  C1947  1  0.668150  0.982490  0.702650  1.0  0.4101
  C  C1948  1  0.700000  0.968460  0.651300  1.0  0.2763
  C  C1949  1  0.666200  0.991820  0.730560  1.0  -0.1849
  C  C1950  1  0.634420  0.998480  0.759580  1.0  -0.0189
  C  C1951  1  0.634690  0.007630  0.784170  1.0  -0.1329
  C  C1952  1  0.666667  0.010090  0.779270  1.0  0.1695
  C  C1953  1  0.696600  0.995120  0.727920  1.0  0.2069
  C  C1954  1  0.797540  0.945880  0.703740  1.0  0.2901
  C  C1955  1  0.738340  0.927000  0.796180  1.0  0.166
  C  C1956  1  0.730730  0.898730  0.826310  1.0  -0.1636
  C  C1957  1  0.727900  0.896880  0.859480  1.0  -0.0448
  C  C1958  1  0.733560  0.924340  0.859700  1.0  -0.1565
  C  C1959  1  0.740940  0.952380  0.827880  1.0  0.1888
  C  C1960  1  0.732490  0.923190  0.893490  1.0  0.3815
  C  C1961  1  0.793440  0.186300  0.959680  1.0  0.1778
  C  C1962  1  0.798060  0.160440  0.948900  1.0  -0.1709
  C  C1963  1  0.767740  0.157520  0.950700  1.0  -0.0739
  C  C1964  1  0.734100  0.182260  0.962780  1.0  -0.1219
  C  C1965  1  0.732210  0.207730  0.972870  1.0  0.1878
  C  C1966  1  0.461660  0.335980  0.973580  1.0  0.2518
  C  C1967  1  0.574760  0.234660  0.984600  1.0  0.2026
  C  C1968  1  0.606850  0.237850  0.977350  1.0  -0.1593
  C  C1969  1  0.606150  0.270930  0.973610  1.0  -0.0287
  C  C1970  1  0.573710  0.299010  0.976430  1.0  -0.1238
  C  C1971  1  0.542860  0.293360  0.983720  1.0  0.1749
  C  C1972  1  0.640290  0.206090  0.976110  1.0  0.4018
  C  C1973  1  0.668150  0.146710  0.982490  1.0  0.4099
  C  C1974  1  0.700000  0.180240  0.968460  1.0  0.2766
  C  C1975  1  0.666200  0.111420  0.991820  1.0  -0.1839
  C  C1976  1  0.634420  0.107520  0.998480  1.0  -0.0196
  C  C1977  1  0.634690  0.073510  0.007630  1.0  -0.1302
  C  C1978  1  0.666667  0.043950  0.010090  1.0  0.172
  C  C1979  1  0.696600  0.080360  0.995120  1.0  0.2045
  C  C1980  1  0.797540  0.052840  0.945880  1.0  0.2973
  C  C1981  1  0.738340  0.038480  0.927000  1.0  0.1682
  C  C1982  1  0.730730  0.044230  0.898730  1.0  -0.1657
  C  C1983  1  0.727900  0.015740  0.896880  1.0  -0.045
  C  C1984  1  0.733560  0.982400  0.924340  1.0  -0.1545
  C  C1985  1  0.740940  0.978800  0.952380  1.0  0.19
  C  C1986  1  0.732490  0.950830  0.923190  1.0  0.3823
  C  C1987  1  0.560580  0.959680  0.186300  1.0  0.1771
  C  C1988  1  0.592600  0.948900  0.160440  1.0  -0.1675
  C  C1989  1  0.624040  0.950700  0.157520  1.0  -0.0725
  C  C1990  1  0.620860  0.962780  0.182260  1.0  -0.1239
  C  C1991  1  0.587190  0.972870  0.207730  1.0  0.1906
  C  C1992  1  0.728780  0.973580  0.335980  1.0  0.2436
  C  C1993  1  0.705980  0.984600  0.234660  1.0  0.2041
  C  C1994  1  0.677950  0.977350  0.237850  1.0  -0.1601
  C  C1995  1  0.649310  0.973610  0.270930  1.0  -0.0264
  C  C1996  1  0.650850  0.976430  0.299010  1.0  -0.1253
  C  C1997  1  0.680060  0.983720  0.293360  1.0  0.1812
  C  C1998  1  0.677510  0.976110  0.206090  1.0  0.4009
  C  C1999  1  0.702650  0.982490  0.146710  1.0  0.4096
  C  C2000  1  0.651300  0.968460  0.180240  1.0  0.2764
  C  C2001  1  0.730560  0.991820  0.111420  1.0  -0.1811
  C  C2002  1  0.759580  0.998480  0.107520  1.0  -0.0205
  C  C2003  1  0.784170  0.007630  0.073510  1.0  -0.1285
  C  C2004  1  0.779270  0.010090  0.043950  1.0  0.1721
  C  C2005  1  0.727920  0.995120  0.080360  1.0  0.2069
  C  C2006  1  0.703740  0.945880  0.052840  1.0  0.2978
  C  C2007  1  0.796180  0.927000  0.038480  1.0  0.169
  C  C2008  1  0.826310  0.898730  0.044230  1.0  -0.1652
  C  C2009  1  0.859480  0.896880  0.015740  1.0  -0.0446
  C  C2010  1  0.859700  0.924340  0.982400  1.0  -0.1585
  C  C2011  1  0.827880  0.952380  0.978800  1.0  0.1887
  C  C2012  1  0.893490  0.923190  0.950830  1.0  0.382
  C  C2013  1  0.959680  0.560580  0.793440  1.0  0.1777
  C  C2014  1  0.948900  0.592600  0.798060  1.0  -0.1705
  C  C2015  1  0.950700  0.624040  0.767740  1.0  -0.0702
  C  C2016  1  0.962780  0.620860  0.734100  1.0  -0.1232
  C  C2017  1  0.972870  0.587190  0.732210  1.0  0.1905
  C  C2018  1  0.973580  0.728780  0.461660  1.0  0.2503
  C  C2019  1  0.984600  0.705980  0.574760  1.0  0.2026
  C  C2020  1  0.977350  0.677950  0.606850  1.0  -0.1608
  C  C2021  1  0.973610  0.649310  0.606150  1.0  -0.0289
  C  C2022  1  0.976430  0.650850  0.573710  1.0  -0.1273
  C  C2023  1  0.983720  0.680060  0.542860  1.0  0.1755
  C  C2024  1  0.976110  0.677510  0.640290  1.0  0.4001
  C  C2025  1  0.982490  0.702650  0.668150  1.0  0.4097
  C  C2026  1  0.968460  0.651300  0.700000  1.0  0.2764
  C  C2027  1  0.991820  0.730560  0.666200  1.0  -0.1825
  C  C2028  1  0.998480  0.759580  0.634420  1.0  -0.0228
  C  C2029  1  0.007630  0.784170  0.634690  1.0  -0.1321
  C  C2030  1  0.010090  0.779270  0.666667  1.0  0.1714
  C  C2031  1  0.995120  0.727920  0.696600  1.0  0.2083
  C  C2032  1  0.945880  0.703740  0.797540  1.0  0.2988
  C  C2033  1  0.927000  0.796180  0.738340  1.0  0.1679
  C  C2034  1  0.898730  0.826310  0.730730  1.0  -0.1628
  C  C2035  1  0.896880  0.859480  0.727900  1.0  -0.0426
  C  C2036  1  0.924340  0.859700  0.733560  1.0  -0.1582
  C  C2037  1  0.952380  0.827880  0.740940  1.0  0.1879
  C  C2038  1  0.923190  0.893490  0.732490  1.0  0.3827
  C  C2039  1  0.186300  0.793440  0.560580  1.0  0.1783
  C  C2040  1  0.160440  0.798060  0.592600  1.0  -0.1739
  C  C2041  1  0.157520  0.767740  0.624040  1.0  -0.0718
  C  C2042  1  0.182260  0.734100  0.620860  1.0  -0.1218
  C  C2043  1  0.207730  0.732210  0.587190  1.0  0.189
  C  C2044  1  0.335980  0.461660  0.728780  1.0  0.2701
  C  C2045  1  0.234660  0.574760  0.705980  1.0  0.2042
  C  C2046  1  0.237850  0.606850  0.677950  1.0  -0.1598
  C  C2047  1  0.270930  0.606150  0.649310  1.0  -0.0288
  C  C2048  1  0.299010  0.573710  0.650850  1.0  -0.1215
  C  C2049  1  0.293360  0.542860  0.680060  1.0  0.1788
  C  C2050  1  0.206090  0.640290  0.677510  1.0  0.4009
  C  C2051  1  0.146710  0.668150  0.702650  1.0  0.4101
  C  C2052  1  0.180240  0.700000  0.651300  1.0  0.2758
  C  C2053  1  0.111420  0.666200  0.730560  1.0  -0.1845
  C  C2054  1  0.107520  0.634420  0.759580  1.0  -0.02
  C  C2055  1  0.073510  0.634690  0.784170  1.0  -0.1332
  C  C2056  1  0.043950  0.666667  0.779270  1.0  0.1684
  C  C2057  1  0.080360  0.696600  0.727920  1.0  0.2063
  C  C2058  1  0.052840  0.797540  0.703740  1.0  0.2956
  C  C2059  1  0.038480  0.738340  0.796180  1.0  0.1719
  C  C2060  1  0.044230  0.730730  0.826310  1.0  -0.162
  C  C2061  1  0.015740  0.727900  0.859480  1.0  -0.0429
  C  C2062  1  0.982400  0.733560  0.859700  1.0  -0.1545
  C  C2063  1  0.978800  0.740940  0.827880  1.0  0.1894
  C  C2064  1  0.950830  0.732490  0.893490  1.0  0.3815
  S  S2065  1  0.205060  0.951000  0.878610  1.0  -0.263
  S  S2066  1  0.183230  0.323310  0.577230  1.0  -0.2371
  S  S2067  1  0.951000  0.205060  0.465340  1.0  -0.2616
  S  S2068  1  0.323310  0.183230  0.416230  1.0  -0.2343
  S  S2069  1  0.878610  0.465340  0.205060  1.0  -0.2586
  S  S2070  1  0.577230  0.416230  0.183230  1.0  -0.2335
  S  S2071  1  0.465340  0.878610  0.951000  1.0  -0.2604
  S  S2072  1  0.416230  0.577230  0.323310  1.0  -0.2353
  S  S2073  1  0.878610  0.205060  0.951000  1.0  -0.2581
  S  S2074  1  0.577230  0.183230  0.323310  1.0  -0.2367
  S  S2075  1  0.465340  0.951000  0.205060  1.0  -0.2613
  S  S2076  1  0.416230  0.323310  0.183230  1.0  -0.2329
  S  S2077  1  0.205060  0.878610  0.465340  1.0  -0.2601
  S  S2078  1  0.183230  0.577230  0.416230  1.0  -0.2341
  S  S2079  1  0.951000  0.465340  0.878610  1.0  -0.2617
  S  S2080  1  0.323310  0.416230  0.577230  1.0  -0.2354
  S  S2081  1  0.951000  0.878610  0.205060  1.0  -0.2618
  S  S2082  1  0.323310  0.577230  0.183230  1.0  -0.2333
  S  S2083  1  0.205060  0.465340  0.951000  1.0  -0.2619
  S  S2084  1  0.183230  0.416230  0.323310  1.0  -0.2341
  S  S2085  1  0.465340  0.205060  0.878610  1.0  -0.2614
  S  S2086  1  0.416230  0.183230  0.577230  1.0  -0.2344
  S  S2087  1  0.878610  0.951000  0.465340  1.0  -0.2594
  S  S2088  1  0.577230  0.323310  0.416230  1.0  -0.234
  S  S2089  1  0.294940  0.549000  0.034660  1.0  -0.2606
  S  S2090  1  0.316770  0.176690  0.083770  1.0  -0.2372
  S  S2091  1  0.549000  0.294940  0.621390  1.0  -0.2618
  S  S2092  1  0.176690  0.316770  0.922770  1.0  -0.2333
  S  S2093  1  0.621390  0.034660  0.549000  1.0  -0.2601
  S  S2094  1  0.922770  0.083770  0.176690  1.0  -0.234
  S  S2095  1  0.034660  0.621390  0.294940  1.0  -0.2613
  S  S2096  1  0.083770  0.922770  0.316770  1.0  -0.2365
  S  S2097  1  0.621390  0.294940  0.034660  1.0  -0.2599
  S  S2098  1  0.922770  0.316770  0.083770  1.0  -0.236
  S  S2099  1  0.034660  0.549000  0.621390  1.0  -0.2606
  S  S2100  1  0.083770  0.176690  0.922770  1.0  -0.2333
  S  S2101  1  0.294940  0.621390  0.549000  1.0  -0.2614
  S  S2102  1  0.316770  0.922770  0.176690  1.0  -0.2343
  S  S2103  1  0.549000  0.034660  0.294940  1.0  -0.2616
  S  S2104  1  0.176690  0.083770  0.316770  1.0  -0.2352
  S  S2105  1  0.549000  0.621390  0.034660  1.0  -0.2623
  S  S2106  1  0.176690  0.922770  0.083770  1.0  -0.2341
  S  S2107  1  0.294940  0.034660  0.621390  1.0  -0.2599
  S  S2108  1  0.316770  0.083770  0.922770  1.0  -0.234
  S  S2109  1  0.034660  0.294940  0.549000  1.0  -0.2613
  S  S2110  1  0.083770  0.316770  0.176690  1.0  -0.2331
  S  S2111  1  0.621390  0.549000  0.294940  1.0  -0.2601
  S  S2112  1  0.922770  0.176690  0.316770  1.0  -0.2342
  S  S2113  1  0.794940  0.049000  0.121390  1.0  -0.2606
  S  S2114  1  0.816770  0.676690  0.422770  1.0  -0.2342
  S  S2115  1  0.049000  0.794940  0.534660  1.0  -0.2614
  S  S2116  1  0.676690  0.816770  0.583770  1.0  -0.236
  S  S2117  1  0.121390  0.534660  0.794940  1.0  -0.26
  S  S2118  1  0.422770  0.583770  0.816770  1.0  -0.2361
  S  S2119  1  0.534660  0.121390  0.049000  1.0  -0.2613
  S  S2120  1  0.583770  0.422770  0.676690  1.0  -0.234
  S  S2121  1  0.121390  0.794940  0.049000  1.0  -0.2601
  S  S2122  1  0.422770  0.816770  0.676690  1.0  -0.2335
  S  S2123  1  0.534660  0.049000  0.794940  1.0  -0.2616
  S  S2124  1  0.583770  0.676690  0.816770  1.0  -0.2356
  S  S2125  1  0.794940  0.121390  0.534660  1.0  -0.2612
  S  S2126  1  0.816770  0.422770  0.583770  1.0  -0.2373
  S  S2127  1  0.049000  0.534660  0.121390  1.0  -0.2609
  S  S2128  1  0.676690  0.583770  0.422770  1.0  -0.2336
  S  S2129  1  0.049000  0.121390  0.794940  1.0  -0.2622
  S  S2130  1  0.676690  0.422770  0.816770  1.0  -0.2343
  S  S2131  1  0.794940  0.534660  0.049000  1.0  -0.2607
  S  S2132  1  0.816770  0.583770  0.676690  1.0  -0.234
  S  S2133  1  0.534660  0.794940  0.121390  1.0  -0.2606
  S  S2134  1  0.583770  0.816770  0.422770  1.0  -0.2331
  S  S2135  1  0.121390  0.049000  0.534660  1.0  -0.2602
  S  S2136  1  0.422770  0.676690  0.583770  1.0  -0.234
  S  S2137  1  0.705060  0.451000  0.965340  1.0  -0.2626
  S  S2138  1  0.683230  0.823310  0.916230  1.0  -0.2347
  S  S2139  1  0.451000  0.705060  0.378610  1.0  -0.2626
  S  S2140  1  0.823310  0.683230  0.077230  1.0  -0.2367
  S  S2141  1  0.378610  0.965340  0.451000  1.0  -0.2591
  S  S2142  1  0.077230  0.916230  0.823310  1.0  -0.2363
  S  S2143  1  0.965340  0.378610  0.705060  1.0  -0.2601
  S  S2144  1  0.916230  0.077230  0.683230  1.0  -0.2331
  S  S2145  1  0.378610  0.705060  0.965340  1.0  -0.2579
  S  S2146  1  0.077230  0.683230  0.916230  1.0  -0.2341
  S  S2147  1  0.965340  0.451000  0.378610  1.0  -0.2618
  S  S2148  1  0.916230  0.823310  0.077230  1.0  -0.2349
  S  S2149  1  0.705060  0.378610  0.451000  1.0  -0.2605
  S  S2150  1  0.683230  0.077230  0.823310  1.0  -0.2366
  S  S2151  1  0.451000  0.965340  0.705060  1.0  -0.2609
  S  S2152  1  0.823310  0.916230  0.683230  1.0  -0.2331
  S  S2153  1  0.451000  0.378610  0.965340  1.0  -0.2616
  S  S2154  1  0.823310  0.077230  0.916230  1.0  -0.2336
  S  S2155  1  0.705060  0.965340  0.378610  1.0  -0.2617
  S  S2156  1  0.683230  0.916230  0.077230  1.0  -0.2341
  S  S2157  1  0.965340  0.705060  0.451000  1.0  -0.2608
  S  S2158  1  0.916230  0.683230  0.823310  1.0  -0.2345
  S  S2159  1  0.378610  0.451000  0.705060  1.0  -0.2593
  S  S2160  1  0.077230  0.823310  0.683230  1.0  -0.2337
  N  N2161  1  0.244430  0.969850  0.804690  1.0  -0.4748
  N  N2162  1  0.057160  0.261140  0.709600  1.0  -0.3345
  N  N2163  1  0.207000  0.042900  0.762060  1.0  -0.3307
  N  N2164  1  0.150220  0.170720  0.710040  1.0  -0.418
  N  N2165  1  0.177300  0.200380  0.647740  1.0  -0.4467
  N  N2166  1  0.204620  0.137240  0.674980  1.0  -0.5011
  N  N2167  1  0.251520  0.197240  0.547320  1.0  -0.3172
  N  N2168  1  0.218140  0.279380  0.535500  1.0  -0.3667
  N  N2169  1  0.295950  0.243550  0.506230  1.0  -0.3333
  N  N2170  1  0.421290  0.232330  0.453570  1.0  -0.4309
  N  N2171  1  0.969850  0.244430  0.481030  1.0  -0.4782
  N  N2172  1  0.261140  0.057160  0.472100  1.0  -0.3372
  N  N2173  1  0.042900  0.207000  0.488040  1.0  -0.3313
  N  N2174  1  0.170720  0.150220  0.469020  1.0  -0.4177
  N  N2175  1  0.200380  0.177300  0.474580  1.0  -0.4482
  N  N2176  1  0.137240  0.204620  0.483160  1.0  -0.5017
  N  N2177  1  0.197240  0.251520  0.503920  1.0  -0.315
  N  N2178  1  0.279380  0.218140  0.466980  1.0  -0.3666
  N  N2179  1  0.243550  0.295950  0.454270  1.0  -0.3332
  N  N2180  1  0.232330  0.421290  0.392810  1.0  -0.4312
  N  N2181  1  0.804690  0.481030  0.244430  1.0  -0.4789
  N  N2182  1  0.709600  0.472100  0.057160  1.0  -0.3363
  N  N2183  1  0.762060  0.488040  0.207000  1.0  -0.3337
  N  N2184  1  0.710040  0.469020  0.150220  1.0  -0.4195
  N  N2185  1  0.647740  0.474580  0.177300  1.0  -0.448
  N  N2186  1  0.674980  0.483160  0.204620  1.0  -0.5041
  N  N2187  1  0.547320  0.503920  0.251520  1.0  -0.3166
  N  N2188  1  0.535500  0.466980  0.218140  1.0  -0.3688
  N  N2189  1  0.506230  0.454270  0.295950  1.0  -0.3349
  N  N2190  1  0.453570  0.392810  0.421290  1.0  -0.4277
  N  N2191  1  0.481030  0.804690  0.969850  1.0  -0.4784
  N  N2192  1  0.472100  0.709600  0.261140  1.0  -0.3382
  N  N2193  1  0.488040  0.762060  0.042900  1.0  -0.3334
  N  N2194  1  0.469020  0.710040  0.170720  1.0  -0.4178
  N  N2195  1  0.474580  0.647740  0.200380  1.0  -0.4462
  N  N2196  1  0.483160  0.674980  0.137240  1.0  -0.5055
  N  N2197  1  0.503920  0.547320  0.197240  1.0  -0.3168
  N  N2198  1  0.466980  0.535500  0.279380  1.0  -0.3682
  N  N2199  1  0.454270  0.506230  0.243550  1.0  -0.3329
  N  N2200  1  0.392810  0.453570  0.232330  1.0  -0.428
  N  N2201  1  0.804690  0.244430  0.969850  1.0  -0.4795
  N  N2202  1  0.709600  0.057160  0.261140  1.0  -0.3385
  N  N2203  1  0.762060  0.207000  0.042900  1.0  -0.3346
  N  N2204  1  0.710040  0.150220  0.170720  1.0  -0.4188
  N  N2205  1  0.647740  0.177300  0.200380  1.0  -0.4467
  N  N2206  1  0.674980  0.204620  0.137240  1.0  -0.5043
  N  N2207  1  0.547320  0.251520  0.197240  1.0  -0.3154
  N  N2208  1  0.535500  0.218140  0.279380  1.0  -0.3672
  N  N2209  1  0.506230  0.295950  0.243550  1.0  -0.333
  N  N2210  1  0.453570  0.421290  0.232330  1.0  -0.4293
  N  N2211  1  0.481030  0.969850  0.244430  1.0  -0.4797
  N  N2212  1  0.472100  0.261140  0.057160  1.0  -0.3393
  N  N2213  1  0.488040  0.042900  0.207000  1.0  -0.3347
  N  N2214  1  0.469020  0.170720  0.150220  1.0  -0.4183
  N  N2215  1  0.474580  0.200380  0.177300  1.0  -0.4465
  N  N2216  1  0.483160  0.137240  0.204620  1.0  -0.5018
  N  N2217  1  0.503920  0.197240  0.251520  1.0  -0.3159
  N  N2218  1  0.466980  0.279380  0.218140  1.0  -0.369
  N  N2219  1  0.454270  0.243550  0.295950  1.0  -0.3319
  N  N2220  1  0.392810  0.232330  0.421290  1.0  -0.4302
  N  N2221  1  0.244430  0.804690  0.481030  1.0  -0.4767
  N  N2222  1  0.057160  0.709600  0.472100  1.0  -0.3372
  N  N2223  1  0.207000  0.762060  0.488040  1.0  -0.3319
  N  N2224  1  0.150220  0.710040  0.469020  1.0  -0.4185
  N  N2225  1  0.177300  0.647740  0.474580  1.0  -0.4481
  N  N2226  1  0.204620  0.674980  0.483160  1.0  -0.503
  N  N2227  1  0.251520  0.547320  0.503920  1.0  -0.3162
  N  N2228  1  0.218140  0.535500  0.466980  1.0  -0.3675
  N  N2229  1  0.295950  0.506230  0.454270  1.0  -0.3334
  N  N2230  1  0.421290  0.453570  0.392810  1.0  -0.4289
  N  N2231  1  0.969850  0.481030  0.804690  1.0  -0.4774
  N  N2232  1  0.261140  0.472100  0.709600  1.0  -0.3394
  N  N2233  1  0.042900  0.488040  0.762060  1.0  -0.3322
  N  N2234  1  0.170720  0.469020  0.710040  1.0  -0.4182
  N  N2235  1  0.200380  0.474580  0.647740  1.0  -0.4494
  N  N2236  1  0.137240  0.483160  0.674980  1.0  -0.5061
  N  N2237  1  0.197240  0.503920  0.547320  1.0  -0.3147
  N  N2238  1  0.279380  0.466980  0.535500  1.0  -0.3662
  N  N2239  1  0.243550  0.454270  0.506230  1.0  -0.3322
  N  N2240  1  0.232330  0.392810  0.453570  1.0  -0.4285
  N  N2241  1  0.969850  0.804690  0.244430  1.0  -0.4773
  N  N2242  1  0.261140  0.709600  0.057160  1.0  -0.3398
  N  N2243  1  0.042900  0.762060  0.207000  1.0  -0.3304
  N  N2244  1  0.170720  0.710040  0.150220  1.0  -0.4174
  N  N2245  1  0.200380  0.647740  0.177300  1.0  -0.4471
  N  N2246  1  0.137240  0.674980  0.204620  1.0  -0.504
  N  N2247  1  0.197240  0.547320  0.251520  1.0  -0.3164
  N  N2248  1  0.279380  0.535500  0.218140  1.0  -0.3723
  N  N2249  1  0.243550  0.506230  0.295950  1.0  -0.3354
  N  N2250  1  0.232330  0.453570  0.421290  1.0  -0.4286
  N  N2251  1  0.244430  0.481030  0.969850  1.0  -0.4743
  N  N2252  1  0.057160  0.472100  0.261140  1.0  -0.3362
  N  N2253  1  0.207000  0.488040  0.042900  1.0  -0.3309
  N  N2254  1  0.150220  0.469020  0.170720  1.0  -0.4183
  N  N2255  1  0.177300  0.474580  0.200380  1.0  -0.4507
  N  N2256  1  0.204620  0.483160  0.137240  1.0  -0.5046
  N  N2257  1  0.251520  0.503920  0.197240  1.0  -0.3181
  N  N2258  1  0.218140  0.466980  0.279380  1.0  -0.3724
  N  N2259  1  0.295950  0.454270  0.243550  1.0  -0.3332
  N  N2260  1  0.421290  0.392810  0.232330  1.0  -0.4297
  N  N2261  1  0.481030  0.244430  0.804690  1.0  -0.4779
  N  N2262  1  0.472100  0.057160  0.709600  1.0  -0.3389
  N  N2263  1  0.488040  0.207000  0.762060  1.0  -0.331
  N  N2264  1  0.469020  0.150220  0.710040  1.0  -0.4175
  N  N2265  1  0.474580  0.177300  0.647740  1.0  -0.4508
  N  N2266  1  0.483160  0.204620  0.674980  1.0  -0.5015
  N  N2267  1  0.503920  0.251520  0.547320  1.0  -0.3183
  N  N2268  1  0.466980  0.218140  0.535500  1.0  -0.3704
  N  N2269  1  0.454270  0.295950  0.506230  1.0  -0.3333
  N  N2270  1  0.392810  0.421290  0.453570  1.0  -0.43
  N  N2271  1  0.804690  0.969850  0.481030  1.0  -0.4788
  N  N2272  1  0.709600  0.261140  0.472100  1.0  -0.3373
  N  N2273  1  0.762060  0.042900  0.488040  1.0  -0.3312
  N  N2274  1  0.710040  0.170720  0.469020  1.0  -0.4181
  N  N2275  1  0.647740  0.200380  0.474580  1.0  -0.4447
  N  N2276  1  0.674980  0.137240  0.483160  1.0  -0.5019
  N  N2277  1  0.547320  0.197240  0.503920  1.0  -0.3168
  N  N2278  1  0.535500  0.279380  0.466980  1.0  -0.3719
  N  N2279  1  0.506230  0.243550  0.454270  1.0  -0.3355
  N  N2280  1  0.453570  0.232330  0.392810  1.0  -0.4299
  N  N2281  1  0.255570  0.530150  0.018970  1.0  -0.4747
  N  N2282  1  0.442840  0.238860  0.027900  1.0  -0.3354
  N  N2283  1  0.293000  0.457100  0.011960  1.0  -0.3309
  N  N2284  1  0.349780  0.329280  0.030980  1.0  -0.4176
  N  N2285  1  0.322700  0.299620  0.025420  1.0  -0.4471
  N  N2286  1  0.295380  0.362760  0.016840  1.0  -0.501
  N  N2287  1  0.248480  0.302760  0.996080  1.0  -0.318
  N  N2288  1  0.281860  0.220620  0.033020  1.0  -0.3657
  N  N2289  1  0.204050  0.256450  0.045730  1.0  -0.3333
  N  N2290  1  0.078710  0.267670  0.107190  1.0  -0.4314
  N  N2291  1  0.530150  0.255570  0.695310  1.0  -0.4785
  N  N2292  1  0.238860  0.442840  0.790400  1.0  -0.3374
  N  N2293  1  0.457100  0.293000  0.737940  1.0  -0.3307
  N  N2294  1  0.329280  0.349780  0.789960  1.0  -0.4181
  N  N2295  1  0.299620  0.322700  0.852260  1.0  -0.4472
  N  N2296  1  0.362760  0.295380  0.825020  1.0  -0.5006
  N  N2297  1  0.302760  0.248480  0.952680  1.0  -0.3172
  N  N2298  1  0.220620  0.281860  0.964500  1.0  -0.3679
  N  N2299  1  0.256450  0.204050  0.993770  1.0  -0.3328
  N  N2300  1  0.267670  0.078710  0.046430  1.0  -0.4311
  N  N2301  1  0.695310  0.018970  0.530150  1.0  -0.4793
  N  N2302  1  0.790400  0.027900  0.238860  1.0  -0.3359
  N  N2303  1  0.737940  0.011960  0.457100  1.0  -0.3338
  N  N2304  1  0.789960  0.030980  0.329280  1.0  -0.4189
  N  N2305  1  0.852260  0.025420  0.299620  1.0  -0.4505
  N  N2306  1  0.825020  0.016840  0.362760  1.0  -0.5038
  N  N2307  1  0.952680  0.996080  0.302760  1.0  -0.3156
  N  N2308  1  0.964500  0.033020  0.220620  1.0  -0.3692
  N  N2309  1  0.993770  0.045730  0.256450  1.0  -0.3356
  N  N2310  1  0.046430  0.107190  0.267670  1.0  -0.429
  N  N2311  1  0.018970  0.695310  0.255570  1.0  -0.4796
  N  N2312  1  0.027900  0.790400  0.442840  1.0  -0.3371
  N  N2313  1  0.011960  0.737940  0.293000  1.0  -0.3329
  N  N2314  1  0.030980  0.789960  0.349780  1.0  -0.4185
  N  N2315  1  0.025420  0.852260  0.322700  1.0  -0.4462
  N  N2316  1  0.016840  0.825020  0.295380  1.0  -0.5048
  N  N2317  1  0.996080  0.952680  0.248480  1.0  -0.3164
  N  N2318  1  0.033020  0.964500  0.281860  1.0  -0.366
  N  N2319  1  0.045730  0.993770  0.204050  1.0  -0.3335
  N  N2320  1  0.107190  0.046430  0.078710  1.0  -0.4275
  N  N2321  1  0.695310  0.255570  0.018970  1.0  -0.4778
  N  N2322  1  0.790400  0.442840  0.027900  1.0  -0.3373
  N  N2323  1  0.737940  0.293000  0.011960  1.0  -0.3348
  N  N2324  1  0.789960  0.349780  0.030980  1.0  -0.4186
  N  N2325  1  0.852260  0.322700  0.025420  1.0  -0.4493
  N  N2326  1  0.825020  0.295380  0.016840  1.0  -0.5027
  N  N2327  1  0.952680  0.248480  0.996080  1.0  -0.3142
  N  N2328  1  0.964500  0.281860  0.033020  1.0  -0.3686
  N  N2329  1  0.993770  0.204050  0.045730  1.0  -0.3321
  N  N2330  1  0.046430  0.078710  0.107190  1.0  -0.4304
  N  N2331  1  0.018970  0.530150  0.695310  1.0  -0.4776
  N  N2332  1  0.027900  0.238860  0.790400  1.0  -0.3385
  N  N2333  1  0.011960  0.457100  0.737940  1.0  -0.3342
  N  N2334  1  0.030980  0.329280  0.789960  1.0  -0.4187
  N  N2335  1  0.025420  0.299620  0.852260  1.0  -0.4464
  N  N2336  1  0.016840  0.362760  0.825020  1.0  -0.5022
  N  N2337  1  0.996080  0.302760  0.952680  1.0  -0.317
  N  N2338  1  0.033020  0.220620  0.964500  1.0  -0.3682
  N  N2339  1  0.045730  0.256450  0.993770  1.0  -0.3325
  N  N2340  1  0.107190  0.267670  0.046430  1.0  -0.4293
  N  N2341  1  0.255570  0.695310  0.530150  1.0  -0.4791
  N  N2342  1  0.442840  0.790400  0.238860  1.0  -0.3377
  N  N2343  1  0.293000  0.737940  0.457100  1.0  -0.3313
  N  N2344  1  0.349780  0.789960  0.329280  1.0  -0.4181
  N  N2345  1  0.322700  0.852260  0.299620  1.0  -0.4476
  N  N2346  1  0.295380  0.825020  0.362760  1.0  -0.5038
  N  N2347  1  0.248480  0.952680  0.302760  1.0  -0.3159
  N  N2348  1  0.281860  0.964500  0.220620  1.0  -0.368
  N  N2349  1  0.204050  0.993770  0.256450  1.0  -0.332
  N  N2350  1  0.078710  0.046430  0.267670  1.0  -0.4291
  N  N2351  1  0.530150  0.018970  0.255570  1.0  -0.4777
  N  N2352  1  0.238860  0.027900  0.442840  1.0  -0.3399
  N  N2353  1  0.457100  0.011960  0.293000  1.0  -0.333
  N  N2354  1  0.329280  0.030980  0.349780  1.0  -0.4185
  N  N2355  1  0.299620  0.025420  0.322700  1.0  -0.4478
  N  N2356  1  0.362760  0.016840  0.295380  1.0  -0.504
  N  N2357  1  0.302760  0.996080  0.248480  1.0  -0.3158
  N  N2358  1  0.220620  0.033020  0.281860  1.0  -0.3674
  N  N2359  1  0.256450  0.045730  0.204050  1.0  -0.3328
  N  N2360  1  0.267670  0.107190  0.078710  1.0  -0.4285
  N  N2361  1  0.530150  0.695310  0.018970  1.0  -0.4791
  N  N2362  1  0.238860  0.790400  0.027900  1.0  -0.3399
  N  N2363  1  0.457100  0.737940  0.011960  1.0  -0.3306
  N  N2364  1  0.329280  0.789960  0.030980  1.0  -0.4174
  N  N2365  1  0.299620  0.852260  0.025420  1.0  -0.4454
  N  N2366  1  0.362760  0.825020  0.016840  1.0  -0.5028
  N  N2367  1  0.302760  0.952680  0.996080  1.0  -0.3157
  N  N2368  1  0.220620  0.964500  0.033020  1.0  -0.371
  N  N2369  1  0.256450  0.993770  0.045730  1.0  -0.3356
  N  N2370  1  0.267670  0.046430  0.107190  1.0  -0.4284
  N  N2371  1  0.255570  0.018970  0.695310  1.0  -0.476
  N  N2372  1  0.442840  0.027900  0.790400  1.0  -0.3369
  N  N2373  1  0.293000  0.011960  0.737940  1.0  -0.3305
  N  N2374  1  0.349780  0.030980  0.789960  1.0  -0.4182
  N  N2375  1  0.322700  0.025420  0.852260  1.0  -0.4512
  N  N2376  1  0.295380  0.016840  0.825020  1.0  -0.5055
  N  N2377  1  0.248480  0.996080  0.952680  1.0  -0.3181
  N  N2378  1  0.281860  0.033020  0.964500  1.0  -0.3716
  N  N2379  1  0.204050  0.045730  0.993770  1.0  -0.3333
  N  N2380  1  0.078710  0.107190  0.046430  1.0  -0.4297
  N  N2381  1  0.018970  0.255570  0.530150  1.0  -0.4778
  N  N2382  1  0.027900  0.442840  0.238860  1.0  -0.3383
  N  N2383  1  0.011960  0.293000  0.457100  1.0  -0.3314
  N  N2384  1  0.030980  0.349780  0.329280  1.0  -0.4171
  N  N2385  1  0.025420  0.322700  0.299620  1.0  -0.4513
  N  N2386  1  0.016840  0.295380  0.362760  1.0  -0.5004
  N  N2387  1  0.996080  0.248480  0.302760  1.0  -0.3182
  N  N2388  1  0.033020  0.281860  0.220620  1.0  -0.3716
  N  N2389  1  0.045730  0.204050  0.256450  1.0  -0.3325
  N  N2390  1  0.107190  0.078710  0.267670  1.0  -0.429
  N  N2391  1  0.695310  0.530150  0.255570  1.0  -0.4765
  N  N2392  1  0.790400  0.238860  0.442840  1.0  -0.3371
  N  N2393  1  0.737940  0.457100  0.293000  1.0  -0.3311
  N  N2394  1  0.789960  0.329280  0.349780  1.0  -0.4186
  N  N2395  1  0.852260  0.299620  0.322700  1.0  -0.4441
  N  N2396  1  0.825020  0.362760  0.295380  1.0  -0.5015
  N  N2397  1  0.952680  0.302760  0.248480  1.0  -0.3159
  N  N2398  1  0.964500  0.220620  0.281860  1.0  -0.3719
  N  N2399  1  0.993770  0.256450  0.204050  1.0  -0.3357
  N  N2400  1  0.046430  0.267670  0.078710  1.0  -0.4309
  N  N2401  1  0.755570  0.030150  0.195310  1.0  -0.4748
  N  N2402  1  0.942840  0.738860  0.290400  1.0  -0.3352
  N  N2403  1  0.793000  0.957100  0.237940  1.0  -0.3311
  N  N2404  1  0.849780  0.829280  0.289960  1.0  -0.4184
  N  N2405  1  0.822700  0.799620  0.352260  1.0  -0.4463
  N  N2406  1  0.795380  0.862760  0.325020  1.0  -0.501
  N  N2407  1  0.748480  0.802760  0.452680  1.0  -0.3177
  N  N2408  1  0.781860  0.720620  0.464500  1.0  -0.3678
  N  N2409  1  0.704050  0.756450  0.493770  1.0  -0.3323
  N  N2410  1  0.578710  0.767670  0.546430  1.0  -0.4314
  N  N2411  1  0.030150  0.755570  0.518970  1.0  -0.4783
  N  N2412  1  0.738860  0.942840  0.527900  1.0  -0.3374
  N  N2413  1  0.957100  0.793000  0.511960  1.0  -0.3306
  N  N2414  1  0.829280  0.849780  0.530980  1.0  -0.4177
  N  N2415  1  0.799620  0.822700  0.525420  1.0  -0.4475
  N  N2416  1  0.862760  0.795380  0.516840  1.0  -0.5003
  N  N2417  1  0.802760  0.748480  0.496080  1.0  -0.3162
  N  N2418  1  0.720620  0.781860  0.533020  1.0  -0.3673
  N  N2419  1  0.756450  0.704050  0.545730  1.0  -0.334
  N  N2420  1  0.767670  0.578710  0.607190  1.0  -0.4308
  N  N2421  1  0.195310  0.518970  0.755570  1.0  -0.4785
  N  N2422  1  0.290400  0.527900  0.942840  1.0  -0.3356
  N  N2423  1  0.237940  0.511960  0.793000  1.0  -0.3338
  N  N2424  1  0.289960  0.530980  0.849780  1.0  -0.4188
  N  N2425  1  0.352260  0.525420  0.822700  1.0  -0.4494
  N  N2426  1  0.325020  0.516840  0.795380  1.0  -0.5057
  N  N2427  1  0.452680  0.496080  0.748480  1.0  -0.3155
  N  N2428  1  0.464500  0.533020  0.781860  1.0  -0.3692
  N  N2429  1  0.493770  0.545730  0.704050  1.0  -0.3348
  N  N2430  1  0.546430  0.607190  0.578710  1.0  -0.4289
  N  N2431  1  0.518970  0.195310  0.030150  1.0  -0.4801
  N  N2432  1  0.527900  0.290400  0.738860  1.0  -0.3375
  N  N2433  1  0.511960  0.237940  0.957100  1.0  -0.3335
  N  N2434  1  0.530980  0.289960  0.829280  1.0  -0.4192
  N  N2435  1  0.525420  0.352260  0.799620  1.0  -0.4474
  N  N2436  1  0.516840  0.325020  0.862760  1.0  -0.5034
  N  N2437  1  0.496080  0.452680  0.802760  1.0  -0.3167
  N  N2438  1  0.533020  0.464500  0.720620  1.0  -0.3669
  N  N2439  1  0.545730  0.493770  0.756450  1.0  -0.3332
  N  N2440  1  0.607190  0.546430  0.767670  1.0  -0.4275
  N  N2441  1  0.195310  0.755570  0.030150  1.0  -0.4777
  N  N2442  1  0.290400  0.942840  0.738860  1.0  -0.337
  N  N2443  1  0.237940  0.793000  0.957100  1.0  -0.3342
  N  N2444  1  0.289960  0.849780  0.829280  1.0  -0.419
  N  N2445  1  0.352260  0.822700  0.799620  1.0  -0.4503
  N  N2446  1  0.325020  0.795380  0.862760  1.0  -0.5009
  N  N2447  1  0.452680  0.748480  0.802760  1.0  -0.3154
  N  N2448  1  0.464500  0.781860  0.720620  1.0  -0.3689
  N  N2449  1  0.493770  0.704050  0.756450  1.0  -0.3328
  N  N2450  1  0.546430  0.578710  0.767670  1.0  -0.4308
  N  N2451  1  0.518970  0.030150  0.755570  1.0  -0.4771
  N  N2452  1  0.527900  0.738860  0.942840  1.0  -0.339
  N  N2453  1  0.511960  0.957100  0.793000  1.0  -0.3351
  N  N2454  1  0.530980  0.829280  0.849780  1.0  -0.4181
  N  N2455  1  0.525420  0.799620  0.822700  1.0  -0.4472
  N  N2456  1  0.516840  0.862760  0.795380  1.0  -0.5033
  N  N2457  1  0.496080  0.802760  0.748480  1.0  -0.3171
  N  N2458  1  0.533020  0.720620  0.781860  1.0  -0.3666
  N  N2459  1  0.545730  0.756450  0.704050  1.0  -0.3319
  N  N2460  1  0.607190  0.767670  0.578710  1.0  -0.429
  N  N2461  1  0.755570  0.195310  0.518970  1.0  -0.4794
  N  N2462  1  0.942840  0.290400  0.527900  1.0  -0.3381
  N  N2463  1  0.793000  0.237940  0.511960  1.0  -0.3316
  N  N2464  1  0.849780  0.289960  0.530980  1.0  -0.4177
  N  N2465  1  0.822700  0.352260  0.525420  1.0  -0.4467
  N  N2466  1  0.795380  0.325020  0.516840  1.0  -0.5052
  N  N2467  1  0.748480  0.452680  0.496080  1.0  -0.3144
  N  N2468  1  0.781860  0.464500  0.533020  1.0  -0.3662
  N  N2469  1  0.704050  0.493770  0.545730  1.0  -0.3312
  N  N2470  1  0.578710  0.546430  0.607190  1.0  -0.4284
  N  N2471  1  0.030150  0.518970  0.195310  1.0  -0.4786
  N  N2472  1  0.738860  0.527900  0.290400  1.0  -0.3401
  N  N2473  1  0.957100  0.511960  0.237940  1.0  -0.332
  N  N2474  1  0.829280  0.530980  0.289960  1.0  -0.4192
  N  N2475  1  0.799620  0.525420  0.352260  1.0  -0.4473
  N  N2476  1  0.862760  0.516840  0.325020  1.0  -0.5026
  N  N2477  1  0.802760  0.496080  0.452680  1.0  -0.3154
  N  N2478  1  0.720620  0.533020  0.464500  1.0  -0.3683
  N  N2479  1  0.756450  0.545730  0.493770  1.0  -0.3331
  N  N2480  1  0.767670  0.607190  0.546430  1.0  -0.4284
  N  N2481  1  0.030150  0.195310  0.755570  1.0  -0.4793
  N  N2482  1  0.738860  0.290400  0.942840  1.0  -0.3408
  N  N2483  1  0.957100  0.237940  0.793000  1.0  -0.3307
  N  N2484  1  0.829280  0.289960  0.849780  1.0  -0.4171
  N  N2485  1  0.799620  0.352260  0.822700  1.0  -0.4452
  N  N2486  1  0.862760  0.325020  0.795380  1.0  -0.5034
  N  N2487  1  0.802760  0.452680  0.748480  1.0  -0.3167
  N  N2488  1  0.720620  0.464500  0.781860  1.0  -0.3706
  N  N2489  1  0.756450  0.493770  0.704050  1.0  -0.3365
  N  N2490  1  0.767670  0.546430  0.578710  1.0  -0.4291
  N  N2491  1  0.755570  0.518970  0.030150  1.0  -0.4753
  N  N2492  1  0.942840  0.527900  0.738860  1.0  -0.3366
  N  N2493  1  0.793000  0.511960  0.957100  1.0  -0.3308
  N  N2494  1  0.849780  0.530980  0.829280  1.0  -0.418
  N  N2495  1  0.822700  0.525420  0.799620  1.0  -0.4514
  N  N2496  1  0.795380  0.516840  0.862760  1.0  -0.5043
  N  N2497  1  0.748480  0.496080  0.802760  1.0  -0.3184
  N  N2498  1  0.781860  0.533020  0.720620  1.0  -0.3711
  N  N2499  1  0.704050  0.545730  0.756450  1.0  -0.3337
  N  N2500  1  0.578710  0.607190  0.767670  1.0  -0.4289
  N  N2501  1  0.518970  0.755570  0.195310  1.0  -0.4785
  N  N2502  1  0.527900  0.942840  0.290400  1.0  -0.3386
  N  N2503  1  0.511960  0.793000  0.237940  1.0  -0.3311
  N  N2504  1  0.530980  0.849780  0.289960  1.0  -0.4173
  N  N2505  1  0.525420  0.822700  0.352260  1.0  -0.451
  N  N2506  1  0.516840  0.795380  0.325020  1.0  -0.5013
  N  N2507  1  0.496080  0.748480  0.452680  1.0  -0.3187
  N  N2508  1  0.533020  0.781860  0.464500  1.0  -0.3721
  N  N2509  1  0.545730  0.704050  0.493770  1.0  -0.3329
  N  N2510  1  0.607190  0.578710  0.546430  1.0  -0.4298
  N  N2511  1  0.195310  0.030150  0.518970  1.0  -0.4766
  N  N2512  1  0.290400  0.738860  0.527900  1.0  -0.3358
  N  N2513  1  0.237940  0.957100  0.511960  1.0  -0.3311
  N  N2514  1  0.289960  0.829280  0.530980  1.0  -0.4183
  N  N2515  1  0.352260  0.799620  0.525420  1.0  -0.4442
  N  N2516  1  0.325020  0.862760  0.516840  1.0  -0.5011
  N  N2517  1  0.452680  0.802760  0.496080  1.0  -0.3159
  N  N2518  1  0.464500  0.720620  0.533020  1.0  -0.3722
  N  N2519  1  0.493770  0.756450  0.545730  1.0  -0.3361
  N  N2520  1  0.546430  0.767670  0.607190  1.0  -0.4305
  N  N2521  1  0.744430  0.469850  0.981030  1.0  -0.4744
  N  N2522  1  0.557160  0.761140  0.972100  1.0  -0.3341
  N  N2523  1  0.707000  0.542900  0.988040  1.0  -0.3308
  N  N2524  1  0.650220  0.670720  0.969020  1.0  -0.4179
  N  N2525  1  0.677300  0.700380  0.974580  1.0  -0.4463
  N  N2526  1  0.704620  0.637240  0.983160  1.0  -0.5013
  N  N2527  1  0.751520  0.697240  0.003920  1.0  -0.3178
  N  N2528  1  0.718140  0.779380  0.966980  1.0  -0.3674
  N  N2529  1  0.795950  0.743550  0.954270  1.0  -0.3321
  N  N2530  1  0.921290  0.732330  0.892810  1.0  -0.4312
  N  N2531  1  0.469850  0.744430  0.304690  1.0  -0.4796
  N  N2532  1  0.761140  0.557160  0.209600  1.0  -0.3373
  N  N2533  1  0.542900  0.707000  0.262060  1.0  -0.331
  N  N2534  1  0.670720  0.650220  0.210040  1.0  -0.4173
  N  N2535  1  0.700380  0.677300  0.147740  1.0  -0.449
  N  N2536  1  0.637240  0.704620  0.174980  1.0  -0.5015
  N  N2537  1  0.697240  0.751520  0.047320  1.0  -0.3154
  N  N2538  1  0.779380  0.718140  0.035500  1.0  -0.3652
  N  N2539  1  0.743550  0.795950  0.006230  1.0  -0.3347
  N  N2540  1  0.732330  0.921290  0.953570  1.0  -0.4309
  N  N2541  1  0.304690  0.981030  0.469850  1.0  -0.4791
  N  N2542  1  0.209600  0.972100  0.761140  1.0  -0.336
  N  N2543  1  0.262060  0.988040  0.542900  1.0  -0.3331
  N  N2544  1  0.210040  0.969020  0.670720  1.0  -0.4187
  N  N2545  1  0.147740  0.974580  0.700380  1.0  -0.447
  N  N2546  1  0.174980  0.983160  0.637240  1.0  -0.5053
  N  N2547  1  0.047320  0.003920  0.697240  1.0  -0.3166
  N  N2548  1  0.035500  0.966980  0.779380  1.0  -0.3673
  N  N2549  1  0.006230  0.954270  0.743550  1.0  -0.3349
  N  N2550  1  0.953570  0.892810  0.732330  1.0  -0.4278
  N  N2551  1  0.981030  0.304690  0.744430  1.0  -0.4791
  N  N2552  1  0.972100  0.209600  0.557160  1.0  -0.3385
  N  N2553  1  0.988040  0.262060  0.707000  1.0  -0.3337
  N  N2554  1  0.969020  0.210040  0.650220  1.0  -0.4183
  N  N2555  1  0.974580  0.147740  0.677300  1.0  -0.4475
  N  N2556  1  0.983160  0.174980  0.704620  1.0  -0.504
  N  N2557  1  0.003920  0.047320  0.751520  1.0  -0.3168
  N  N2558  1  0.966980  0.035500  0.718140  1.0  -0.3677
  N  N2559  1  0.954270  0.006230  0.795950  1.0  -0.3337
  N  N2560  1  0.892810  0.953570  0.921290  1.0  -0.4282
  N  N2561  1  0.304690  0.744430  0.981030  1.0  -0.4793
  N  N2562  1  0.209600  0.557160  0.972100  1.0  -0.3377
  N  N2563  1  0.262060  0.707000  0.988040  1.0  -0.3343
  N  N2564  1  0.210040  0.650220  0.969020  1.0  -0.4191
  N  N2565  1  0.147740  0.677300  0.974580  1.0  -0.4478
  N  N2566  1  0.174980  0.704620  0.983160  1.0  -0.5028
  N  N2567  1  0.047320  0.751520  0.003920  1.0  -0.3162
  N  N2568  1  0.035500  0.718140  0.966980  1.0  -0.3683
  N  N2569  1  0.006230  0.795950  0.954270  1.0  -0.3335
  N  N2570  1  0.953570  0.921290  0.892810  1.0  -0.4299
  N  N2571  1  0.981030  0.469850  0.304690  1.0  -0.4794
  N  N2572  1  0.972100  0.761140  0.209600  1.0  -0.3392
  N  N2573  1  0.988040  0.542900  0.262060  1.0  -0.3354
  N  N2574  1  0.969020  0.670720  0.210040  1.0  -0.4177
  N  N2575  1  0.974580  0.700380  0.147740  1.0  -0.4469
  N  N2576  1  0.983160  0.637240  0.174980  1.0  -0.5034
  N  N2577  1  0.003920  0.697240  0.047320  1.0  -0.3161
  N  N2578  1  0.966980  0.779380  0.035500  1.0  -0.3681
  N  N2579  1  0.954270  0.743550  0.006230  1.0  -0.332
  N  N2580  1  0.892810  0.732330  0.953570  1.0  -0.43
  N  N2581  1  0.744430  0.304690  0.469850  1.0  -0.4772
  N  N2582  1  0.557160  0.209600  0.761140  1.0  -0.3374
  N  N2583  1  0.707000  0.262060  0.542900  1.0  -0.3324
  N  N2584  1  0.650220  0.210040  0.670720  1.0  -0.4183
  N  N2585  1  0.677300  0.147740  0.700380  1.0  -0.4469
  N  N2586  1  0.704620  0.174980  0.637240  1.0  -0.5051
  N  N2587  1  0.751520  0.047320  0.697240  1.0  -0.3162
  N  N2588  1  0.718140  0.035500  0.779380  1.0  -0.3672
  N  N2589  1  0.795950  0.006230  0.743550  1.0  -0.3328
  N  N2590  1  0.921290  0.953570  0.732330  1.0  -0.4286
  N  N2591  1  0.469850  0.981030  0.744430  1.0  -0.4777
  N  N2592  1  0.761140  0.972100  0.557160  1.0  -0.3387
  N  N2593  1  0.542900  0.988040  0.707000  1.0  -0.3319
  N  N2594  1  0.670720  0.969020  0.650220  1.0  -0.4197
  N  N2595  1  0.700380  0.974580  0.677300  1.0  -0.4487
  N  N2596  1  0.637240  0.983160  0.704620  1.0  -0.5049
  N  N2597  1  0.697240  0.003920  0.751520  1.0  -0.3144
  N  N2598  1  0.779380  0.966980  0.718140  1.0  -0.3678
  N  N2599  1  0.743550  0.954270  0.795950  1.0  -0.3322
  N  N2600  1  0.732330  0.892810  0.921290  1.0  -0.429
  N  N2601  1  0.469850  0.304690  0.981030  1.0  -0.4771
  N  N2602  1  0.761140  0.209600  0.972100  1.0  -0.3407
  N  N2603  1  0.542900  0.262060  0.988040  1.0  -0.3305
  N  N2604  1  0.670720  0.210040  0.969020  1.0  -0.4173
  N  N2605  1  0.700380  0.147740  0.974580  1.0  -0.447
  N  N2606  1  0.637240  0.174980  0.983160  1.0  -0.5051
  N  N2607  1  0.697240  0.047320  0.003920  1.0  -0.3165
  N  N2608  1  0.779380  0.035500  0.966980  1.0  -0.3721
  N  N2609  1  0.743550  0.006230  0.954270  1.0  -0.3351
  N  N2610  1  0.732330  0.953570  0.892810  1.0  -0.4293
  N  N2611  1  0.744430  0.981030  0.304690  1.0  -0.4741
  N  N2612  1  0.557160  0.972100  0.209600  1.0  -0.3361
  N  N2613  1  0.707000  0.988040  0.262060  1.0  -0.3313
  N  N2614  1  0.650220  0.969020  0.210040  1.0  -0.4183
  N  N2615  1  0.677300  0.974580  0.147740  1.0  -0.451
  N  N2616  1  0.704620  0.983160  0.174980  1.0  -0.5042
  N  N2617  1  0.751520  0.003920  0.047320  1.0  -0.3179
  N  N2618  1  0.718140  0.966980  0.035500  1.0  -0.3719
  N  N2619  1  0.795950  0.954270  0.006230  1.0  -0.3331
  N  N2620  1  0.921290  0.892810  0.953570  1.0  -0.4285
  N  N2621  1  0.981030  0.744430  0.469850  1.0  -0.4776
  N  N2622  1  0.972100  0.557160  0.761140  1.0  -0.3395
  N  N2623  1  0.988040  0.707000  0.542900  1.0  -0.3305
  N  N2624  1  0.969020  0.650220  0.670720  1.0  -0.4175
  N  N2625  1  0.974580  0.677300  0.700380  1.0  -0.4505
  N  N2626  1  0.983160  0.704620  0.637240  1.0  -0.5022
  N  N2627  1  0.003920  0.751520  0.697240  1.0  -0.318
  N  N2628  1  0.966980  0.718140  0.779380  1.0  -0.3706
  N  N2629  1  0.954270  0.795950  0.743550  1.0  -0.3326
  N  N2630  1  0.892810  0.921290  0.732330  1.0  -0.4306
  N  N2631  1  0.304690  0.469850  0.744430  1.0  -0.4786
  N  N2632  1  0.209600  0.761140  0.557160  1.0  -0.3376
  N  N2633  1  0.262060  0.542900  0.707000  1.0  -0.331
  N  N2634  1  0.210040  0.670720  0.650220  1.0  -0.4186
  N  N2635  1  0.147740  0.700380  0.677300  1.0  -0.4449
  N  N2636  1  0.174980  0.637240  0.704620  1.0  -0.5012
  N  N2637  1  0.047320  0.697240  0.751520  1.0  -0.3163
  N  N2638  1  0.035500  0.779380  0.718140  1.0  -0.3722
  N  N2639  1  0.006230  0.743550  0.795950  1.0  -0.3349
  N  N2640  1  0.953570  0.732330  0.921290  1.0  -0.4294
