# generated using pymatgen
data_CoH16C26(SN5)2
_symmetry_space_group_name_H-M   'P 1'
_cell_length_a   63.89700000
_cell_length_b   63.89700000
_cell_length_c   63.89700000
_cell_angle_alpha   90.00000000
_cell_angle_beta   90.00000000
_cell_angle_gamma   90.00000000
_symmetry_Int_Tables_number   1
_chemical_formula_structural   CoH16C26(SN5)2
_chemical_formula_sum   'Co192 H3072 C4992 S384 N1920'
_cell_volume   260880.37183527
_cell_formula_units_Z   192
loop_
 _symmetry_equiv_pos_site_id
 _symmetry_equiv_pos_as_xyz
  1  'x, y, z'
loop_
 _atom_site_type_symbol
 _atom_site_label
 _atom_site_symmetry_multiplicity
 _atom_site_fract_x
 _atom_site_fract_y
 _atom_site_fract_z
 _atom_site_occupancy
 _atom_site_charge
  Co  Co1  1  0.369520  0.119520  0.000000  1.0  0.6746
  Co  Co2  1  0.369520  0.619520  0.500000  1.0  0.6746
  Co  Co3  1  0.869520  0.619520  0.000000  1.0  0.6746
  Co  Co4  1  0.880480  0.630480  0.500000  1.0  0.6752
  Co  Co5  1  0.880480  0.130480  0.000000  1.0  0.6752
  Co  Co6  1  0.380480  0.630480  0.000000  1.0  0.6752
  Co  Co7  1  0.380480  0.619520  0.250000  1.0  0.6749
  Co  Co8  1  0.380480  0.119520  0.750000  1.0  0.6749
  Co  Co9  1  0.869520  0.130480  0.750000  1.0  0.6748
  Co  Co10  1  0.869520  0.630480  0.250000  1.0  0.6748
  Co  Co11  1  0.000000  0.369520  0.119520  1.0  0.6746
  Co  Co12  1  0.000000  0.869520  0.619520  1.0  0.6746
  Co  Co13  1  0.500000  0.369520  0.619520  1.0  0.6746
  Co  Co14  1  0.500000  0.880480  0.630480  1.0  0.6752
  Co  Co15  1  0.000000  0.880480  0.130480  1.0  0.6752
  Co  Co16  1  0.000000  0.380480  0.630480  1.0  0.6752
  Co  Co17  1  0.250000  0.380480  0.619520  1.0  0.6748
  Co  Co18  1  0.750000  0.380480  0.119520  1.0  0.6748
  Co  Co19  1  0.750000  0.869520  0.130480  1.0  0.675
  Co  Co20  1  0.250000  0.869520  0.630480  1.0  0.675
  Co  Co21  1  0.119520  0.000000  0.369520  1.0  0.6749
  Co  Co22  1  0.119520  0.500000  0.869520  1.0  0.6749
  Co  Co23  1  0.619520  0.000000  0.869520  1.0  0.6749
  Co  Co24  1  0.630480  0.500000  0.880480  1.0  0.6755
  Co  Co25  1  0.630480  0.000000  0.380480  1.0  0.6755
  Co  Co26  1  0.619520  0.250000  0.380480  1.0  0.6752
  Co  Co27  1  0.619520  0.750000  0.880480  1.0  0.6752
  Co  Co28  1  0.119520  0.750000  0.380480  1.0  0.6752
  Co  Co29  1  0.130480  0.750000  0.869520  1.0  0.6752
  Co  Co30  1  0.130480  0.250000  0.369520  1.0  0.6752
  Co  Co31  1  0.869520  0.119520  0.500000  1.0  0.6746
  Co  Co32  1  0.380480  0.130480  0.500000  1.0  0.6752
  Co  Co33  1  0.369520  0.630480  0.750000  1.0  0.6748
  Co  Co34  1  0.369520  0.130480  0.250000  1.0  0.6748
  Co  Co35  1  0.880480  0.119520  0.250000  1.0  0.6749
  Co  Co36  1  0.880480  0.619520  0.750000  1.0  0.6749
  Co  Co37  1  0.119520  0.250000  0.880480  1.0  0.6752
  Co  Co38  1  0.630480  0.750000  0.369520  1.0  0.6752
  Co  Co39  1  0.630480  0.250000  0.869520  1.0  0.6752
  Co  Co40  1  0.130480  0.500000  0.380480  1.0  0.6755
  Co  Co41  1  0.130480  0.000000  0.880480  1.0  0.6755
  Co  Co42  1  0.619520  0.500000  0.369520  1.0  0.6749
  Co  Co43  1  0.750000  0.369520  0.630480  1.0  0.675
  Co  Co44  1  0.250000  0.369520  0.130480  1.0  0.675
  Co  Co45  1  0.250000  0.880480  0.119520  1.0  0.6748
  Co  Co46  1  0.750000  0.880480  0.619520  1.0  0.6748
  Co  Co47  1  0.500000  0.869520  0.119520  1.0  0.6746
  Co  Co48  1  0.500000  0.380480  0.130480  1.0  0.6752
  Co  Co49  1  0.630480  0.880480  0.000000  1.0  0.6752
  Co  Co50  1  0.630480  0.380480  0.500000  1.0  0.6752
  Co  Co51  1  0.130480  0.380480  0.000000  1.0  0.6752
  Co  Co52  1  0.119520  0.369520  0.500000  1.0  0.6746
  Co  Co53  1  0.119520  0.869520  0.000000  1.0  0.6746
  Co  Co54  1  0.619520  0.380480  0.750000  1.0  0.6748
  Co  Co55  1  0.619520  0.880480  0.250000  1.0  0.6748
  Co  Co56  1  0.130480  0.869520  0.250000  1.0  0.6749
  Co  Co57  1  0.130480  0.369520  0.750000  1.0  0.6749
  Co  Co58  1  0.630480  0.869520  0.750000  1.0  0.6749
  Co  Co59  1  0.000000  0.630480  0.880480  1.0  0.6752
  Co  Co60  1  0.000000  0.130480  0.380480  1.0  0.6752
  Co  Co61  1  0.500000  0.630480  0.380480  1.0  0.6752
  Co  Co62  1  0.500000  0.119520  0.369520  1.0  0.6746
  Co  Co63  1  0.000000  0.119520  0.869520  1.0  0.6746
  Co  Co64  1  0.750000  0.619520  0.380480  1.0  0.675
  Co  Co65  1  0.250000  0.619520  0.880480  1.0  0.675
  Co  Co66  1  0.250000  0.130480  0.869520  1.0  0.6748
  Co  Co67  1  0.750000  0.130480  0.369520  1.0  0.6748
  Co  Co68  1  0.750000  0.630480  0.869520  1.0  0.6748
  Co  Co69  1  0.880480  0.000000  0.630480  1.0  0.6755
  Co  Co70  1  0.880480  0.500000  0.130480  1.0  0.6755
  Co  Co71  1  0.380480  0.000000  0.130480  1.0  0.6755
  Co  Co72  1  0.369520  0.500000  0.119520  1.0  0.6749
  Co  Co73  1  0.369520  0.000000  0.619520  1.0  0.6749
  Co  Co74  1  0.869520  0.000000  0.119520  1.0  0.6749
  Co  Co75  1  0.380480  0.750000  0.619520  1.0  0.6752
  Co  Co76  1  0.380480  0.250000  0.119520  1.0  0.6752
  Co  Co77  1  0.869520  0.250000  0.130480  1.0  0.6752
  Co  Co78  1  0.869520  0.750000  0.630480  1.0  0.6752
  Co  Co79  1  0.130480  0.880480  0.500000  1.0  0.6752
  Co  Co80  1  0.619520  0.869520  0.500000  1.0  0.6746
  Co  Co81  1  0.619520  0.369520  0.000000  1.0  0.6746
  Co  Co82  1  0.630480  0.369520  0.250000  1.0  0.6749
  Co  Co83  1  0.119520  0.880480  0.750000  1.0  0.6748
  Co  Co84  1  0.119520  0.380480  0.250000  1.0  0.6748
  Co  Co85  1  0.880480  0.750000  0.119520  1.0  0.6752
  Co  Co86  1  0.880480  0.250000  0.619520  1.0  0.6752
  Co  Co87  1  0.369520  0.250000  0.630480  1.0  0.6752
  Co  Co88  1  0.369520  0.750000  0.130480  1.0  0.6752
  Co  Co89  1  0.869520  0.500000  0.619520  1.0  0.6749
  Co  Co90  1  0.380480  0.500000  0.630480  1.0  0.6755
  Co  Co91  1  0.250000  0.630480  0.369520  1.0  0.6748
  Co  Co92  1  0.750000  0.119520  0.880480  1.0  0.675
  Co  Co93  1  0.250000  0.119520  0.380480  1.0  0.675
  Co  Co94  1  0.500000  0.130480  0.880480  1.0  0.6752
  Co  Co95  1  0.500000  0.619520  0.869520  1.0  0.6746
  Co  Co96  1  0.000000  0.619520  0.369520  1.0  0.6746
  Co  Co97  1  0.497810  0.125000  0.125000  1.0  0.5932
  Co  Co98  1  0.497810  0.625000  0.625000  1.0  0.5932
  Co  Co99  1  0.997810  0.125000  0.625000  1.0  0.5932
  Co  Co100  1  0.752190  0.625000  0.625000  1.0  0.592
  Co  Co101  1  0.752190  0.125000  0.125000  1.0  0.592
  Co  Co102  1  0.252190  0.125000  0.625000  1.0  0.592
  Co  Co103  1  0.252190  0.625000  0.125000  1.0  0.592
  Co  Co104  1  0.997810  0.625000  0.125000  1.0  0.5932
  Co  Co105  1  0.125000  0.497810  0.125000  1.0  0.5935
  Co  Co106  1  0.125000  0.997810  0.625000  1.0  0.5935
  Co  Co107  1  0.625000  0.997810  0.125000  1.0  0.5935
  Co  Co108  1  0.625000  0.752190  0.625000  1.0  0.5935
  Co  Co109  1  0.625000  0.252190  0.125000  1.0  0.5935
  Co  Co110  1  0.125000  0.252190  0.625000  1.0  0.5935
  Co  Co111  1  0.125000  0.752190  0.125000  1.0  0.5935
  Co  Co112  1  0.625000  0.497810  0.625000  1.0  0.5935
  Co  Co113  1  0.125000  0.125000  0.497810  1.0  0.5937
  Co  Co114  1  0.125000  0.625000  0.997810  1.0  0.5937
  Co  Co115  1  0.625000  0.125000  0.997810  1.0  0.5937
  Co  Co116  1  0.625000  0.625000  0.752190  1.0  0.594
  Co  Co117  1  0.125000  0.625000  0.252190  1.0  0.594
  Co  Co118  1  0.625000  0.125000  0.252190  1.0  0.594
  Co  Co119  1  0.125000  0.125000  0.752190  1.0  0.594
  Co  Co120  1  0.625000  0.625000  0.497810  1.0  0.5937
  Co  Co121  1  0.875000  0.747810  0.875000  1.0  0.5935
  Co  Co122  1  0.375000  0.747810  0.375000  1.0  0.5935
  Co  Co123  1  0.375000  0.002190  0.375000  1.0  0.5935
  Co  Co124  1  0.875000  0.002190  0.875000  1.0  0.5935
  Co  Co125  1  0.375000  0.502190  0.875000  1.0  0.5935
  Co  Co126  1  0.875000  0.502190  0.375000  1.0  0.5935
  Co  Co127  1  0.875000  0.247810  0.375000  1.0  0.5935
  Co  Co128  1  0.375000  0.247810  0.875000  1.0  0.5935
  Co  Co129  1  0.247810  0.375000  0.875000  1.0  0.5932
  Co  Co130  1  0.247810  0.875000  0.375000  1.0  0.5932
  Co  Co131  1  0.502190  0.875000  0.375000  1.0  0.592
  Co  Co132  1  0.502190  0.375000  0.875000  1.0  0.592
  Co  Co133  1  0.002190  0.875000  0.875000  1.0  0.592
  Co  Co134  1  0.002190  0.375000  0.375000  1.0  0.592
  Co  Co135  1  0.747810  0.875000  0.875000  1.0  0.5932
  Co  Co136  1  0.747810  0.375000  0.375000  1.0  0.5932
  Co  Co137  1  0.875000  0.375000  0.502190  1.0  0.594
  Co  Co138  1  0.875000  0.875000  0.002190  1.0  0.594
  Co  Co139  1  0.375000  0.875000  0.247810  1.0  0.5937
  Co  Co140  1  0.375000  0.375000  0.747810  1.0  0.5937
  Co  Co141  1  0.875000  0.875000  0.747810  1.0  0.5937
  Co  Co142  1  0.875000  0.375000  0.247810  1.0  0.5937
  Co  Co143  1  0.375000  0.375000  0.002190  1.0  0.594
  Co  Co144  1  0.375000  0.875000  0.502190  1.0  0.594
  Co  Co145  1  0.502190  0.875000  0.875000  1.0  0.592
  Co  Co146  1  0.502190  0.375000  0.375000  1.0  0.592
  Co  Co147  1  0.247810  0.375000  0.375000  1.0  0.5932
  Co  Co148  1  0.247810  0.875000  0.875000  1.0  0.5932
  Co  Co149  1  0.747810  0.375000  0.875000  1.0  0.5932
  Co  Co150  1  0.747810  0.875000  0.375000  1.0  0.5932
  Co  Co151  1  0.002190  0.875000  0.375000  1.0  0.592
  Co  Co152  1  0.002190  0.375000  0.875000  1.0  0.592
  Co  Co153  1  0.875000  0.502190  0.875000  1.0  0.5935
  Co  Co154  1  0.875000  0.002190  0.375000  1.0  0.5935
  Co  Co155  1  0.375000  0.247810  0.375000  1.0  0.5935
  Co  Co156  1  0.375000  0.747810  0.875000  1.0  0.5935
  Co  Co157  1  0.875000  0.247810  0.875000  1.0  0.5935
  Co  Co158  1  0.875000  0.747810  0.375000  1.0  0.5935
  Co  Co159  1  0.375000  0.002190  0.875000  1.0  0.5935
  Co  Co160  1  0.375000  0.502190  0.375000  1.0  0.5935
  Co  Co161  1  0.875000  0.875000  0.502190  1.0  0.594
  Co  Co162  1  0.375000  0.875000  0.002190  1.0  0.594
  Co  Co163  1  0.375000  0.375000  0.247810  1.0  0.5937
  Co  Co164  1  0.875000  0.375000  0.747810  1.0  0.5937
  Co  Co165  1  0.875000  0.875000  0.247810  1.0  0.5937
  Co  Co166  1  0.375000  0.875000  0.747810  1.0  0.5937
  Co  Co167  1  0.875000  0.375000  0.002190  1.0  0.594
  Co  Co168  1  0.375000  0.375000  0.502190  1.0  0.594
  Co  Co169  1  0.125000  0.252190  0.125000  1.0  0.5935
  Co  Co170  1  0.625000  0.252190  0.625000  1.0  0.5935
  Co  Co171  1  0.625000  0.997810  0.625000  1.0  0.5935
  Co  Co172  1  0.125000  0.997810  0.125000  1.0  0.5935
  Co  Co173  1  0.625000  0.497810  0.125000  1.0  0.5935
  Co  Co174  1  0.125000  0.497810  0.625000  1.0  0.5935
  Co  Co175  1  0.125000  0.752190  0.625000  1.0  0.5935
  Co  Co176  1  0.625000  0.752190  0.125000  1.0  0.5935
  Co  Co177  1  0.752190  0.625000  0.125000  1.0  0.592
  Co  Co178  1  0.752190  0.125000  0.625000  1.0  0.592
  Co  Co179  1  0.252190  0.625000  0.625000  1.0  0.592
  Co  Co180  1  0.497810  0.125000  0.625000  1.0  0.5932
  Co  Co181  1  0.497810  0.625000  0.125000  1.0  0.5932
  Co  Co182  1  0.997810  0.625000  0.625000  1.0  0.5932
  Co  Co183  1  0.997810  0.125000  0.125000  1.0  0.5932
  Co  Co184  1  0.252190  0.125000  0.125000  1.0  0.592
  Co  Co185  1  0.125000  0.625000  0.497810  1.0  0.5937
  Co  Co186  1  0.125000  0.125000  0.997810  1.0  0.5937
  Co  Co187  1  0.625000  0.625000  0.997810  1.0  0.5937
  Co  Co188  1  0.625000  0.125000  0.752190  1.0  0.594
  Co  Co189  1  0.625000  0.625000  0.252190  1.0  0.594
  Co  Co190  1  0.125000  0.125000  0.252190  1.0  0.594
  Co  Co191  1  0.125000  0.625000  0.752190  1.0  0.594
  Co  Co192  1  0.625000  0.125000  0.497810  1.0  0.5937
  H  H193  1  0.398300  0.215400  0.094000  1.0  0.0729
  H  H194  1  0.459600  0.204000  0.103400  1.0  0.1191
  H  H195  1  0.460200  0.232900  0.126100  1.0  0.1196
  H  H196  1  0.429600  0.251500  0.132300  1.0  0.0803
  H  H197  1  0.347700  0.163600  0.005300  1.0  0.0903
  H  H198  1  0.348900  0.193000  0.026900  1.0  0.1207
  H  H199  1  0.376500  0.197200  0.050200  1.0  0.1149
  H  H200  1  0.398300  0.140800  0.031800  1.0  0.09
  H  H201  1  0.462800  0.149300  0.104400  1.0  0.0802
  H  H202  1  0.438800  0.118500  0.054300  1.0  0.1175
  H  H203  1  0.460300  0.090000  0.063400  1.0  0.1208
  H  H204  1  0.482500  0.092600  0.091800  1.0  0.0952
  H  H205  1  0.507300  0.100700  0.165900  1.0  0.0879
  H  H206  1  0.526600  0.102700  0.195900  1.0  0.1215
  H  H207  1  0.553700  0.127800  0.198600  1.0  0.1196
  H  H208  1  0.536700  0.148900  0.141400  1.0  0.0832
  H  H209  1  0.398300  0.715400  0.594000  1.0  0.0729
  H  H210  1  0.459600  0.704000  0.603400  1.0  0.1197
  H  H211  1  0.460200  0.732900  0.626100  1.0  0.1196
  H  H212  1  0.429600  0.751500  0.632300  1.0  0.0803
  H  H213  1  0.347700  0.663600  0.505300  1.0  0.0903
  H  H214  1  0.348900  0.693000  0.526900  1.0  0.1207
  H  H215  1  0.376500  0.697200  0.550200  1.0  0.1149
  H  H216  1  0.398300  0.640800  0.531800  1.0  0.09
  H  H217  1  0.462800  0.649300  0.604400  1.0  0.0802
  H  H218  1  0.438800  0.618500  0.554300  1.0  0.1175
  H  H219  1  0.460300  0.590000  0.563400  1.0  0.1208
  H  H220  1  0.482500  0.592600  0.591800  1.0  0.0952
  H  H221  1  0.507300  0.600700  0.665900  1.0  0.0879
  H  H222  1  0.526600  0.602700  0.695900  1.0  0.1215
  H  H223  1  0.553700  0.627800  0.698600  1.0  0.1196
  H  H224  1  0.536700  0.648900  0.641400  1.0  0.0832
  H  H225  1  0.898300  0.215400  0.594000  1.0  0.0729
  H  H226  1  0.959600  0.204000  0.603400  1.0  0.1197
  H  H227  1  0.960200  0.232900  0.626100  1.0  0.1196
  H  H228  1  0.929600  0.251500  0.632300  1.0  0.0803
  H  H229  1  0.847700  0.163600  0.505300  1.0  0.0903
  H  H230  1  0.848900  0.193000  0.526900  1.0  0.1207
  H  H231  1  0.876500  0.197200  0.550200  1.0  0.1149
  H  H232  1  0.898300  0.140800  0.531800  1.0  0.09
  H  H233  1  0.962800  0.149300  0.604400  1.0  0.0802
  H  H234  1  0.938800  0.118500  0.554300  1.0  0.1175
  H  H235  1  0.960300  0.090000  0.563400  1.0  0.1208
  H  H236  1  0.982500  0.092600  0.591800  1.0  0.0952
  H  H237  1  0.007300  0.100700  0.665900  1.0  0.0879
  H  H238  1  0.026600  0.102700  0.695900  1.0  0.123
  H  H239  1  0.053700  0.127800  0.698600  1.0  0.1196
  H  H240  1  0.036700  0.148900  0.641400  1.0  0.0832
  H  H241  1  0.898300  0.715400  0.094000  1.0  0.0729
  H  H242  1  0.959600  0.704000  0.103400  1.0  0.1191
  H  H243  1  0.960200  0.732900  0.126100  1.0  0.1196
  H  H244  1  0.929600  0.751500  0.132300  1.0  0.0803
  H  H245  1  0.847700  0.663600  0.005300  1.0  0.0903
  H  H246  1  0.848900  0.693000  0.026900  1.0  0.1207
  H  H247  1  0.876500  0.697200  0.050200  1.0  0.1149
  H  H248  1  0.898300  0.640800  0.031800  1.0  0.09
  H  H249  1  0.962800  0.649300  0.104400  1.0  0.0802
  H  H250  1  0.938800  0.618500  0.054300  1.0  0.1175
  H  H251  1  0.960300  0.590000  0.063400  1.0  0.1211
  H  H252  1  0.982500  0.592600  0.091800  1.0  0.0952
  H  H253  1  0.007300  0.600700  0.165900  1.0  0.0879
  H  H254  1  0.026600  0.602700  0.195900  1.0  0.1215
  H  H255  1  0.053700  0.627800  0.198600  1.0  0.1196
  H  H256  1  0.036700  0.648900  0.141400  1.0  0.0832
  H  H257  1  0.851700  0.534600  0.594000  1.0  0.0729
  H  H258  1  0.790400  0.546000  0.603400  1.0  0.1198
  H  H259  1  0.789800  0.517100  0.626100  1.0  0.1199
  H  H260  1  0.820400  0.498500  0.632300  1.0  0.0822
  H  H261  1  0.902300  0.586400  0.505300  1.0  0.0911
  H  H262  1  0.901100  0.557000  0.526900  1.0  0.1212
  H  H263  1  0.873500  0.552800  0.550200  1.0  0.1149
  H  H264  1  0.851700  0.609200  0.531800  1.0  0.0895
  H  H265  1  0.787200  0.600700  0.604400  1.0  0.0802
  H  H266  1  0.811200  0.631500  0.554300  1.0  0.1174
  H  H267  1  0.789700  0.660000  0.563400  1.0  0.1205
  H  H268  1  0.767500  0.657400  0.591800  1.0  0.0942
  H  H269  1  0.742700  0.649300  0.665900  1.0  0.0885
  H  H270  1  0.723400  0.647300  0.695900  1.0  0.1217
  H  H271  1  0.696300  0.622200  0.698600  1.0  0.1192
  H  H272  1  0.713300  0.601100  0.641400  1.0  0.0827
  H  H273  1  0.851700  0.034600  0.094000  1.0  0.0729
  H  H274  1  0.790400  0.046000  0.103400  1.0  0.1191
  H  H275  1  0.789800  0.017100  0.126100  1.0  0.1199
  H  H276  1  0.820400  0.998500  0.132300  1.0  0.0822
  H  H277  1  0.902300  0.086400  0.005300  1.0  0.0911
  H  H278  1  0.901100  0.057000  0.026900  1.0  0.1212
  H  H279  1  0.873500  0.052800  0.050200  1.0  0.1149
  H  H280  1  0.851700  0.109200  0.031800  1.0  0.0895
  H  H281  1  0.787200  0.100700  0.104400  1.0  0.0802
  H  H282  1  0.811200  0.131500  0.054300  1.0  0.1174
  H  H283  1  0.789700  0.160000  0.063400  1.0  0.1205
  H  H284  1  0.767500  0.157400  0.091800  1.0  0.0942
  H  H285  1  0.742700  0.149300  0.165900  1.0  0.0885
  H  H286  1  0.723400  0.147300  0.195900  1.0  0.1217
  H  H287  1  0.696300  0.122200  0.198600  1.0  0.1192
  H  H288  1  0.713300  0.101100  0.141400  1.0  0.0827
  H  H289  1  0.351700  0.534600  0.094000  1.0  0.0729
  H  H290  1  0.290400  0.546000  0.103400  1.0  0.1191
  H  H291  1  0.289800  0.517100  0.126100  1.0  0.1199
  H  H292  1  0.320400  0.498500  0.132300  1.0  0.0822
  H  H293  1  0.402300  0.586400  0.005300  1.0  0.0911
  H  H294  1  0.401100  0.557000  0.026900  1.0  0.1212
  H  H295  1  0.373500  0.552800  0.050200  1.0  0.1149
  H  H296  1  0.351700  0.609200  0.031800  1.0  0.0895
  H  H297  1  0.287200  0.600700  0.104400  1.0  0.0802
  H  H298  1  0.311200  0.631500  0.054300  1.0  0.1174
  H  H299  1  0.289700  0.660000  0.063400  1.0  0.1205
  H  H300  1  0.267500  0.657400  0.091800  1.0  0.0942
  H  H301  1  0.242700  0.649300  0.165900  1.0  0.0885
  H  H302  1  0.223400  0.647300  0.195900  1.0  0.1217
  H  H303  1  0.196300  0.622200  0.198600  1.0  0.1192
  H  H304  1  0.213300  0.601100  0.141400  1.0  0.0827
  H  H305  1  0.351700  0.034600  0.594000  1.0  0.0729
  H  H306  1  0.290400  0.046000  0.603400  1.0  0.1198
  H  H307  1  0.289800  0.017100  0.626100  1.0  0.1199
  H  H308  1  0.320400  0.998500  0.632300  1.0  0.0822
  H  H309  1  0.402300  0.086400  0.505300  1.0  0.0911
  H  H310  1  0.401100  0.057000  0.526900  1.0  0.1212
  H  H311  1  0.373500  0.052800  0.550200  1.0  0.1149
  H  H312  1  0.351700  0.109200  0.531800  1.0  0.0895
  H  H313  1  0.287200  0.100700  0.604400  1.0  0.0802
  H  H314  1  0.311200  0.131500  0.554300  1.0  0.1174
  H  H315  1  0.289700  0.160000  0.563400  1.0  0.1205
  H  H316  1  0.267500  0.157400  0.591800  1.0  0.0942
  H  H317  1  0.242700  0.149300  0.665900  1.0  0.0885
  H  H318  1  0.223400  0.147300  0.695900  1.0  0.1217
  H  H319  1  0.196300  0.122200  0.698600  1.0  0.1192
  H  H320  1  0.213300  0.101100  0.641400  1.0  0.0827
  H  H321  1  0.351700  0.715400  0.156000  1.0  0.0731
  H  H322  1  0.290400  0.704000  0.146600  1.0  0.1197
  H  H323  1  0.289800  0.732900  0.123900  1.0  0.1194
  H  H324  1  0.320400  0.751500  0.117700  1.0  0.0809
  H  H325  1  0.402300  0.663600  0.244700  1.0  0.0907
  H  H326  1  0.401100  0.693000  0.223100  1.0  0.1203
  H  H327  1  0.373500  0.697200  0.199800  1.0  0.1156
  H  H328  1  0.351700  0.640800  0.218200  1.0  0.0898
  H  H329  1  0.287200  0.649300  0.145600  1.0  0.0808
  H  H330  1  0.311200  0.618500  0.195700  1.0  0.1181
  H  H331  1  0.289700  0.590000  0.186600  1.0  0.122
  H  H332  1  0.267500  0.592600  0.158200  1.0  0.0946
  H  H333  1  0.242700  0.600700  0.084100  1.0  0.0883
  H  H334  1  0.223400  0.602700  0.054100  1.0  0.1209
  H  H335  1  0.196300  0.627800  0.051400  1.0  0.1193
  H  H336  1  0.213300  0.648900  0.108600  1.0  0.0829
  H  H337  1  0.351700  0.215400  0.656000  1.0  0.0731
  H  H338  1  0.290400  0.204000  0.646600  1.0  0.1197
  H  H339  1  0.289800  0.232900  0.623900  1.0  0.1194
  H  H340  1  0.320400  0.251500  0.617700  1.0  0.0809
  H  H341  1  0.402300  0.163600  0.744700  1.0  0.0907
  H  H342  1  0.401100  0.193000  0.723100  1.0  0.1203
  H  H343  1  0.373500  0.197200  0.699800  1.0  0.1156
  H  H344  1  0.351700  0.140800  0.718200  1.0  0.0898
  H  H345  1  0.287200  0.149300  0.645600  1.0  0.0808
  H  H346  1  0.311200  0.118500  0.695700  1.0  0.1181
  H  H347  1  0.289700  0.090000  0.686600  1.0  0.122
  H  H348  1  0.267500  0.092600  0.658200  1.0  0.0946
  H  H349  1  0.242700  0.100700  0.584100  1.0  0.0883
  H  H350  1  0.223400  0.102700  0.554100  1.0  0.1207
  H  H351  1  0.196300  0.127800  0.551400  1.0  0.1193
  H  H352  1  0.213300  0.148900  0.608600  1.0  0.0829
  H  H353  1  0.851700  0.715400  0.656000  1.0  0.0731
  H  H354  1  0.790400  0.704000  0.646600  1.0  0.1197
  H  H355  1  0.789800  0.732900  0.623900  1.0  0.1194
  H  H356  1  0.820400  0.751500  0.617700  1.0  0.0809
  H  H357  1  0.902300  0.663600  0.744700  1.0  0.0907
  H  H358  1  0.901100  0.693000  0.723100  1.0  0.1203
  H  H359  1  0.873500  0.697200  0.699800  1.0  0.1156
  H  H360  1  0.851700  0.640800  0.718200  1.0  0.0898
  H  H361  1  0.787200  0.649300  0.645600  1.0  0.0808
  H  H362  1  0.811200  0.618500  0.695700  1.0  0.1181
  H  H363  1  0.789700  0.590000  0.686600  1.0  0.122
  H  H364  1  0.767500  0.592600  0.658200  1.0  0.0946
  H  H365  1  0.742700  0.600700  0.584100  1.0  0.0883
  H  H366  1  0.723400  0.602700  0.554100  1.0  0.1207
  H  H367  1  0.696300  0.627800  0.551400  1.0  0.1193
  H  H368  1  0.713300  0.648900  0.608600  1.0  0.0829
  H  H369  1  0.851700  0.215400  0.156000  1.0  0.0731
  H  H370  1  0.790400  0.204000  0.146600  1.0  0.1197
  H  H371  1  0.789800  0.232900  0.123900  1.0  0.1194
  H  H372  1  0.820400  0.251500  0.117700  1.0  0.0809
  H  H373  1  0.902300  0.163600  0.244700  1.0  0.0907
  H  H374  1  0.901100  0.193000  0.223100  1.0  0.1203
  H  H375  1  0.873500  0.197200  0.199800  1.0  0.1156
  H  H376  1  0.851700  0.140800  0.218200  1.0  0.0898
  H  H377  1  0.787200  0.149300  0.145600  1.0  0.0808
  H  H378  1  0.811200  0.118500  0.195700  1.0  0.1181
  H  H379  1  0.789700  0.090000  0.186600  1.0  0.122
  H  H380  1  0.767500  0.092600  0.158200  1.0  0.0946
  H  H381  1  0.742700  0.100700  0.084100  1.0  0.0883
  H  H382  1  0.723400  0.102700  0.054100  1.0  0.1224
  H  H383  1  0.696300  0.127800  0.051400  1.0  0.1193
  H  H384  1  0.713300  0.148900  0.108600  1.0  0.0829
  H  H385  1  0.898300  0.034600  0.656000  1.0  0.073
  H  H386  1  0.959600  0.046000  0.646600  1.0  0.1195
  H  H387  1  0.960200  0.017100  0.623900  1.0  0.1195
  H  H388  1  0.929600  0.998500  0.617700  1.0  0.0811
  H  H389  1  0.847700  0.086400  0.744700  1.0  0.091
  H  H390  1  0.848900  0.057000  0.723100  1.0  0.1205
  H  H391  1  0.876500  0.052800  0.699800  1.0  0.1149
  H  H392  1  0.898300  0.109200  0.718200  1.0  0.0895
  H  H393  1  0.962800  0.100700  0.645600  1.0  0.0801
  H  H394  1  0.938800  0.131500  0.695700  1.0  0.1179
  H  H395  1  0.960300  0.160000  0.686600  1.0  0.1201
  H  H396  1  0.982500  0.157400  0.658200  1.0  0.0939
  H  H397  1  0.007300  0.149300  0.584100  1.0  0.0887
  H  H398  1  0.026600  0.147300  0.554100  1.0  0.1214
  H  H399  1  0.053700  0.122200  0.551400  1.0  0.1195
  H  H400  1  0.036700  0.101100  0.608600  1.0  0.083
  H  H401  1  0.898300  0.534600  0.156000  1.0  0.073
  H  H402  1  0.959600  0.546000  0.146600  1.0  0.1195
  H  H403  1  0.960200  0.517100  0.123900  1.0  0.1195
  H  H404  1  0.929600  0.498500  0.117700  1.0  0.0811
  H  H405  1  0.847700  0.586400  0.244700  1.0  0.091
  H  H406  1  0.848900  0.557000  0.223100  1.0  0.1205
  H  H407  1  0.876500  0.552800  0.199800  1.0  0.1149
  H  H408  1  0.898300  0.609200  0.218200  1.0  0.0895
  H  H409  1  0.962800  0.600700  0.145600  1.0  0.0801
  H  H410  1  0.938800  0.631500  0.195700  1.0  0.1179
  H  H411  1  0.960300  0.660000  0.186600  1.0  0.1201
  H  H412  1  0.982500  0.657400  0.158200  1.0  0.0939
  H  H413  1  0.007300  0.649300  0.084100  1.0  0.0887
  H  H414  1  0.026600  0.647300  0.054100  1.0  0.123
  H  H415  1  0.053700  0.622200  0.051400  1.0  0.1195
  H  H416  1  0.036700  0.601100  0.108600  1.0  0.083
  H  H417  1  0.398300  0.034600  0.156000  1.0  0.073
  H  H418  1  0.459600  0.046000  0.146600  1.0  0.1195
  H  H419  1  0.460200  0.017100  0.123900  1.0  0.1195
  H  H420  1  0.429600  0.998500  0.117700  1.0  0.0811
  H  H421  1  0.347700  0.086400  0.244700  1.0  0.091
  H  H422  1  0.348900  0.057000  0.223100  1.0  0.1205
  H  H423  1  0.376500  0.052800  0.199800  1.0  0.1149
  H  H424  1  0.398300  0.109200  0.218200  1.0  0.0895
  H  H425  1  0.462800  0.100700  0.145600  1.0  0.0801
  H  H426  1  0.438800  0.131500  0.195700  1.0  0.1179
  H  H427  1  0.460300  0.160000  0.186600  1.0  0.1201
  H  H428  1  0.482500  0.157400  0.158200  1.0  0.0939
  H  H429  1  0.507300  0.149300  0.084100  1.0  0.0887
  H  H430  1  0.526600  0.147300  0.054100  1.0  0.1213
  H  H431  1  0.553700  0.122200  0.051400  1.0  0.1195
  H  H432  1  0.536700  0.101100  0.108600  1.0  0.083
  H  H433  1  0.398300  0.534600  0.656000  1.0  0.073
  H  H434  1  0.459600  0.546000  0.646600  1.0  0.1195
  H  H435  1  0.460200  0.517100  0.623900  1.0  0.1195
  H  H436  1  0.429600  0.498500  0.617700  1.0  0.0811
  H  H437  1  0.347700  0.586400  0.744700  1.0  0.091
  H  H438  1  0.348900  0.557000  0.723100  1.0  0.1205
  H  H439  1  0.376500  0.552800  0.699800  1.0  0.1149
  H  H440  1  0.398300  0.609200  0.718200  1.0  0.0895
  H  H441  1  0.462800  0.600700  0.645600  1.0  0.0801
  H  H442  1  0.438800  0.631500  0.695700  1.0  0.1179
  H  H443  1  0.460300  0.660000  0.686600  1.0  0.1201
  H  H444  1  0.482500  0.657400  0.658200  1.0  0.0939
  H  H445  1  0.507300  0.649300  0.584100  1.0  0.0887
  H  H446  1  0.526600  0.647300  0.554100  1.0  0.1214
  H  H447  1  0.553700  0.622200  0.551400  1.0  0.1195
  H  H448  1  0.536700  0.601100  0.608600  1.0  0.083
  H  H449  1  0.094000  0.398300  0.215400  1.0  0.0744
  H  H450  1  0.103400  0.459600  0.204000  1.0  0.1191
  H  H451  1  0.126100  0.460200  0.232900  1.0  0.1197
  H  H452  1  0.132300  0.429600  0.251500  1.0  0.0816
  H  H453  1  0.005300  0.347700  0.163600  1.0  0.0935
  H  H454  1  0.026900  0.348900  0.193000  1.0  0.1206
  H  H455  1  0.050200  0.376500  0.197200  1.0  0.1161
  H  H456  1  0.031800  0.398300  0.140800  1.0  0.09
  H  H457  1  0.104400  0.462800  0.149300  1.0  0.0816
  H  H458  1  0.054300  0.438800  0.118500  1.0  0.1165
  H  H459  1  0.063400  0.460300  0.090000  1.0  0.1184
  H  H460  1  0.091800  0.482500  0.092600  1.0  0.0935
  H  H461  1  0.165900  0.507300  0.100700  1.0  0.0873
  H  H462  1  0.195900  0.526600  0.102700  1.0  0.1203
  H  H463  1  0.198600  0.553700  0.127800  1.0  0.1185
  H  H464  1  0.141400  0.536700  0.148900  1.0  0.0817
  H  H465  1  0.094000  0.898300  0.715400  1.0  0.0744
  H  H466  1  0.103400  0.959600  0.704000  1.0  0.1191
  H  H467  1  0.126100  0.960200  0.732900  1.0  0.1197
  H  H468  1  0.132300  0.929600  0.751500  1.0  0.0816
  H  H469  1  0.005300  0.847700  0.663600  1.0  0.0935
  H  H470  1  0.026900  0.848900  0.693000  1.0  0.1206
  H  H471  1  0.050200  0.876500  0.697200  1.0  0.1161
  H  H472  1  0.031800  0.898300  0.640800  1.0  0.09
  H  H473  1  0.104400  0.962800  0.649300  1.0  0.0816
  H  H474  1  0.054300  0.938800  0.618500  1.0  0.1165
  H  H475  1  0.063400  0.960300  0.590000  1.0  0.1186
  H  H476  1  0.091800  0.982500  0.592600  1.0  0.0935
  H  H477  1  0.165900  0.007300  0.600700  1.0  0.0873
  H  H478  1  0.195900  0.026600  0.602700  1.0  0.1203
  H  H479  1  0.198600  0.053700  0.627800  1.0  0.1185
  H  H480  1  0.141400  0.036700  0.648900  1.0  0.0817
  H  H481  1  0.594000  0.398300  0.715400  1.0  0.0744
  H  H482  1  0.603400  0.459600  0.704000  1.0  0.1194
  H  H483  1  0.626100  0.460200  0.732900  1.0  0.1197
  H  H484  1  0.632300  0.429600  0.751500  1.0  0.0816
  H  H485  1  0.505300  0.347700  0.663600  1.0  0.0935
  H  H486  1  0.526900  0.348900  0.693000  1.0  0.1206
  H  H487  1  0.550200  0.376500  0.697200  1.0  0.1161
  H  H488  1  0.531800  0.398300  0.640800  1.0  0.09
  H  H489  1  0.604400  0.462800  0.649300  1.0  0.0816
  H  H490  1  0.554300  0.438800  0.618500  1.0  0.1165
  H  H491  1  0.563400  0.460300  0.590000  1.0  0.1184
  H  H492  1  0.591800  0.482500  0.592600  1.0  0.0935
  H  H493  1  0.665900  0.507300  0.600700  1.0  0.0873
  H  H494  1  0.695900  0.526600  0.602700  1.0  0.1203
  H  H495  1  0.698600  0.553700  0.627800  1.0  0.1185
  H  H496  1  0.641400  0.536700  0.648900  1.0  0.0817
  H  H497  1  0.594000  0.898300  0.215400  1.0  0.0744
  H  H498  1  0.603400  0.959600  0.204000  1.0  0.1194
  H  H499  1  0.626100  0.960200  0.232900  1.0  0.1197
  H  H500  1  0.632300  0.929600  0.251500  1.0  0.0816
  H  H501  1  0.505300  0.847700  0.163600  1.0  0.0935
  H  H502  1  0.526900  0.848900  0.193000  1.0  0.1206
  H  H503  1  0.550200  0.876500  0.197200  1.0  0.1161
  H  H504  1  0.531800  0.898300  0.140800  1.0  0.09
  H  H505  1  0.604400  0.962800  0.149300  1.0  0.0816
  H  H506  1  0.554300  0.938800  0.118500  1.0  0.1165
  H  H507  1  0.563400  0.960300  0.090000  1.0  0.1184
  H  H508  1  0.591800  0.982500  0.092600  1.0  0.0935
  H  H509  1  0.665900  0.007300  0.100700  1.0  0.0873
  H  H510  1  0.695900  0.026600  0.102700  1.0  0.1219
  H  H511  1  0.698600  0.053700  0.127800  1.0  0.1185
  H  H512  1  0.641400  0.036700  0.148900  1.0  0.0817
  H  H513  1  0.594000  0.851700  0.534600  1.0  0.0743
  H  H514  1  0.603400  0.790400  0.546000  1.0  0.1191
  H  H515  1  0.626100  0.789800  0.517100  1.0  0.1202
  H  H516  1  0.632300  0.820400  0.498500  1.0  0.0813
  H  H517  1  0.505300  0.902300  0.586400  1.0  0.094
  H  H518  1  0.526900  0.901100  0.557000  1.0  0.12
  H  H519  1  0.550200  0.873500  0.552800  1.0  0.1156
  H  H520  1  0.531800  0.851700  0.609200  1.0  0.0898
  H  H521  1  0.604400  0.787200  0.600700  1.0  0.0815
  H  H522  1  0.554300  0.811200  0.631500  1.0  0.1172
  H  H523  1  0.563400  0.789700  0.660000  1.0  0.1194
  H  H524  1  0.591800  0.767500  0.657400  1.0  0.0931
  H  H525  1  0.665900  0.742700  0.649300  1.0  0.0867
  H  H526  1  0.695900  0.723400  0.647300  1.0  0.1206
  H  H527  1  0.698600  0.696300  0.622200  1.0  0.1183
  H  H528  1  0.641400  0.713300  0.601100  1.0  0.0817
  H  H529  1  0.594000  0.351700  0.034600  1.0  0.0743
  H  H530  1  0.603400  0.290400  0.046000  1.0  0.1191
  H  H531  1  0.626100  0.289800  0.017100  1.0  0.1202
  H  H532  1  0.632300  0.320400  0.998500  1.0  0.0813
  H  H533  1  0.505300  0.402300  0.086400  1.0  0.094
  H  H534  1  0.526900  0.401100  0.057000  1.0  0.12
  H  H535  1  0.550200  0.373500  0.052800  1.0  0.1156
  H  H536  1  0.531800  0.351700  0.109200  1.0  0.0898
  H  H537  1  0.604400  0.287200  0.100700  1.0  0.0815
  H  H538  1  0.554300  0.311200  0.131500  1.0  0.1172
  H  H539  1  0.563400  0.289700  0.160000  1.0  0.1194
  H  H540  1  0.591800  0.267500  0.157400  1.0  0.0931
  H  H541  1  0.665900  0.242700  0.149300  1.0  0.0867
  H  H542  1  0.695900  0.223400  0.147300  1.0  0.1206
  H  H543  1  0.698600  0.196300  0.122200  1.0  0.1183
  H  H544  1  0.641400  0.213300  0.101100  1.0  0.0817
  H  H545  1  0.094000  0.851700  0.034600  1.0  0.0743
  H  H546  1  0.103400  0.790400  0.046000  1.0  0.1187
  H  H547  1  0.126100  0.789800  0.017100  1.0  0.1202
  H  H548  1  0.132300  0.820400  0.998500  1.0  0.0813
  H  H549  1  0.005300  0.902300  0.086400  1.0  0.094
  H  H550  1  0.026900  0.901100  0.057000  1.0  0.12
  H  H551  1  0.050200  0.873500  0.052800  1.0  0.1156
  H  H552  1  0.031800  0.851700  0.109200  1.0  0.0898
  H  H553  1  0.104400  0.787200  0.100700  1.0  0.0815
  H  H554  1  0.054300  0.811200  0.131500  1.0  0.1172
  H  H555  1  0.063400  0.789700  0.160000  1.0  0.1194
  H  H556  1  0.091800  0.767500  0.157400  1.0  0.0931
  H  H557  1  0.165900  0.742700  0.149300  1.0  0.0867
  H  H558  1  0.195900  0.723400  0.147300  1.0  0.1206
  H  H559  1  0.198600  0.696300  0.122200  1.0  0.1183
  H  H560  1  0.141400  0.713300  0.101100  1.0  0.0817
  H  H561  1  0.094000  0.351700  0.534600  1.0  0.0743
  H  H562  1  0.103400  0.290400  0.546000  1.0  0.1187
  H  H563  1  0.126100  0.289800  0.517100  1.0  0.1202
  H  H564  1  0.132300  0.320400  0.498500  1.0  0.0813
  H  H565  1  0.005300  0.402300  0.586400  1.0  0.094
  H  H566  1  0.026900  0.401100  0.557000  1.0  0.12
  H  H567  1  0.050200  0.373500  0.552800  1.0  0.1156
  H  H568  1  0.031800  0.351700  0.609200  1.0  0.0898
  H  H569  1  0.104400  0.287200  0.600700  1.0  0.0815
  H  H570  1  0.054300  0.311200  0.631500  1.0  0.1172
  H  H571  1  0.063400  0.289700  0.660000  1.0  0.1194
  H  H572  1  0.091800  0.267500  0.657400  1.0  0.0931
  H  H573  1  0.165900  0.242700  0.649300  1.0  0.0867
  H  H574  1  0.195900  0.223400  0.647300  1.0  0.1206
  H  H575  1  0.198600  0.196300  0.622200  1.0  0.1183
  H  H576  1  0.141400  0.213300  0.601100  1.0  0.0817
  H  H577  1  0.156000  0.351700  0.715400  1.0  0.0745
  H  H578  1  0.146600  0.290400  0.704000  1.0  0.1191
  H  H579  1  0.123900  0.289800  0.732900  1.0  0.1199
  H  H580  1  0.117700  0.320400  0.751500  1.0  0.0817
  H  H581  1  0.244700  0.402300  0.663600  1.0  0.0937
  H  H582  1  0.223100  0.401100  0.693000  1.0  0.1203
  H  H583  1  0.199800  0.373500  0.697200  1.0  0.1163
  H  H584  1  0.218200  0.351700  0.640800  1.0  0.09
  H  H585  1  0.145600  0.287200  0.649300  1.0  0.0815
  H  H586  1  0.195700  0.311200  0.618500  1.0  0.1166
  H  H587  1  0.186600  0.289700  0.590000  1.0  0.1192
  H  H588  1  0.158200  0.267500  0.592600  1.0  0.0935
  H  H589  1  0.084100  0.242700  0.600700  1.0  0.0868
  H  H590  1  0.054100  0.223400  0.602700  1.0  0.1204
  H  H591  1  0.051400  0.196300  0.627800  1.0  0.1185
  H  H592  1  0.108600  0.213300  0.648900  1.0  0.0827
  H  H593  1  0.156000  0.851700  0.215400  1.0  0.0745
  H  H594  1  0.146600  0.790400  0.204000  1.0  0.1191
  H  H595  1  0.123900  0.789800  0.232900  1.0  0.1199
  H  H596  1  0.117700  0.820400  0.251500  1.0  0.0817
  H  H597  1  0.244700  0.902300  0.163600  1.0  0.0937
  H  H598  1  0.223100  0.901100  0.193000  1.0  0.1203
  H  H599  1  0.199800  0.873500  0.197200  1.0  0.1163
  H  H600  1  0.218200  0.851700  0.140800  1.0  0.09
  H  H601  1  0.145600  0.787200  0.149300  1.0  0.0815
  H  H602  1  0.195700  0.811200  0.118500  1.0  0.1166
  H  H603  1  0.186600  0.789700  0.090000  1.0  0.1192
  H  H604  1  0.158200  0.767500  0.092600  1.0  0.0935
  H  H605  1  0.084100  0.742700  0.100700  1.0  0.0868
  H  H606  1  0.054100  0.723400  0.102700  1.0  0.1217
  H  H607  1  0.051400  0.696300  0.127800  1.0  0.1185
  H  H608  1  0.108600  0.713300  0.148900  1.0  0.0827
  H  H609  1  0.656000  0.351700  0.215400  1.0  0.0745
  H  H610  1  0.646600  0.290400  0.204000  1.0  0.1191
  H  H611  1  0.623900  0.289800  0.232900  1.0  0.1199
  H  H612  1  0.617700  0.320400  0.251500  1.0  0.0817
  H  H613  1  0.744700  0.402300  0.163600  1.0  0.0937
  H  H614  1  0.723100  0.401100  0.193000  1.0  0.1203
  H  H615  1  0.699800  0.373500  0.197200  1.0  0.1163
  H  H616  1  0.718200  0.351700  0.140800  1.0  0.09
  H  H617  1  0.645600  0.287200  0.149300  1.0  0.0815
  H  H618  1  0.695700  0.311200  0.118500  1.0  0.1166
  H  H619  1  0.686600  0.289700  0.090000  1.0  0.1192
  H  H620  1  0.658200  0.267500  0.092600  1.0  0.0935
  H  H621  1  0.584100  0.242700  0.100700  1.0  0.0868
  H  H622  1  0.554100  0.223400  0.102700  1.0  0.1205
  H  H623  1  0.551400  0.196300  0.127800  1.0  0.1185
  H  H624  1  0.608600  0.213300  0.148900  1.0  0.0827
  H  H625  1  0.656000  0.851700  0.715400  1.0  0.0745
  H  H626  1  0.646600  0.790400  0.704000  1.0  0.1191
  H  H627  1  0.623900  0.789800  0.732900  1.0  0.1199
  H  H628  1  0.617700  0.820400  0.751500  1.0  0.0817
  H  H629  1  0.744700  0.902300  0.663600  1.0  0.0937
  H  H630  1  0.723100  0.901100  0.693000  1.0  0.1203
  H  H631  1  0.699800  0.873500  0.697200  1.0  0.1163
  H  H632  1  0.718200  0.851700  0.640800  1.0  0.09
  H  H633  1  0.645600  0.787200  0.649300  1.0  0.0815
  H  H634  1  0.695700  0.811200  0.618500  1.0  0.1166
  H  H635  1  0.686600  0.789700  0.590000  1.0  0.1192
  H  H636  1  0.658200  0.767500  0.592600  1.0  0.0935
  H  H637  1  0.584100  0.742700  0.600700  1.0  0.0868
  H  H638  1  0.554100  0.723400  0.602700  1.0  0.1205
  H  H639  1  0.551400  0.696300  0.627800  1.0  0.1185
  H  H640  1  0.608600  0.713300  0.648900  1.0  0.0827
  H  H641  1  0.656000  0.898300  0.034600  1.0  0.0743
  H  H642  1  0.646600  0.959600  0.046000  1.0  0.1194
  H  H643  1  0.623900  0.960200  0.017100  1.0  0.1203
  H  H644  1  0.617700  0.929600  0.998500  1.0  0.0814
  H  H645  1  0.744700  0.847700  0.086400  1.0  0.0937
  H  H646  1  0.723100  0.848900  0.057000  1.0  0.1201
  H  H647  1  0.699800  0.876500  0.052800  1.0  0.1159
  H  H648  1  0.718200  0.898300  0.109200  1.0  0.0893
  H  H649  1  0.645600  0.962800  0.100700  1.0  0.0814
  H  H650  1  0.695700  0.938800  0.131500  1.0  0.1168
  H  H651  1  0.686600  0.960300  0.160000  1.0  0.1188
  H  H652  1  0.658200  0.982500  0.157400  1.0  0.0929
  H  H653  1  0.584100  0.007300  0.149300  1.0  0.0882
  H  H654  1  0.554100  0.026600  0.147300  1.0  0.121
  H  H655  1  0.551400  0.053700  0.122200  1.0  0.1185
  H  H656  1  0.608600  0.036700  0.101100  1.0  0.0821
  H  H657  1  0.656000  0.398300  0.534600  1.0  0.0743
  H  H658  1  0.646600  0.459600  0.546000  1.0  0.1194
  H  H659  1  0.623900  0.460200  0.517100  1.0  0.1203
  H  H660  1  0.617700  0.429600  0.498500  1.0  0.0814
  H  H661  1  0.744700  0.347700  0.586400  1.0  0.0937
  H  H662  1  0.723100  0.348900  0.557000  1.0  0.1201
  H  H663  1  0.699800  0.376500  0.552800  1.0  0.1159
  H  H664  1  0.718200  0.398300  0.609200  1.0  0.0893
  H  H665  1  0.645600  0.462800  0.600700  1.0  0.0814
  H  H666  1  0.695700  0.438800  0.631500  1.0  0.1168
  H  H667  1  0.686600  0.460300  0.660000  1.0  0.1188
  H  H668  1  0.658200  0.482500  0.657400  1.0  0.0929
  H  H669  1  0.584100  0.507300  0.649300  1.0  0.0882
  H  H670  1  0.554100  0.526600  0.647300  1.0  0.121
  H  H671  1  0.551400  0.553700  0.622200  1.0  0.1185
  H  H672  1  0.608600  0.536700  0.601100  1.0  0.0821
  H  H673  1  0.156000  0.898300  0.534600  1.0  0.0743
  H  H674  1  0.146600  0.959600  0.546000  1.0  0.1194
  H  H675  1  0.123900  0.960200  0.517100  1.0  0.1203
  H  H676  1  0.117700  0.929600  0.498500  1.0  0.0814
  H  H677  1  0.244700  0.847700  0.586400  1.0  0.0937
  H  H678  1  0.223100  0.848900  0.557000  1.0  0.1201
  H  H679  1  0.199800  0.876500  0.552800  1.0  0.1159
  H  H680  1  0.218200  0.898300  0.609200  1.0  0.0893
  H  H681  1  0.145600  0.962800  0.600700  1.0  0.0814
  H  H682  1  0.195700  0.938800  0.631500  1.0  0.1168
  H  H683  1  0.186600  0.960300  0.660000  1.0  0.1188
  H  H684  1  0.158200  0.982500  0.657400  1.0  0.0929
  H  H685  1  0.084100  0.007300  0.649300  1.0  0.0882
  H  H686  1  0.054100  0.026600  0.647300  1.0  0.1224
  H  H687  1  0.051400  0.053700  0.622200  1.0  0.1185
  H  H688  1  0.108600  0.036700  0.601100  1.0  0.0821
  H  H689  1  0.156000  0.398300  0.034600  1.0  0.0743
  H  H690  1  0.146600  0.459600  0.046000  1.0  0.1194
  H  H691  1  0.123900  0.460200  0.017100  1.0  0.1203
  H  H692  1  0.117700  0.429600  0.998500  1.0  0.0814
  H  H693  1  0.244700  0.347700  0.086400  1.0  0.0937
  H  H694  1  0.223100  0.348900  0.057000  1.0  0.1201
  H  H695  1  0.199800  0.376500  0.052800  1.0  0.1159
  H  H696  1  0.218200  0.398300  0.109200  1.0  0.0893
  H  H697  1  0.145600  0.462800  0.100700  1.0  0.0814
  H  H698  1  0.195700  0.438800  0.131500  1.0  0.1168
  H  H699  1  0.186600  0.460300  0.160000  1.0  0.1188
  H  H700  1  0.158200  0.482500  0.157400  1.0  0.0929
  H  H701  1  0.084100  0.507300  0.149300  1.0  0.0882
  H  H702  1  0.054100  0.526600  0.147300  1.0  0.1208
  H  H703  1  0.051400  0.553700  0.122200  1.0  0.1185
  H  H704  1  0.108600  0.536700  0.101100  1.0  0.0821
  H  H705  1  0.215400  0.094000  0.398300  1.0  0.0742
  H  H706  1  0.204000  0.103400  0.459600  1.0  0.1196
  H  H707  1  0.232900  0.126100  0.460200  1.0  0.119
  H  H708  1  0.251500  0.132300  0.429600  1.0  0.0813
  H  H709  1  0.163600  0.005300  0.347700  1.0  0.0912
  H  H710  1  0.193000  0.026900  0.348900  1.0  0.1193
  H  H711  1  0.197200  0.050200  0.376500  1.0  0.1155
  H  H712  1  0.140800  0.031800  0.398300  1.0  0.0901
  H  H713  1  0.149300  0.104400  0.462800  1.0  0.0808
  H  H714  1  0.118500  0.054300  0.438800  1.0  0.116
  H  H715  1  0.090000  0.063400  0.460300  1.0  0.1203
  H  H716  1  0.092600  0.091800  0.482500  1.0  0.0914
  H  H717  1  0.100700  0.165900  0.507300  1.0  0.087
  H  H718  1  0.102700  0.195900  0.526600  1.0  0.122
  H  H719  1  0.127800  0.198600  0.553700  1.0  0.1177
  H  H720  1  0.148900  0.141400  0.536700  1.0  0.0825
  H  H721  1  0.215400  0.594000  0.898300  1.0  0.0742
  H  H722  1  0.204000  0.603400  0.959600  1.0  0.1202
  H  H723  1  0.232900  0.626100  0.960200  1.0  0.119
  H  H724  1  0.251500  0.632300  0.929600  1.0  0.0813
  H  H725  1  0.163600  0.505300  0.847700  1.0  0.0912
  H  H726  1  0.193000  0.526900  0.848900  1.0  0.1193
  H  H727  1  0.197200  0.550200  0.876500  1.0  0.1155
  H  H728  1  0.140800  0.531800  0.898300  1.0  0.0901
  H  H729  1  0.149300  0.604400  0.962800  1.0  0.0808
  H  H730  1  0.118500  0.554300  0.938800  1.0  0.116
  H  H731  1  0.090000  0.563400  0.960300  1.0  0.1203
  H  H732  1  0.092600  0.591800  0.982500  1.0  0.0914
  H  H733  1  0.100700  0.665900  0.007300  1.0  0.087
  H  H734  1  0.102700  0.695900  0.026600  1.0  0.1234
  H  H735  1  0.127800  0.698600  0.053700  1.0  0.1177
  H  H736  1  0.148900  0.641400  0.036700  1.0  0.0825
  H  H737  1  0.715400  0.094000  0.898300  1.0  0.0742
  H  H738  1  0.704000  0.103400  0.959600  1.0  0.1196
  H  H739  1  0.732900  0.126100  0.960200  1.0  0.119
  H  H740  1  0.751500  0.132300  0.929600  1.0  0.0813
  H  H741  1  0.663600  0.005300  0.847700  1.0  0.0912
  H  H742  1  0.693000  0.026900  0.848900  1.0  0.1193
  H  H743  1  0.697200  0.050200  0.876500  1.0  0.1155
  H  H744  1  0.640800  0.031800  0.898300  1.0  0.0901
  H  H745  1  0.649300  0.104400  0.962800  1.0  0.0808
  H  H746  1  0.618500  0.054300  0.938800  1.0  0.116
  H  H747  1  0.590000  0.063400  0.960300  1.0  0.1206
  H  H748  1  0.592600  0.091800  0.982500  1.0  0.0914
  H  H749  1  0.600700  0.165900  0.007300  1.0  0.087
  H  H750  1  0.602700  0.195900  0.026600  1.0  0.122
  H  H751  1  0.627800  0.198600  0.053700  1.0  0.1177
  H  H752  1  0.648900  0.141400  0.036700  1.0  0.0825
  H  H753  1  0.715400  0.594000  0.398300  1.0  0.0742
  H  H754  1  0.704000  0.603400  0.459600  1.0  0.1202
  H  H755  1  0.732900  0.626100  0.460200  1.0  0.119
  H  H756  1  0.751500  0.632300  0.429600  1.0  0.0813
  H  H757  1  0.663600  0.505300  0.347700  1.0  0.0912
  H  H758  1  0.693000  0.526900  0.348900  1.0  0.1193
  H  H759  1  0.697200  0.550200  0.376500  1.0  0.1155
  H  H760  1  0.640800  0.531800  0.398300  1.0  0.0901
  H  H761  1  0.649300  0.604400  0.462800  1.0  0.0808
  H  H762  1  0.618500  0.554300  0.438800  1.0  0.116
  H  H763  1  0.590000  0.563400  0.460300  1.0  0.1203
  H  H764  1  0.592600  0.591800  0.482500  1.0  0.0914
  H  H765  1  0.600700  0.665900  0.507300  1.0  0.087
  H  H766  1  0.602700  0.695900  0.526600  1.0  0.122
  H  H767  1  0.627800  0.698600  0.553700  1.0  0.1177
  H  H768  1  0.648900  0.641400  0.536700  1.0  0.0825
  H  H769  1  0.534600  0.594000  0.851700  1.0  0.0744
  H  H770  1  0.546000  0.603400  0.790400  1.0  0.1199
  H  H771  1  0.517100  0.626100  0.789800  1.0  0.1185
  H  H772  1  0.498500  0.632300  0.820400  1.0  0.0816
  H  H773  1  0.586400  0.505300  0.902300  1.0  0.0918
  H  H774  1  0.557000  0.526900  0.901100  1.0  0.1194
  H  H775  1  0.552800  0.550200  0.873500  1.0  0.1156
  H  H776  1  0.609200  0.531800  0.851700  1.0  0.0898
  H  H777  1  0.600700  0.604400  0.787200  1.0  0.0805
  H  H778  1  0.631500  0.554300  0.811200  1.0  0.116
  H  H779  1  0.660000  0.563400  0.789700  1.0  0.1204
  H  H780  1  0.657400  0.591800  0.767500  1.0  0.0908
  H  H781  1  0.649300  0.665900  0.742700  1.0  0.0874
  H  H782  1  0.647300  0.695900  0.723400  1.0  0.1214
  H  H783  1  0.622200  0.698600  0.696300  1.0  0.1183
  H  H784  1  0.601100  0.641400  0.713300  1.0  0.0817
  H  H785  1  0.534600  0.094000  0.351700  1.0  0.0744
  H  H786  1  0.546000  0.103400  0.290400  1.0  0.1195
  H  H787  1  0.517100  0.126100  0.289800  1.0  0.1185
  H  H788  1  0.498500  0.132300  0.320400  1.0  0.0816
  H  H789  1  0.586400  0.005300  0.402300  1.0  0.0918
  H  H790  1  0.557000  0.026900  0.401100  1.0  0.1194
  H  H791  1  0.552800  0.050200  0.373500  1.0  0.1156
  H  H792  1  0.609200  0.031800  0.351700  1.0  0.0898
  H  H793  1  0.600700  0.104400  0.287200  1.0  0.0805
  H  H794  1  0.631500  0.054300  0.311200  1.0  0.116
  H  H795  1  0.660000  0.063400  0.289700  1.0  0.1204
  H  H796  1  0.657400  0.091800  0.267500  1.0  0.0908
  H  H797  1  0.649300  0.165900  0.242700  1.0  0.0874
  H  H798  1  0.647300  0.195900  0.223400  1.0  0.1214
  H  H799  1  0.622200  0.198600  0.196300  1.0  0.1183
  H  H800  1  0.601100  0.141400  0.213300  1.0  0.0817
  H  H801  1  0.034600  0.594000  0.351700  1.0  0.0744
  H  H802  1  0.046000  0.603400  0.290400  1.0  0.1199
  H  H803  1  0.017100  0.626100  0.289800  1.0  0.1185
  H  H804  1  0.998500  0.632300  0.320400  1.0  0.0816
  H  H805  1  0.086400  0.505300  0.402300  1.0  0.0918
  H  H806  1  0.057000  0.526900  0.401100  1.0  0.1194
  H  H807  1  0.052800  0.550200  0.373500  1.0  0.1156
  H  H808  1  0.109200  0.531800  0.351700  1.0  0.0898
  H  H809  1  0.100700  0.604400  0.287200  1.0  0.0805
  H  H810  1  0.131500  0.554300  0.311200  1.0  0.116
  H  H811  1  0.160000  0.563400  0.289700  1.0  0.1204
  H  H812  1  0.157400  0.591800  0.267500  1.0  0.0908
  H  H813  1  0.149300  0.665900  0.242700  1.0  0.0874
  H  H814  1  0.147300  0.695900  0.223400  1.0  0.1214
  H  H815  1  0.122200  0.698600  0.196300  1.0  0.1183
  H  H816  1  0.101100  0.641400  0.213300  1.0  0.0817
  H  H817  1  0.034600  0.094000  0.851700  1.0  0.0744
  H  H818  1  0.046000  0.103400  0.790400  1.0  0.1195
  H  H819  1  0.017100  0.126100  0.789800  1.0  0.1185
  H  H820  1  0.998500  0.132300  0.820400  1.0  0.0816
  H  H821  1  0.086400  0.005300  0.902300  1.0  0.0918
  H  H822  1  0.057000  0.026900  0.901100  1.0  0.1194
  H  H823  1  0.052800  0.050200  0.873500  1.0  0.1156
  H  H824  1  0.109200  0.031800  0.851700  1.0  0.0898
  H  H825  1  0.100700  0.104400  0.787200  1.0  0.0805
  H  H826  1  0.131500  0.054300  0.811200  1.0  0.116
  H  H827  1  0.160000  0.063400  0.789700  1.0  0.1204
  H  H828  1  0.157400  0.091800  0.767500  1.0  0.0908
  H  H829  1  0.149300  0.165900  0.742700  1.0  0.0874
  H  H830  1  0.147300  0.195900  0.723400  1.0  0.1214
  H  H831  1  0.122200  0.198600  0.696300  1.0  0.1183
  H  H832  1  0.101100  0.141400  0.713300  1.0  0.0817
  H  H833  1  0.715400  0.156000  0.351700  1.0  0.0738
  H  H834  1  0.704000  0.146600  0.290400  1.0  0.1199
  H  H835  1  0.732900  0.123900  0.289800  1.0  0.1184
  H  H836  1  0.751500  0.117700  0.320400  1.0  0.0819
  H  H837  1  0.663600  0.244700  0.402300  1.0  0.0912
  H  H838  1  0.693000  0.223100  0.401100  1.0  0.1194
  H  H839  1  0.697200  0.199800  0.373500  1.0  0.1156
  H  H840  1  0.640800  0.218200  0.351700  1.0  0.0898
  H  H841  1  0.649300  0.145600  0.287200  1.0  0.0806
  H  H842  1  0.618500  0.195700  0.311200  1.0  0.1159
  H  H843  1  0.590000  0.186600  0.289700  1.0  0.1201
  H  H844  1  0.592600  0.158200  0.267500  1.0  0.0911
  H  H845  1  0.600700  0.084100  0.242700  1.0  0.0867
  H  H846  1  0.602700  0.054100  0.223400  1.0  0.1218
  H  H847  1  0.627800  0.051400  0.196300  1.0  0.1181
  H  H848  1  0.648900  0.108600  0.213300  1.0  0.0824
  H  H849  1  0.715400  0.656000  0.851700  1.0  0.0738
  H  H850  1  0.704000  0.646600  0.790400  1.0  0.1199
  H  H851  1  0.732900  0.623900  0.789800  1.0  0.1184
  H  H852  1  0.751500  0.617700  0.820400  1.0  0.0819
  H  H853  1  0.663600  0.744700  0.902300  1.0  0.0912
  H  H854  1  0.693000  0.723100  0.901100  1.0  0.1194
  H  H855  1  0.697200  0.699800  0.873500  1.0  0.1156
  H  H856  1  0.640800  0.718200  0.851700  1.0  0.0898
  H  H857  1  0.649300  0.645600  0.787200  1.0  0.0806
  H  H858  1  0.618500  0.695700  0.811200  1.0  0.1159
  H  H859  1  0.590000  0.686600  0.789700  1.0  0.1201
  H  H860  1  0.592600  0.658200  0.767500  1.0  0.0911
  H  H861  1  0.600700  0.584100  0.742700  1.0  0.0867
  H  H862  1  0.602700  0.554100  0.723400  1.0  0.122
  H  H863  1  0.627800  0.551400  0.696300  1.0  0.1181
  H  H864  1  0.648900  0.608600  0.713300  1.0  0.0824
  H  H865  1  0.215400  0.156000  0.851700  1.0  0.0738
  H  H866  1  0.204000  0.146600  0.790400  1.0  0.1199
  H  H867  1  0.232900  0.123900  0.789800  1.0  0.1184
  H  H868  1  0.251500  0.117700  0.820400  1.0  0.0819
  H  H869  1  0.163600  0.244700  0.902300  1.0  0.0912
  H  H870  1  0.193000  0.223100  0.901100  1.0  0.1194
  H  H871  1  0.197200  0.199800  0.873500  1.0  0.1156
  H  H872  1  0.140800  0.218200  0.851700  1.0  0.0898
  H  H873  1  0.149300  0.145600  0.787200  1.0  0.0806
  H  H874  1  0.118500  0.195700  0.811200  1.0  0.1159
  H  H875  1  0.090000  0.186600  0.789700  1.0  0.1201
  H  H876  1  0.092600  0.158200  0.767500  1.0  0.0911
  H  H877  1  0.100700  0.084100  0.742700  1.0  0.0867
  H  H878  1  0.102700  0.054100  0.723400  1.0  0.1233
  H  H879  1  0.127800  0.051400  0.696300  1.0  0.1181
  H  H880  1  0.148900  0.108600  0.713300  1.0  0.0824
  H  H881  1  0.215400  0.656000  0.351700  1.0  0.0738
  H  H882  1  0.204000  0.646600  0.290400  1.0  0.1199
  H  H883  1  0.232900  0.623900  0.289800  1.0  0.1184
  H  H884  1  0.251500  0.617700  0.320400  1.0  0.0819
  H  H885  1  0.163600  0.744700  0.402300  1.0  0.0912
  H  H886  1  0.193000  0.723100  0.401100  1.0  0.1194
  H  H887  1  0.197200  0.699800  0.373500  1.0  0.1156
  H  H888  1  0.140800  0.718200  0.351700  1.0  0.0898
  H  H889  1  0.149300  0.645600  0.287200  1.0  0.0806
  H  H890  1  0.118500  0.695700  0.311200  1.0  0.1159
  H  H891  1  0.090000  0.686600  0.289700  1.0  0.1201
  H  H892  1  0.092600  0.658200  0.267500  1.0  0.0911
  H  H893  1  0.100700  0.584100  0.242700  1.0  0.0867
  H  H894  1  0.102700  0.554100  0.223400  1.0  0.122
  H  H895  1  0.127800  0.551400  0.196300  1.0  0.1181
  H  H896  1  0.148900  0.608600  0.213300  1.0  0.0824
  H  H897  1  0.034600  0.656000  0.898300  1.0  0.0746
  H  H898  1  0.046000  0.646600  0.959600  1.0  0.1201
  H  H899  1  0.017100  0.623900  0.960200  1.0  0.1189
  H  H900  1  0.998500  0.617700  0.929600  1.0  0.0825
  H  H901  1  0.086400  0.744700  0.847700  1.0  0.0906
  H  H902  1  0.057000  0.723100  0.848900  1.0  0.1189
  H  H903  1  0.052800  0.699800  0.876500  1.0  0.1157
  H  H904  1  0.109200  0.718200  0.898300  1.0  0.0897
  H  H905  1  0.100700  0.645600  0.962800  1.0  0.0805
  H  H906  1  0.131500  0.695700  0.938800  1.0  0.1166
  H  H907  1  0.160000  0.686600  0.960300  1.0  0.1202
  H  H908  1  0.157400  0.658200  0.982500  1.0  0.091
  H  H909  1  0.149300  0.584100  0.007300  1.0  0.0871
  H  H910  1  0.147300  0.554100  0.026600  1.0  0.1213
  H  H911  1  0.122200  0.551400  0.053700  1.0  0.1177
  H  H912  1  0.101100  0.608600  0.036700  1.0  0.0827
  H  H913  1  0.034600  0.156000  0.398300  1.0  0.0746
  H  H914  1  0.046000  0.146600  0.459600  1.0  0.1201
  H  H915  1  0.017100  0.123900  0.460200  1.0  0.1189
  H  H916  1  0.998500  0.117700  0.429600  1.0  0.0825
  H  H917  1  0.086400  0.244700  0.347700  1.0  0.0906
  H  H918  1  0.057000  0.223100  0.348900  1.0  0.1189
  H  H919  1  0.052800  0.199800  0.376500  1.0  0.1157
  H  H920  1  0.109200  0.218200  0.398300  1.0  0.0897
  H  H921  1  0.100700  0.145600  0.462800  1.0  0.0805
  H  H922  1  0.131500  0.195700  0.438800  1.0  0.1166
  H  H923  1  0.160000  0.186600  0.460300  1.0  0.1202
  H  H924  1  0.157400  0.158200  0.482500  1.0  0.091
  H  H925  1  0.149300  0.084100  0.507300  1.0  0.0871
  H  H926  1  0.147300  0.054100  0.526600  1.0  0.1215
  H  H927  1  0.122200  0.051400  0.553700  1.0  0.1177
  H  H928  1  0.101100  0.108600  0.536700  1.0  0.0827
  H  H929  1  0.534600  0.656000  0.398300  1.0  0.0746
  H  H930  1  0.546000  0.646600  0.459600  1.0  0.1201
  H  H931  1  0.517100  0.623900  0.460200  1.0  0.1189
  H  H932  1  0.498500  0.617700  0.429600  1.0  0.0825
  H  H933  1  0.586400  0.744700  0.347700  1.0  0.0906
  H  H934  1  0.557000  0.723100  0.348900  1.0  0.1189
  H  H935  1  0.552800  0.699800  0.376500  1.0  0.1157
  H  H936  1  0.609200  0.718200  0.398300  1.0  0.0897
  H  H937  1  0.600700  0.645600  0.462800  1.0  0.0805
  H  H938  1  0.631500  0.695700  0.438800  1.0  0.1166
  H  H939  1  0.660000  0.686600  0.460300  1.0  0.1202
  H  H940  1  0.657400  0.658200  0.482500  1.0  0.091
  H  H941  1  0.649300  0.584100  0.507300  1.0  0.0871
  H  H942  1  0.647300  0.554100  0.526600  1.0  0.1213
  H  H943  1  0.622200  0.551400  0.553700  1.0  0.1177
  H  H944  1  0.601100  0.608600  0.536700  1.0  0.0827
  H  H945  1  0.534600  0.156000  0.898300  1.0  0.0746
  H  H946  1  0.546000  0.146600  0.959600  1.0  0.1201
  H  H947  1  0.517100  0.123900  0.960200  1.0  0.1189
  H  H948  1  0.498500  0.117700  0.929600  1.0  0.0825
  H  H949  1  0.586400  0.244700  0.847700  1.0  0.0906
  H  H950  1  0.557000  0.223100  0.848900  1.0  0.1189
  H  H951  1  0.552800  0.199800  0.876500  1.0  0.1157
  H  H952  1  0.609200  0.218200  0.898300  1.0  0.0897
  H  H953  1  0.600700  0.145600  0.962800  1.0  0.0805
  H  H954  1  0.631500  0.195700  0.938800  1.0  0.1166
  H  H955  1  0.660000  0.186600  0.960300  1.0  0.1202
  H  H956  1  0.657400  0.158200  0.982500  1.0  0.091
  H  H957  1  0.649300  0.084100  0.007300  1.0  0.0871
  H  H958  1  0.647300  0.054100  0.026600  1.0  0.1228
  H  H959  1  0.622200  0.051400  0.053700  1.0  0.1177
  H  H960  1  0.601100  0.108600  0.036700  1.0  0.0827
  H  H961  1  0.965400  0.648300  0.906000  1.0  0.0743
  H  H962  1  0.954000  0.709600  0.896600  1.0  0.1197
  H  H963  1  0.982900  0.710200  0.873900  1.0  0.121
  H  H964  1  0.001500  0.679600  0.867700  1.0  0.0809
  H  H965  1  0.913600  0.597700  0.994700  1.0  0.0902
  H  H966  1  0.943000  0.598900  0.973100  1.0  0.1205
  H  H967  1  0.947200  0.626500  0.949800  1.0  0.1154
  H  H968  1  0.890800  0.648300  0.968200  1.0  0.0906
  H  H969  1  0.899300  0.712800  0.895600  1.0  0.0792
  H  H970  1  0.868500  0.688800  0.945700  1.0  0.118
  H  H971  1  0.840000  0.710300  0.936600  1.0  0.1199
  H  H972  1  0.842600  0.732500  0.908200  1.0  0.0926
  H  H973  1  0.850700  0.757300  0.834100  1.0  0.0875
  H  H974  1  0.852700  0.776600  0.804100  1.0  0.1202
  H  H975  1  0.877800  0.803700  0.801400  1.0  0.119
  H  H976  1  0.898900  0.786700  0.858600  1.0  0.0826
  H  H977  1  0.965400  0.148300  0.406000  1.0  0.0743
  H  H978  1  0.954000  0.209600  0.396600  1.0  0.1201
  H  H979  1  0.982900  0.210200  0.373900  1.0  0.121
  H  H980  1  0.001500  0.179600  0.367700  1.0  0.0809
  H  H981  1  0.913600  0.097700  0.494700  1.0  0.0902
  H  H982  1  0.943000  0.098900  0.473100  1.0  0.1205
  H  H983  1  0.947200  0.126500  0.449800  1.0  0.1154
  H  H984  1  0.890800  0.148300  0.468200  1.0  0.0906
  H  H985  1  0.899300  0.212800  0.395600  1.0  0.0792
  H  H986  1  0.868500  0.188800  0.445700  1.0  0.118
  H  H987  1  0.840000  0.210300  0.436600  1.0  0.1199
  H  H988  1  0.842600  0.232500  0.408200  1.0  0.0926
  H  H989  1  0.850700  0.257300  0.334100  1.0  0.0875
  H  H990  1  0.852700  0.276600  0.304100  1.0  0.1202
  H  H991  1  0.877800  0.303700  0.301400  1.0  0.119
  H  H992  1  0.898900  0.286700  0.358600  1.0  0.0826
  H  H993  1  0.465400  0.648300  0.406000  1.0  0.0743
  H  H994  1  0.454000  0.709600  0.396600  1.0  0.1201
  H  H995  1  0.482900  0.710200  0.373900  1.0  0.121
  H  H996  1  0.501500  0.679600  0.367700  1.0  0.0809
  H  H997  1  0.413600  0.597700  0.494700  1.0  0.0902
  H  H998  1  0.443000  0.598900  0.473100  1.0  0.1205
  H  H999  1  0.447200  0.626500  0.449800  1.0  0.1154
  H  H1000  1  0.390800  0.648300  0.468200  1.0  0.0906
  H  H1001  1  0.399300  0.712800  0.395600  1.0  0.0792
  H  H1002  1  0.368500  0.688800  0.445700  1.0  0.118
  H  H1003  1  0.340000  0.710300  0.436600  1.0  0.1199
  H  H1004  1  0.342600  0.732500  0.408200  1.0  0.0926
  H  H1005  1  0.350700  0.757300  0.334100  1.0  0.0875
  H  H1006  1  0.352700  0.776600  0.304100  1.0  0.1202
  H  H1007  1  0.377800  0.803700  0.301400  1.0  0.119
  H  H1008  1  0.398900  0.786700  0.358600  1.0  0.0826
  H  H1009  1  0.465400  0.148300  0.906000  1.0  0.0743
  H  H1010  1  0.454000  0.209600  0.896600  1.0  0.1197
  H  H1011  1  0.482900  0.210200  0.873900  1.0  0.121
  H  H1012  1  0.501500  0.179600  0.867700  1.0  0.0809
  H  H1013  1  0.413600  0.097700  0.994700  1.0  0.0902
  H  H1014  1  0.443000  0.098900  0.973100  1.0  0.1205
  H  H1015  1  0.447200  0.126500  0.949800  1.0  0.1154
  H  H1016  1  0.390800  0.148300  0.968200  1.0  0.0906
  H  H1017  1  0.399300  0.212800  0.895600  1.0  0.0792
  H  H1018  1  0.368500  0.188800  0.945700  1.0  0.118
  H  H1019  1  0.340000  0.210300  0.936600  1.0  0.1199
  H  H1020  1  0.342600  0.232500  0.908200  1.0  0.0926
  H  H1021  1  0.350700  0.257300  0.834100  1.0  0.0875
  H  H1022  1  0.352700  0.276600  0.804100  1.0  0.1202
  H  H1023  1  0.377800  0.303700  0.801400  1.0  0.119
  H  H1024  1  0.398900  0.286700  0.858600  1.0  0.0826
  H  H1025  1  0.284600  0.101700  0.406000  1.0  0.0743
  H  H1026  1  0.296000  0.040400  0.396600  1.0  0.1196
  H  H1027  1  0.267100  0.039800  0.373900  1.0  0.1203
  H  H1028  1  0.248500  0.070400  0.367700  1.0  0.0811
  H  H1029  1  0.336400  0.152300  0.494700  1.0  0.0903
  H  H1030  1  0.307000  0.151100  0.473100  1.0  0.1202
  H  H1031  1  0.302800  0.123500  0.449800  1.0  0.1156
  H  H1032  1  0.359200  0.101700  0.468200  1.0  0.0905
  H  H1033  1  0.350700  0.037200  0.395600  1.0  0.0794
  H  H1034  1  0.381500  0.061200  0.445700  1.0  0.1179
  H  H1035  1  0.410000  0.039700  0.436600  1.0  0.12
  H  H1036  1  0.407400  0.017500  0.408200  1.0  0.092
  H  H1037  1  0.399300  0.992700  0.334100  1.0  0.0883
  H  H1038  1  0.397300  0.973400  0.304100  1.0  0.1208
  H  H1039  1  0.372200  0.946300  0.301400  1.0  0.1189
  H  H1040  1  0.351100  0.963300  0.358600  1.0  0.0828
  H  H1041  1  0.284600  0.601700  0.906000  1.0  0.0743
  H  H1042  1  0.296000  0.540400  0.896600  1.0  0.1192
  H  H1043  1  0.267100  0.539800  0.873900  1.0  0.1203
  H  H1044  1  0.248500  0.570400  0.867700  1.0  0.0811
  H  H1045  1  0.336400  0.652300  0.994700  1.0  0.0903
  H  H1046  1  0.307000  0.651100  0.973100  1.0  0.1202
  H  H1047  1  0.302800  0.623500  0.949800  1.0  0.1156
  H  H1048  1  0.359200  0.601700  0.968200  1.0  0.0905
  H  H1049  1  0.350700  0.537200  0.895600  1.0  0.0794
  H  H1050  1  0.381500  0.561200  0.945700  1.0  0.1179
  H  H1051  1  0.410000  0.539700  0.936600  1.0  0.12
  H  H1052  1  0.407400  0.517500  0.908200  1.0  0.092
  H  H1053  1  0.399300  0.492700  0.834100  1.0  0.0883
  H  H1054  1  0.397300  0.473400  0.804100  1.0  0.1208
  H  H1055  1  0.372200  0.446300  0.801400  1.0  0.1189
  H  H1056  1  0.351100  0.463300  0.858600  1.0  0.0828
  H  H1057  1  0.784600  0.101700  0.906000  1.0  0.0743
  H  H1058  1  0.796000  0.040400  0.896600  1.0  0.1192
  H  H1059  1  0.767100  0.039800  0.873900  1.0  0.1203
  H  H1060  1  0.748500  0.070400  0.867700  1.0  0.0811
  H  H1061  1  0.836400  0.152300  0.994700  1.0  0.0903
  H  H1062  1  0.807000  0.151100  0.973100  1.0  0.1202
  H  H1063  1  0.802800  0.123500  0.949800  1.0  0.1156
  H  H1064  1  0.859200  0.101700  0.968200  1.0  0.0905
  H  H1065  1  0.850700  0.037200  0.895600  1.0  0.0794
  H  H1066  1  0.881500  0.061200  0.945700  1.0  0.1179
  H  H1067  1  0.910000  0.039700  0.936600  1.0  0.1202
  H  H1068  1  0.907400  0.017500  0.908200  1.0  0.092
  H  H1069  1  0.899300  0.992700  0.834100  1.0  0.0883
  H  H1070  1  0.897300  0.973400  0.804100  1.0  0.1224
  H  H1071  1  0.872200  0.946300  0.801400  1.0  0.1189
  H  H1072  1  0.851100  0.963300  0.858600  1.0  0.0828
  H  H1073  1  0.784600  0.601700  0.406000  1.0  0.0743
  H  H1074  1  0.796000  0.540400  0.396600  1.0  0.1196
  H  H1075  1  0.767100  0.539800  0.373900  1.0  0.1203
  H  H1076  1  0.748500  0.570400  0.367700  1.0  0.0811
  H  H1077  1  0.836400  0.652300  0.494700  1.0  0.0903
  H  H1078  1  0.807000  0.651100  0.473100  1.0  0.1202
  H  H1079  1  0.802800  0.623500  0.449800  1.0  0.1156
  H  H1080  1  0.859200  0.601700  0.468200  1.0  0.0905
  H  H1081  1  0.850700  0.537200  0.395600  1.0  0.0794
  H  H1082  1  0.881500  0.561200  0.445700  1.0  0.1179
  H  H1083  1  0.910000  0.539700  0.436600  1.0  0.12
  H  H1084  1  0.907400  0.517500  0.408200  1.0  0.092
  H  H1085  1  0.899300  0.492700  0.334100  1.0  0.0883
  H  H1086  1  0.897300  0.473400  0.304100  1.0  0.1208
  H  H1087  1  0.872200  0.446300  0.301400  1.0  0.1189
  H  H1088  1  0.851100  0.463300  0.358600  1.0  0.0828
  H  H1089  1  0.465400  0.601700  0.844000  1.0  0.0742
  H  H1090  1  0.454000  0.540400  0.853400  1.0  0.1196
  H  H1091  1  0.482900  0.539800  0.876100  1.0  0.1207
  H  H1092  1  0.501500  0.570400  0.882300  1.0  0.0806
  H  H1093  1  0.413600  0.652300  0.755300  1.0  0.0907
  H  H1094  1  0.443000  0.651100  0.776900  1.0  0.1209
  H  H1095  1  0.447200  0.623500  0.800200  1.0  0.1155
  H  H1096  1  0.390800  0.601700  0.781800  1.0  0.0907
  H  H1097  1  0.399300  0.537200  0.854400  1.0  0.0789
  H  H1098  1  0.368500  0.561200  0.804300  1.0  0.1174
  H  H1099  1  0.340000  0.539700  0.813400  1.0  0.1193
  H  H1100  1  0.342600  0.517500  0.841800  1.0  0.092
  H  H1101  1  0.350700  0.492700  0.915900  1.0  0.0879
  H  H1102  1  0.352700  0.473400  0.945900  1.0  0.1207
  H  H1103  1  0.377800  0.446300  0.948600  1.0  0.119
  H  H1104  1  0.398900  0.463300  0.891400  1.0  0.0825
  H  H1105  1  0.465400  0.101700  0.344000  1.0  0.0742
  H  H1106  1  0.454000  0.040400  0.353400  1.0  0.1196
  H  H1107  1  0.482900  0.039800  0.376100  1.0  0.1207
  H  H1108  1  0.501500  0.070400  0.382300  1.0  0.0806
  H  H1109  1  0.413600  0.152300  0.255300  1.0  0.0907
  H  H1110  1  0.443000  0.151100  0.276900  1.0  0.1209
  H  H1111  1  0.447200  0.123500  0.300200  1.0  0.1155
  H  H1112  1  0.390800  0.101700  0.281800  1.0  0.0907
  H  H1113  1  0.399300  0.037200  0.354400  1.0  0.0789
  H  H1114  1  0.368500  0.061200  0.304300  1.0  0.1174
  H  H1115  1  0.340000  0.039700  0.313400  1.0  0.1193
  H  H1116  1  0.342600  0.017500  0.341800  1.0  0.092
  H  H1117  1  0.350700  0.992700  0.415900  1.0  0.0879
  H  H1118  1  0.352700  0.973400  0.445900  1.0  0.1208
  H  H1119  1  0.377800  0.946300  0.448600  1.0  0.119
  H  H1120  1  0.398900  0.963300  0.391400  1.0  0.0825
  H  H1121  1  0.965400  0.601700  0.344000  1.0  0.0742
  H  H1122  1  0.954000  0.540400  0.353400  1.0  0.1196
  H  H1123  1  0.982900  0.539800  0.376100  1.0  0.1207
  H  H1124  1  0.001500  0.570400  0.382300  1.0  0.0806
  H  H1125  1  0.913600  0.652300  0.255300  1.0  0.0907
  H  H1126  1  0.943000  0.651100  0.276900  1.0  0.1209
  H  H1127  1  0.947200  0.623500  0.300200  1.0  0.1155
  H  H1128  1  0.890800  0.601700  0.281800  1.0  0.0907
  H  H1129  1  0.899300  0.537200  0.354400  1.0  0.0789
  H  H1130  1  0.868500  0.561200  0.304300  1.0  0.1174
  H  H1131  1  0.840000  0.539700  0.313400  1.0  0.1193
  H  H1132  1  0.842600  0.517500  0.341800  1.0  0.092
  H  H1133  1  0.850700  0.492700  0.415900  1.0  0.0879
  H  H1134  1  0.852700  0.473400  0.445900  1.0  0.1208
  H  H1135  1  0.877800  0.446300  0.448600  1.0  0.119
  H  H1136  1  0.898900  0.463300  0.391400  1.0  0.0825
  H  H1137  1  0.965400  0.101700  0.844000  1.0  0.0742
  H  H1138  1  0.954000  0.040400  0.853400  1.0  0.1196
  H  H1139  1  0.982900  0.039800  0.876100  1.0  0.1207
  H  H1140  1  0.001500  0.070400  0.882300  1.0  0.0806
  H  H1141  1  0.913600  0.152300  0.755300  1.0  0.0907
  H  H1142  1  0.943000  0.151100  0.776900  1.0  0.1209
  H  H1143  1  0.947200  0.123500  0.800200  1.0  0.1155
  H  H1144  1  0.890800  0.101700  0.781800  1.0  0.0907
  H  H1145  1  0.899300  0.037200  0.854400  1.0  0.0789
  H  H1146  1  0.868500  0.061200  0.804300  1.0  0.1174
  H  H1147  1  0.840000  0.039700  0.813400  1.0  0.1193
  H  H1148  1  0.842600  0.017500  0.841800  1.0  0.092
  H  H1149  1  0.850700  0.992700  0.915900  1.0  0.0879
  H  H1150  1  0.852700  0.973400  0.945900  1.0  0.1221
  H  H1151  1  0.877800  0.946300  0.948600  1.0  0.119
  H  H1152  1  0.898900  0.963300  0.891400  1.0  0.0825
  H  H1153  1  0.784600  0.148300  0.344000  1.0  0.074
  H  H1154  1  0.796000  0.209600  0.353400  1.0  0.1197
  H  H1155  1  0.767100  0.210200  0.376100  1.0  0.1206
  H  H1156  1  0.748500  0.179600  0.382300  1.0  0.0813
  H  H1157  1  0.836400  0.097700  0.255300  1.0  0.0899
  H  H1158  1  0.807000  0.098900  0.276900  1.0  0.1208
  H  H1159  1  0.802800  0.126500  0.300200  1.0  0.1151
  H  H1160  1  0.859200  0.148300  0.281800  1.0  0.09
  H  H1161  1  0.850700  0.212800  0.354400  1.0  0.0791
  H  H1162  1  0.881500  0.188800  0.304300  1.0  0.1173
  H  H1163  1  0.910000  0.210300  0.313400  1.0  0.1193
  H  H1164  1  0.907400  0.232500  0.341800  1.0  0.0922
  H  H1165  1  0.899300  0.257300  0.415900  1.0  0.0887
  H  H1166  1  0.897300  0.276600  0.445900  1.0  0.1202
  H  H1167  1  0.872200  0.303700  0.448600  1.0  0.1187
  H  H1168  1  0.851100  0.286700  0.391400  1.0  0.0827
  H  H1169  1  0.784600  0.648300  0.844000  1.0  0.074
  H  H1170  1  0.796000  0.709600  0.853400  1.0  0.1197
  H  H1171  1  0.767100  0.710200  0.876100  1.0  0.1206
  H  H1172  1  0.748500  0.679600  0.882300  1.0  0.0813
  H  H1173  1  0.836400  0.597700  0.755300  1.0  0.0899
  H  H1174  1  0.807000  0.598900  0.776900  1.0  0.1208
  H  H1175  1  0.802800  0.626500  0.800200  1.0  0.1151
  H  H1176  1  0.859200  0.648300  0.781800  1.0  0.09
  H  H1177  1  0.850700  0.712800  0.854400  1.0  0.0791
  H  H1178  1  0.881500  0.688800  0.804300  1.0  0.1173
  H  H1179  1  0.910000  0.710300  0.813400  1.0  0.1193
  H  H1180  1  0.907400  0.732500  0.841800  1.0  0.0922
  H  H1181  1  0.899300  0.757300  0.915900  1.0  0.0887
  H  H1182  1  0.897300  0.776600  0.945900  1.0  0.1215
  H  H1183  1  0.872200  0.803700  0.948600  1.0  0.1187
  H  H1184  1  0.851100  0.786700  0.891400  1.0  0.0827
  H  H1185  1  0.284600  0.148300  0.844000  1.0  0.074
  H  H1186  1  0.296000  0.209600  0.853400  1.0  0.1197
  H  H1187  1  0.267100  0.210200  0.876100  1.0  0.1206
  H  H1188  1  0.248500  0.179600  0.882300  1.0  0.0813
  H  H1189  1  0.336400  0.097700  0.755300  1.0  0.0899
  H  H1190  1  0.307000  0.098900  0.776900  1.0  0.1208
  H  H1191  1  0.302800  0.126500  0.800200  1.0  0.1151
  H  H1192  1  0.359200  0.148300  0.781800  1.0  0.09
  H  H1193  1  0.350700  0.212800  0.854400  1.0  0.0791
  H  H1194  1  0.381500  0.188800  0.804300  1.0  0.1173
  H  H1195  1  0.410000  0.210300  0.813400  1.0  0.1193
  H  H1196  1  0.407400  0.232500  0.841800  1.0  0.0922
  H  H1197  1  0.399300  0.257300  0.915900  1.0  0.0887
  H  H1198  1  0.397300  0.276600  0.945900  1.0  0.1202
  H  H1199  1  0.372200  0.303700  0.948600  1.0  0.1187
  H  H1200  1  0.351100  0.286700  0.891400  1.0  0.0827
  H  H1201  1  0.284600  0.648300  0.344000  1.0  0.074
  H  H1202  1  0.296000  0.709600  0.353400  1.0  0.1197
  H  H1203  1  0.267100  0.710200  0.376100  1.0  0.1206
  H  H1204  1  0.248500  0.679600  0.382300  1.0  0.0813
  H  H1205  1  0.336400  0.597700  0.255300  1.0  0.0899
  H  H1206  1  0.307000  0.598900  0.276900  1.0  0.1208
  H  H1207  1  0.302800  0.626500  0.300200  1.0  0.1151
  H  H1208  1  0.359200  0.648300  0.281800  1.0  0.09
  H  H1209  1  0.350700  0.712800  0.354400  1.0  0.0791
  H  H1210  1  0.381500  0.688800  0.304300  1.0  0.1173
  H  H1211  1  0.410000  0.710300  0.313400  1.0  0.1193
  H  H1212  1  0.407400  0.732500  0.341800  1.0  0.0922
  H  H1213  1  0.399300  0.757300  0.415900  1.0  0.0887
  H  H1214  1  0.397300  0.776600  0.445900  1.0  0.1202
  H  H1215  1  0.372200  0.803700  0.448600  1.0  0.1187
  H  H1216  1  0.351100  0.786700  0.391400  1.0  0.0827
  H  H1217  1  0.148300  0.344000  0.784600  1.0  0.0737
  H  H1218  1  0.209600  0.353400  0.796000  1.0  0.1195
  H  H1219  1  0.210200  0.376100  0.767100  1.0  0.1196
  H  H1220  1  0.179600  0.382300  0.748500  1.0  0.0808
  H  H1221  1  0.097700  0.255300  0.836400  1.0  0.0928
  H  H1222  1  0.098900  0.276900  0.807000  1.0  0.1185
  H  H1223  1  0.126500  0.300200  0.802800  1.0  0.1158
  H  H1224  1  0.148300  0.281800  0.859200  1.0  0.0891
  H  H1225  1  0.212800  0.354400  0.850700  1.0  0.0821
  H  H1226  1  0.188800  0.304300  0.881500  1.0  0.117
  H  H1227  1  0.210300  0.313400  0.910000  1.0  0.1191
  H  H1228  1  0.232500  0.341800  0.907400  1.0  0.0944
  H  H1229  1  0.257300  0.415900  0.899300  1.0  0.0878
  H  H1230  1  0.276600  0.445900  0.897300  1.0  0.1216
  H  H1231  1  0.303700  0.448600  0.872200  1.0  0.1189
  H  H1232  1  0.286700  0.391400  0.851100  1.0  0.0825
  H  H1233  1  0.148300  0.844000  0.284600  1.0  0.0737
  H  H1234  1  0.209600  0.853400  0.296000  1.0  0.1195
  H  H1235  1  0.210200  0.876100  0.267100  1.0  0.1196
  H  H1236  1  0.179600  0.882300  0.248500  1.0  0.0808
  H  H1237  1  0.097700  0.755300  0.336400  1.0  0.0928
  H  H1238  1  0.098900  0.776900  0.307000  1.0  0.1185
  H  H1239  1  0.126500  0.800200  0.302800  1.0  0.1158
  H  H1240  1  0.148300  0.781800  0.359200  1.0  0.0891
  H  H1241  1  0.212800  0.854400  0.350700  1.0  0.0821
  H  H1242  1  0.188800  0.804300  0.381500  1.0  0.117
  H  H1243  1  0.210300  0.813400  0.410000  1.0  0.1191
  H  H1244  1  0.232500  0.841800  0.407400  1.0  0.0944
  H  H1245  1  0.257300  0.915900  0.399300  1.0  0.0878
  H  H1246  1  0.276600  0.945900  0.397300  1.0  0.1216
  H  H1247  1  0.303700  0.948600  0.372200  1.0  0.1189
  H  H1248  1  0.286700  0.891400  0.351100  1.0  0.0825
  H  H1249  1  0.648300  0.344000  0.284600  1.0  0.0737
  H  H1250  1  0.709600  0.353400  0.296000  1.0  0.1195
  H  H1251  1  0.710200  0.376100  0.267100  1.0  0.1196
  H  H1252  1  0.679600  0.382300  0.248500  1.0  0.0808
  H  H1253  1  0.597700  0.255300  0.336400  1.0  0.0928
  H  H1254  1  0.598900  0.276900  0.307000  1.0  0.1185
  H  H1255  1  0.626500  0.300200  0.302800  1.0  0.1158
  H  H1256  1  0.648300  0.281800  0.359200  1.0  0.0891
  H  H1257  1  0.712800  0.354400  0.350700  1.0  0.0821
  H  H1258  1  0.688800  0.304300  0.381500  1.0  0.117
  H  H1259  1  0.710300  0.313400  0.410000  1.0  0.1191
  H  H1260  1  0.732500  0.341800  0.407400  1.0  0.0944
  H  H1261  1  0.757300  0.415900  0.399300  1.0  0.0878
  H  H1262  1  0.776600  0.445900  0.397300  1.0  0.1216
  H  H1263  1  0.803700  0.448600  0.372200  1.0  0.1189
  H  H1264  1  0.786700  0.391400  0.351100  1.0  0.0825
  H  H1265  1  0.648300  0.844000  0.784600  1.0  0.0737
  H  H1266  1  0.709600  0.853400  0.796000  1.0  0.1195
  H  H1267  1  0.710200  0.876100  0.767100  1.0  0.1196
  H  H1268  1  0.679600  0.882300  0.748500  1.0  0.0808
  H  H1269  1  0.597700  0.755300  0.836400  1.0  0.0928
  H  H1270  1  0.598900  0.776900  0.807000  1.0  0.1185
  H  H1271  1  0.626500  0.800200  0.802800  1.0  0.1158
  H  H1272  1  0.648300  0.781800  0.859200  1.0  0.0891
  H  H1273  1  0.712800  0.854400  0.850700  1.0  0.0821
  H  H1274  1  0.688800  0.804300  0.881500  1.0  0.117
  H  H1275  1  0.710300  0.813400  0.910000  1.0  0.1191
  H  H1276  1  0.732500  0.841800  0.907400  1.0  0.0944
  H  H1277  1  0.757300  0.915900  0.899300  1.0  0.0878
  H  H1278  1  0.776600  0.945900  0.897300  1.0  0.1229
  H  H1279  1  0.803700  0.948600  0.872200  1.0  0.1189
  H  H1280  1  0.786700  0.891400  0.851100  1.0  0.0825
  H  H1281  1  0.601700  0.844000  0.465400  1.0  0.0734
  H  H1282  1  0.540400  0.853400  0.454000  1.0  0.1195
  H  H1283  1  0.539800  0.876100  0.482900  1.0  0.1189
  H  H1284  1  0.570400  0.882300  0.501500  1.0  0.0819
  H  H1285  1  0.652300  0.755300  0.413600  1.0  0.0931
  H  H1286  1  0.651100  0.776900  0.443000  1.0  0.1192
  H  H1287  1  0.623500  0.800200  0.447200  1.0  0.1162
  H  H1288  1  0.601700  0.781800  0.390800  1.0  0.0898
  H  H1289  1  0.537200  0.854400  0.399300  1.0  0.0822
  H  H1290  1  0.561200  0.804300  0.368500  1.0  0.1167
  H  H1291  1  0.539700  0.813400  0.340000  1.0  0.1184
  H  H1292  1  0.517500  0.841800  0.342600  1.0  0.0939
  H  H1293  1  0.492700  0.915900  0.350700  1.0  0.0874
  H  H1294  1  0.473400  0.945900  0.352700  1.0  0.1222
  H  H1295  1  0.446300  0.948600  0.377800  1.0  0.1189
  H  H1296  1  0.463300  0.891400  0.398900  1.0  0.0827
  H  H1297  1  0.601700  0.344000  0.965400  1.0  0.0734
  H  H1298  1  0.540400  0.353400  0.954000  1.0  0.1195
  H  H1299  1  0.539800  0.376100  0.982900  1.0  0.1189
  H  H1300  1  0.570400  0.382300  0.001500  1.0  0.0819
  H  H1301  1  0.652300  0.255300  0.913600  1.0  0.0931
  H  H1302  1  0.651100  0.276900  0.943000  1.0  0.1192
  H  H1303  1  0.623500  0.300200  0.947200  1.0  0.1162
  H  H1304  1  0.601700  0.281800  0.890800  1.0  0.0898
  H  H1305  1  0.537200  0.354400  0.899300  1.0  0.0822
  H  H1306  1  0.561200  0.304300  0.868500  1.0  0.1167
  H  H1307  1  0.539700  0.313400  0.840000  1.0  0.1184
  H  H1308  1  0.517500  0.341800  0.842600  1.0  0.0939
  H  H1309  1  0.492700  0.415900  0.850700  1.0  0.0874
  H  H1310  1  0.473400  0.445900  0.852700  1.0  0.1223
  H  H1311  1  0.446300  0.448600  0.877800  1.0  0.1189
  H  H1312  1  0.463300  0.391400  0.898900  1.0  0.0827
  H  H1313  1  0.101700  0.844000  0.965400  1.0  0.0734
  H  H1314  1  0.040400  0.853400  0.954000  1.0  0.1195
  H  H1315  1  0.039800  0.876100  0.982900  1.0  0.1189
  H  H1316  1  0.070400  0.882300  0.001500  1.0  0.0819
  H  H1317  1  0.152300  0.755300  0.913600  1.0  0.0931
  H  H1318  1  0.151100  0.776900  0.943000  1.0  0.1192
  H  H1319  1  0.123500  0.800200  0.947200  1.0  0.1162
  H  H1320  1  0.101700  0.781800  0.890800  1.0  0.0898
  H  H1321  1  0.037200  0.854400  0.899300  1.0  0.0822
  H  H1322  1  0.061200  0.804300  0.868500  1.0  0.1167
  H  H1323  1  0.039700  0.813400  0.840000  1.0  0.1184
  H  H1324  1  0.017500  0.841800  0.842600  1.0  0.0939
  H  H1325  1  0.992700  0.915900  0.850700  1.0  0.0874
  H  H1326  1  0.973400  0.945900  0.852700  1.0  0.1237
  H  H1327  1  0.946300  0.948600  0.877800  1.0  0.1189
  H  H1328  1  0.963300  0.891400  0.898900  1.0  0.0827
  H  H1329  1  0.101700  0.344000  0.465400  1.0  0.0734
  H  H1330  1  0.040400  0.353400  0.454000  1.0  0.1195
  H  H1331  1  0.039800  0.376100  0.482900  1.0  0.1189
  H  H1332  1  0.070400  0.382300  0.501500  1.0  0.0819
  H  H1333  1  0.152300  0.255300  0.413600  1.0  0.0931
  H  H1334  1  0.151100  0.276900  0.443000  1.0  0.1192
  H  H1335  1  0.123500  0.300200  0.447200  1.0  0.1162
  H  H1336  1  0.101700  0.281800  0.390800  1.0  0.0898
  H  H1337  1  0.037200  0.354400  0.399300  1.0  0.0822
  H  H1338  1  0.061200  0.304300  0.368500  1.0  0.1167
  H  H1339  1  0.039700  0.313400  0.340000  1.0  0.1184
  H  H1340  1  0.017500  0.341800  0.342600  1.0  0.0939
  H  H1341  1  0.992700  0.415900  0.350700  1.0  0.0874
  H  H1342  1  0.973400  0.445900  0.352700  1.0  0.1223
  H  H1343  1  0.946300  0.448600  0.377800  1.0  0.1189
  H  H1344  1  0.963300  0.391400  0.398900  1.0  0.0827
  H  H1345  1  0.101700  0.406000  0.284600  1.0  0.0732
  H  H1346  1  0.040400  0.396600  0.296000  1.0  0.1191
  H  H1347  1  0.039800  0.373900  0.267100  1.0  0.1191
  H  H1348  1  0.070400  0.367700  0.248500  1.0  0.0821
  H  H1349  1  0.152300  0.494700  0.336400  1.0  0.093
  H  H1350  1  0.151100  0.473100  0.307000  1.0  0.1194
  H  H1351  1  0.123500  0.449800  0.302800  1.0  0.1158
  H  H1352  1  0.101700  0.468200  0.359200  1.0  0.0894
  H  H1353  1  0.037200  0.395600  0.350700  1.0  0.0824
  H  H1354  1  0.061200  0.445700  0.381500  1.0  0.1172
  H  H1355  1  0.039700  0.436600  0.410000  1.0  0.1191
  H  H1356  1  0.017500  0.408200  0.407400  1.0  0.0939
  H  H1357  1  0.992700  0.334100  0.399300  1.0  0.0884
  H  H1358  1  0.973400  0.304100  0.397300  1.0  0.1221
  H  H1359  1  0.946300  0.301400  0.372200  1.0  0.1187
  H  H1360  1  0.963300  0.358600  0.351100  1.0  0.0828
  H  H1361  1  0.101700  0.906000  0.784600  1.0  0.0732
  H  H1362  1  0.040400  0.896600  0.796000  1.0  0.1186
  H  H1363  1  0.039800  0.873900  0.767100  1.0  0.1191
  H  H1364  1  0.070400  0.867700  0.748500  1.0  0.0821
  H  H1365  1  0.152300  0.994700  0.836400  1.0  0.093
  H  H1366  1  0.151100  0.973100  0.807000  1.0  0.1194
  H  H1367  1  0.123500  0.949800  0.802800  1.0  0.1158
  H  H1368  1  0.101700  0.968200  0.859200  1.0  0.0894
  H  H1369  1  0.037200  0.895600  0.850700  1.0  0.0824
  H  H1370  1  0.061200  0.945700  0.881500  1.0  0.1172
  H  H1371  1  0.039700  0.936600  0.910000  1.0  0.119
  H  H1372  1  0.017500  0.908200  0.907400  1.0  0.0939
  H  H1373  1  0.992700  0.834100  0.899300  1.0  0.0884
  H  H1374  1  0.973400  0.804100  0.897300  1.0  0.1235
  H  H1375  1  0.946300  0.801400  0.872200  1.0  0.1187
  H  H1376  1  0.963300  0.858600  0.851100  1.0  0.0828
  H  H1377  1  0.601700  0.406000  0.784600  1.0  0.0732
  H  H1378  1  0.540400  0.396600  0.796000  1.0  0.1191
  H  H1379  1  0.539800  0.373900  0.767100  1.0  0.1191
  H  H1380  1  0.570400  0.367700  0.748500  1.0  0.0821
  H  H1381  1  0.652300  0.494700  0.836400  1.0  0.093
  H  H1382  1  0.651100  0.473100  0.807000  1.0  0.1194
  H  H1383  1  0.623500  0.449800  0.802800  1.0  0.1158
  H  H1384  1  0.601700  0.468200  0.859200  1.0  0.0894
  H  H1385  1  0.537200  0.395600  0.850700  1.0  0.0824
  H  H1386  1  0.561200  0.445700  0.881500  1.0  0.1172
  H  H1387  1  0.539700  0.436600  0.910000  1.0  0.1191
  H  H1388  1  0.517500  0.408200  0.907400  1.0  0.0939
  H  H1389  1  0.492700  0.334100  0.899300  1.0  0.0884
  H  H1390  1  0.473400  0.304100  0.897300  1.0  0.1221
  H  H1391  1  0.446300  0.301400  0.872200  1.0  0.1187
  H  H1392  1  0.463300  0.358600  0.851100  1.0  0.0828
  H  H1393  1  0.601700  0.906000  0.284600  1.0  0.0732
  H  H1394  1  0.540400  0.896600  0.296000  1.0  0.1186
  H  H1395  1  0.539800  0.873900  0.267100  1.0  0.1191
  H  H1396  1  0.570400  0.867700  0.248500  1.0  0.0821
  H  H1397  1  0.652300  0.994700  0.336400  1.0  0.093
  H  H1398  1  0.651100  0.973100  0.307000  1.0  0.1194
  H  H1399  1  0.623500  0.949800  0.302800  1.0  0.1158
  H  H1400  1  0.601700  0.968200  0.359200  1.0  0.0894
  H  H1401  1  0.537200  0.895600  0.350700  1.0  0.0824
  H  H1402  1  0.561200  0.945700  0.381500  1.0  0.1172
  H  H1403  1  0.539700  0.936600  0.410000  1.0  0.1191
  H  H1404  1  0.517500  0.908200  0.407400  1.0  0.0939
  H  H1405  1  0.492700  0.834100  0.399300  1.0  0.0884
  H  H1406  1  0.473400  0.804100  0.397300  1.0  0.1221
  H  H1407  1  0.446300  0.801400  0.372200  1.0  0.1187
  H  H1408  1  0.463300  0.858600  0.351100  1.0  0.0828
  H  H1409  1  0.648300  0.906000  0.965400  1.0  0.0737
  H  H1410  1  0.709600  0.896600  0.954000  1.0  0.1192
  H  H1411  1  0.710200  0.873900  0.982900  1.0  0.1188
  H  H1412  1  0.679600  0.867700  0.001500  1.0  0.0812
  H  H1413  1  0.597700  0.994700  0.913600  1.0  0.0929
  H  H1414  1  0.598900  0.973100  0.943000  1.0  0.1193
  H  H1415  1  0.626500  0.949800  0.947200  1.0  0.1164
  H  H1416  1  0.648300  0.968200  0.890800  1.0  0.0895
  H  H1417  1  0.712800  0.895600  0.899300  1.0  0.0822
  H  H1418  1  0.688800  0.945700  0.868500  1.0  0.1171
  H  H1419  1  0.710300  0.936600  0.840000  1.0  0.1183
  H  H1420  1  0.732500  0.908200  0.842600  1.0  0.0941
  H  H1421  1  0.757300  0.834100  0.850700  1.0  0.0869
  H  H1422  1  0.776600  0.804100  0.852700  1.0  0.1213
  H  H1423  1  0.803700  0.801400  0.877800  1.0  0.1188
  H  H1424  1  0.786700  0.858600  0.898900  1.0  0.0827
  H  H1425  1  0.648300  0.406000  0.465400  1.0  0.0737
  H  H1426  1  0.709600  0.396600  0.454000  1.0  0.1196
  H  H1427  1  0.710200  0.373900  0.482900  1.0  0.1188
  H  H1428  1  0.679600  0.367700  0.501500  1.0  0.0812
  H  H1429  1  0.597700  0.494700  0.413600  1.0  0.0929
  H  H1430  1  0.598900  0.473100  0.443000  1.0  0.1193
  H  H1431  1  0.626500  0.449800  0.447200  1.0  0.1164
  H  H1432  1  0.648300  0.468200  0.390800  1.0  0.0895
  H  H1433  1  0.712800  0.395600  0.399300  1.0  0.0822
  H  H1434  1  0.688800  0.445700  0.368500  1.0  0.1171
  H  H1435  1  0.710300  0.436600  0.340000  1.0  0.1183
  H  H1436  1  0.732500  0.408200  0.342600  1.0  0.0941
  H  H1437  1  0.757300  0.334100  0.350700  1.0  0.0869
  H  H1438  1  0.776600  0.304100  0.352700  1.0  0.1213
  H  H1439  1  0.803700  0.301400  0.377800  1.0  0.1188
  H  H1440  1  0.786700  0.358600  0.398900  1.0  0.0827
  H  H1441  1  0.148300  0.906000  0.465400  1.0  0.0737
  H  H1442  1  0.209600  0.896600  0.454000  1.0  0.1192
  H  H1443  1  0.210200  0.873900  0.482900  1.0  0.1188
  H  H1444  1  0.179600  0.867700  0.501500  1.0  0.0812
  H  H1445  1  0.097700  0.994700  0.413600  1.0  0.0929
  H  H1446  1  0.098900  0.973100  0.443000  1.0  0.1193
  H  H1447  1  0.126500  0.949800  0.447200  1.0  0.1164
  H  H1448  1  0.148300  0.968200  0.390800  1.0  0.0895
  H  H1449  1  0.212800  0.895600  0.399300  1.0  0.0822
  H  H1450  1  0.188800  0.945700  0.368500  1.0  0.1171
  H  H1451  1  0.210300  0.936600  0.340000  1.0  0.1183
  H  H1452  1  0.232500  0.908200  0.342600  1.0  0.0941
  H  H1453  1  0.257300  0.834100  0.350700  1.0  0.0869
  H  H1454  1  0.276600  0.804100  0.352700  1.0  0.1213
  H  H1455  1  0.303700  0.801400  0.377800  1.0  0.1188
  H  H1456  1  0.286700  0.858600  0.398900  1.0  0.0827
  H  H1457  1  0.148300  0.406000  0.965400  1.0  0.0737
  H  H1458  1  0.209600  0.396600  0.954000  1.0  0.1196
  H  H1459  1  0.210200  0.373900  0.982900  1.0  0.1188
  H  H1460  1  0.179600  0.367700  0.001500  1.0  0.0812
  H  H1461  1  0.097700  0.494700  0.913600  1.0  0.0929
  H  H1462  1  0.098900  0.473100  0.943000  1.0  0.1193
  H  H1463  1  0.126500  0.449800  0.947200  1.0  0.1164
  H  H1464  1  0.148300  0.468200  0.890800  1.0  0.0895
  H  H1465  1  0.212800  0.395600  0.899300  1.0  0.0822
  H  H1466  1  0.188800  0.445700  0.868500  1.0  0.1171
  H  H1467  1  0.210300  0.436600  0.840000  1.0  0.1183
  H  H1468  1  0.232500  0.408200  0.842600  1.0  0.0941
  H  H1469  1  0.257300  0.334100  0.850700  1.0  0.0869
  H  H1470  1  0.276600  0.304100  0.852700  1.0  0.1213
  H  H1471  1  0.303700  0.301400  0.877800  1.0  0.1188
  H  H1472  1  0.286700  0.358600  0.898900  1.0  0.0827
  H  H1473  1  0.844000  0.465400  0.601700  1.0  0.0743
  H  H1474  1  0.853400  0.454000  0.540400  1.0  0.1195
  H  H1475  1  0.876100  0.482900  0.539800  1.0  0.1186
  H  H1476  1  0.882300  0.501500  0.570400  1.0  0.0812
  H  H1477  1  0.755300  0.413600  0.652300  1.0  0.0924
  H  H1478  1  0.776900  0.443000  0.651100  1.0  0.1202
  H  H1479  1  0.800200  0.447200  0.623500  1.0  0.1151
  H  H1480  1  0.781800  0.390800  0.601700  1.0  0.0897
  H  H1481  1  0.854400  0.399300  0.537200  1.0  0.0812
  H  H1482  1  0.804300  0.368500  0.561200  1.0  0.1161
  H  H1483  1  0.813400  0.340000  0.539700  1.0  0.122
  H  H1484  1  0.841800  0.342600  0.517500  1.0  0.0921
  H  H1485  1  0.915900  0.350700  0.492700  1.0  0.0867
  H  H1486  1  0.945900  0.352700  0.473400  1.0  0.1213
  H  H1487  1  0.948600  0.377800  0.446300  1.0  0.1182
  H  H1488  1  0.891400  0.398900  0.463300  1.0  0.082
  H  H1489  1  0.844000  0.965400  0.101700  1.0  0.0743
  H  H1490  1  0.853400  0.954000  0.040400  1.0  0.1195
  H  H1491  1  0.876100  0.982900  0.039800  1.0  0.1186
  H  H1492  1  0.882300  0.001500  0.070400  1.0  0.0812
  H  H1493  1  0.755300  0.913600  0.152300  1.0  0.0924
  H  H1494  1  0.776900  0.943000  0.151100  1.0  0.1202
  H  H1495  1  0.800200  0.947200  0.123500  1.0  0.1151
  H  H1496  1  0.781800  0.890800  0.101700  1.0  0.0897
  H  H1497  1  0.854400  0.899300  0.037200  1.0  0.0812
  H  H1498  1  0.804300  0.868500  0.061200  1.0  0.1161
  H  H1499  1  0.813400  0.840000  0.039700  1.0  0.122
  H  H1500  1  0.841800  0.842600  0.017500  1.0  0.0921
  H  H1501  1  0.915900  0.850700  0.992700  1.0  0.0867
  H  H1502  1  0.945900  0.852700  0.973400  1.0  0.1227
  H  H1503  1  0.948600  0.877800  0.946300  1.0  0.1182
  H  H1504  1  0.891400  0.898900  0.963300  1.0  0.082
  H  H1505  1  0.344000  0.465400  0.101700  1.0  0.0743
  H  H1506  1  0.353400  0.454000  0.040400  1.0  0.1195
  H  H1507  1  0.376100  0.482900  0.039800  1.0  0.1186
  H  H1508  1  0.382300  0.501500  0.070400  1.0  0.0812
  H  H1509  1  0.255300  0.413600  0.152300  1.0  0.0924
  H  H1510  1  0.276900  0.443000  0.151100  1.0  0.1202
  H  H1511  1  0.300200  0.447200  0.123500  1.0  0.1151
  H  H1512  1  0.281800  0.390800  0.101700  1.0  0.0897
  H  H1513  1  0.354400  0.399300  0.037200  1.0  0.0812
  H  H1514  1  0.304300  0.368500  0.061200  1.0  0.1161
  H  H1515  1  0.313400  0.340000  0.039700  1.0  0.122
  H  H1516  1  0.341800  0.342600  0.017500  1.0  0.0921
  H  H1517  1  0.415900  0.350700  0.992700  1.0  0.0867
  H  H1518  1  0.445900  0.352700  0.973400  1.0  0.121
  H  H1519  1  0.448600  0.377800  0.946300  1.0  0.1182
  H  H1520  1  0.391400  0.398900  0.963300  1.0  0.082
  H  H1521  1  0.344000  0.965400  0.601700  1.0  0.0743
  H  H1522  1  0.353400  0.954000  0.540400  1.0  0.1195
  H  H1523  1  0.376100  0.982900  0.539800  1.0  0.1186
  H  H1524  1  0.382300  0.001500  0.570400  1.0  0.0812
  H  H1525  1  0.255300  0.913600  0.652300  1.0  0.0924
  H  H1526  1  0.276900  0.943000  0.651100  1.0  0.1202
  H  H1527  1  0.300200  0.947200  0.623500  1.0  0.1151
  H  H1528  1  0.281800  0.890800  0.601700  1.0  0.0897
  H  H1529  1  0.354400  0.899300  0.537200  1.0  0.0812
  H  H1530  1  0.304300  0.868500  0.561200  1.0  0.1161
  H  H1531  1  0.313400  0.840000  0.539700  1.0  0.122
  H  H1532  1  0.341800  0.842600  0.517500  1.0  0.0921
  H  H1533  1  0.415900  0.850700  0.492700  1.0  0.0867
  H  H1534  1  0.445900  0.852700  0.473400  1.0  0.121
  H  H1535  1  0.448600  0.877800  0.446300  1.0  0.1182
  H  H1536  1  0.391400  0.898900  0.463300  1.0  0.082
  H  H1537  1  0.344000  0.784600  0.148300  1.0  0.0741
  H  H1538  1  0.353400  0.796000  0.209600  1.0  0.1198
  H  H1539  1  0.376100  0.767100  0.210200  1.0  0.1186
  H  H1540  1  0.382300  0.748500  0.179600  1.0  0.082
  H  H1541  1  0.255300  0.836400  0.097700  1.0  0.0921
  H  H1542  1  0.276900  0.807000  0.098900  1.0  0.1202
  H  H1543  1  0.300200  0.802800  0.126500  1.0  0.115
  H  H1544  1  0.281800  0.859200  0.148300  1.0  0.0889
  H  H1545  1  0.354400  0.850700  0.212800  1.0  0.0812
  H  H1546  1  0.304300  0.881500  0.188800  1.0  0.1164
  H  H1547  1  0.313400  0.910000  0.210300  1.0  0.1208
  H  H1548  1  0.341800  0.907400  0.232500  1.0  0.0921
  H  H1549  1  0.415900  0.899300  0.257300  1.0  0.0866
  H  H1550  1  0.445900  0.897300  0.276600  1.0  0.1216
  H  H1551  1  0.448600  0.872200  0.303700  1.0  0.1178
  H  H1552  1  0.391400  0.851100  0.286700  1.0  0.0819
  H  H1553  1  0.344000  0.284600  0.648300  1.0  0.0741
  H  H1554  1  0.353400  0.296000  0.709600  1.0  0.1198
  H  H1555  1  0.376100  0.267100  0.710200  1.0  0.1186
  H  H1556  1  0.382300  0.248500  0.679600  1.0  0.082
  H  H1557  1  0.255300  0.336400  0.597700  1.0  0.0921
  H  H1558  1  0.276900  0.307000  0.598900  1.0  0.1202
  H  H1559  1  0.300200  0.302800  0.626500  1.0  0.115
  H  H1560  1  0.281800  0.359200  0.648300  1.0  0.0889
  H  H1561  1  0.354400  0.350700  0.712800  1.0  0.0812
  H  H1562  1  0.304300  0.381500  0.688800  1.0  0.1164
  H  H1563  1  0.313400  0.410000  0.710300  1.0  0.1208
  H  H1564  1  0.341800  0.407400  0.732500  1.0  0.0921
  H  H1565  1  0.415900  0.399300  0.757300  1.0  0.0866
  H  H1566  1  0.445900  0.397300  0.776600  1.0  0.1216
  H  H1567  1  0.448600  0.372200  0.803700  1.0  0.1178
  H  H1568  1  0.391400  0.351100  0.786700  1.0  0.0819
  H  H1569  1  0.844000  0.784600  0.648300  1.0  0.0741
  H  H1570  1  0.853400  0.796000  0.709600  1.0  0.1198
  H  H1571  1  0.876100  0.767100  0.710200  1.0  0.1186
  H  H1572  1  0.882300  0.748500  0.679600  1.0  0.082
  H  H1573  1  0.755300  0.836400  0.597700  1.0  0.0921
  H  H1574  1  0.776900  0.807000  0.598900  1.0  0.1202
  H  H1575  1  0.800200  0.802800  0.626500  1.0  0.115
  H  H1576  1  0.781800  0.859200  0.648300  1.0  0.0889
  H  H1577  1  0.854400  0.850700  0.712800  1.0  0.0812
  H  H1578  1  0.804300  0.881500  0.688800  1.0  0.1164
  H  H1579  1  0.813400  0.910000  0.710300  1.0  0.1208
  H  H1580  1  0.841800  0.907400  0.732500  1.0  0.0921
  H  H1581  1  0.915900  0.899300  0.757300  1.0  0.0866
  H  H1582  1  0.945900  0.897300  0.776600  1.0  0.1232
  H  H1583  1  0.948600  0.872200  0.803700  1.0  0.1178
  H  H1584  1  0.891400  0.851100  0.786700  1.0  0.0819
  H  H1585  1  0.844000  0.284600  0.148300  1.0  0.0741
  H  H1586  1  0.853400  0.296000  0.209600  1.0  0.1198
  H  H1587  1  0.876100  0.267100  0.210200  1.0  0.1186
  H  H1588  1  0.882300  0.248500  0.179600  1.0  0.082
  H  H1589  1  0.755300  0.336400  0.097700  1.0  0.0921
  H  H1590  1  0.776900  0.307000  0.098900  1.0  0.1202
  H  H1591  1  0.800200  0.302800  0.126500  1.0  0.115
  H  H1592  1  0.781800  0.359200  0.148300  1.0  0.0889
  H  H1593  1  0.854400  0.350700  0.212800  1.0  0.0812
  H  H1594  1  0.804300  0.381500  0.188800  1.0  0.1164
  H  H1595  1  0.813400  0.410000  0.210300  1.0  0.1208
  H  H1596  1  0.841800  0.407400  0.232500  1.0  0.0921
  H  H1597  1  0.915900  0.399300  0.257300  1.0  0.0866
  H  H1598  1  0.945900  0.397300  0.276600  1.0  0.1217
  H  H1599  1  0.948600  0.372200  0.303700  1.0  0.1178
  H  H1600  1  0.891400  0.351100  0.286700  1.0  0.0819
  H  H1601  1  0.906000  0.965400  0.648300  1.0  0.074
  H  H1602  1  0.896600  0.954000  0.709600  1.0  0.1194
  H  H1603  1  0.873900  0.982900  0.710200  1.0  0.1188
  H  H1604  1  0.867700  0.001500  0.679600  1.0  0.0824
  H  H1605  1  0.994700  0.913600  0.597700  1.0  0.0918
  H  H1606  1  0.973100  0.943000  0.598900  1.0  0.1203
  H  H1607  1  0.949800  0.947200  0.626500  1.0  0.1157
  H  H1608  1  0.968200  0.890800  0.648300  1.0  0.0897
  H  H1609  1  0.895600  0.899300  0.712800  1.0  0.0819
  H  H1610  1  0.945700  0.868500  0.688800  1.0  0.1162
  H  H1611  1  0.936600  0.840000  0.710300  1.0  0.1222
  H  H1612  1  0.908200  0.842600  0.732500  1.0  0.0923
  H  H1613  1  0.834100  0.850700  0.757300  1.0  0.0865
  H  H1614  1  0.804100  0.852700  0.776600  1.0  0.1211
  H  H1615  1  0.801400  0.877800  0.803700  1.0  0.118
  H  H1616  1  0.858600  0.898900  0.786700  1.0  0.0826
  H  H1617  1  0.906000  0.465400  0.148300  1.0  0.074
  H  H1618  1  0.896600  0.454000  0.209600  1.0  0.1194
  H  H1619  1  0.873900  0.482900  0.210200  1.0  0.1188
  H  H1620  1  0.867700  0.501500  0.179600  1.0  0.0824
  H  H1621  1  0.994700  0.413600  0.097700  1.0  0.0918
  H  H1622  1  0.973100  0.443000  0.098900  1.0  0.1203
  H  H1623  1  0.949800  0.447200  0.126500  1.0  0.1157
  H  H1624  1  0.968200  0.390800  0.148300  1.0  0.0897
  H  H1625  1  0.895600  0.399300  0.212800  1.0  0.0819
  H  H1626  1  0.945700  0.368500  0.188800  1.0  0.1162
  H  H1627  1  0.936600  0.340000  0.210300  1.0  0.1222
  H  H1628  1  0.908200  0.342600  0.232500  1.0  0.0923
  H  H1629  1  0.834100  0.350700  0.257300  1.0  0.0865
  H  H1630  1  0.804100  0.352700  0.276600  1.0  0.1211
  H  H1631  1  0.801400  0.377800  0.303700  1.0  0.118
  H  H1632  1  0.858600  0.398900  0.286700  1.0  0.0826
  H  H1633  1  0.406000  0.965400  0.148300  1.0  0.074
  H  H1634  1  0.396600  0.954000  0.209600  1.0  0.1199
  H  H1635  1  0.373900  0.982900  0.210200  1.0  0.1188
  H  H1636  1  0.367700  0.001500  0.179600  1.0  0.0824
  H  H1637  1  0.494700  0.913600  0.097700  1.0  0.0918
  H  H1638  1  0.473100  0.943000  0.098900  1.0  0.1203
  H  H1639  1  0.449800  0.947200  0.126500  1.0  0.1157
  H  H1640  1  0.468200  0.890800  0.148300  1.0  0.0897
  H  H1641  1  0.395600  0.899300  0.212800  1.0  0.0819
  H  H1642  1  0.445700  0.868500  0.188800  1.0  0.1162
  H  H1643  1  0.436600  0.840000  0.210300  1.0  0.1222
  H  H1644  1  0.408200  0.842600  0.232500  1.0  0.0923
  H  H1645  1  0.334100  0.850700  0.257300  1.0  0.0865
  H  H1646  1  0.304100  0.852700  0.276600  1.0  0.1211
  H  H1647  1  0.301400  0.877800  0.303700  1.0  0.118
  H  H1648  1  0.358600  0.898900  0.286700  1.0  0.0826
  H  H1649  1  0.406000  0.465400  0.648300  1.0  0.074
  H  H1650  1  0.396600  0.454000  0.709600  1.0  0.1199
  H  H1651  1  0.373900  0.482900  0.710200  1.0  0.1188
  H  H1652  1  0.367700  0.501500  0.679600  1.0  0.0824
  H  H1653  1  0.494700  0.413600  0.597700  1.0  0.0918
  H  H1654  1  0.473100  0.443000  0.598900  1.0  0.1203
  H  H1655  1  0.449800  0.447200  0.626500  1.0  0.1157
  H  H1656  1  0.468200  0.390800  0.648300  1.0  0.0897
  H  H1657  1  0.395600  0.399300  0.712800  1.0  0.0819
  H  H1658  1  0.445700  0.368500  0.688800  1.0  0.1162
  H  H1659  1  0.436600  0.340000  0.710300  1.0  0.1222
  H  H1660  1  0.408200  0.342600  0.732500  1.0  0.0923
  H  H1661  1  0.334100  0.350700  0.757300  1.0  0.0865
  H  H1662  1  0.304100  0.352700  0.776600  1.0  0.1211
  H  H1663  1  0.301400  0.377800  0.803700  1.0  0.118
  H  H1664  1  0.358600  0.398900  0.786700  1.0  0.0826
  H  H1665  1  0.406000  0.284600  0.101700  1.0  0.0734
  H  H1666  1  0.396600  0.296000  0.040400  1.0  0.1196
  H  H1667  1  0.373900  0.267100  0.039800  1.0  0.1184
  H  H1668  1  0.367700  0.248500  0.070400  1.0  0.082
  H  H1669  1  0.494700  0.336400  0.152300  1.0  0.0926
  H  H1670  1  0.473100  0.307000  0.151100  1.0  0.1209
  H  H1671  1  0.449800  0.302800  0.123500  1.0  0.1153
  H  H1672  1  0.468200  0.359200  0.101700  1.0  0.0893
  H  H1673  1  0.395600  0.350700  0.037200  1.0  0.0815
  H  H1674  1  0.445700  0.381500  0.061200  1.0  0.1157
  H  H1675  1  0.436600  0.410000  0.039700  1.0  0.121
  H  H1676  1  0.408200  0.407400  0.017500  1.0  0.0917
  H  H1677  1  0.334100  0.399300  0.992700  1.0  0.0868
  H  H1678  1  0.304100  0.397300  0.973400  1.0  0.1217
  H  H1679  1  0.301400  0.372200  0.946300  1.0  0.1186
  H  H1680  1  0.358600  0.351100  0.963300  1.0  0.082
  H  H1681  1  0.406000  0.784600  0.601700  1.0  0.0734
  H  H1682  1  0.396600  0.796000  0.540400  1.0  0.1196
  H  H1683  1  0.373900  0.767100  0.539800  1.0  0.1184
  H  H1684  1  0.367700  0.748500  0.570400  1.0  0.082
  H  H1685  1  0.494700  0.836400  0.652300  1.0  0.0926
  H  H1686  1  0.473100  0.807000  0.651100  1.0  0.1209
  H  H1687  1  0.449800  0.802800  0.623500  1.0  0.1153
  H  H1688  1  0.468200  0.859200  0.601700  1.0  0.0893
  H  H1689  1  0.395600  0.850700  0.537200  1.0  0.0815
  H  H1690  1  0.445700  0.881500  0.561200  1.0  0.1157
  H  H1691  1  0.436600  0.910000  0.539700  1.0  0.121
  H  H1692  1  0.408200  0.907400  0.517500  1.0  0.0917
  H  H1693  1  0.334100  0.899300  0.492700  1.0  0.0868
  H  H1694  1  0.304100  0.897300  0.473400  1.0  0.1217
  H  H1695  1  0.301400  0.872200  0.446300  1.0  0.1186
  H  H1696  1  0.358600  0.851100  0.463300  1.0  0.082
  H  H1697  1  0.906000  0.284600  0.601700  1.0  0.0734
  H  H1698  1  0.896600  0.296000  0.540400  1.0  0.1192
  H  H1699  1  0.873900  0.267100  0.539800  1.0  0.1184
  H  H1700  1  0.867700  0.248500  0.570400  1.0  0.082
  H  H1701  1  0.994700  0.336400  0.652300  1.0  0.0926
  H  H1702  1  0.973100  0.307000  0.651100  1.0  0.1209
  H  H1703  1  0.949800  0.302800  0.623500  1.0  0.1153
  H  H1704  1  0.968200  0.359200  0.601700  1.0  0.0893
  H  H1705  1  0.895600  0.350700  0.537200  1.0  0.0815
  H  H1706  1  0.945700  0.381500  0.561200  1.0  0.1157
  H  H1707  1  0.936600  0.410000  0.539700  1.0  0.121
  H  H1708  1  0.908200  0.407400  0.517500  1.0  0.0917
  H  H1709  1  0.834100  0.399300  0.492700  1.0  0.0868
  H  H1710  1  0.804100  0.397300  0.473400  1.0  0.1217
  H  H1711  1  0.801400  0.372200  0.446300  1.0  0.1186
  H  H1712  1  0.858600  0.351100  0.463300  1.0  0.082
  H  H1713  1  0.906000  0.784600  0.101700  1.0  0.0734
  H  H1714  1  0.896600  0.796000  0.040400  1.0  0.1192
  H  H1715  1  0.873900  0.767100  0.039800  1.0  0.1184
  H  H1716  1  0.867700  0.748500  0.070400  1.0  0.082
  H  H1717  1  0.994700  0.836400  0.152300  1.0  0.0926
  H  H1718  1  0.973100  0.807000  0.151100  1.0  0.1209
  H  H1719  1  0.949800  0.802800  0.123500  1.0  0.1153
  H  H1720  1  0.968200  0.859200  0.101700  1.0  0.0893
  H  H1721  1  0.895600  0.850700  0.037200  1.0  0.0815
  H  H1722  1  0.945700  0.881500  0.061200  1.0  0.1157
  H  H1723  1  0.936600  0.910000  0.039700  1.0  0.1212
  H  H1724  1  0.908200  0.907400  0.017500  1.0  0.0917
  H  H1725  1  0.834100  0.899300  0.992700  1.0  0.0868
  H  H1726  1  0.804100  0.897300  0.973400  1.0  0.1232
  H  H1727  1  0.801400  0.872200  0.946300  1.0  0.1186
  H  H1728  1  0.858600  0.851100  0.963300  1.0  0.082
  H  H1729  1  0.601700  0.784600  0.906000  1.0  0.0726
  H  H1730  1  0.540400  0.796000  0.896600  1.0  0.119
  H  H1731  1  0.539800  0.767100  0.873900  1.0  0.1194
  H  H1732  1  0.570400  0.748500  0.867700  1.0  0.0799
  H  H1733  1  0.652300  0.836400  0.994700  1.0  0.0908
  H  H1734  1  0.651100  0.807000  0.973100  1.0  0.1205
  H  H1735  1  0.623500  0.802800  0.949800  1.0  0.1149
  H  H1736  1  0.601700  0.859200  0.968200  1.0  0.0895
  H  H1737  1  0.537200  0.850700  0.895600  1.0  0.0805
  H  H1738  1  0.561200  0.881500  0.945700  1.0  0.1178
  H  H1739  1  0.539700  0.910000  0.936600  1.0  0.1204
  H  H1740  1  0.517500  0.907400  0.908200  1.0  0.0941
  H  H1741  1  0.492700  0.899300  0.834100  1.0  0.0886
  H  H1742  1  0.473400  0.897300  0.804100  1.0  0.1216
  H  H1743  1  0.446300  0.872200  0.801400  1.0  0.1193
  H  H1744  1  0.463300  0.851100  0.858600  1.0  0.0831
  H  H1745  1  0.601700  0.284600  0.406000  1.0  0.0726
  H  H1746  1  0.540400  0.296000  0.396600  1.0  0.1196
  H  H1747  1  0.539800  0.267100  0.373900  1.0  0.1194
  H  H1748  1  0.570400  0.248500  0.367700  1.0  0.0799
  H  H1749  1  0.652300  0.336400  0.494700  1.0  0.0908
  H  H1750  1  0.651100  0.307000  0.473100  1.0  0.1205
  H  H1751  1  0.623500  0.302800  0.449800  1.0  0.1149
  H  H1752  1  0.601700  0.359200  0.468200  1.0  0.0895
  H  H1753  1  0.537200  0.350700  0.395600  1.0  0.0805
  H  H1754  1  0.561200  0.381500  0.445700  1.0  0.1178
  H  H1755  1  0.539700  0.410000  0.436600  1.0  0.1204
  H  H1756  1  0.517500  0.407400  0.408200  1.0  0.0941
  H  H1757  1  0.492700  0.399300  0.334100  1.0  0.0886
  H  H1758  1  0.473400  0.397300  0.304100  1.0  0.1216
  H  H1759  1  0.446300  0.372200  0.301400  1.0  0.1193
  H  H1760  1  0.463300  0.351100  0.358600  1.0  0.0831
  H  H1761  1  0.101700  0.784600  0.406000  1.0  0.0726
  H  H1762  1  0.040400  0.796000  0.396600  1.0  0.1196
  H  H1763  1  0.039800  0.767100  0.373900  1.0  0.1194
  H  H1764  1  0.070400  0.748500  0.367700  1.0  0.0799
  H  H1765  1  0.152300  0.836400  0.494700  1.0  0.0908
  H  H1766  1  0.151100  0.807000  0.473100  1.0  0.1205
  H  H1767  1  0.123500  0.802800  0.449800  1.0  0.1149
  H  H1768  1  0.101700  0.859200  0.468200  1.0  0.0895
  H  H1769  1  0.037200  0.850700  0.395600  1.0  0.0805
  H  H1770  1  0.061200  0.881500  0.445700  1.0  0.1178
  H  H1771  1  0.039700  0.910000  0.436600  1.0  0.1204
  H  H1772  1  0.017500  0.907400  0.408200  1.0  0.0941
  H  H1773  1  0.992700  0.899300  0.334100  1.0  0.0886
  H  H1774  1  0.973400  0.897300  0.304100  1.0  0.1231
  H  H1775  1  0.946300  0.872200  0.301400  1.0  0.1193
  H  H1776  1  0.963300  0.851100  0.358600  1.0  0.0831
  H  H1777  1  0.101700  0.284600  0.906000  1.0  0.0726
  H  H1778  1  0.040400  0.296000  0.896600  1.0  0.119
  H  H1779  1  0.039800  0.267100  0.873900  1.0  0.1194
  H  H1780  1  0.070400  0.248500  0.867700  1.0  0.0799
  H  H1781  1  0.152300  0.336400  0.994700  1.0  0.0908
  H  H1782  1  0.151100  0.307000  0.973100  1.0  0.1205
  H  H1783  1  0.123500  0.302800  0.949800  1.0  0.1149
  H  H1784  1  0.101700  0.359200  0.968200  1.0  0.0895
  H  H1785  1  0.037200  0.350700  0.895600  1.0  0.0805
  H  H1786  1  0.061200  0.381500  0.945700  1.0  0.1178
  H  H1787  1  0.039700  0.410000  0.936600  1.0  0.1205
  H  H1788  1  0.017500  0.407400  0.908200  1.0  0.0941
  H  H1789  1  0.992700  0.399300  0.834100  1.0  0.0886
  H  H1790  1  0.973400  0.397300  0.804100  1.0  0.1216
  H  H1791  1  0.946300  0.372200  0.801400  1.0  0.1193
  H  H1792  1  0.963300  0.351100  0.858600  1.0  0.0831
  H  H1793  1  0.148300  0.465400  0.406000  1.0  0.0735
  H  H1794  1  0.209600  0.454000  0.396600  1.0  0.1194
  H  H1795  1  0.210200  0.482900  0.373900  1.0  0.1196
  H  H1796  1  0.179600  0.501500  0.367700  1.0  0.0795
  H  H1797  1  0.097700  0.413600  0.494700  1.0  0.0906
  H  H1798  1  0.098900  0.443000  0.473100  1.0  0.1203
  H  H1799  1  0.126500  0.447200  0.449800  1.0  0.1154
  H  H1800  1  0.148300  0.390800  0.468200  1.0  0.0902
  H  H1801  1  0.212800  0.399300  0.395600  1.0  0.0806
  H  H1802  1  0.188800  0.368500  0.445700  1.0  0.118
  H  H1803  1  0.210300  0.340000  0.436600  1.0  0.122
  H  H1804  1  0.232500  0.342600  0.408200  1.0  0.0948
  H  H1805  1  0.257300  0.350700  0.334100  1.0  0.0879
  H  H1806  1  0.276600  0.352700  0.304100  1.0  0.1206
  H  H1807  1  0.303700  0.377800  0.301400  1.0  0.1195
  H  H1808  1  0.286700  0.398900  0.358600  1.0  0.083
  H  H1809  1  0.148300  0.965400  0.906000  1.0  0.0735
  H  H1810  1  0.209600  0.954000  0.896600  1.0  0.1189
  H  H1811  1  0.210200  0.982900  0.873900  1.0  0.1196
  H  H1812  1  0.179600  0.001500  0.867700  1.0  0.0795
  H  H1813  1  0.097700  0.913600  0.994700  1.0  0.0906
  H  H1814  1  0.098900  0.943000  0.973100  1.0  0.1203
  H  H1815  1  0.126500  0.947200  0.949800  1.0  0.1154
  H  H1816  1  0.148300  0.890800  0.968200  1.0  0.0902
  H  H1817  1  0.212800  0.899300  0.895600  1.0  0.0806
  H  H1818  1  0.188800  0.868500  0.945700  1.0  0.118
  H  H1819  1  0.210300  0.840000  0.936600  1.0  0.122
  H  H1820  1  0.232500  0.842600  0.908200  1.0  0.0948
  H  H1821  1  0.257300  0.850700  0.834100  1.0  0.0879
  H  H1822  1  0.276600  0.852700  0.804100  1.0  0.1206
  H  H1823  1  0.303700  0.877800  0.801400  1.0  0.1195
  H  H1824  1  0.286700  0.898900  0.858600  1.0  0.083
  H  H1825  1  0.648300  0.465400  0.906000  1.0  0.0735
  H  H1826  1  0.709600  0.454000  0.896600  1.0  0.1189
  H  H1827  1  0.710200  0.482900  0.873900  1.0  0.1196
  H  H1828  1  0.679600  0.501500  0.867700  1.0  0.0795
  H  H1829  1  0.597700  0.413600  0.994700  1.0  0.0906
  H  H1830  1  0.598900  0.443000  0.973100  1.0  0.1203
  H  H1831  1  0.626500  0.447200  0.949800  1.0  0.1154
  H  H1832  1  0.648300  0.390800  0.968200  1.0  0.0902
  H  H1833  1  0.712800  0.399300  0.895600  1.0  0.0806
  H  H1834  1  0.688800  0.368500  0.945700  1.0  0.118
  H  H1835  1  0.710300  0.340000  0.936600  1.0  0.122
  H  H1836  1  0.732500  0.342600  0.908200  1.0  0.0948
  H  H1837  1  0.757300  0.350700  0.834100  1.0  0.0879
  H  H1838  1  0.776600  0.352700  0.804100  1.0  0.1206
  H  H1839  1  0.803700  0.377800  0.801400  1.0  0.1195
  H  H1840  1  0.786700  0.398900  0.858600  1.0  0.083
  H  H1841  1  0.648300  0.965400  0.406000  1.0  0.0735
  H  H1842  1  0.709600  0.954000  0.396600  1.0  0.1194
  H  H1843  1  0.710200  0.982900  0.373900  1.0  0.1196
  H  H1844  1  0.679600  0.001500  0.367700  1.0  0.0795
  H  H1845  1  0.597700  0.913600  0.494700  1.0  0.0906
  H  H1846  1  0.598900  0.943000  0.473100  1.0  0.1203
  H  H1847  1  0.626500  0.947200  0.449800  1.0  0.1154
  H  H1848  1  0.648300  0.890800  0.468200  1.0  0.0902
  H  H1849  1  0.712800  0.899300  0.395600  1.0  0.0806
  H  H1850  1  0.688800  0.868500  0.445700  1.0  0.118
  H  H1851  1  0.710300  0.840000  0.436600  1.0  0.122
  H  H1852  1  0.732500  0.842600  0.408200  1.0  0.0948
  H  H1853  1  0.757300  0.850700  0.334100  1.0  0.0879
  H  H1854  1  0.776600  0.852700  0.304100  1.0  0.1206
  H  H1855  1  0.803700  0.877800  0.301400  1.0  0.1195
  H  H1856  1  0.786700  0.898900  0.358600  1.0  0.083
  H  H1857  1  0.648300  0.284600  0.844000  1.0  0.0732
  H  H1858  1  0.709600  0.296000  0.853400  1.0  0.1199
  H  H1859  1  0.710200  0.267100  0.876100  1.0  0.1196
  H  H1860  1  0.679600  0.248500  0.882300  1.0  0.0796
  H  H1861  1  0.597700  0.336400  0.755300  1.0  0.0908
  H  H1862  1  0.598900  0.307000  0.776900  1.0  0.1208
  H  H1863  1  0.626500  0.302800  0.800200  1.0  0.1149
  H  H1864  1  0.648300  0.359200  0.781800  1.0  0.0893
  H  H1865  1  0.712800  0.350700  0.854400  1.0  0.0802
  H  H1866  1  0.688800  0.381500  0.804300  1.0  0.1175
  H  H1867  1  0.710300  0.410000  0.813400  1.0  0.1202
  H  H1868  1  0.732500  0.407400  0.841800  1.0  0.0941
  H  H1869  1  0.757300  0.399300  0.915900  1.0  0.0884
  H  H1870  1  0.776600  0.397300  0.945900  1.0  0.1215
  H  H1871  1  0.803700  0.372200  0.948600  1.0  0.1194
  H  H1872  1  0.786700  0.351100  0.891400  1.0  0.0827
  H  H1873  1  0.648300  0.784600  0.344000  1.0  0.0732
  H  H1874  1  0.709600  0.796000  0.353400  1.0  0.1199
  H  H1875  1  0.710200  0.767100  0.376100  1.0  0.1196
  H  H1876  1  0.679600  0.748500  0.382300  1.0  0.0796
  H  H1877  1  0.597700  0.836400  0.255300  1.0  0.0908
  H  H1878  1  0.598900  0.807000  0.276900  1.0  0.1208
  H  H1879  1  0.626500  0.802800  0.300200  1.0  0.1149
  H  H1880  1  0.648300  0.859200  0.281800  1.0  0.0893
  H  H1881  1  0.712800  0.850700  0.354400  1.0  0.0802
  H  H1882  1  0.688800  0.881500  0.304300  1.0  0.1175
  H  H1883  1  0.710300  0.910000  0.313400  1.0  0.1202
  H  H1884  1  0.732500  0.907400  0.341800  1.0  0.0941
  H  H1885  1  0.757300  0.899300  0.415900  1.0  0.0884
  H  H1886  1  0.776600  0.897300  0.445900  1.0  0.1216
  H  H1887  1  0.803700  0.872200  0.448600  1.0  0.1194
  H  H1888  1  0.786700  0.851100  0.391400  1.0  0.0827
  H  H1889  1  0.148300  0.284600  0.344000  1.0  0.0732
  H  H1890  1  0.209600  0.296000  0.353400  1.0  0.1199
  H  H1891  1  0.210200  0.267100  0.376100  1.0  0.1196
  H  H1892  1  0.179600  0.248500  0.382300  1.0  0.0796
  H  H1893  1  0.097700  0.336400  0.255300  1.0  0.0908
  H  H1894  1  0.098900  0.307000  0.276900  1.0  0.1208
  H  H1895  1  0.126500  0.302800  0.300200  1.0  0.1149
  H  H1896  1  0.148300  0.359200  0.281800  1.0  0.0893
  H  H1897  1  0.212800  0.350700  0.354400  1.0  0.0802
  H  H1898  1  0.188800  0.381500  0.304300  1.0  0.1175
  H  H1899  1  0.210300  0.410000  0.313400  1.0  0.1202
  H  H1900  1  0.232500  0.407400  0.341800  1.0  0.0941
  H  H1901  1  0.257300  0.399300  0.415900  1.0  0.0884
  H  H1902  1  0.276600  0.397300  0.445900  1.0  0.1216
  H  H1903  1  0.303700  0.372200  0.448600  1.0  0.1194
  H  H1904  1  0.286700  0.351100  0.391400  1.0  0.0827
  H  H1905  1  0.148300  0.784600  0.844000  1.0  0.0732
  H  H1906  1  0.209600  0.796000  0.853400  1.0  0.1199
  H  H1907  1  0.210200  0.767100  0.876100  1.0  0.1196
  H  H1908  1  0.179600  0.748500  0.882300  1.0  0.0796
  H  H1909  1  0.097700  0.836400  0.755300  1.0  0.0908
  H  H1910  1  0.098900  0.807000  0.776900  1.0  0.1208
  H  H1911  1  0.126500  0.802800  0.800200  1.0  0.1149
  H  H1912  1  0.148300  0.859200  0.781800  1.0  0.0893
  H  H1913  1  0.212800  0.850700  0.854400  1.0  0.0802
  H  H1914  1  0.188800  0.881500  0.804300  1.0  0.1175
  H  H1915  1  0.210300  0.910000  0.813400  1.0  0.1202
  H  H1916  1  0.232500  0.907400  0.841800  1.0  0.0941
  H  H1917  1  0.257300  0.899300  0.915900  1.0  0.0884
  H  H1918  1  0.276600  0.897300  0.945900  1.0  0.1228
  H  H1919  1  0.303700  0.872200  0.948600  1.0  0.1194
  H  H1920  1  0.286700  0.851100  0.891400  1.0  0.0827
  H  H1921  1  0.101700  0.965400  0.344000  1.0  0.0726
  H  H1922  1  0.040400  0.954000  0.353400  1.0  0.1198
  H  H1923  1  0.039800  0.982900  0.376100  1.0  0.1196
  H  H1924  1  0.070400  0.001500  0.382300  1.0  0.0802
  H  H1925  1  0.152300  0.913600  0.255300  1.0  0.091
  H  H1926  1  0.151100  0.943000  0.276900  1.0  0.121
  H  H1927  1  0.123500  0.947200  0.300200  1.0  0.115
  H  H1928  1  0.101700  0.890800  0.281800  1.0  0.0898
  H  H1929  1  0.037200  0.899300  0.354400  1.0  0.0803
  H  H1930  1  0.061200  0.868500  0.304300  1.0  0.1175
  H  H1931  1  0.039700  0.840000  0.313400  1.0  0.1208
  H  H1932  1  0.017500  0.842600  0.341800  1.0  0.0949
  H  H1933  1  0.992700  0.850700  0.415900  1.0  0.0887
  H  H1934  1  0.973400  0.852700  0.445900  1.0  0.1212
  H  H1935  1  0.946300  0.877800  0.448600  1.0  0.1194
  H  H1936  1  0.963300  0.898900  0.391400  1.0  0.0831
  H  H1937  1  0.101700  0.465400  0.844000  1.0  0.0726
  H  H1938  1  0.040400  0.454000  0.853400  1.0  0.1198
  H  H1939  1  0.039800  0.482900  0.876100  1.0  0.1196
  H  H1940  1  0.070400  0.501500  0.882300  1.0  0.0802
  H  H1941  1  0.152300  0.413600  0.755300  1.0  0.091
  H  H1942  1  0.151100  0.443000  0.776900  1.0  0.121
  H  H1943  1  0.123500  0.447200  0.800200  1.0  0.115
  H  H1944  1  0.101700  0.390800  0.781800  1.0  0.0898
  H  H1945  1  0.037200  0.399300  0.854400  1.0  0.0803
  H  H1946  1  0.061200  0.368500  0.804300  1.0  0.1175
  H  H1947  1  0.039700  0.340000  0.813400  1.0  0.1208
  H  H1948  1  0.017500  0.342600  0.841800  1.0  0.0949
  H  H1949  1  0.992700  0.350700  0.915900  1.0  0.0887
  H  H1950  1  0.973400  0.352700  0.945900  1.0  0.1227
  H  H1951  1  0.946300  0.377800  0.948600  1.0  0.1194
  H  H1952  1  0.963300  0.398900  0.891400  1.0  0.0831
  H  H1953  1  0.601700  0.965400  0.844000  1.0  0.0726
  H  H1954  1  0.540400  0.954000  0.853400  1.0  0.1198
  H  H1955  1  0.539800  0.982900  0.876100  1.0  0.1196
  H  H1956  1  0.570400  0.001500  0.882300  1.0  0.0802
  H  H1957  1  0.652300  0.913600  0.755300  1.0  0.091
  H  H1958  1  0.651100  0.943000  0.776900  1.0  0.121
  H  H1959  1  0.623500  0.947200  0.800200  1.0  0.115
  H  H1960  1  0.601700  0.890800  0.781800  1.0  0.0898
  H  H1961  1  0.537200  0.899300  0.854400  1.0  0.0803
  H  H1962  1  0.561200  0.868500  0.804300  1.0  0.1175
  H  H1963  1  0.539700  0.840000  0.813400  1.0  0.1208
  H  H1964  1  0.517500  0.842600  0.841800  1.0  0.0949
  H  H1965  1  0.492700  0.850700  0.915900  1.0  0.0887
  H  H1966  1  0.473400  0.852700  0.945900  1.0  0.1213
  H  H1967  1  0.446300  0.877800  0.948600  1.0  0.1194
  H  H1968  1  0.463300  0.898900  0.891400  1.0  0.0831
  H  H1969  1  0.601700  0.465400  0.344000  1.0  0.0726
  H  H1970  1  0.540400  0.454000  0.353400  1.0  0.1198
  H  H1971  1  0.539800  0.482900  0.376100  1.0  0.1196
  H  H1972  1  0.570400  0.501500  0.382300  1.0  0.0802
  H  H1973  1  0.652300  0.413600  0.255300  1.0  0.091
  H  H1974  1  0.651100  0.443000  0.276900  1.0  0.121
  H  H1975  1  0.623500  0.447200  0.300200  1.0  0.115
  H  H1976  1  0.601700  0.390800  0.281800  1.0  0.0898
  H  H1977  1  0.537200  0.399300  0.354400  1.0  0.0803
  H  H1978  1  0.561200  0.368500  0.304300  1.0  0.1175
  H  H1979  1  0.539700  0.340000  0.313400  1.0  0.1208
  H  H1980  1  0.517500  0.342600  0.341800  1.0  0.0949
  H  H1981  1  0.492700  0.350700  0.415900  1.0  0.0887
  H  H1982  1  0.473400  0.352700  0.445900  1.0  0.1212
  H  H1983  1  0.446300  0.377800  0.448600  1.0  0.1194
  H  H1984  1  0.463300  0.398900  0.391400  1.0  0.0831
  H  H1985  1  0.906000  0.601700  0.784600  1.0  0.0742
  H  H1986  1  0.896600  0.540400  0.796000  1.0  0.1188
  H  H1987  1  0.873900  0.539800  0.767100  1.0  0.12
  H  H1988  1  0.867700  0.570400  0.748500  1.0  0.0802
  H  H1989  1  0.994700  0.652300  0.836400  1.0  0.0936
  H  H1990  1  0.973100  0.651100  0.807000  1.0  0.1201
  H  H1991  1  0.949800  0.623500  0.802800  1.0  0.116
  H  H1992  1  0.968200  0.601700  0.859200  1.0  0.0901
  H  H1993  1  0.895600  0.537200  0.850700  1.0  0.0814
  H  H1994  1  0.945700  0.561200  0.881500  1.0  0.1168
  H  H1995  1  0.936600  0.539700  0.910000  1.0  0.119
  H  H1996  1  0.908200  0.517500  0.907400  1.0  0.0927
  H  H1997  1  0.834100  0.492700  0.899300  1.0  0.0879
  H  H1998  1  0.804100  0.473400  0.897300  1.0  0.1208
  H  H1999  1  0.801400  0.446300  0.872200  1.0  0.1186
  H  H2000  1  0.858600  0.463300  0.851100  1.0  0.0822
  H  H2001  1  0.906000  0.101700  0.284600  1.0  0.0742
  H  H2002  1  0.896600  0.040400  0.296000  1.0  0.1188
  H  H2003  1  0.873900  0.039800  0.267100  1.0  0.12
  H  H2004  1  0.867700  0.070400  0.248500  1.0  0.0802
  H  H2005  1  0.994700  0.152300  0.336400  1.0  0.0936
  H  H2006  1  0.973100  0.151100  0.307000  1.0  0.1201
  H  H2007  1  0.949800  0.123500  0.302800  1.0  0.116
  H  H2008  1  0.968200  0.101700  0.359200  1.0  0.0901
  H  H2009  1  0.895600  0.037200  0.350700  1.0  0.0814
  H  H2010  1  0.945700  0.061200  0.381500  1.0  0.1168
  H  H2011  1  0.936600  0.039700  0.410000  1.0  0.1193
  H  H2012  1  0.908200  0.017500  0.407400  1.0  0.0927
  H  H2013  1  0.834100  0.992700  0.399300  1.0  0.0879
  H  H2014  1  0.804100  0.973400  0.397300  1.0  0.1208
  H  H2015  1  0.801400  0.946300  0.372200  1.0  0.1186
  H  H2016  1  0.858600  0.963300  0.351100  1.0  0.0822
  H  H2017  1  0.406000  0.601700  0.284600  1.0  0.0742
  H  H2018  1  0.396600  0.540400  0.296000  1.0  0.1192
  H  H2019  1  0.373900  0.539800  0.267100  1.0  0.12
  H  H2020  1  0.367700  0.570400  0.248500  1.0  0.0802
  H  H2021  1  0.494700  0.652300  0.336400  1.0  0.0936
  H  H2022  1  0.473100  0.651100  0.307000  1.0  0.1201
  H  H2023  1  0.449800  0.623500  0.302800  1.0  0.116
  H  H2024  1  0.468200  0.601700  0.359200  1.0  0.0901
  H  H2025  1  0.395600  0.537200  0.350700  1.0  0.0814
  H  H2026  1  0.445700  0.561200  0.381500  1.0  0.1168
  H  H2027  1  0.436600  0.539700  0.410000  1.0  0.119
  H  H2028  1  0.408200  0.517500  0.407400  1.0  0.0927
  H  H2029  1  0.334100  0.492700  0.399300  1.0  0.0879
  H  H2030  1  0.304100  0.473400  0.397300  1.0  0.1208
  H  H2031  1  0.301400  0.446300  0.372200  1.0  0.1186
  H  H2032  1  0.358600  0.463300  0.351100  1.0  0.0822
  H  H2033  1  0.406000  0.101700  0.784600  1.0  0.0742
  H  H2034  1  0.396600  0.040400  0.796000  1.0  0.1192
  H  H2035  1  0.373900  0.039800  0.767100  1.0  0.12
  H  H2036  1  0.367700  0.070400  0.748500  1.0  0.0802
  H  H2037  1  0.494700  0.152300  0.836400  1.0  0.0936
  H  H2038  1  0.473100  0.151100  0.807000  1.0  0.1201
  H  H2039  1  0.449800  0.123500  0.802800  1.0  0.116
  H  H2040  1  0.468200  0.101700  0.859200  1.0  0.0901
  H  H2041  1  0.395600  0.037200  0.850700  1.0  0.0814
  H  H2042  1  0.445700  0.061200  0.881500  1.0  0.1168
  H  H2043  1  0.436600  0.039700  0.910000  1.0  0.119
  H  H2044  1  0.408200  0.017500  0.907400  1.0  0.0927
  H  H2045  1  0.334100  0.992700  0.899300  1.0  0.0879
  H  H2046  1  0.304100  0.973400  0.897300  1.0  0.1223
  H  H2047  1  0.301400  0.946300  0.872200  1.0  0.1186
  H  H2048  1  0.358600  0.963300  0.851100  1.0  0.0822
  H  H2049  1  0.406000  0.148300  0.465400  1.0  0.0742
  H  H2050  1  0.396600  0.209600  0.454000  1.0  0.1196
  H  H2051  1  0.373900  0.210200  0.482900  1.0  0.1199
  H  H2052  1  0.367700  0.179600  0.501500  1.0  0.0807
  H  H2053  1  0.494700  0.097700  0.413600  1.0  0.0938
  H  H2054  1  0.473100  0.098900  0.443000  1.0  0.1206
  H  H2055  1  0.449800  0.126500  0.447200  1.0  0.1162
  H  H2056  1  0.468200  0.148300  0.390800  1.0  0.09
  H  H2057  1  0.395600  0.212800  0.399300  1.0  0.0817
  H  H2058  1  0.445700  0.188800  0.368500  1.0  0.1164
  H  H2059  1  0.436600  0.210300  0.340000  1.0  0.1191
  H  H2060  1  0.408200  0.232500  0.342600  1.0  0.0936
  H  H2061  1  0.334100  0.257300  0.350700  1.0  0.0868
  H  H2062  1  0.304100  0.276600  0.352700  1.0  0.1205
  H  H2063  1  0.301400  0.303700  0.377800  1.0  0.1185
  H  H2064  1  0.358600  0.286700  0.398900  1.0  0.0823
  H  H2065  1  0.406000  0.648300  0.965400  1.0  0.0742
  H  H2066  1  0.396600  0.709600  0.954000  1.0  0.1196
  H  H2067  1  0.373900  0.710200  0.982900  1.0  0.1199
  H  H2068  1  0.367700  0.679600  0.001500  1.0  0.0807
  H  H2069  1  0.494700  0.597700  0.913600  1.0  0.0938
  H  H2070  1  0.473100  0.598900  0.943000  1.0  0.1206
  H  H2071  1  0.449800  0.626500  0.947200  1.0  0.1162
  H  H2072  1  0.468200  0.648300  0.890800  1.0  0.09
  H  H2073  1  0.395600  0.712800  0.899300  1.0  0.0817
  H  H2074  1  0.445700  0.688800  0.868500  1.0  0.1164
  H  H2075  1  0.436600  0.710300  0.840000  1.0  0.1191
  H  H2076  1  0.408200  0.732500  0.842600  1.0  0.0936
  H  H2077  1  0.334100  0.757300  0.850700  1.0  0.0868
  H  H2078  1  0.304100  0.776600  0.852700  1.0  0.1205
  H  H2079  1  0.301400  0.803700  0.877800  1.0  0.1185
  H  H2080  1  0.358600  0.786700  0.898900  1.0  0.0823
  H  H2081  1  0.906000  0.148300  0.965400  1.0  0.0742
  H  H2082  1  0.896600  0.209600  0.954000  1.0  0.1193
  H  H2083  1  0.873900  0.210200  0.982900  1.0  0.1199
  H  H2084  1  0.867700  0.179600  0.001500  1.0  0.0807
  H  H2085  1  0.994700  0.097700  0.913600  1.0  0.0938
  H  H2086  1  0.973100  0.098900  0.943000  1.0  0.1206
  H  H2087  1  0.949800  0.126500  0.947200  1.0  0.1162
  H  H2088  1  0.968200  0.148300  0.890800  1.0  0.09
  H  H2089  1  0.895600  0.212800  0.899300  1.0  0.0817
  H  H2090  1  0.945700  0.188800  0.868500  1.0  0.1164
  H  H2091  1  0.936600  0.210300  0.840000  1.0  0.1191
  H  H2092  1  0.908200  0.232500  0.842600  1.0  0.0936
  H  H2093  1  0.834100  0.257300  0.850700  1.0  0.0868
  H  H2094  1  0.804100  0.276600  0.852700  1.0  0.1205
  H  H2095  1  0.801400  0.303700  0.877800  1.0  0.1185
  H  H2096  1  0.858600  0.286700  0.898900  1.0  0.0823
  H  H2097  1  0.906000  0.648300  0.465400  1.0  0.0742
  H  H2098  1  0.896600  0.709600  0.454000  1.0  0.1193
  H  H2099  1  0.873900  0.710200  0.482900  1.0  0.1199
  H  H2100  1  0.867700  0.679600  0.501500  1.0  0.0807
  H  H2101  1  0.994700  0.597700  0.413600  1.0  0.0938
  H  H2102  1  0.973100  0.598900  0.443000  1.0  0.1206
  H  H2103  1  0.949800  0.626500  0.447200  1.0  0.1162
  H  H2104  1  0.968200  0.648300  0.390800  1.0  0.09
  H  H2105  1  0.895600  0.712800  0.399300  1.0  0.0817
  H  H2106  1  0.945700  0.688800  0.368500  1.0  0.1164
  H  H2107  1  0.936600  0.710300  0.340000  1.0  0.1191
  H  H2108  1  0.908200  0.732500  0.342600  1.0  0.0936
  H  H2109  1  0.834100  0.757300  0.350700  1.0  0.0868
  H  H2110  1  0.804100  0.776600  0.352700  1.0  0.1205
  H  H2111  1  0.801400  0.803700  0.377800  1.0  0.1185
  H  H2112  1  0.858600  0.786700  0.398900  1.0  0.0823
  H  H2113  1  0.844000  0.648300  0.284600  1.0  0.0745
  H  H2114  1  0.853400  0.709600  0.296000  1.0  0.119
  H  H2115  1  0.876100  0.710200  0.267100  1.0  0.1202
  H  H2116  1  0.882300  0.679600  0.248500  1.0  0.0798
  H  H2117  1  0.755300  0.597700  0.336400  1.0  0.0937
  H  H2118  1  0.776900  0.598900  0.307000  1.0  0.1202
  H  H2119  1  0.800200  0.626500  0.302800  1.0  0.1156
  H  H2120  1  0.781800  0.648300  0.359200  1.0  0.0894
  H  H2121  1  0.854400  0.712800  0.350700  1.0  0.0816
  H  H2122  1  0.804300  0.688800  0.381500  1.0  0.117
  H  H2123  1  0.813400  0.710300  0.410000  1.0  0.1192
  H  H2124  1  0.841800  0.732500  0.407400  1.0  0.0936
  H  H2125  1  0.915900  0.757300  0.399300  1.0  0.0872
  H  H2126  1  0.945900  0.776600  0.397300  1.0  0.1206
  H  H2127  1  0.948600  0.803700  0.372200  1.0  0.1184
  H  H2128  1  0.891400  0.786700  0.351100  1.0  0.082
  H  H2129  1  0.844000  0.148300  0.784600  1.0  0.0745
  H  H2130  1  0.853400  0.209600  0.796000  1.0  0.119
  H  H2131  1  0.876100  0.210200  0.767100  1.0  0.1202
  H  H2132  1  0.882300  0.179600  0.748500  1.0  0.0798
  H  H2133  1  0.755300  0.097700  0.836400  1.0  0.0937
  H  H2134  1  0.776900  0.098900  0.807000  1.0  0.1202
  H  H2135  1  0.800200  0.126500  0.802800  1.0  0.1156
  H  H2136  1  0.781800  0.148300  0.859200  1.0  0.0894
  H  H2137  1  0.854400  0.212800  0.850700  1.0  0.0816
  H  H2138  1  0.804300  0.188800  0.881500  1.0  0.117
  H  H2139  1  0.813400  0.210300  0.910000  1.0  0.1192
  H  H2140  1  0.841800  0.232500  0.907400  1.0  0.0936
  H  H2141  1  0.915900  0.257300  0.899300  1.0  0.0872
  H  H2142  1  0.945900  0.276600  0.897300  1.0  0.1221
  H  H2143  1  0.948600  0.303700  0.872200  1.0  0.1184
  H  H2144  1  0.891400  0.286700  0.851100  1.0  0.082
  H  H2145  1  0.344000  0.648300  0.784600  1.0  0.0745
  H  H2146  1  0.353400  0.709600  0.796000  1.0  0.119
  H  H2147  1  0.376100  0.710200  0.767100  1.0  0.1202
  H  H2148  1  0.382300  0.679600  0.748500  1.0  0.0798
  H  H2149  1  0.255300  0.597700  0.836400  1.0  0.0937
  H  H2150  1  0.276900  0.598900  0.807000  1.0  0.1202
  H  H2151  1  0.300200  0.626500  0.802800  1.0  0.1156
  H  H2152  1  0.281800  0.648300  0.859200  1.0  0.0894
  H  H2153  1  0.354400  0.712800  0.850700  1.0  0.0816
  H  H2154  1  0.304300  0.688800  0.881500  1.0  0.117
  H  H2155  1  0.313400  0.710300  0.910000  1.0  0.1192
  H  H2156  1  0.341800  0.732500  0.907400  1.0  0.0936
  H  H2157  1  0.415900  0.757300  0.899300  1.0  0.0872
  H  H2158  1  0.445900  0.776600  0.897300  1.0  0.1206
  H  H2159  1  0.448600  0.803700  0.872200  1.0  0.1184
  H  H2160  1  0.391400  0.786700  0.851100  1.0  0.082
  H  H2161  1  0.344000  0.148300  0.284600  1.0  0.0745
  H  H2162  1  0.353400  0.209600  0.296000  1.0  0.119
  H  H2163  1  0.376100  0.210200  0.267100  1.0  0.1202
  H  H2164  1  0.382300  0.179600  0.248500  1.0  0.0798
  H  H2165  1  0.255300  0.097700  0.336400  1.0  0.0937
  H  H2166  1  0.276900  0.098900  0.307000  1.0  0.1202
  H  H2167  1  0.300200  0.126500  0.302800  1.0  0.1156
  H  H2168  1  0.281800  0.148300  0.359200  1.0  0.0894
  H  H2169  1  0.354400  0.212800  0.350700  1.0  0.0816
  H  H2170  1  0.304300  0.188800  0.381500  1.0  0.117
  H  H2171  1  0.313400  0.210300  0.410000  1.0  0.1192
  H  H2172  1  0.341800  0.232500  0.407400  1.0  0.0936
  H  H2173  1  0.415900  0.257300  0.399300  1.0  0.0872
  H  H2174  1  0.445900  0.276600  0.397300  1.0  0.1206
  H  H2175  1  0.448600  0.303700  0.372200  1.0  0.1184
  H  H2176  1  0.391400  0.286700  0.351100  1.0  0.082
  H  H2177  1  0.344000  0.101700  0.965400  1.0  0.0746
  H  H2178  1  0.353400  0.040400  0.954000  1.0  0.1192
  H  H2179  1  0.376100  0.039800  0.982900  1.0  0.1197
  H  H2180  1  0.382300  0.070400  0.001500  1.0  0.0799
  H  H2181  1  0.255300  0.152300  0.913600  1.0  0.0937
  H  H2182  1  0.276900  0.151100  0.943000  1.0  0.12
  H  H2183  1  0.300200  0.123500  0.947200  1.0  0.1161
  H  H2184  1  0.281800  0.101700  0.890800  1.0  0.0898
  H  H2185  1  0.354400  0.037200  0.899300  1.0  0.0813
  H  H2186  1  0.304300  0.061200  0.868500  1.0  0.117
  H  H2187  1  0.313400  0.039700  0.840000  1.0  0.1185
  H  H2188  1  0.341800  0.017500  0.842600  1.0  0.0931
  H  H2189  1  0.415900  0.992700  0.850700  1.0  0.0871
  H  H2190  1  0.445900  0.973400  0.852700  1.0  0.1205
  H  H2191  1  0.448600  0.946300  0.877800  1.0  0.1184
  H  H2192  1  0.391400  0.963300  0.898900  1.0  0.0819
  H  H2193  1  0.344000  0.601700  0.465400  1.0  0.0746
  H  H2194  1  0.353400  0.540400  0.454000  1.0  0.1192
  H  H2195  1  0.376100  0.539800  0.482900  1.0  0.1197
  H  H2196  1  0.382300  0.570400  0.501500  1.0  0.0799
  H  H2197  1  0.255300  0.652300  0.413600  1.0  0.0937
  H  H2198  1  0.276900  0.651100  0.443000  1.0  0.12
  H  H2199  1  0.300200  0.623500  0.447200  1.0  0.1161
  H  H2200  1  0.281800  0.601700  0.390800  1.0  0.0898
  H  H2201  1  0.354400  0.537200  0.399300  1.0  0.0813
  H  H2202  1  0.304300  0.561200  0.368500  1.0  0.117
  H  H2203  1  0.313400  0.539700  0.340000  1.0  0.1185
  H  H2204  1  0.341800  0.517500  0.342600  1.0  0.0931
  H  H2205  1  0.415900  0.492700  0.350700  1.0  0.0871
  H  H2206  1  0.445900  0.473400  0.352700  1.0  0.1205
  H  H2207  1  0.448600  0.446300  0.377800  1.0  0.1184
  H  H2208  1  0.391400  0.463300  0.398900  1.0  0.0819
  H  H2209  1  0.844000  0.101700  0.465400  1.0  0.0746
  H  H2210  1  0.853400  0.040400  0.454000  1.0  0.1192
  H  H2211  1  0.876100  0.039800  0.482900  1.0  0.1197
  H  H2212  1  0.882300  0.070400  0.501500  1.0  0.0799
  H  H2213  1  0.755300  0.152300  0.413600  1.0  0.0937
  H  H2214  1  0.776900  0.151100  0.443000  1.0  0.12
  H  H2215  1  0.800200  0.123500  0.447200  1.0  0.1161
  H  H2216  1  0.781800  0.101700  0.390800  1.0  0.0898
  H  H2217  1  0.854400  0.037200  0.399300  1.0  0.0813
  H  H2218  1  0.804300  0.061200  0.368500  1.0  0.117
  H  H2219  1  0.813400  0.039700  0.340000  1.0  0.1185
  H  H2220  1  0.841800  0.017500  0.342600  1.0  0.0931
  H  H2221  1  0.915900  0.992700  0.350700  1.0  0.0871
  H  H2222  1  0.945900  0.973400  0.352700  1.0  0.1222
  H  H2223  1  0.948600  0.946300  0.377800  1.0  0.1184
  H  H2224  1  0.891400  0.963300  0.398900  1.0  0.0819
  H  H2225  1  0.844000  0.601700  0.965400  1.0  0.0746
  H  H2226  1  0.853400  0.540400  0.954000  1.0  0.1192
  H  H2227  1  0.876100  0.539800  0.982900  1.0  0.1197
  H  H2228  1  0.882300  0.570400  0.001500  1.0  0.0799
  H  H2229  1  0.755300  0.652300  0.913600  1.0  0.0937
  H  H2230  1  0.776900  0.651100  0.943000  1.0  0.12
  H  H2231  1  0.800200  0.623500  0.947200  1.0  0.1161
  H  H2232  1  0.781800  0.601700  0.890800  1.0  0.0898
  H  H2233  1  0.854400  0.537200  0.899300  1.0  0.0813
  H  H2234  1  0.804300  0.561200  0.868500  1.0  0.117
  H  H2235  1  0.813400  0.539700  0.840000  1.0  0.1185
  H  H2236  1  0.841800  0.517500  0.842600  1.0  0.0931
  H  H2237  1  0.915900  0.492700  0.850700  1.0  0.0871
  H  H2238  1  0.945900  0.473400  0.852700  1.0  0.1206
  H  H2239  1  0.948600  0.446300  0.877800  1.0  0.1184
  H  H2240  1  0.891400  0.463300  0.898900  1.0  0.0819
  H  H2241  1  0.784600  0.906000  0.601700  1.0  0.0739
  H  H2242  1  0.796000  0.896600  0.540400  1.0  0.1194
  H  H2243  1  0.767100  0.873900  0.539800  1.0  0.1183
  H  H2244  1  0.748500  0.867700  0.570400  1.0  0.0806
  H  H2245  1  0.836400  0.994700  0.652300  1.0  0.0914
  H  H2246  1  0.807000  0.973100  0.651100  1.0  0.1195
  H  H2247  1  0.802800  0.949800  0.623500  1.0  0.1157
  H  H2248  1  0.859200  0.968200  0.601700  1.0  0.0897
  H  H2249  1  0.850700  0.895600  0.537200  1.0  0.0805
  H  H2250  1  0.881500  0.945700  0.561200  1.0  0.1162
  H  H2251  1  0.910000  0.936600  0.539700  1.0  0.1204
  H  H2252  1  0.907400  0.908200  0.517500  1.0  0.0909
  H  H2253  1  0.899300  0.834100  0.492700  1.0  0.0873
  H  H2254  1  0.897300  0.804100  0.473400  1.0  0.1214
  H  H2255  1  0.872200  0.801400  0.446300  1.0  0.118
  H  H2256  1  0.851100  0.858600  0.463300  1.0  0.0824
  H  H2257  1  0.784600  0.406000  0.101700  1.0  0.0739
  H  H2258  1  0.796000  0.396600  0.040400  1.0  0.1197
  H  H2259  1  0.767100  0.373900  0.039800  1.0  0.1183
  H  H2260  1  0.748500  0.367700  0.070400  1.0  0.0806
  H  H2261  1  0.836400  0.494700  0.152300  1.0  0.0914
  H  H2262  1  0.807000  0.473100  0.151100  1.0  0.1195
  H  H2263  1  0.802800  0.449800  0.123500  1.0  0.1157
  H  H2264  1  0.859200  0.468200  0.101700  1.0  0.0897
  H  H2265  1  0.850700  0.395600  0.037200  1.0  0.0805
  H  H2266  1  0.881500  0.445700  0.061200  1.0  0.1162
  H  H2267  1  0.910000  0.436600  0.039700  1.0  0.1204
  H  H2268  1  0.907400  0.408200  0.017500  1.0  0.0909
  H  H2269  1  0.899300  0.334100  0.992700  1.0  0.0873
  H  H2270  1  0.897300  0.304100  0.973400  1.0  0.1228
  H  H2271  1  0.872200  0.301400  0.946300  1.0  0.118
  H  H2272  1  0.851100  0.358600  0.963300  1.0  0.0824
  H  H2273  1  0.284600  0.906000  0.101700  1.0  0.0739
  H  H2274  1  0.296000  0.896600  0.040400  1.0  0.1194
  H  H2275  1  0.267100  0.873900  0.039800  1.0  0.1183
  H  H2276  1  0.248500  0.867700  0.070400  1.0  0.0806
  H  H2277  1  0.336400  0.994700  0.152300  1.0  0.0914
  H  H2278  1  0.307000  0.973100  0.151100  1.0  0.1195
  H  H2279  1  0.302800  0.949800  0.123500  1.0  0.1157
  H  H2280  1  0.359200  0.968200  0.101700  1.0  0.0897
  H  H2281  1  0.350700  0.895600  0.037200  1.0  0.0805
  H  H2282  1  0.381500  0.945700  0.061200  1.0  0.1162
  H  H2283  1  0.410000  0.936600  0.039700  1.0  0.1205
  H  H2284  1  0.407400  0.908200  0.017500  1.0  0.0909
  H  H2285  1  0.399300  0.834100  0.992700  1.0  0.0873
  H  H2286  1  0.397300  0.804100  0.973400  1.0  0.1214
  H  H2287  1  0.372200  0.801400  0.946300  1.0  0.118
  H  H2288  1  0.351100  0.858600  0.963300  1.0  0.0824
  H  H2289  1  0.284600  0.406000  0.601700  1.0  0.0739
  H  H2290  1  0.296000  0.396600  0.540400  1.0  0.1197
  H  H2291  1  0.267100  0.373900  0.539800  1.0  0.1183
  H  H2292  1  0.248500  0.367700  0.570400  1.0  0.0806
  H  H2293  1  0.336400  0.494700  0.652300  1.0  0.0914
  H  H2294  1  0.307000  0.473100  0.651100  1.0  0.1195
  H  H2295  1  0.302800  0.449800  0.623500  1.0  0.1157
  H  H2296  1  0.359200  0.468200  0.601700  1.0  0.0897
  H  H2297  1  0.350700  0.395600  0.537200  1.0  0.0805
  H  H2298  1  0.381500  0.445700  0.561200  1.0  0.1162
  H  H2299  1  0.410000  0.436600  0.539700  1.0  0.1204
  H  H2300  1  0.407400  0.408200  0.517500  1.0  0.0909
  H  H2301  1  0.399300  0.334100  0.492700  1.0  0.0873
  H  H2302  1  0.397300  0.304100  0.473400  1.0  0.1214
  H  H2303  1  0.372200  0.301400  0.446300  1.0  0.118
  H  H2304  1  0.351100  0.358600  0.463300  1.0  0.0824
  H  H2305  1  0.465400  0.406000  0.148300  1.0  0.0744
  H  H2306  1  0.454000  0.396600  0.209600  1.0  0.12
  H  H2307  1  0.482900  0.373900  0.210200  1.0  0.1187
  H  H2308  1  0.501500  0.367700  0.179600  1.0  0.0809
  H  H2309  1  0.413600  0.494700  0.097700  1.0  0.0912
  H  H2310  1  0.443000  0.473100  0.098900  1.0  0.1195
  H  H2311  1  0.447200  0.449800  0.126500  1.0  0.1157
  H  H2312  1  0.390800  0.468200  0.148300  1.0  0.0899
  H  H2313  1  0.399300  0.395600  0.212800  1.0  0.0806
  H  H2314  1  0.368500  0.445700  0.188800  1.0  0.1164
  H  H2315  1  0.340000  0.436600  0.210300  1.0  0.1199
  H  H2316  1  0.342600  0.408200  0.232500  1.0  0.0914
  H  H2317  1  0.350700  0.334100  0.257300  1.0  0.0867
  H  H2318  1  0.352700  0.304100  0.276600  1.0  0.1217
  H  H2319  1  0.377800  0.301400  0.303700  1.0  0.1178
  H  H2320  1  0.398900  0.358600  0.286700  1.0  0.0825
  H  H2321  1  0.465400  0.906000  0.648300  1.0  0.0744
  H  H2322  1  0.454000  0.896600  0.709600  1.0  0.1196
  H  H2323  1  0.482900  0.873900  0.710200  1.0  0.1187
  H  H2324  1  0.501500  0.867700  0.679600  1.0  0.0809
  H  H2325  1  0.413600  0.994700  0.597700  1.0  0.0912
  H  H2326  1  0.443000  0.973100  0.598900  1.0  0.1195
  H  H2327  1  0.447200  0.949800  0.626500  1.0  0.1157
  H  H2328  1  0.390800  0.968200  0.648300  1.0  0.0899
  H  H2329  1  0.399300  0.895600  0.712800  1.0  0.0806
  H  H2330  1  0.368500  0.945700  0.688800  1.0  0.1164
  H  H2331  1  0.340000  0.936600  0.710300  1.0  0.1199
  H  H2332  1  0.342600  0.908200  0.732500  1.0  0.0914
  H  H2333  1  0.350700  0.834100  0.757300  1.0  0.0867
  H  H2334  1  0.352700  0.804100  0.776600  1.0  0.1217
  H  H2335  1  0.377800  0.801400  0.803700  1.0  0.1178
  H  H2336  1  0.398900  0.858600  0.786700  1.0  0.0825
  H  H2337  1  0.965400  0.406000  0.648300  1.0  0.0744
  H  H2338  1  0.954000  0.396600  0.709600  1.0  0.12
  H  H2339  1  0.982900  0.373900  0.710200  1.0  0.1187
  H  H2340  1  0.001500  0.367700  0.679600  1.0  0.0809
  H  H2341  1  0.913600  0.494700  0.597700  1.0  0.0912
  H  H2342  1  0.943000  0.473100  0.598900  1.0  0.1195
  H  H2343  1  0.947200  0.449800  0.626500  1.0  0.1157
  H  H2344  1  0.890800  0.468200  0.648300  1.0  0.0899
  H  H2345  1  0.899300  0.395600  0.712800  1.0  0.0806
  H  H2346  1  0.868500  0.445700  0.688800  1.0  0.1164
  H  H2347  1  0.840000  0.436600  0.710300  1.0  0.1199
  H  H2348  1  0.842600  0.408200  0.732500  1.0  0.0914
  H  H2349  1  0.850700  0.334100  0.757300  1.0  0.0867
  H  H2350  1  0.852700  0.304100  0.776600  1.0  0.1217
  H  H2351  1  0.877800  0.301400  0.803700  1.0  0.1178
  H  H2352  1  0.898900  0.358600  0.786700  1.0  0.0825
  H  H2353  1  0.965400  0.906000  0.148300  1.0  0.0744
  H  H2354  1  0.954000  0.896600  0.209600  1.0  0.1196
  H  H2355  1  0.982900  0.873900  0.210200  1.0  0.1187
  H  H2356  1  0.001500  0.867700  0.179600  1.0  0.0809
  H  H2357  1  0.913600  0.994700  0.097700  1.0  0.0912
  H  H2358  1  0.943000  0.973100  0.098900  1.0  0.1195
  H  H2359  1  0.947200  0.949800  0.126500  1.0  0.1157
  H  H2360  1  0.890800  0.968200  0.148300  1.0  0.0899
  H  H2361  1  0.899300  0.895600  0.212800  1.0  0.0806
  H  H2362  1  0.868500  0.945700  0.188800  1.0  0.1164
  H  H2363  1  0.840000  0.936600  0.210300  1.0  0.1199
  H  H2364  1  0.842600  0.908200  0.232500  1.0  0.0914
  H  H2365  1  0.850700  0.834100  0.257300  1.0  0.0867
  H  H2366  1  0.852700  0.804100  0.276600  1.0  0.1217
  H  H2367  1  0.877800  0.801400  0.303700  1.0  0.1178
  H  H2368  1  0.898900  0.858600  0.286700  1.0  0.0825
  H  H2369  1  0.284600  0.844000  0.648300  1.0  0.0745
  H  H2370  1  0.296000  0.853400  0.709600  1.0  0.1205
  H  H2371  1  0.267100  0.876100  0.710200  1.0  0.1189
  H  H2372  1  0.248500  0.882300  0.679600  1.0  0.0807
  H  H2373  1  0.336400  0.755300  0.597700  1.0  0.0905
  H  H2374  1  0.307000  0.776900  0.598900  1.0  0.1187
  H  H2375  1  0.302800  0.800200  0.626500  1.0  0.1156
  H  H2376  1  0.359200  0.781800  0.648300  1.0  0.0895
  H  H2377  1  0.350700  0.854400  0.712800  1.0  0.0809
  H  H2378  1  0.381500  0.804300  0.688800  1.0  0.1161
  H  H2379  1  0.410000  0.813400  0.710300  1.0  0.1204
  H  H2380  1  0.407400  0.841800  0.732500  1.0  0.0912
  H  H2381  1  0.399300  0.915900  0.757300  1.0  0.0873
  H  H2382  1  0.397300  0.945900  0.776600  1.0  0.1216
  H  H2383  1  0.372200  0.948600  0.803700  1.0  0.1177
  H  H2384  1  0.351100  0.891400  0.786700  1.0  0.0823
  H  H2385  1  0.284600  0.344000  0.148300  1.0  0.0745
  H  H2386  1  0.296000  0.353400  0.209600  1.0  0.1205
  H  H2387  1  0.267100  0.376100  0.210200  1.0  0.1189
  H  H2388  1  0.248500  0.382300  0.179600  1.0  0.0807
  H  H2389  1  0.336400  0.255300  0.097700  1.0  0.0905
  H  H2390  1  0.307000  0.276900  0.098900  1.0  0.1187
  H  H2391  1  0.302800  0.300200  0.126500  1.0  0.1156
  H  H2392  1  0.359200  0.281800  0.148300  1.0  0.0895
  H  H2393  1  0.350700  0.354400  0.212800  1.0  0.0809
  H  H2394  1  0.381500  0.304300  0.188800  1.0  0.1161
  H  H2395  1  0.410000  0.313400  0.210300  1.0  0.1204
  H  H2396  1  0.407400  0.341800  0.232500  1.0  0.0912
  H  H2397  1  0.399300  0.415900  0.257300  1.0  0.0873
  H  H2398  1  0.397300  0.445900  0.276600  1.0  0.1216
  H  H2399  1  0.372200  0.448600  0.303700  1.0  0.1177
  H  H2400  1  0.351100  0.391400  0.286700  1.0  0.0823
  H  H2401  1  0.784600  0.844000  0.148300  1.0  0.0745
  H  H2402  1  0.796000  0.853400  0.209600  1.0  0.1205
  H  H2403  1  0.767100  0.876100  0.210200  1.0  0.1189
  H  H2404  1  0.748500  0.882300  0.179600  1.0  0.0807
  H  H2405  1  0.836400  0.755300  0.097700  1.0  0.0905
  H  H2406  1  0.807000  0.776900  0.098900  1.0  0.1187
  H  H2407  1  0.802800  0.800200  0.126500  1.0  0.1156
  H  H2408  1  0.859200  0.781800  0.148300  1.0  0.0895
  H  H2409  1  0.850700  0.854400  0.212800  1.0  0.0809
  H  H2410  1  0.881500  0.804300  0.188800  1.0  0.1161
  H  H2411  1  0.910000  0.813400  0.210300  1.0  0.1204
  H  H2412  1  0.907400  0.841800  0.232500  1.0  0.0912
  H  H2413  1  0.899300  0.915900  0.257300  1.0  0.0873
  H  H2414  1  0.897300  0.945900  0.276600  1.0  0.123
  H  H2415  1  0.872200  0.948600  0.303700  1.0  0.1177
  H  H2416  1  0.851100  0.891400  0.286700  1.0  0.0823
  H  H2417  1  0.784600  0.344000  0.648300  1.0  0.0745
  H  H2418  1  0.796000  0.353400  0.709600  1.0  0.1205
  H  H2419  1  0.767100  0.376100  0.710200  1.0  0.1189
  H  H2420  1  0.748500  0.382300  0.679600  1.0  0.0807
  H  H2421  1  0.836400  0.255300  0.597700  1.0  0.0905
  H  H2422  1  0.807000  0.276900  0.598900  1.0  0.1187
  H  H2423  1  0.802800  0.300200  0.626500  1.0  0.1156
  H  H2424  1  0.859200  0.281800  0.648300  1.0  0.0895
  H  H2425  1  0.850700  0.354400  0.712800  1.0  0.0809
  H  H2426  1  0.881500  0.304300  0.688800  1.0  0.1161
  H  H2427  1  0.910000  0.313400  0.710300  1.0  0.1204
  H  H2428  1  0.907400  0.341800  0.732500  1.0  0.0912
  H  H2429  1  0.899300  0.415900  0.757300  1.0  0.0873
  H  H2430  1  0.897300  0.445900  0.776600  1.0  0.1216
  H  H2431  1  0.872200  0.448600  0.803700  1.0  0.1177
  H  H2432  1  0.851100  0.391400  0.786700  1.0  0.0823
  H  H2433  1  0.965400  0.344000  0.101700  1.0  0.0745
  H  H2434  1  0.954000  0.353400  0.040400  1.0  0.12
  H  H2435  1  0.982900  0.376100  0.039800  1.0  0.1188
  H  H2436  1  0.001500  0.382300  0.070400  1.0  0.0802
  H  H2437  1  0.913600  0.255300  0.152300  1.0  0.0915
  H  H2438  1  0.943000  0.276900  0.151100  1.0  0.1193
  H  H2439  1  0.947200  0.300200  0.123500  1.0  0.1156
  H  H2440  1  0.890800  0.281800  0.101700  1.0  0.0902
  H  H2441  1  0.899300  0.354400  0.037200  1.0  0.0803
  H  H2442  1  0.868500  0.304300  0.061200  1.0  0.1159
  H  H2443  1  0.840000  0.313400  0.039700  1.0  0.1204
  H  H2444  1  0.842600  0.341800  0.017500  1.0  0.0908
  H  H2445  1  0.850700  0.415900  0.992700  1.0  0.0869
  H  H2446  1  0.852700  0.445900  0.973400  1.0  0.1219
  H  H2447  1  0.877800  0.448600  0.946300  1.0  0.1183
  H  H2448  1  0.898900  0.391400  0.963300  1.0  0.0821
  H  H2449  1  0.965400  0.844000  0.601700  1.0  0.0745
  H  H2450  1  0.954000  0.853400  0.540400  1.0  0.12
  H  H2451  1  0.982900  0.876100  0.539800  1.0  0.1188
  H  H2452  1  0.001500  0.882300  0.570400  1.0  0.0802
  H  H2453  1  0.913600  0.755300  0.652300  1.0  0.0915
  H  H2454  1  0.943000  0.776900  0.651100  1.0  0.1193
  H  H2455  1  0.947200  0.800200  0.623500  1.0  0.1156
  H  H2456  1  0.890800  0.781800  0.601700  1.0  0.0902
  H  H2457  1  0.899300  0.854400  0.537200  1.0  0.0803
  H  H2458  1  0.868500  0.804300  0.561200  1.0  0.1159
  H  H2459  1  0.840000  0.813400  0.539700  1.0  0.1204
  H  H2460  1  0.842600  0.841800  0.517500  1.0  0.0908
  H  H2461  1  0.850700  0.915900  0.492700  1.0  0.0869
  H  H2462  1  0.852700  0.945900  0.473400  1.0  0.1218
  H  H2463  1  0.877800  0.948600  0.446300  1.0  0.1183
  H  H2464  1  0.898900  0.891400  0.463300  1.0  0.0821
  H  H2465  1  0.465400  0.344000  0.601700  1.0  0.0745
  H  H2466  1  0.454000  0.353400  0.540400  1.0  0.12
  H  H2467  1  0.482900  0.376100  0.539800  1.0  0.1188
  H  H2468  1  0.501500  0.382300  0.570400  1.0  0.0802
  H  H2469  1  0.413600  0.255300  0.652300  1.0  0.0915
  H  H2470  1  0.443000  0.276900  0.651100  1.0  0.1193
  H  H2471  1  0.447200  0.300200  0.623500  1.0  0.1156
  H  H2472  1  0.390800  0.281800  0.601700  1.0  0.0902
  H  H2473  1  0.399300  0.354400  0.537200  1.0  0.0803
  H  H2474  1  0.368500  0.304300  0.561200  1.0  0.1159
  H  H2475  1  0.340000  0.313400  0.539700  1.0  0.1204
  H  H2476  1  0.342600  0.341800  0.517500  1.0  0.0908
  H  H2477  1  0.350700  0.415900  0.492700  1.0  0.0869
  H  H2478  1  0.352700  0.445900  0.473400  1.0  0.1219
  H  H2479  1  0.377800  0.448600  0.446300  1.0  0.1183
  H  H2480  1  0.398900  0.391400  0.463300  1.0  0.0821
  H  H2481  1  0.465400  0.844000  0.101700  1.0  0.0745
  H  H2482  1  0.454000  0.853400  0.040400  1.0  0.12
  H  H2483  1  0.482900  0.876100  0.039800  1.0  0.1188
  H  H2484  1  0.501500  0.882300  0.070400  1.0  0.0802
  H  H2485  1  0.413600  0.755300  0.152300  1.0  0.0915
  H  H2486  1  0.443000  0.776900  0.151100  1.0  0.1193
  H  H2487  1  0.447200  0.800200  0.123500  1.0  0.1156
  H  H2488  1  0.390800  0.781800  0.101700  1.0  0.0902
  H  H2489  1  0.399300  0.854400  0.037200  1.0  0.0803
  H  H2490  1  0.368500  0.804300  0.061200  1.0  0.1159
  H  H2491  1  0.340000  0.813400  0.039700  1.0  0.1204
  H  H2492  1  0.342600  0.841800  0.017500  1.0  0.0908
  H  H2493  1  0.350700  0.915900  0.992700  1.0  0.0869
  H  H2494  1  0.352700  0.945900  0.973400  1.0  0.1233
  H  H2495  1  0.377800  0.948600  0.946300  1.0  0.1183
  H  H2496  1  0.398900  0.891400  0.963300  1.0  0.0821
  H  H2497  1  0.034600  0.351700  0.094000  1.0  0.0744
  H  H2498  1  0.046000  0.290400  0.103400  1.0  0.1191
  H  H2499  1  0.017100  0.289800  0.126100  1.0  0.121
  H  H2500  1  0.998500  0.320400  0.132300  1.0  0.0798
  H  H2501  1  0.086400  0.402300  0.005300  1.0  0.09
  H  H2502  1  0.057000  0.401100  0.026900  1.0  0.1207
  H  H2503  1  0.052800  0.373500  0.050200  1.0  0.1152
  H  H2504  1  0.109200  0.351700  0.031800  1.0  0.0905
  H  H2505  1  0.100700  0.287200  0.104400  1.0  0.0789
  H  H2506  1  0.131500  0.311200  0.054300  1.0  0.1176
  H  H2507  1  0.160000  0.289700  0.063400  1.0  0.1195
  H  H2508  1  0.157400  0.267500  0.091800  1.0  0.0921
  H  H2509  1  0.149300  0.242700  0.165900  1.0  0.088
  H  H2510  1  0.147300  0.223400  0.195900  1.0  0.1202
  H  H2511  1  0.122200  0.196300  0.198600  1.0  0.1189
  H  H2512  1  0.101100  0.213300  0.141400  1.0  0.0823
  H  H2513  1  0.034600  0.851700  0.594000  1.0  0.0744
  H  H2514  1  0.046000  0.790400  0.603400  1.0  0.1195
  H  H2515  1  0.017100  0.789800  0.626100  1.0  0.121
  H  H2516  1  0.998500  0.820400  0.632300  1.0  0.0798
  H  H2517  1  0.086400  0.902300  0.505300  1.0  0.09
  H  H2518  1  0.057000  0.901100  0.526900  1.0  0.1207
  H  H2519  1  0.052800  0.873500  0.550200  1.0  0.1152
  H  H2520  1  0.109200  0.851700  0.531800  1.0  0.0905
  H  H2521  1  0.100700  0.787200  0.604400  1.0  0.0789
  H  H2522  1  0.131500  0.811200  0.554300  1.0  0.1176
  H  H2523  1  0.160000  0.789700  0.563400  1.0  0.1195
  H  H2524  1  0.157400  0.767500  0.591800  1.0  0.0921
  H  H2525  1  0.149300  0.742700  0.665900  1.0  0.088
  H  H2526  1  0.147300  0.723400  0.695900  1.0  0.1202
  H  H2527  1  0.122200  0.696300  0.698600  1.0  0.1189
  H  H2528  1  0.101100  0.713300  0.641400  1.0  0.0823
  H  H2529  1  0.534600  0.351700  0.594000  1.0  0.0744
  H  H2530  1  0.546000  0.290400  0.603400  1.0  0.1195
  H  H2531  1  0.517100  0.289800  0.626100  1.0  0.121
  H  H2532  1  0.498500  0.320400  0.632300  1.0  0.0798
  H  H2533  1  0.586400  0.402300  0.505300  1.0  0.09
  H  H2534  1  0.557000  0.401100  0.526900  1.0  0.1207
  H  H2535  1  0.552800  0.373500  0.550200  1.0  0.1152
  H  H2536  1  0.609200  0.351700  0.531800  1.0  0.0905
  H  H2537  1  0.600700  0.287200  0.604400  1.0  0.0789
  H  H2538  1  0.631500  0.311200  0.554300  1.0  0.1176
  H  H2539  1  0.660000  0.289700  0.563400  1.0  0.1195
  H  H2540  1  0.657400  0.267500  0.591800  1.0  0.0921
  H  H2541  1  0.649300  0.242700  0.665900  1.0  0.088
  H  H2542  1  0.647300  0.223400  0.695900  1.0  0.1202
  H  H2543  1  0.622200  0.196300  0.698600  1.0  0.1189
  H  H2544  1  0.601100  0.213300  0.641400  1.0  0.0823
  H  H2545  1  0.534600  0.851700  0.094000  1.0  0.0744
  H  H2546  1  0.546000  0.790400  0.103400  1.0  0.1191
  H  H2547  1  0.517100  0.789800  0.126100  1.0  0.121
  H  H2548  1  0.498500  0.820400  0.132300  1.0  0.0798
  H  H2549  1  0.586400  0.902300  0.005300  1.0  0.09
  H  H2550  1  0.557000  0.901100  0.026900  1.0  0.1207
  H  H2551  1  0.552800  0.873500  0.050200  1.0  0.1152
  H  H2552  1  0.609200  0.851700  0.031800  1.0  0.0905
  H  H2553  1  0.600700  0.787200  0.104400  1.0  0.0789
  H  H2554  1  0.631500  0.811200  0.054300  1.0  0.1176
  H  H2555  1  0.660000  0.789700  0.063400  1.0  0.1195
  H  H2556  1  0.657400  0.767500  0.091800  1.0  0.0921
  H  H2557  1  0.649300  0.742700  0.165900  1.0  0.088
  H  H2558  1  0.647300  0.723400  0.195900  1.0  0.1202
  H  H2559  1  0.622200  0.696300  0.198600  1.0  0.1189
  H  H2560  1  0.601100  0.713300  0.141400  1.0  0.0823
  H  H2561  1  0.715400  0.898300  0.594000  1.0  0.074
  H  H2562  1  0.704000  0.959600  0.603400  1.0  0.1203
  H  H2563  1  0.732900  0.960200  0.626100  1.0  0.1209
  H  H2564  1  0.751500  0.929600  0.632300  1.0  0.08
  H  H2565  1  0.663600  0.847700  0.505300  1.0  0.0904
  H  H2566  1  0.693000  0.848900  0.526900  1.0  0.1212
  H  H2567  1  0.697200  0.876500  0.550200  1.0  0.1154
  H  H2568  1  0.640800  0.898300  0.531800  1.0  0.0907
  H  H2569  1  0.649300  0.962800  0.604400  1.0  0.079
  H  H2570  1  0.618500  0.938800  0.554300  1.0  0.1172
  H  H2571  1  0.590000  0.960300  0.563400  1.0  0.1191
  H  H2572  1  0.592600  0.982500  0.591800  1.0  0.0926
  H  H2573  1  0.600700  0.007300  0.665900  1.0  0.0878
  H  H2574  1  0.602700  0.026600  0.695900  1.0  0.121
  H  H2575  1  0.627800  0.053700  0.698600  1.0  0.1189
  H  H2576  1  0.648900  0.036700  0.641400  1.0  0.0826
  H  H2577  1  0.715400  0.398300  0.094000  1.0  0.074
  H  H2578  1  0.704000  0.459600  0.103400  1.0  0.1197
  H  H2579  1  0.732900  0.460200  0.126100  1.0  0.1209
  H  H2580  1  0.751500  0.429600  0.132300  1.0  0.08
  H  H2581  1  0.663600  0.347700  0.005300  1.0  0.0904
  H  H2582  1  0.693000  0.348900  0.026900  1.0  0.1212
  H  H2583  1  0.697200  0.376500  0.050200  1.0  0.1154
  H  H2584  1  0.640800  0.398300  0.031800  1.0  0.0907
  H  H2585  1  0.649300  0.462800  0.104400  1.0  0.079
  H  H2586  1  0.618500  0.438800  0.054300  1.0  0.1172
  H  H2587  1  0.590000  0.460300  0.063400  1.0  0.1191
  H  H2588  1  0.592600  0.482500  0.091800  1.0  0.0926
  H  H2589  1  0.600700  0.507300  0.165900  1.0  0.0878
  H  H2590  1  0.602700  0.526600  0.195900  1.0  0.121
  H  H2591  1  0.627800  0.553700  0.198600  1.0  0.1189
  H  H2592  1  0.648900  0.536700  0.141400  1.0  0.0826
  H  H2593  1  0.215400  0.898300  0.094000  1.0  0.074
  H  H2594  1  0.204000  0.959600  0.103400  1.0  0.1197
  H  H2595  1  0.232900  0.960200  0.126100  1.0  0.1209
  H  H2596  1  0.251500  0.929600  0.132300  1.0  0.08
  H  H2597  1  0.163600  0.847700  0.005300  1.0  0.0904
  H  H2598  1  0.193000  0.848900  0.026900  1.0  0.1212
  H  H2599  1  0.197200  0.876500  0.050200  1.0  0.1154
  H  H2600  1  0.140800  0.898300  0.031800  1.0  0.0907
  H  H2601  1  0.149300  0.962800  0.104400  1.0  0.079
  H  H2602  1  0.118500  0.938800  0.054300  1.0  0.1172
  H  H2603  1  0.090000  0.960300  0.063400  1.0  0.1195
  H  H2604  1  0.092600  0.982500  0.091800  1.0  0.0926
  H  H2605  1  0.100700  0.007300  0.165900  1.0  0.0878
  H  H2606  1  0.102700  0.026600  0.195900  1.0  0.1223
  H  H2607  1  0.127800  0.053700  0.198600  1.0  0.1189
  H  H2608  1  0.148900  0.036700  0.141400  1.0  0.0826
  H  H2609  1  0.215400  0.398300  0.594000  1.0  0.074
  H  H2610  1  0.204000  0.459600  0.603400  1.0  0.1203
  H  H2611  1  0.232900  0.460200  0.626100  1.0  0.1209
  H  H2612  1  0.251500  0.429600  0.632300  1.0  0.08
  H  H2613  1  0.163600  0.347700  0.505300  1.0  0.0904
  H  H2614  1  0.193000  0.348900  0.526900  1.0  0.1212
  H  H2615  1  0.197200  0.376500  0.550200  1.0  0.1154
  H  H2616  1  0.140800  0.398300  0.531800  1.0  0.0907
  H  H2617  1  0.149300  0.462800  0.604400  1.0  0.079
  H  H2618  1  0.118500  0.438800  0.554300  1.0  0.1172
  H  H2619  1  0.090000  0.460300  0.563400  1.0  0.1191
  H  H2620  1  0.092600  0.482500  0.591800  1.0  0.0926
  H  H2621  1  0.100700  0.507300  0.665900  1.0  0.0878
  H  H2622  1  0.102700  0.526600  0.695900  1.0  0.121
  H  H2623  1  0.127800  0.553700  0.698600  1.0  0.1189
  H  H2624  1  0.148900  0.536700  0.641400  1.0  0.0826
  H  H2625  1  0.534600  0.398300  0.156000  1.0  0.0744
  H  H2626  1  0.546000  0.459600  0.146600  1.0  0.1196
  H  H2627  1  0.517100  0.460200  0.123900  1.0  0.1207
  H  H2628  1  0.498500  0.429600  0.117700  1.0  0.0796
  H  H2629  1  0.586400  0.347700  0.244700  1.0  0.0904
  H  H2630  1  0.557000  0.348900  0.223100  1.0  0.1206
  H  H2631  1  0.552800  0.376500  0.199800  1.0  0.1154
  H  H2632  1  0.609200  0.398300  0.218200  1.0  0.0902
  H  H2633  1  0.600700  0.462800  0.145600  1.0  0.0791
  H  H2634  1  0.631500  0.438800  0.195700  1.0  0.1179
  H  H2635  1  0.660000  0.460300  0.186600  1.0  0.1198
  H  H2636  1  0.657400  0.482500  0.158200  1.0  0.0921
  H  H2637  1  0.649300  0.507300  0.084100  1.0  0.0886
  H  H2638  1  0.647300  0.526600  0.054100  1.0  0.1211
  H  H2639  1  0.622200  0.553700  0.051400  1.0  0.1188
  H  H2640  1  0.601100  0.536700  0.108600  1.0  0.0826
  H  H2641  1  0.534600  0.898300  0.656000  1.0  0.0744
  H  H2642  1  0.546000  0.959600  0.646600  1.0  0.1196
  H  H2643  1  0.517100  0.960200  0.623900  1.0  0.1207
  H  H2644  1  0.498500  0.929600  0.617700  1.0  0.0796
  H  H2645  1  0.586400  0.847700  0.744700  1.0  0.0904
  H  H2646  1  0.557000  0.848900  0.723100  1.0  0.1206
  H  H2647  1  0.552800  0.876500  0.699800  1.0  0.1154
  H  H2648  1  0.609200  0.898300  0.718200  1.0  0.0902
  H  H2649  1  0.600700  0.962800  0.645600  1.0  0.0791
  H  H2650  1  0.631500  0.938800  0.695700  1.0  0.1179
  H  H2651  1  0.660000  0.960300  0.686600  1.0  0.1198
  H  H2652  1  0.657400  0.982500  0.658200  1.0  0.0921
  H  H2653  1  0.649300  0.007300  0.584100  1.0  0.0886
  H  H2654  1  0.647300  0.026600  0.554100  1.0  0.121
  H  H2655  1  0.622200  0.053700  0.551400  1.0  0.1188
  H  H2656  1  0.601100  0.036700  0.608600  1.0  0.0826
  H  H2657  1  0.034600  0.398300  0.656000  1.0  0.0744
  H  H2658  1  0.046000  0.459600  0.646600  1.0  0.1196
  H  H2659  1  0.017100  0.460200  0.623900  1.0  0.1207
  H  H2660  1  0.998500  0.429600  0.617700  1.0  0.0796
  H  H2661  1  0.086400  0.347700  0.744700  1.0  0.0904
  H  H2662  1  0.057000  0.348900  0.723100  1.0  0.1206
  H  H2663  1  0.052800  0.376500  0.699800  1.0  0.1154
  H  H2664  1  0.109200  0.398300  0.718200  1.0  0.0902
  H  H2665  1  0.100700  0.462800  0.645600  1.0  0.0791
  H  H2666  1  0.131500  0.438800  0.695700  1.0  0.1179
  H  H2667  1  0.160000  0.460300  0.686600  1.0  0.1198
  H  H2668  1  0.157400  0.482500  0.658200  1.0  0.0921
  H  H2669  1  0.149300  0.507300  0.584100  1.0  0.0886
  H  H2670  1  0.147300  0.526600  0.554100  1.0  0.121
  H  H2671  1  0.122200  0.553700  0.551400  1.0  0.1188
  H  H2672  1  0.101100  0.536700  0.608600  1.0  0.0826
  H  H2673  1  0.034600  0.898300  0.156000  1.0  0.0744
  H  H2674  1  0.046000  0.959600  0.146600  1.0  0.1196
  H  H2675  1  0.017100  0.960200  0.123900  1.0  0.1207
  H  H2676  1  0.998500  0.929600  0.117700  1.0  0.0796
  H  H2677  1  0.086400  0.847700  0.244700  1.0  0.0904
  H  H2678  1  0.057000  0.848900  0.223100  1.0  0.1206
  H  H2679  1  0.052800  0.876500  0.199800  1.0  0.1154
  H  H2680  1  0.109200  0.898300  0.218200  1.0  0.0902
  H  H2681  1  0.100700  0.962800  0.145600  1.0  0.0791
  H  H2682  1  0.131500  0.938800  0.195700  1.0  0.1179
  H  H2683  1  0.160000  0.960300  0.186600  1.0  0.1198
  H  H2684  1  0.157400  0.982500  0.158200  1.0  0.0921
  H  H2685  1  0.149300  0.007300  0.084100  1.0  0.0886
  H  H2686  1  0.147300  0.026600  0.054100  1.0  0.1227
  H  H2687  1  0.122200  0.053700  0.051400  1.0  0.1188
  H  H2688  1  0.101100  0.036700  0.108600  1.0  0.0826
  H  H2689  1  0.215400  0.851700  0.656000  1.0  0.0741
  H  H2690  1  0.204000  0.790400  0.646600  1.0  0.1196
  H  H2691  1  0.232900  0.789800  0.623900  1.0  0.1204
  H  H2692  1  0.251500  0.820400  0.617700  1.0  0.0799
  H  H2693  1  0.163600  0.902300  0.744700  1.0  0.0901
  H  H2694  1  0.193000  0.901100  0.723100  1.0  0.1201
  H  H2695  1  0.197200  0.873500  0.699800  1.0  0.1155
  H  H2696  1  0.140800  0.851700  0.718200  1.0  0.0905
  H  H2697  1  0.149300  0.787200  0.645600  1.0  0.0794
  H  H2698  1  0.118500  0.811200  0.695700  1.0  0.1179
  H  H2699  1  0.090000  0.789700  0.686600  1.0  0.12
  H  H2700  1  0.092600  0.767500  0.658200  1.0  0.0919
  H  H2701  1  0.100700  0.742700  0.584100  1.0  0.0879
  H  H2702  1  0.102700  0.723400  0.554100  1.0  0.1202
  H  H2703  1  0.127800  0.696300  0.551400  1.0  0.1188
  H  H2704  1  0.148900  0.713300  0.608600  1.0  0.0829
  H  H2705  1  0.215400  0.351700  0.156000  1.0  0.0741
  H  H2706  1  0.204000  0.290400  0.146600  1.0  0.1196
  H  H2707  1  0.232900  0.289800  0.123900  1.0  0.1204
  H  H2708  1  0.251500  0.320400  0.117700  1.0  0.0799
  H  H2709  1  0.163600  0.402300  0.244700  1.0  0.0901
  H  H2710  1  0.193000  0.401100  0.223100  1.0  0.1201
  H  H2711  1  0.197200  0.373500  0.199800  1.0  0.1155
  H  H2712  1  0.140800  0.351700  0.218200  1.0  0.0905
  H  H2713  1  0.149300  0.287200  0.145600  1.0  0.0794
  H  H2714  1  0.118500  0.311200  0.195700  1.0  0.1179
  H  H2715  1  0.090000  0.289700  0.186600  1.0  0.12
  H  H2716  1  0.092600  0.267500  0.158200  1.0  0.0919
  H  H2717  1  0.100700  0.242700  0.084100  1.0  0.0879
  H  H2718  1  0.102700  0.223400  0.054100  1.0  0.1215
  H  H2719  1  0.127800  0.196300  0.051400  1.0  0.1188
  H  H2720  1  0.148900  0.213300  0.108600  1.0  0.0829
  H  H2721  1  0.715400  0.851700  0.156000  1.0  0.0741
  H  H2722  1  0.704000  0.790400  0.146600  1.0  0.1196
  H  H2723  1  0.732900  0.789800  0.123900  1.0  0.1204
  H  H2724  1  0.751500  0.820400  0.117700  1.0  0.0799
  H  H2725  1  0.663600  0.902300  0.244700  1.0  0.0901
  H  H2726  1  0.693000  0.901100  0.223100  1.0  0.1201
  H  H2727  1  0.697200  0.873500  0.199800  1.0  0.1155
  H  H2728  1  0.640800  0.851700  0.218200  1.0  0.0905
  H  H2729  1  0.649300  0.787200  0.145600  1.0  0.0794
  H  H2730  1  0.618500  0.811200  0.195700  1.0  0.1179
  H  H2731  1  0.590000  0.789700  0.186600  1.0  0.12
  H  H2732  1  0.592600  0.767500  0.158200  1.0  0.0919
  H  H2733  1  0.600700  0.742700  0.084100  1.0  0.0879
  H  H2734  1  0.602700  0.723400  0.054100  1.0  0.1201
  H  H2735  1  0.627800  0.696300  0.051400  1.0  0.1188
  H  H2736  1  0.648900  0.713300  0.108600  1.0  0.0829
  H  H2737  1  0.715400  0.351700  0.656000  1.0  0.0741
  H  H2738  1  0.704000  0.290400  0.646600  1.0  0.1196
  H  H2739  1  0.732900  0.289800  0.623900  1.0  0.1204
  H  H2740  1  0.751500  0.320400  0.617700  1.0  0.0799
  H  H2741  1  0.663600  0.402300  0.744700  1.0  0.0901
  H  H2742  1  0.693000  0.401100  0.723100  1.0  0.1201
  H  H2743  1  0.697200  0.373500  0.699800  1.0  0.1155
  H  H2744  1  0.640800  0.351700  0.718200  1.0  0.0905
  H  H2745  1  0.649300  0.287200  0.645600  1.0  0.0794
  H  H2746  1  0.618500  0.311200  0.695700  1.0  0.1179
  H  H2747  1  0.590000  0.289700  0.686600  1.0  0.12
  H  H2748  1  0.592600  0.267500  0.658200  1.0  0.0919
  H  H2749  1  0.600700  0.242700  0.584100  1.0  0.0879
  H  H2750  1  0.602700  0.223400  0.554100  1.0  0.1202
  H  H2751  1  0.627800  0.196300  0.551400  1.0  0.1188
  H  H2752  1  0.648900  0.213300  0.608600  1.0  0.0829
  H  H2753  1  0.851700  0.656000  0.215400  1.0  0.0734
  H  H2754  1  0.790400  0.646600  0.204000  1.0  0.1195
  H  H2755  1  0.789800  0.623900  0.232900  1.0  0.119
  H  H2756  1  0.820400  0.617700  0.251500  1.0  0.0813
  H  H2757  1  0.902300  0.744700  0.163600  1.0  0.0928
  H  H2758  1  0.901100  0.723100  0.193000  1.0  0.1192
  H  H2759  1  0.873500  0.699800  0.197200  1.0  0.1163
  H  H2760  1  0.851700  0.718200  0.140800  1.0  0.0896
  H  H2761  1  0.787200  0.645600  0.149300  1.0  0.0823
  H  H2762  1  0.811200  0.695700  0.118500  1.0  0.1169
  H  H2763  1  0.789700  0.686600  0.090000  1.0  0.1185
  H  H2764  1  0.767500  0.658200  0.092600  1.0  0.0942
  H  H2765  1  0.742700  0.584100  0.100700  1.0  0.0874
  H  H2766  1  0.723400  0.554100  0.102700  1.0  0.1213
  H  H2767  1  0.696300  0.551400  0.127800  1.0  0.1185
  H  H2768  1  0.713300  0.608600  0.148900  1.0  0.0827
  H  H2769  1  0.851700  0.156000  0.715400  1.0  0.0734
  H  H2770  1  0.790400  0.146600  0.704000  1.0  0.1195
  H  H2771  1  0.789800  0.123900  0.732900  1.0  0.119
  H  H2772  1  0.820400  0.117700  0.751500  1.0  0.0813
  H  H2773  1  0.902300  0.244700  0.663600  1.0  0.0928
  H  H2774  1  0.901100  0.223100  0.693000  1.0  0.1192
  H  H2775  1  0.873500  0.199800  0.697200  1.0  0.1163
  H  H2776  1  0.851700  0.218200  0.640800  1.0  0.0896
  H  H2777  1  0.787200  0.145600  0.649300  1.0  0.0823
  H  H2778  1  0.811200  0.195700  0.618500  1.0  0.1169
  H  H2779  1  0.789700  0.186600  0.590000  1.0  0.1185
  H  H2780  1  0.767500  0.158200  0.592600  1.0  0.0942
  H  H2781  1  0.742700  0.084100  0.600700  1.0  0.0874
  H  H2782  1  0.723400  0.054100  0.602700  1.0  0.1214
  H  H2783  1  0.696300  0.051400  0.627800  1.0  0.1185
  H  H2784  1  0.713300  0.108600  0.648900  1.0  0.0827
  H  H2785  1  0.351700  0.656000  0.715400  1.0  0.0734
  H  H2786  1  0.290400  0.646600  0.704000  1.0  0.1195
  H  H2787  1  0.289800  0.623900  0.732900  1.0  0.119
  H  H2788  1  0.320400  0.617700  0.751500  1.0  0.0813
  H  H2789  1  0.402300  0.744700  0.663600  1.0  0.0928
  H  H2790  1  0.401100  0.723100  0.693000  1.0  0.1192
  H  H2791  1  0.373500  0.699800  0.697200  1.0  0.1163
  H  H2792  1  0.351700  0.718200  0.640800  1.0  0.0896
  H  H2793  1  0.287200  0.645600  0.649300  1.0  0.0823
  H  H2794  1  0.311200  0.695700  0.618500  1.0  0.1169
  H  H2795  1  0.289700  0.686600  0.590000  1.0  0.1185
  H  H2796  1  0.267500  0.658200  0.592600  1.0  0.0942
  H  H2797  1  0.242700  0.584100  0.600700  1.0  0.0874
  H  H2798  1  0.223400  0.554100  0.602700  1.0  0.1213
  H  H2799  1  0.196300  0.551400  0.627800  1.0  0.1185
  H  H2800  1  0.213300  0.608600  0.648900  1.0  0.0827
  H  H2801  1  0.351700  0.156000  0.215400  1.0  0.0734
  H  H2802  1  0.290400  0.146600  0.204000  1.0  0.1195
  H  H2803  1  0.289800  0.123900  0.232900  1.0  0.119
  H  H2804  1  0.320400  0.117700  0.251500  1.0  0.0813
  H  H2805  1  0.402300  0.244700  0.163600  1.0  0.0928
  H  H2806  1  0.401100  0.223100  0.193000  1.0  0.1192
  H  H2807  1  0.373500  0.199800  0.197200  1.0  0.1163
  H  H2808  1  0.351700  0.218200  0.140800  1.0  0.0896
  H  H2809  1  0.287200  0.145600  0.149300  1.0  0.0823
  H  H2810  1  0.311200  0.195700  0.118500  1.0  0.1169
  H  H2811  1  0.289700  0.186600  0.090000  1.0  0.1185
  H  H2812  1  0.267500  0.158200  0.092600  1.0  0.0942
  H  H2813  1  0.242700  0.084100  0.100700  1.0  0.0874
  H  H2814  1  0.223400  0.054100  0.102700  1.0  0.1229
  H  H2815  1  0.196300  0.051400  0.127800  1.0  0.1185
  H  H2816  1  0.213300  0.108600  0.148900  1.0  0.0827
  H  H2817  1  0.398300  0.156000  0.534600  1.0  0.0735
  H  H2818  1  0.459600  0.146600  0.546000  1.0  0.1192
  H  H2819  1  0.460200  0.123900  0.517100  1.0  0.119
  H  H2820  1  0.429600  0.117700  0.498500  1.0  0.0801
  H  H2821  1  0.347700  0.244700  0.586400  1.0  0.093
  H  H2822  1  0.348900  0.223100  0.557000  1.0  0.1187
  H  H2823  1  0.376500  0.199800  0.552800  1.0  0.1159
  H  H2824  1  0.398300  0.218200  0.609200  1.0  0.0892
  H  H2825  1  0.462800  0.145600  0.600700  1.0  0.082
  H  H2826  1  0.438800  0.195700  0.631500  1.0  0.1174
  H  H2827  1  0.460300  0.186600  0.660000  1.0  0.1188
  H  H2828  1  0.482500  0.158200  0.657400  1.0  0.0938
  H  H2829  1  0.507300  0.084100  0.649300  1.0  0.0877
  H  H2830  1  0.526600  0.054100  0.647300  1.0  0.1224
  H  H2831  1  0.553700  0.051400  0.622200  1.0  0.1189
  H  H2832  1  0.536700  0.108600  0.601100  1.0  0.0828
  H  H2833  1  0.398300  0.656000  0.034600  1.0  0.0735
  H  H2834  1  0.459600  0.646600  0.046000  1.0  0.1192
  H  H2835  1  0.460200  0.623900  0.017100  1.0  0.119
  H  H2836  1  0.429600  0.617700  0.998500  1.0  0.0801
  H  H2837  1  0.347700  0.744700  0.086400  1.0  0.093
  H  H2838  1  0.348900  0.723100  0.057000  1.0  0.1187
  H  H2839  1  0.376500  0.699800  0.052800  1.0  0.1159
  H  H2840  1  0.398300  0.718200  0.109200  1.0  0.0892
  H  H2841  1  0.462800  0.645600  0.100700  1.0  0.082
  H  H2842  1  0.438800  0.695700  0.131500  1.0  0.1174
  H  H2843  1  0.460300  0.686600  0.160000  1.0  0.1188
  H  H2844  1  0.482500  0.658200  0.157400  1.0  0.0938
  H  H2845  1  0.507300  0.584100  0.149300  1.0  0.0877
  H  H2846  1  0.526600  0.554100  0.147300  1.0  0.1223
  H  H2847  1  0.553700  0.551400  0.122200  1.0  0.1189
  H  H2848  1  0.536700  0.608600  0.101100  1.0  0.0828
  H  H2849  1  0.898300  0.156000  0.034600  1.0  0.0735
  H  H2850  1  0.959600  0.146600  0.046000  1.0  0.1192
  H  H2851  1  0.960200  0.123900  0.017100  1.0  0.119
  H  H2852  1  0.929600  0.117700  0.998500  1.0  0.0801
  H  H2853  1  0.847700  0.244700  0.086400  1.0  0.093
  H  H2854  1  0.848900  0.223100  0.057000  1.0  0.1187
  H  H2855  1  0.876500  0.199800  0.052800  1.0  0.1159
  H  H2856  1  0.898300  0.218200  0.109200  1.0  0.0892
  H  H2857  1  0.962800  0.145600  0.100700  1.0  0.082
  H  H2858  1  0.938800  0.195700  0.131500  1.0  0.1174
  H  H2859  1  0.960300  0.186600  0.160000  1.0  0.1188
  H  H2860  1  0.982500  0.158200  0.157400  1.0  0.0938
  H  H2861  1  0.007300  0.084100  0.149300  1.0  0.0877
  H  H2862  1  0.026600  0.054100  0.147300  1.0  0.1238
  H  H2863  1  0.053700  0.051400  0.122200  1.0  0.1189
  H  H2864  1  0.036700  0.108600  0.101100  1.0  0.0828
  H  H2865  1  0.898300  0.656000  0.534600  1.0  0.0735
  H  H2866  1  0.959600  0.646600  0.546000  1.0  0.1192
  H  H2867  1  0.960200  0.623900  0.517100  1.0  0.119
  H  H2868  1  0.929600  0.617700  0.498500  1.0  0.0801
  H  H2869  1  0.847700  0.744700  0.586400  1.0  0.093
  H  H2870  1  0.848900  0.723100  0.557000  1.0  0.1187
  H  H2871  1  0.876500  0.699800  0.552800  1.0  0.1159
  H  H2872  1  0.898300  0.718200  0.609200  1.0  0.0892
  H  H2873  1  0.962800  0.645600  0.600700  1.0  0.082
  H  H2874  1  0.938800  0.695700  0.631500  1.0  0.1174
  H  H2875  1  0.960300  0.686600  0.660000  1.0  0.1188
  H  H2876  1  0.982500  0.658200  0.657400  1.0  0.0938
  H  H2877  1  0.007300  0.584100  0.649300  1.0  0.0877
  H  H2878  1  0.026600  0.554100  0.647300  1.0  0.1223
  H  H2879  1  0.053700  0.551400  0.622200  1.0  0.1189
  H  H2880  1  0.036700  0.608600  0.601100  1.0  0.0828
  H  H2881  1  0.898300  0.594000  0.715400  1.0  0.0735
  H  H2882  1  0.959600  0.603400  0.704000  1.0  0.1195
  H  H2883  1  0.960200  0.626100  0.732900  1.0  0.119
  H  H2884  1  0.929600  0.632300  0.751500  1.0  0.0797
  H  H2885  1  0.847700  0.505300  0.663600  1.0  0.0928
  H  H2886  1  0.848900  0.526900  0.693000  1.0  0.1192
  H  H2887  1  0.876500  0.550200  0.697200  1.0  0.1163
  H  H2888  1  0.898300  0.531800  0.640800  1.0  0.0897
  H  H2889  1  0.962800  0.604400  0.649300  1.0  0.0822
  H  H2890  1  0.938800  0.554300  0.618500  1.0  0.1166
  H  H2891  1  0.960300  0.563400  0.590000  1.0  0.1184
  H  H2892  1  0.982500  0.591800  0.592600  1.0  0.0942
  H  H2893  1  0.007300  0.665900  0.600700  1.0  0.0872
  H  H2894  1  0.026600  0.695900  0.602700  1.0  0.1219
  H  H2895  1  0.053700  0.698600  0.627800  1.0  0.119
  H  H2896  1  0.036700  0.641400  0.648900  1.0  0.0828
  H  H2897  1  0.898300  0.094000  0.215400  1.0  0.0735
  H  H2898  1  0.959600  0.103400  0.204000  1.0  0.1191
  H  H2899  1  0.960200  0.126100  0.232900  1.0  0.119
  H  H2900  1  0.929600  0.132300  0.251500  1.0  0.0797
  H  H2901  1  0.847700  0.005300  0.163600  1.0  0.0928
  H  H2902  1  0.848900  0.026900  0.193000  1.0  0.1192
  H  H2903  1  0.876500  0.050200  0.197200  1.0  0.1163
  H  H2904  1  0.898300  0.031800  0.140800  1.0  0.0897
  H  H2905  1  0.962800  0.104400  0.149300  1.0  0.0822
  H  H2906  1  0.938800  0.054300  0.118500  1.0  0.1166
  H  H2907  1  0.960300  0.063400  0.090000  1.0  0.1186
  H  H2908  1  0.982500  0.091800  0.092600  1.0  0.0942
  H  H2909  1  0.007300  0.165900  0.100700  1.0  0.0872
  H  H2910  1  0.026600  0.195900  0.102700  1.0  0.1233
  H  H2911  1  0.053700  0.198600  0.127800  1.0  0.119
  H  H2912  1  0.036700  0.141400  0.148900  1.0  0.0828
  H  H2913  1  0.398300  0.594000  0.215400  1.0  0.0735
  H  H2914  1  0.459600  0.603400  0.204000  1.0  0.1195
  H  H2915  1  0.460200  0.626100  0.232900  1.0  0.119
  H  H2916  1  0.429600  0.632300  0.251500  1.0  0.0797
  H  H2917  1  0.347700  0.505300  0.163600  1.0  0.0928
  H  H2918  1  0.348900  0.526900  0.193000  1.0  0.1192
  H  H2919  1  0.376500  0.550200  0.197200  1.0  0.1163
  H  H2920  1  0.398300  0.531800  0.140800  1.0  0.0897
  H  H2921  1  0.462800  0.604400  0.149300  1.0  0.0822
  H  H2922  1  0.438800  0.554300  0.118500  1.0  0.1166
  H  H2923  1  0.460300  0.563400  0.090000  1.0  0.1184
  H  H2924  1  0.482500  0.591800  0.092600  1.0  0.0942
  H  H2925  1  0.507300  0.665900  0.100700  1.0  0.0872
  H  H2926  1  0.526600  0.695900  0.102700  1.0  0.1219
  H  H2927  1  0.553700  0.698600  0.127800  1.0  0.119
  H  H2928  1  0.536700  0.641400  0.148900  1.0  0.0828
  H  H2929  1  0.398300  0.094000  0.715400  1.0  0.0735
  H  H2930  1  0.459600  0.103400  0.704000  1.0  0.1191
  H  H2931  1  0.460200  0.126100  0.732900  1.0  0.119
  H  H2932  1  0.429600  0.132300  0.751500  1.0  0.0797
  H  H2933  1  0.347700  0.005300  0.663600  1.0  0.0928
  H  H2934  1  0.348900  0.026900  0.693000  1.0  0.1192
  H  H2935  1  0.376500  0.050200  0.697200  1.0  0.1163
  H  H2936  1  0.398300  0.031800  0.640800  1.0  0.0897
  H  H2937  1  0.462800  0.104400  0.649300  1.0  0.0822
  H  H2938  1  0.438800  0.054300  0.618500  1.0  0.1166
  H  H2939  1  0.460300  0.063400  0.590000  1.0  0.1184
  H  H2940  1  0.482500  0.091800  0.592600  1.0  0.0942
  H  H2941  1  0.507300  0.165900  0.600700  1.0  0.0872
  H  H2942  1  0.526600  0.195900  0.602700  1.0  0.1219
  H  H2943  1  0.553700  0.198600  0.627800  1.0  0.119
  H  H2944  1  0.536700  0.141400  0.648900  1.0  0.0828
  H  H2945  1  0.351700  0.094000  0.034600  1.0  0.0736
  H  H2946  1  0.290400  0.103400  0.046000  1.0  0.1189
  H  H2947  1  0.289800  0.126100  0.017100  1.0  0.1194
  H  H2948  1  0.320400  0.132300  0.998500  1.0  0.08
  H  H2949  1  0.402300  0.005300  0.086400  1.0  0.0932
  H  H2950  1  0.401100  0.026900  0.057000  1.0  0.1195
  H  H2951  1  0.373500  0.050200  0.052800  1.0  0.1157
  H  H2952  1  0.351700  0.031800  0.109200  1.0  0.0893
  H  H2953  1  0.287200  0.104400  0.100700  1.0  0.0825
  H  H2954  1  0.311200  0.054300  0.131500  1.0  0.1171
  H  H2955  1  0.289700  0.063400  0.160000  1.0  0.1192
  H  H2956  1  0.267500  0.091800  0.157400  1.0  0.0941
  H  H2957  1  0.242700  0.165900  0.149300  1.0  0.0881
  H  H2958  1  0.223400  0.195900  0.147300  1.0  0.1218
  H  H2959  1  0.196300  0.198600  0.122200  1.0  0.1189
  H  H2960  1  0.213300  0.141400  0.101100  1.0  0.0823
  H  H2961  1  0.351700  0.594000  0.534600  1.0  0.0736
  H  H2962  1  0.290400  0.603400  0.546000  1.0  0.1195
  H  H2963  1  0.289800  0.626100  0.517100  1.0  0.1194
  H  H2964  1  0.320400  0.632300  0.498500  1.0  0.08
  H  H2965  1  0.402300  0.505300  0.586400  1.0  0.0932
  H  H2966  1  0.401100  0.526900  0.557000  1.0  0.1195
  H  H2967  1  0.373500  0.550200  0.552800  1.0  0.1157
  H  H2968  1  0.351700  0.531800  0.609200  1.0  0.0893
  H  H2969  1  0.287200  0.604400  0.600700  1.0  0.0825
  H  H2970  1  0.311200  0.554300  0.631500  1.0  0.1171
  H  H2971  1  0.289700  0.563400  0.660000  1.0  0.1192
  H  H2972  1  0.267500  0.591800  0.657400  1.0  0.0941
  H  H2973  1  0.242700  0.665900  0.649300  1.0  0.0881
  H  H2974  1  0.223400  0.695900  0.647300  1.0  0.1218
  H  H2975  1  0.196300  0.698600  0.622200  1.0  0.1189
  H  H2976  1  0.213300  0.641400  0.601100  1.0  0.0823
  H  H2977  1  0.851700  0.094000  0.534600  1.0  0.0736
  H  H2978  1  0.790400  0.103400  0.546000  1.0  0.1189
  H  H2979  1  0.789800  0.126100  0.517100  1.0  0.1194
  H  H2980  1  0.820400  0.132300  0.498500  1.0  0.08
  H  H2981  1  0.902300  0.005300  0.586400  1.0  0.0932
  H  H2982  1  0.901100  0.026900  0.557000  1.0  0.1195
  H  H2983  1  0.873500  0.050200  0.552800  1.0  0.1157
  H  H2984  1  0.851700  0.031800  0.609200  1.0  0.0893
  H  H2985  1  0.787200  0.104400  0.600700  1.0  0.0825
  H  H2986  1  0.811200  0.054300  0.631500  1.0  0.1171
  H  H2987  1  0.789700  0.063400  0.660000  1.0  0.1192
  H  H2988  1  0.767500  0.091800  0.657400  1.0  0.0941
  H  H2989  1  0.742700  0.165900  0.649300  1.0  0.0881
  H  H2990  1  0.723400  0.195900  0.647300  1.0  0.1218
  H  H2991  1  0.696300  0.198600  0.622200  1.0  0.1189
  H  H2992  1  0.713300  0.141400  0.601100  1.0  0.0823
  H  H2993  1  0.851700  0.594000  0.034600  1.0  0.0736
  H  H2994  1  0.790400  0.603400  0.046000  1.0  0.1195
  H  H2995  1  0.789800  0.626100  0.017100  1.0  0.1194
  H  H2996  1  0.820400  0.632300  0.998500  1.0  0.08
  H  H2997  1  0.902300  0.505300  0.086400  1.0  0.0932
  H  H2998  1  0.901100  0.526900  0.057000  1.0  0.1195
  H  H2999  1  0.873500  0.550200  0.052800  1.0  0.1157
  H  H3000  1  0.851700  0.531800  0.109200  1.0  0.0893
  H  H3001  1  0.787200  0.604400  0.100700  1.0  0.0825
  H  H3002  1  0.811200  0.554300  0.131500  1.0  0.1171
  H  H3003  1  0.789700  0.563400  0.160000  1.0  0.1192
  H  H3004  1  0.767500  0.591800  0.157400  1.0  0.0941
  H  H3005  1  0.742700  0.665900  0.149300  1.0  0.0881
  H  H3006  1  0.723400  0.695900  0.147300  1.0  0.1218
  H  H3007  1  0.696300  0.698600  0.122200  1.0  0.1189
  H  H3008  1  0.713300  0.641400  0.101100  1.0  0.0823
  H  H3009  1  0.156000  0.534600  0.398300  1.0  0.0741
  H  H3010  1  0.146600  0.546000  0.459600  1.0  0.1199
  H  H3011  1  0.123900  0.517100  0.460200  1.0  0.119
  H  H3012  1  0.117700  0.498500  0.429600  1.0  0.0816
  H  H3013  1  0.244700  0.586400  0.347700  1.0  0.092
  H  H3014  1  0.223100  0.557000  0.348900  1.0  0.1202
  H  H3015  1  0.199800  0.552800  0.376500  1.0  0.1152
  H  H3016  1  0.218200  0.609200  0.398300  1.0  0.089
  H  H3017  1  0.145600  0.600700  0.462800  1.0  0.0813
  H  H3018  1  0.195700  0.631500  0.438800  1.0  0.1163
  H  H3019  1  0.186600  0.660000  0.460300  1.0  0.1209
  H  H3020  1  0.158200  0.657400  0.482500  1.0  0.0919
  H  H3021  1  0.084100  0.649300  0.507300  1.0  0.0866
  H  H3022  1  0.054100  0.647300  0.526600  1.0  0.1217
  H  H3023  1  0.051400  0.622200  0.553700  1.0  0.1178
  H  H3024  1  0.108600  0.601100  0.536700  1.0  0.0825
  H  H3025  1  0.156000  0.034600  0.898300  1.0  0.0741
  H  H3026  1  0.146600  0.046000  0.959600  1.0  0.1199
  H  H3027  1  0.123900  0.017100  0.960200  1.0  0.119
  H  H3028  1  0.117700  0.998500  0.929600  1.0  0.0816
  H  H3029  1  0.244700  0.086400  0.847700  1.0  0.092
  H  H3030  1  0.223100  0.057000  0.848900  1.0  0.1202
  H  H3031  1  0.199800  0.052800  0.876500  1.0  0.1152
  H  H3032  1  0.218200  0.109200  0.898300  1.0  0.089
  H  H3033  1  0.145600  0.100700  0.962800  1.0  0.0813
  H  H3034  1  0.195700  0.131500  0.938800  1.0  0.1163
  H  H3035  1  0.186600  0.160000  0.960300  1.0  0.1209
  H  H3036  1  0.158200  0.157400  0.982500  1.0  0.0919
  H  H3037  1  0.084100  0.149300  0.007300  1.0  0.0866
  H  H3038  1  0.054100  0.147300  0.026600  1.0  0.1233
  H  H3039  1  0.051400  0.122200  0.053700  1.0  0.1178
  H  H3040  1  0.108600  0.101100  0.036700  1.0  0.0825
  H  H3041  1  0.656000  0.534600  0.898300  1.0  0.0741
  H  H3042  1  0.646600  0.546000  0.959600  1.0  0.1199
  H  H3043  1  0.623900  0.517100  0.960200  1.0  0.119
  H  H3044  1  0.617700  0.498500  0.929600  1.0  0.0816
  H  H3045  1  0.744700  0.586400  0.847700  1.0  0.092
  H  H3046  1  0.723100  0.557000  0.848900  1.0  0.1202
  H  H3047  1  0.699800  0.552800  0.876500  1.0  0.1152
  H  H3048  1  0.718200  0.609200  0.898300  1.0  0.089
  H  H3049  1  0.645600  0.600700  0.962800  1.0  0.0813
  H  H3050  1  0.695700  0.631500  0.938800  1.0  0.1163
  H  H3051  1  0.686600  0.660000  0.960300  1.0  0.1209
  H  H3052  1  0.658200  0.657400  0.982500  1.0  0.0919
  H  H3053  1  0.584100  0.649300  0.007300  1.0  0.0866
  H  H3054  1  0.554100  0.647300  0.026600  1.0  0.1218
  H  H3055  1  0.551400  0.622200  0.053700  1.0  0.1178
  H  H3056  1  0.608600  0.601100  0.036700  1.0  0.0825
  H  H3057  1  0.656000  0.034600  0.398300  1.0  0.0741
  H  H3058  1  0.646600  0.046000  0.459600  1.0  0.1199
  H  H3059  1  0.623900  0.017100  0.460200  1.0  0.119
  H  H3060  1  0.617700  0.998500  0.429600  1.0  0.0816
  H  H3061  1  0.744700  0.086400  0.347700  1.0  0.092
  H  H3062  1  0.723100  0.057000  0.348900  1.0  0.1202
  H  H3063  1  0.699800  0.052800  0.376500  1.0  0.1152
  H  H3064  1  0.718200  0.109200  0.398300  1.0  0.089
  H  H3065  1  0.645600  0.100700  0.462800  1.0  0.0813
  H  H3066  1  0.695700  0.131500  0.438800  1.0  0.1163
  H  H3067  1  0.686600  0.160000  0.460300  1.0  0.1209
  H  H3068  1  0.658200  0.157400  0.482500  1.0  0.0919
  H  H3069  1  0.584100  0.149300  0.507300  1.0  0.0866
  H  H3070  1  0.554100  0.147300  0.526600  1.0  0.1218
  H  H3071  1  0.551400  0.122200  0.553700  1.0  0.1178
  H  H3072  1  0.608600  0.101100  0.536700  1.0  0.0825
  H  H3073  1  0.656000  0.215400  0.851700  1.0  0.0739
  H  H3074  1  0.646600  0.204000  0.790400  1.0  0.1198
  H  H3075  1  0.623900  0.232900  0.789800  1.0  0.1185
  H  H3076  1  0.617700  0.251500  0.820400  1.0  0.0805
  H  H3077  1  0.744700  0.163600  0.902300  1.0  0.0924
  H  H3078  1  0.723100  0.193000  0.901100  1.0  0.1204
  H  H3079  1  0.699800  0.197200  0.873500  1.0  0.1156
  H  H3080  1  0.718200  0.140800  0.851700  1.0  0.0896
  H  H3081  1  0.645600  0.149300  0.787200  1.0  0.0816
  H  H3082  1  0.695700  0.118500  0.811200  1.0  0.116
  H  H3083  1  0.686600  0.090000  0.789700  1.0  0.1222
  H  H3084  1  0.658200  0.092600  0.767500  1.0  0.0923
  H  H3085  1  0.584100  0.100700  0.742700  1.0  0.0869
  H  H3086  1  0.554100  0.102700  0.723400  1.0  0.1214
  H  H3087  1  0.551400  0.127800  0.696300  1.0  0.1186
  H  H3088  1  0.608600  0.148900  0.713300  1.0  0.0825
  H  H3089  1  0.656000  0.715400  0.351700  1.0  0.0739
  H  H3090  1  0.646600  0.704000  0.290400  1.0  0.1198
  H  H3091  1  0.623900  0.732900  0.289800  1.0  0.1185
  H  H3092  1  0.617700  0.751500  0.320400  1.0  0.0805
  H  H3093  1  0.744700  0.663600  0.402300  1.0  0.0924
  H  H3094  1  0.723100  0.693000  0.401100  1.0  0.1204
  H  H3095  1  0.699800  0.697200  0.373500  1.0  0.1156
  H  H3096  1  0.718200  0.640800  0.351700  1.0  0.0896
  H  H3097  1  0.645600  0.649300  0.287200  1.0  0.0816
  H  H3098  1  0.695700  0.618500  0.311200  1.0  0.116
  H  H3099  1  0.686600  0.590000  0.289700  1.0  0.1222
  H  H3100  1  0.658200  0.592600  0.267500  1.0  0.0923
  H  H3101  1  0.584100  0.600700  0.242700  1.0  0.0869
  H  H3102  1  0.554100  0.602700  0.223400  1.0  0.1214
  H  H3103  1  0.551400  0.627800  0.196300  1.0  0.1186
  H  H3104  1  0.608600  0.648900  0.213300  1.0  0.0825
  H  H3105  1  0.156000  0.215400  0.351700  1.0  0.0739
  H  H3106  1  0.146600  0.204000  0.290400  1.0  0.1198
  H  H3107  1  0.123900  0.232900  0.289800  1.0  0.1185
  H  H3108  1  0.117700  0.251500  0.320400  1.0  0.0805
  H  H3109  1  0.244700  0.163600  0.402300  1.0  0.0924
  H  H3110  1  0.223100  0.193000  0.401100  1.0  0.1204
  H  H3111  1  0.199800  0.197200  0.373500  1.0  0.1156
  H  H3112  1  0.218200  0.140800  0.351700  1.0  0.0896
  H  H3113  1  0.145600  0.149300  0.287200  1.0  0.0816
  H  H3114  1  0.195700  0.118500  0.311200  1.0  0.116
  H  H3115  1  0.186600  0.090000  0.289700  1.0  0.1222
  H  H3116  1  0.158200  0.092600  0.267500  1.0  0.0923
  H  H3117  1  0.084100  0.100700  0.242700  1.0  0.0869
  H  H3118  1  0.054100  0.102700  0.223400  1.0  0.1228
  H  H3119  1  0.051400  0.127800  0.196300  1.0  0.1186
  H  H3120  1  0.108600  0.148900  0.213300  1.0  0.0825
  H  H3121  1  0.156000  0.715400  0.851700  1.0  0.0739
  H  H3122  1  0.146600  0.704000  0.790400  1.0  0.1198
  H  H3123  1  0.123900  0.732900  0.789800  1.0  0.1185
  H  H3124  1  0.117700  0.751500  0.820400  1.0  0.0805
  H  H3125  1  0.244700  0.663600  0.902300  1.0  0.0924
  H  H3126  1  0.223100  0.693000  0.901100  1.0  0.1204
  H  H3127  1  0.199800  0.697200  0.873500  1.0  0.1156
  H  H3128  1  0.218200  0.640800  0.851700  1.0  0.0896
  H  H3129  1  0.145600  0.649300  0.787200  1.0  0.0816
  H  H3130  1  0.195700  0.618500  0.811200  1.0  0.116
  H  H3131  1  0.186600  0.590000  0.789700  1.0  0.1222
  H  H3132  1  0.158200  0.592600  0.767500  1.0  0.0923
  H  H3133  1  0.084100  0.600700  0.742700  1.0  0.0869
  H  H3134  1  0.054100  0.602700  0.723400  1.0  0.1213
  H  H3135  1  0.051400  0.627800  0.696300  1.0  0.1186
  H  H3136  1  0.108600  0.648900  0.713300  1.0  0.0825
  H  H3137  1  0.094000  0.034600  0.351700  1.0  0.0736
  H  H3138  1  0.103400  0.046000  0.290400  1.0  0.1189
  H  H3139  1  0.126100  0.017100  0.289800  1.0  0.1185
  H  H3140  1  0.132300  0.998500  0.320400  1.0  0.0806
  H  H3141  1  0.005300  0.086400  0.402300  1.0  0.0927
  H  H3142  1  0.026900  0.057000  0.401100  1.0  0.1209
  H  H3143  1  0.050200  0.052800  0.373500  1.0  0.1151
  H  H3144  1  0.031800  0.109200  0.351700  1.0  0.0892
  H  H3145  1  0.104400  0.100700  0.287200  1.0  0.0813
  H  H3146  1  0.054300  0.131500  0.311200  1.0  0.1159
  H  H3147  1  0.063400  0.160000  0.289700  1.0  0.1209
  H  H3148  1  0.091800  0.157400  0.267500  1.0  0.0915
  H  H3149  1  0.165900  0.149300  0.242700  1.0  0.0866
  H  H3150  1  0.195900  0.147300  0.223400  1.0  0.1214
  H  H3151  1  0.198600  0.122200  0.196300  1.0  0.1183
  H  H3152  1  0.141400  0.101100  0.213300  1.0  0.0815
  H  H3153  1  0.094000  0.534600  0.851700  1.0  0.0736
  H  H3154  1  0.103400  0.546000  0.790400  1.0  0.1189
  H  H3155  1  0.126100  0.517100  0.789800  1.0  0.1185
  H  H3156  1  0.132300  0.498500  0.820400  1.0  0.0806
  H  H3157  1  0.005300  0.586400  0.902300  1.0  0.0927
  H  H3158  1  0.026900  0.557000  0.901100  1.0  0.1209
  H  H3159  1  0.050200  0.552800  0.873500  1.0  0.1151
  H  H3160  1  0.031800  0.609200  0.851700  1.0  0.0892
  H  H3161  1  0.104400  0.600700  0.787200  1.0  0.0813
  H  H3162  1  0.054300  0.631500  0.811200  1.0  0.1159
  H  H3163  1  0.063400  0.660000  0.789700  1.0  0.1209
  H  H3164  1  0.091800  0.657400  0.767500  1.0  0.0915
  H  H3165  1  0.165900  0.649300  0.742700  1.0  0.0866
  H  H3166  1  0.195900  0.647300  0.723400  1.0  0.1214
  H  H3167  1  0.198600  0.622200  0.696300  1.0  0.1183
  H  H3168  1  0.141400  0.601100  0.713300  1.0  0.0815
  H  H3169  1  0.594000  0.034600  0.851700  1.0  0.0736
  H  H3170  1  0.603400  0.046000  0.790400  1.0  0.1194
  H  H3171  1  0.626100  0.017100  0.789800  1.0  0.1185
  H  H3172  1  0.632300  0.998500  0.820400  1.0  0.0806
  H  H3173  1  0.505300  0.086400  0.902300  1.0  0.0927
  H  H3174  1  0.526900  0.057000  0.901100  1.0  0.1209
  H  H3175  1  0.550200  0.052800  0.873500  1.0  0.1151
  H  H3176  1  0.531800  0.109200  0.851700  1.0  0.0892
  H  H3177  1  0.604400  0.100700  0.787200  1.0  0.0813
  H  H3178  1  0.554300  0.131500  0.811200  1.0  0.1159
  H  H3179  1  0.563400  0.160000  0.789700  1.0  0.1209
  H  H3180  1  0.591800  0.157400  0.767500  1.0  0.0915
  H  H3181  1  0.665900  0.149300  0.742700  1.0  0.0866
  H  H3182  1  0.695900  0.147300  0.723400  1.0  0.1214
  H  H3183  1  0.698600  0.122200  0.696300  1.0  0.1183
  H  H3184  1  0.641400  0.101100  0.713300  1.0  0.0815
  H  H3185  1  0.594000  0.534600  0.351700  1.0  0.0736
  H  H3186  1  0.603400  0.546000  0.290400  1.0  0.1194
  H  H3187  1  0.626100  0.517100  0.289800  1.0  0.1185
  H  H3188  1  0.632300  0.498500  0.320400  1.0  0.0806
  H  H3189  1  0.505300  0.586400  0.402300  1.0  0.0927
  H  H3190  1  0.526900  0.557000  0.401100  1.0  0.1209
  H  H3191  1  0.550200  0.552800  0.373500  1.0  0.1151
  H  H3192  1  0.531800  0.609200  0.351700  1.0  0.0892
  H  H3193  1  0.604400  0.600700  0.287200  1.0  0.0813
  H  H3194  1  0.554300  0.631500  0.311200  1.0  0.1159
  H  H3195  1  0.563400  0.660000  0.289700  1.0  0.1209
  H  H3196  1  0.591800  0.657400  0.267500  1.0  0.0915
  H  H3197  1  0.665900  0.649300  0.242700  1.0  0.0866
  H  H3198  1  0.695900  0.647300  0.223400  1.0  0.1214
  H  H3199  1  0.698600  0.622200  0.196300  1.0  0.1183
  H  H3200  1  0.641400  0.601100  0.213300  1.0  0.0815
  H  H3201  1  0.594000  0.715400  0.898300  1.0  0.0741
  H  H3202  1  0.603400  0.704000  0.959600  1.0  0.1199
  H  H3203  1  0.626100  0.732900  0.960200  1.0  0.1185
  H  H3204  1  0.632300  0.751500  0.929600  1.0  0.0801
  H  H3205  1  0.505300  0.663600  0.847700  1.0  0.0916
  H  H3206  1  0.526900  0.693000  0.848900  1.0  0.1202
  H  H3207  1  0.550200  0.697200  0.876500  1.0  0.1152
  H  H3208  1  0.531800  0.640800  0.898300  1.0  0.0894
  H  H3209  1  0.604400  0.649300  0.962800  1.0  0.0817
  H  H3210  1  0.554300  0.618500  0.938800  1.0  0.1163
  H  H3211  1  0.563400  0.590000  0.960300  1.0  0.122
  H  H3212  1  0.591800  0.592600  0.982500  1.0  0.0925
  H  H3213  1  0.665900  0.600700  0.007300  1.0  0.0862
  H  H3214  1  0.695900  0.602700  0.026600  1.0  0.1209
  H  H3215  1  0.698600  0.627800  0.053700  1.0  0.1178
  H  H3216  1  0.641400  0.648900  0.036700  1.0  0.0821
  H  H3217  1  0.594000  0.215400  0.398300  1.0  0.0741
  H  H3218  1  0.603400  0.204000  0.459600  1.0  0.1199
  H  H3219  1  0.626100  0.232900  0.460200  1.0  0.1185
  H  H3220  1  0.632300  0.251500  0.429600  1.0  0.0801
  H  H3221  1  0.505300  0.163600  0.347700  1.0  0.0916
  H  H3222  1  0.526900  0.193000  0.348900  1.0  0.1202
  H  H3223  1  0.550200  0.197200  0.376500  1.0  0.1152
  H  H3224  1  0.531800  0.140800  0.398300  1.0  0.0894
  H  H3225  1  0.604400  0.149300  0.462800  1.0  0.0817
  H  H3226  1  0.554300  0.118500  0.438800  1.0  0.1163
  H  H3227  1  0.563400  0.090000  0.460300  1.0  0.122
  H  H3228  1  0.591800  0.092600  0.482500  1.0  0.0925
  H  H3229  1  0.665900  0.100700  0.507300  1.0  0.0862
  H  H3230  1  0.695900  0.102700  0.526600  1.0  0.1209
  H  H3231  1  0.698600  0.127800  0.553700  1.0  0.1178
  H  H3232  1  0.641400  0.148900  0.536700  1.0  0.0821
  H  H3233  1  0.094000  0.715400  0.398300  1.0  0.0741
  H  H3234  1  0.103400  0.704000  0.459600  1.0  0.1193
  H  H3235  1  0.126100  0.732900  0.460200  1.0  0.1185
  H  H3236  1  0.132300  0.751500  0.429600  1.0  0.0801
  H  H3237  1  0.005300  0.663600  0.347700  1.0  0.0916
  H  H3238  1  0.026900  0.693000  0.348900  1.0  0.1202
  H  H3239  1  0.050200  0.697200  0.376500  1.0  0.1152
  H  H3240  1  0.031800  0.640800  0.398300  1.0  0.0894
  H  H3241  1  0.104400  0.649300  0.462800  1.0  0.0817
  H  H3242  1  0.054300  0.618500  0.438800  1.0  0.1163
  H  H3243  1  0.063400  0.590000  0.460300  1.0  0.122
  H  H3244  1  0.091800  0.592600  0.482500  1.0  0.0925
  H  H3245  1  0.165900  0.600700  0.507300  1.0  0.0862
  H  H3246  1  0.195900  0.602700  0.526600  1.0  0.1209
  H  H3247  1  0.198600  0.627800  0.553700  1.0  0.1178
  H  H3248  1  0.141400  0.648900  0.536700  1.0  0.0821
  H  H3249  1  0.094000  0.215400  0.898300  1.0  0.0741
  H  H3250  1  0.103400  0.204000  0.959600  1.0  0.1193
  H  H3251  1  0.126100  0.232900  0.960200  1.0  0.1185
  H  H3252  1  0.132300  0.251500  0.929600  1.0  0.0801
  H  H3253  1  0.005300  0.163600  0.847700  1.0  0.0916
  H  H3254  1  0.026900  0.193000  0.848900  1.0  0.1202
  H  H3255  1  0.050200  0.197200  0.876500  1.0  0.1152
  H  H3256  1  0.031800  0.140800  0.898300  1.0  0.0894
  H  H3257  1  0.104400  0.149300  0.962800  1.0  0.0817
  H  H3258  1  0.054300  0.118500  0.938800  1.0  0.1163
  H  H3259  1  0.063400  0.090000  0.960300  1.0  0.1221
  H  H3260  1  0.091800  0.092600  0.982500  1.0  0.0925
  H  H3261  1  0.165900  0.100700  0.007300  1.0  0.0862
  H  H3262  1  0.195900  0.102700  0.026600  1.0  0.1226
  H  H3263  1  0.198600  0.127800  0.053700  1.0  0.1178
  H  H3264  1  0.141400  0.148900  0.036700  1.0  0.0821
  C  C3265  1  0.411050  0.218780  0.100840  1.0  0.1982
  C  C3266  1  0.428450  0.206840  0.096330  1.0  -0.1363
  C  C3267  1  0.447330  0.211940  0.106000  1.0  -0.0654
  C  C3268  1  0.447600  0.228840  0.119440  1.0  -0.1541
  C  C3269  1  0.429240  0.239850  0.123100  1.0  0.1828
  C  C3270  1  0.343020  0.148280  0.968790  1.0  0.276
  C  C3271  1  0.358630  0.164820  0.015340  1.0  0.1567
  C  C3272  1  0.359440  0.182640  0.027950  1.0  -0.1397
  C  C3273  1  0.375510  0.185010  0.041770  1.0  -0.0041
  C  C3274  1  0.390570  0.169060  0.043330  1.0  -0.17
  C  C3275  1  0.388260  0.151690  0.030650  1.0  0.2008
  C  C3276  1  0.407910  0.170380  0.058470  1.0  0.3949
  C  C3277  1  0.426190  0.188230  0.082700  1.0  0.2644
  C  C3278  1  0.435530  0.155700  0.074220  1.0  0.4018
  C  C3279  1  0.462420  0.137250  0.095650  1.0  0.1928
  C  C3280  1  0.448780  0.137290  0.078360  1.0  -0.1722
  C  C3281  1  0.447900  0.119280  0.066010  1.0  -0.0408
  C  C3282  1  0.460630  0.102560  0.071410  1.0  -0.133
  C  C3283  1  0.473770  0.104150  0.088420  1.0  0.1604
  C  C3284  1  0.501260  0.074960  0.130090  1.0  0.2911
  C  C3285  1  0.517600  0.111360  0.167070  1.0  0.1494
  C  C3286  1  0.529250  0.112140  0.184730  1.0  -0.169
  C  C3287  1  0.545190  0.127020  0.186450  1.0  -0.0538
  C  C3288  1  0.548220  0.140670  0.169890  1.0  -0.1848
  C  C3289  1  0.534960  0.139230  0.152590  1.0  0.1813
  C  C3290  1  0.564330  0.156960  0.170610  1.0  0.4131
  C  C3291  1  0.411050  0.718780  0.600840  1.0  0.1982
  C  C3292  1  0.428450  0.706840  0.596330  1.0  -0.1363
  C  C3293  1  0.447330  0.711940  0.606000  1.0  -0.0654
  C  C3294  1  0.447600  0.728840  0.619440  1.0  -0.1541
  C  C3295  1  0.429240  0.739850  0.623100  1.0  0.1828
  C  C3296  1  0.343020  0.648280  0.468790  1.0  0.276
  C  C3297  1  0.358630  0.664820  0.515340  1.0  0.1567
  C  C3298  1  0.359440  0.682640  0.527950  1.0  -0.1397
  C  C3299  1  0.375510  0.685010  0.541770  1.0  -0.0041
  C  C3300  1  0.390570  0.669060  0.543330  1.0  -0.17
  C  C3301  1  0.388260  0.651690  0.530650  1.0  0.2008
  C  C3302  1  0.407910  0.670380  0.558470  1.0  0.3949
  C  C3303  1  0.426190  0.688230  0.582700  1.0  0.2625
  C  C3304  1  0.435530  0.655700  0.574220  1.0  0.4018
  C  C3305  1  0.462420  0.637250  0.595650  1.0  0.1928
  C  C3306  1  0.448780  0.637290  0.578360  1.0  -0.1722
  C  C3307  1  0.447900  0.619280  0.566010  1.0  -0.0408
  C  C3308  1  0.460630  0.602560  0.571410  1.0  -0.133
  C  C3309  1  0.473770  0.604150  0.588420  1.0  0.1604
  C  C3310  1  0.501260  0.574960  0.630090  1.0  0.2911
  C  C3311  1  0.517600  0.611360  0.667070  1.0  0.1494
  C  C3312  1  0.529250  0.612140  0.684730  1.0  -0.169
  C  C3313  1  0.545190  0.627020  0.686450  1.0  -0.0538
  C  C3314  1  0.548220  0.640670  0.669890  1.0  -0.1848
  C  C3315  1  0.534960  0.639230  0.652590  1.0  0.1813
  C  C3316  1  0.564330  0.656960  0.670610  1.0  0.4131
  C  C3317  1  0.911050  0.218780  0.600840  1.0  0.1982
  C  C3318  1  0.928450  0.206840  0.596330  1.0  -0.1363
  C  C3319  1  0.947330  0.211940  0.606000  1.0  -0.0654
  C  C3320  1  0.947600  0.228840  0.619440  1.0  -0.1541
  C  C3321  1  0.929240  0.239850  0.623100  1.0  0.1828
  C  C3322  1  0.843020  0.148280  0.468790  1.0  0.276
  C  C3323  1  0.858630  0.164820  0.515340  1.0  0.1567
  C  C3324  1  0.859440  0.182640  0.527950  1.0  -0.1397
  C  C3325  1  0.875510  0.185010  0.541770  1.0  -0.0041
  C  C3326  1  0.890570  0.169060  0.543330  1.0  -0.17
  C  C3327  1  0.888260  0.151690  0.530650  1.0  0.2008
  C  C3328  1  0.907910  0.170380  0.558470  1.0  0.3949
  C  C3329  1  0.926190  0.188230  0.582700  1.0  0.2625
  C  C3330  1  0.935530  0.155700  0.574220  1.0  0.4018
  C  C3331  1  0.962420  0.137250  0.595650  1.0  0.1928
  C  C3332  1  0.948780  0.137290  0.578360  1.0  -0.1722
  C  C3333  1  0.947900  0.119280  0.566010  1.0  -0.0408
  C  C3334  1  0.960630  0.102560  0.571410  1.0  -0.133
  C  C3335  1  0.973770  0.104150  0.588420  1.0  0.1604
  C  C3336  1  0.001260  0.074960  0.630090  1.0  0.2911
  C  C3337  1  0.017600  0.111360  0.667070  1.0  0.1494
  C  C3338  1  0.029250  0.112140  0.684730  1.0  -0.169
  C  C3339  1  0.045190  0.127020  0.686450  1.0  -0.0538
  C  C3340  1  0.048220  0.140670  0.669890  1.0  -0.1848
  C  C3341  1  0.034960  0.139230  0.652590  1.0  0.1813
  C  C3342  1  0.064330  0.156960  0.670610  1.0  0.4131
  C  C3343  1  0.911050  0.718780  0.100840  1.0  0.1982
  C  C3344  1  0.928450  0.706840  0.096330  1.0  -0.1363
  C  C3345  1  0.947330  0.711940  0.106000  1.0  -0.0654
  C  C3346  1  0.947600  0.728840  0.119440  1.0  -0.1541
  C  C3347  1  0.929240  0.739850  0.123100  1.0  0.1828
  C  C3348  1  0.843020  0.648280  0.968790  1.0  0.276
  C  C3349  1  0.858630  0.664820  0.015340  1.0  0.1567
  C  C3350  1  0.859440  0.682640  0.027950  1.0  -0.1397
  C  C3351  1  0.875510  0.685010  0.041770  1.0  -0.0041
  C  C3352  1  0.890570  0.669060  0.043330  1.0  -0.17
  C  C3353  1  0.888260  0.651690  0.030650  1.0  0.2008
  C  C3354  1  0.907910  0.670380  0.058470  1.0  0.3949
  C  C3355  1  0.926190  0.688230  0.082700  1.0  0.2644
  C  C3356  1  0.935530  0.655700  0.074220  1.0  0.4018
  C  C3357  1  0.962420  0.637250  0.095650  1.0  0.1928
  C  C3358  1  0.948780  0.637290  0.078360  1.0  -0.1722
  C  C3359  1  0.947900  0.619280  0.066010  1.0  -0.0408
  C  C3360  1  0.960630  0.602560  0.071410  1.0  -0.133
  C  C3361  1  0.973770  0.604150  0.088420  1.0  0.1604
  C  C3362  1  0.001260  0.574960  0.130090  1.0  0.2911
  C  C3363  1  0.017600  0.611360  0.167070  1.0  0.1494
  C  C3364  1  0.029250  0.612140  0.184730  1.0  -0.169
  C  C3365  1  0.045190  0.627020  0.186450  1.0  -0.0538
  C  C3366  1  0.048220  0.640670  0.169890  1.0  -0.1848
  C  C3367  1  0.034960  0.639230  0.152590  1.0  0.1813
  C  C3368  1  0.064330  0.656960  0.170610  1.0  0.4131
  C  C3369  1  0.838950  0.531220  0.600840  1.0  0.1982
  C  C3370  1  0.821550  0.543160  0.596330  1.0  -0.1352
  C  C3371  1  0.802670  0.538060  0.606000  1.0  -0.0673
  C  C3372  1  0.802400  0.521160  0.619440  1.0  -0.1554
  C  C3373  1  0.820760  0.510150  0.623100  1.0  0.1823
  C  C3374  1  0.906980  0.601720  0.468790  1.0  0.2741
  C  C3375  1  0.891370  0.585180  0.515340  1.0  0.1572
  C  C3376  1  0.890560  0.567360  0.527950  1.0  -0.1363
  C  C3377  1  0.874490  0.564990  0.541770  1.0  -0.0039
  C  C3378  1  0.859430  0.580940  0.543330  1.0  -0.1696
  C  C3379  1  0.861740  0.598310  0.530650  1.0  0.2021
  C  C3380  1  0.842090  0.579620  0.558470  1.0  0.3947
  C  C3381  1  0.823810  0.561770  0.582700  1.0  0.2623
  C  C3382  1  0.814470  0.594300  0.574220  1.0  0.4019
  C  C3383  1  0.787580  0.612750  0.595650  1.0  0.1938
  C  C3384  1  0.801220  0.612710  0.578360  1.0  -0.1733
  C  C3385  1  0.802100  0.630720  0.566010  1.0  -0.0412
  C  C3386  1  0.789370  0.647440  0.571410  1.0  -0.1331
  C  C3387  1  0.776230  0.645850  0.588420  1.0  0.1599
  C  C3388  1  0.748740  0.675040  0.630090  1.0  0.292
  C  C3389  1  0.732400  0.638640  0.667070  1.0  0.148
  C  C3390  1  0.720750  0.637860  0.684730  1.0  -0.1658
  C  C3391  1  0.704810  0.622980  0.686450  1.0  -0.055
  C  C3392  1  0.701780  0.609330  0.669890  1.0  -0.1857
  C  C3393  1  0.715040  0.610770  0.652590  1.0  0.1807
  C  C3394  1  0.685670  0.593040  0.670610  1.0  0.413
  C  C3395  1  0.838950  0.031220  0.100840  1.0  0.1982
  C  C3396  1  0.821550  0.043160  0.096330  1.0  -0.1352
  C  C3397  1  0.802670  0.038060  0.106000  1.0  -0.0673
  C  C3398  1  0.802400  0.021160  0.119440  1.0  -0.1554
  C  C3399  1  0.820760  0.010150  0.123100  1.0  0.1823
  C  C3400  1  0.906980  0.101720  0.968790  1.0  0.2741
  C  C3401  1  0.891370  0.085180  0.015340  1.0  0.1572
  C  C3402  1  0.890560  0.067360  0.027950  1.0  -0.1363
  C  C3403  1  0.874490  0.064990  0.041770  1.0  -0.0039
  C  C3404  1  0.859430  0.080940  0.043330  1.0  -0.1696
  C  C3405  1  0.861740  0.098310  0.030650  1.0  0.2021
  C  C3406  1  0.842090  0.079620  0.058470  1.0  0.3947
  C  C3407  1  0.823810  0.061770  0.082700  1.0  0.2643
  C  C3408  1  0.814470  0.094300  0.074220  1.0  0.4019
  C  C3409  1  0.787580  0.112750  0.095650  1.0  0.1938
  C  C3410  1  0.801220  0.112710  0.078360  1.0  -0.1733
  C  C3411  1  0.802100  0.130720  0.066010  1.0  -0.0412
  C  C3412  1  0.789370  0.147440  0.071410  1.0  -0.1331
  C  C3413  1  0.776230  0.145850  0.088420  1.0  0.1599
  C  C3414  1  0.748740  0.175040  0.130090  1.0  0.292
  C  C3415  1  0.732400  0.138640  0.167070  1.0  0.148
  C  C3416  1  0.720750  0.137860  0.184730  1.0  -0.1658
  C  C3417  1  0.704810  0.122980  0.186450  1.0  -0.055
  C  C3418  1  0.701780  0.109330  0.169890  1.0  -0.1857
  C  C3419  1  0.715040  0.110770  0.152590  1.0  0.1807
  C  C3420  1  0.685670  0.093040  0.170610  1.0  0.413
  C  C3421  1  0.338950  0.531220  0.100840  1.0  0.1982
  C  C3422  1  0.321550  0.543160  0.096330  1.0  -0.1352
  C  C3423  1  0.302670  0.538060  0.106000  1.0  -0.0673
  C  C3424  1  0.302400  0.521160  0.119440  1.0  -0.1554
  C  C3425  1  0.320760  0.510150  0.123100  1.0  0.1823
  C  C3426  1  0.406980  0.601720  0.968790  1.0  0.2741
  C  C3427  1  0.391370  0.585180  0.015340  1.0  0.1572
  C  C3428  1  0.390560  0.567360  0.027950  1.0  -0.1363
  C  C3429  1  0.374490  0.564990  0.041770  1.0  -0.0039
  C  C3430  1  0.359430  0.580940  0.043330  1.0  -0.1696
  C  C3431  1  0.361740  0.598310  0.030650  1.0  0.2021
  C  C3432  1  0.342090  0.579620  0.058470  1.0  0.3947
  C  C3433  1  0.323810  0.561770  0.082700  1.0  0.2643
  C  C3434  1  0.314470  0.594300  0.074220  1.0  0.4019
  C  C3435  1  0.287580  0.612750  0.095650  1.0  0.1938
  C  C3436  1  0.301220  0.612710  0.078360  1.0  -0.1733
  C  C3437  1  0.302100  0.630720  0.066010  1.0  -0.0412
  C  C3438  1  0.289370  0.647440  0.071410  1.0  -0.1331
  C  C3439  1  0.276230  0.645850  0.088420  1.0  0.1599
  C  C3440  1  0.248740  0.675040  0.130090  1.0  0.292
  C  C3441  1  0.232400  0.638640  0.167070  1.0  0.148
  C  C3442  1  0.220750  0.637860  0.184730  1.0  -0.1658
  C  C3443  1  0.204810  0.622980  0.186450  1.0  -0.055
  C  C3444  1  0.201780  0.609330  0.169890  1.0  -0.1857
  C  C3445  1  0.215040  0.610770  0.152590  1.0  0.1807
  C  C3446  1  0.185670  0.593040  0.170610  1.0  0.413
  C  C3447  1  0.338950  0.031220  0.600840  1.0  0.1982
  C  C3448  1  0.321550  0.043160  0.596330  1.0  -0.1352
  C  C3449  1  0.302670  0.038060  0.606000  1.0  -0.0673
  C  C3450  1  0.302400  0.021160  0.619440  1.0  -0.1554
  C  C3451  1  0.320760  0.010150  0.623100  1.0  0.1823
  C  C3452  1  0.406980  0.101720  0.468790  1.0  0.2741
  C  C3453  1  0.391370  0.085180  0.515340  1.0  0.1572
  C  C3454  1  0.390560  0.067360  0.527950  1.0  -0.1363
  C  C3455  1  0.374490  0.064990  0.541770  1.0  -0.0039
  C  C3456  1  0.359430  0.080940  0.543330  1.0  -0.1696
  C  C3457  1  0.361740  0.098310  0.530650  1.0  0.2021
  C  C3458  1  0.342090  0.079620  0.558470  1.0  0.3947
  C  C3459  1  0.323810  0.061770  0.582700  1.0  0.2623
  C  C3460  1  0.314470  0.094300  0.574220  1.0  0.4019
  C  C3461  1  0.287580  0.112750  0.595650  1.0  0.1938
  C  C3462  1  0.301220  0.112710  0.578360  1.0  -0.1733
  C  C3463  1  0.302100  0.130720  0.566010  1.0  -0.0412
  C  C3464  1  0.289370  0.147440  0.571410  1.0  -0.1331
  C  C3465  1  0.276230  0.145850  0.588420  1.0  0.1599
  C  C3466  1  0.248740  0.175040  0.630090  1.0  0.292
  C  C3467  1  0.232400  0.138640  0.667070  1.0  0.148
  C  C3468  1  0.220750  0.137860  0.684730  1.0  -0.1658
  C  C3469  1  0.204810  0.122980  0.686450  1.0  -0.055
  C  C3470  1  0.201780  0.109330  0.669890  1.0  -0.1857
  C  C3471  1  0.215040  0.110770  0.652590  1.0  0.1807
  C  C3472  1  0.185670  0.093040  0.670610  1.0  0.413
  C  C3473  1  0.338950  0.718780  0.149160  1.0  0.1975
  C  C3474  1  0.321550  0.706840  0.153670  1.0  -0.1355
  C  C3475  1  0.302670  0.711940  0.144000  1.0  -0.0671
  C  C3476  1  0.302400  0.728840  0.130560  1.0  -0.156
  C  C3477  1  0.320760  0.739850  0.126900  1.0  0.1816
  C  C3478  1  0.406980  0.648280  0.281210  1.0  0.2721
  C  C3479  1  0.391370  0.664820  0.234660  1.0  0.1567
  C  C3480  1  0.390560  0.682640  0.222050  1.0  -0.1357
  C  C3481  1  0.374490  0.685010  0.208230  1.0  -0.0035
  C  C3482  1  0.359430  0.669060  0.206670  1.0  -0.1691
  C  C3483  1  0.361740  0.651690  0.219350  1.0  0.202
  C  C3484  1  0.342090  0.670380  0.191530  1.0  0.3945
  C  C3485  1  0.323810  0.688230  0.167300  1.0  0.2628
  C  C3486  1  0.314470  0.655700  0.175780  1.0  0.4021
  C  C3487  1  0.287580  0.637250  0.154350  1.0  0.1939
  C  C3488  1  0.301220  0.637290  0.171640  1.0  -0.1726
  C  C3489  1  0.302100  0.619280  0.183990  1.0  -0.0397
  C  C3490  1  0.289370  0.602560  0.178590  1.0  -0.1344
  C  C3491  1  0.276230  0.604150  0.161580  1.0  0.1606
  C  C3492  1  0.248740  0.574960  0.119910  1.0  0.2924
  C  C3493  1  0.232400  0.611360  0.082930  1.0  0.1479
  C  C3494  1  0.220750  0.612140  0.065270  1.0  -0.1657
  C  C3495  1  0.204810  0.627020  0.063550  1.0  -0.055
  C  C3496  1  0.201780  0.640670  0.080110  1.0  -0.1855
  C  C3497  1  0.215040  0.639230  0.097410  1.0  0.1818
  C  C3498  1  0.185670  0.656960  0.079390  1.0  0.4131
  C  C3499  1  0.338950  0.218780  0.649160  1.0  0.1975
  C  C3500  1  0.321550  0.206840  0.653670  1.0  -0.1355
  C  C3501  1  0.302670  0.211940  0.644000  1.0  -0.0671
  C  C3502  1  0.302400  0.228840  0.630560  1.0  -0.156
  C  C3503  1  0.320760  0.239850  0.626900  1.0  0.1816
  C  C3504  1  0.406980  0.148280  0.781210  1.0  0.2721
  C  C3505  1  0.391370  0.164820  0.734660  1.0  0.1567
  C  C3506  1  0.390560  0.182640  0.722050  1.0  -0.1357
  C  C3507  1  0.374490  0.185010  0.708230  1.0  -0.0035
  C  C3508  1  0.359430  0.169060  0.706670  1.0  -0.1691
  C  C3509  1  0.361740  0.151690  0.719350  1.0  0.202
  C  C3510  1  0.342090  0.170380  0.691530  1.0  0.3945
  C  C3511  1  0.323810  0.188230  0.667300  1.0  0.2628
  C  C3512  1  0.314470  0.155700  0.675780  1.0  0.4021
  C  C3513  1  0.287580  0.137250  0.654350  1.0  0.1939
  C  C3514  1  0.301220  0.137290  0.671640  1.0  -0.1726
  C  C3515  1  0.302100  0.119280  0.683990  1.0  -0.0397
  C  C3516  1  0.289370  0.102560  0.678590  1.0  -0.1344
  C  C3517  1  0.276230  0.104150  0.661580  1.0  0.1606
  C  C3518  1  0.248740  0.074960  0.619910  1.0  0.2924
  C  C3519  1  0.232400  0.111360  0.582930  1.0  0.1479
  C  C3520  1  0.220750  0.112140  0.565270  1.0  -0.1657
  C  C3521  1  0.204810  0.127020  0.563550  1.0  -0.055
  C  C3522  1  0.201780  0.140670  0.580110  1.0  -0.1855
  C  C3523  1  0.215040  0.139230  0.597410  1.0  0.1818
  C  C3524  1  0.185670  0.156960  0.579390  1.0  0.4131
  C  C3525  1  0.838950  0.718780  0.649160  1.0  0.1975
  C  C3526  1  0.821550  0.706840  0.653670  1.0  -0.1355
  C  C3527  1  0.802670  0.711940  0.644000  1.0  -0.0671
  C  C3528  1  0.802400  0.728840  0.630560  1.0  -0.156
  C  C3529  1  0.820760  0.739850  0.626900  1.0  0.1816
  C  C3530  1  0.906980  0.648280  0.781210  1.0  0.2721
  C  C3531  1  0.891370  0.664820  0.734660  1.0  0.1567
  C  C3532  1  0.890560  0.682640  0.722050  1.0  -0.1357
  C  C3533  1  0.874490  0.685010  0.708230  1.0  -0.0035
  C  C3534  1  0.859430  0.669060  0.706670  1.0  -0.1691
  C  C3535  1  0.861740  0.651690  0.719350  1.0  0.202
  C  C3536  1  0.842090  0.670380  0.691530  1.0  0.3945
  C  C3537  1  0.823810  0.688230  0.667300  1.0  0.2628
  C  C3538  1  0.814470  0.655700  0.675780  1.0  0.4021
  C  C3539  1  0.787580  0.637250  0.654350  1.0  0.1939
  C  C3540  1  0.801220  0.637290  0.671640  1.0  -0.1726
  C  C3541  1  0.802100  0.619280  0.683990  1.0  -0.0397
  C  C3542  1  0.789370  0.602560  0.678590  1.0  -0.1344
  C  C3543  1  0.776230  0.604150  0.661580  1.0  0.1606
  C  C3544  1  0.748740  0.574960  0.619910  1.0  0.2924
  C  C3545  1  0.732400  0.611360  0.582930  1.0  0.1479
  C  C3546  1  0.720750  0.612140  0.565270  1.0  -0.1657
  C  C3547  1  0.704810  0.627020  0.563550  1.0  -0.055
  C  C3548  1  0.701780  0.640670  0.580110  1.0  -0.1855
  C  C3549  1  0.715040  0.639230  0.597410  1.0  0.1818
  C  C3550  1  0.685670  0.656960  0.579390  1.0  0.4131
  C  C3551  1  0.838950  0.218780  0.149160  1.0  0.1975
  C  C3552  1  0.821550  0.206840  0.153670  1.0  -0.1355
  C  C3553  1  0.802670  0.211940  0.144000  1.0  -0.0671
  C  C3554  1  0.802400  0.228840  0.130560  1.0  -0.156
  C  C3555  1  0.820760  0.239850  0.126900  1.0  0.1816
  C  C3556  1  0.906980  0.148280  0.281210  1.0  0.2721
  C  C3557  1  0.891370  0.164820  0.234660  1.0  0.1567
  C  C3558  1  0.890560  0.182640  0.222050  1.0  -0.1357
  C  C3559  1  0.874490  0.185010  0.208230  1.0  -0.0035
  C  C3560  1  0.859430  0.169060  0.206670  1.0  -0.1691
  C  C3561  1  0.861740  0.151690  0.219350  1.0  0.202
  C  C3562  1  0.842090  0.170380  0.191530  1.0  0.3945
  C  C3563  1  0.823810  0.188230  0.167300  1.0  0.2628
  C  C3564  1  0.814470  0.155700  0.175780  1.0  0.4021
  C  C3565  1  0.787580  0.137250  0.154350  1.0  0.1939
  C  C3566  1  0.801220  0.137290  0.171640  1.0  -0.1726
  C  C3567  1  0.802100  0.119280  0.183990  1.0  -0.0397
  C  C3568  1  0.789370  0.102560  0.178590  1.0  -0.1344
  C  C3569  1  0.776230  0.104150  0.161580  1.0  0.1606
  C  C3570  1  0.748740  0.074960  0.119910  1.0  0.2924
  C  C3571  1  0.732400  0.111360  0.082930  1.0  0.1479
  C  C3572  1  0.720750  0.112140  0.065270  1.0  -0.1657
  C  C3573  1  0.704810  0.127020  0.063550  1.0  -0.055
  C  C3574  1  0.701780  0.140670  0.080110  1.0  -0.1855
  C  C3575  1  0.715040  0.139230  0.097410  1.0  0.1818
  C  C3576  1  0.685670  0.156960  0.079390  1.0  0.4131
  C  C3577  1  0.911050  0.031220  0.649160  1.0  0.1977
  C  C3578  1  0.928450  0.043160  0.653670  1.0  -0.1367
  C  C3579  1  0.947330  0.038060  0.644000  1.0  -0.0653
  C  C3580  1  0.947600  0.021160  0.630560  1.0  -0.1547
  C  C3581  1  0.929240  0.010150  0.626900  1.0  0.1826
  C  C3582  1  0.843020  0.101720  0.781210  1.0  0.2745
  C  C3583  1  0.858630  0.085180  0.734660  1.0  0.1585
  C  C3584  1  0.859440  0.067360  0.722050  1.0  -0.1402
  C  C3585  1  0.875510  0.064990  0.708230  1.0  -0.0027
  C  C3586  1  0.890570  0.080940  0.706670  1.0  -0.17
  C  C3587  1  0.888260  0.098310  0.719350  1.0  0.2016
  C  C3588  1  0.907910  0.079620  0.691530  1.0  0.3945
  C  C3589  1  0.926190  0.061770  0.667300  1.0  0.2621
  C  C3590  1  0.935530  0.094300  0.675780  1.0  0.4019
  C  C3591  1  0.962420  0.112750  0.654350  1.0  0.1935
  C  C3592  1  0.948780  0.112710  0.671640  1.0  -0.1725
  C  C3593  1  0.947900  0.130720  0.683990  1.0  -0.0402
  C  C3594  1  0.960630  0.147440  0.678590  1.0  -0.1336
  C  C3595  1  0.973770  0.145850  0.661580  1.0  0.1604
  C  C3596  1  0.001260  0.175040  0.619910  1.0  0.2906
  C  C3597  1  0.017600  0.138640  0.582930  1.0  0.149
  C  C3598  1  0.029250  0.137860  0.565270  1.0  -0.1656
  C  C3599  1  0.045190  0.122980  0.563550  1.0  -0.0549
  C  C3600  1  0.048220  0.109330  0.580110  1.0  -0.1849
  C  C3601  1  0.034960  0.110770  0.597410  1.0  0.1831
  C  C3602  1  0.064330  0.093040  0.579390  1.0  0.4134
  C  C3603  1  0.911050  0.531220  0.149160  1.0  0.1977
  C  C3604  1  0.928450  0.543160  0.153670  1.0  -0.1367
  C  C3605  1  0.947330  0.538060  0.144000  1.0  -0.0653
  C  C3606  1  0.947600  0.521160  0.130560  1.0  -0.1547
  C  C3607  1  0.929240  0.510150  0.126900  1.0  0.1826
  C  C3608  1  0.843020  0.601720  0.281210  1.0  0.2745
  C  C3609  1  0.858630  0.585180  0.234660  1.0  0.1585
  C  C3610  1  0.859440  0.567360  0.222050  1.0  -0.1402
  C  C3611  1  0.875510  0.564990  0.208230  1.0  -0.0027
  C  C3612  1  0.890570  0.580940  0.206670  1.0  -0.17
  C  C3613  1  0.888260  0.598310  0.219350  1.0  0.2016
  C  C3614  1  0.907910  0.579620  0.191530  1.0  0.3945
  C  C3615  1  0.926190  0.561770  0.167300  1.0  0.2621
  C  C3616  1  0.935530  0.594300  0.175780  1.0  0.4019
  C  C3617  1  0.962420  0.612750  0.154350  1.0  0.1935
  C  C3618  1  0.948780  0.612710  0.171640  1.0  -0.1725
  C  C3619  1  0.947900  0.630720  0.183990  1.0  -0.0402
  C  C3620  1  0.960630  0.647440  0.178590  1.0  -0.1336
  C  C3621  1  0.973770  0.645850  0.161580  1.0  0.1604
  C  C3622  1  0.001260  0.675040  0.119910  1.0  0.2906
  C  C3623  1  0.017600  0.638640  0.082930  1.0  0.149
  C  C3624  1  0.029250  0.637860  0.065270  1.0  -0.1656
  C  C3625  1  0.045190  0.622980  0.063550  1.0  -0.0549
  C  C3626  1  0.048220  0.609330  0.080110  1.0  -0.1849
  C  C3627  1  0.034960  0.610770  0.097410  1.0  0.1831
  C  C3628  1  0.064330  0.593040  0.079390  1.0  0.4134
  C  C3629  1  0.411050  0.031220  0.149160  1.0  0.1977
  C  C3630  1  0.428450  0.043160  0.153670  1.0  -0.1367
  C  C3631  1  0.447330  0.038060  0.144000  1.0  -0.0653
  C  C3632  1  0.447600  0.021160  0.130560  1.0  -0.1547
  C  C3633  1  0.429240  0.010150  0.126900  1.0  0.1826
  C  C3634  1  0.343020  0.101720  0.281210  1.0  0.2745
  C  C3635  1  0.358630  0.085180  0.234660  1.0  0.1585
  C  C3636  1  0.359440  0.067360  0.222050  1.0  -0.1402
  C  C3637  1  0.375510  0.064990  0.208230  1.0  -0.0027
  C  C3638  1  0.390570  0.080940  0.206670  1.0  -0.17
  C  C3639  1  0.388260  0.098310  0.219350  1.0  0.2016
  C  C3640  1  0.407910  0.079620  0.191530  1.0  0.3945
  C  C3641  1  0.426190  0.061770  0.167300  1.0  0.2621
  C  C3642  1  0.435530  0.094300  0.175780  1.0  0.4019
  C  C3643  1  0.462420  0.112750  0.154350  1.0  0.1935
  C  C3644  1  0.448780  0.112710  0.171640  1.0  -0.1725
  C  C3645  1  0.447900  0.130720  0.183990  1.0  -0.0402
  C  C3646  1  0.460630  0.147440  0.178590  1.0  -0.1336
  C  C3647  1  0.473770  0.145850  0.161580  1.0  0.1604
  C  C3648  1  0.501260  0.175040  0.119910  1.0  0.2906
  C  C3649  1  0.517600  0.138640  0.082930  1.0  0.149
  C  C3650  1  0.529250  0.137860  0.065270  1.0  -0.1656
  C  C3651  1  0.545190  0.122980  0.063550  1.0  -0.0549
  C  C3652  1  0.548220  0.109330  0.080110  1.0  -0.1849
  C  C3653  1  0.534960  0.110770  0.097410  1.0  0.1831
  C  C3654  1  0.564330  0.093040  0.079390  1.0  0.4134
  C  C3655  1  0.411050  0.531220  0.649160  1.0  0.1977
  C  C3656  1  0.428450  0.543160  0.653670  1.0  -0.1367
  C  C3657  1  0.447330  0.538060  0.644000  1.0  -0.0653
  C  C3658  1  0.447600  0.521160  0.630560  1.0  -0.1547
  C  C3659  1  0.429240  0.510150  0.626900  1.0  0.1826
  C  C3660  1  0.343020  0.601720  0.781210  1.0  0.2745
  C  C3661  1  0.358630  0.585180  0.734660  1.0  0.1585
  C  C3662  1  0.359440  0.567360  0.722050  1.0  -0.1402
  C  C3663  1  0.375510  0.564990  0.708230  1.0  -0.0027
  C  C3664  1  0.390570  0.580940  0.706670  1.0  -0.17
  C  C3665  1  0.388260  0.598310  0.719350  1.0  0.2016
  C  C3666  1  0.407910  0.579620  0.691530  1.0  0.3945
  C  C3667  1  0.426190  0.561770  0.667300  1.0  0.2621
  C  C3668  1  0.435530  0.594300  0.675780  1.0  0.4019
  C  C3669  1  0.462420  0.612750  0.654350  1.0  0.1935
  C  C3670  1  0.448780  0.612710  0.671640  1.0  -0.1725
  C  C3671  1  0.447900  0.630720  0.683990  1.0  -0.0402
  C  C3672  1  0.460630  0.647440  0.678590  1.0  -0.1336
  C  C3673  1  0.473770  0.645850  0.661580  1.0  0.1604
  C  C3674  1  0.501260  0.675040  0.619910  1.0  0.2906
  C  C3675  1  0.517600  0.638640  0.582930  1.0  0.149
  C  C3676  1  0.529250  0.637860  0.565270  1.0  -0.1656
  C  C3677  1  0.545190  0.622980  0.563550  1.0  -0.0549
  C  C3678  1  0.548220  0.609330  0.580110  1.0  -0.1849
  C  C3679  1  0.534960  0.610770  0.597410  1.0  0.1831
  C  C3680  1  0.564330  0.593040  0.579390  1.0  0.4134
  C  C3681  1  0.100840  0.411050  0.218780  1.0  0.1977
  C  C3682  1  0.096330  0.428450  0.206840  1.0  -0.1354
  C  C3683  1  0.106000  0.447330  0.211940  1.0  -0.0646
  C  C3684  1  0.119440  0.447600  0.228840  1.0  -0.1549
  C  C3685  1  0.123100  0.429240  0.239850  1.0  0.1796
  C  C3686  1  0.968790  0.343020  0.148280  1.0  0.2767
  C  C3687  1  0.015340  0.358630  0.164820  1.0  0.1539
  C  C3688  1  0.027950  0.359440  0.182640  1.0  -0.1373
  C  C3689  1  0.041770  0.375510  0.185010  1.0  -0.0056
  C  C3690  1  0.043330  0.390570  0.169060  1.0  -0.169
  C  C3691  1  0.030650  0.388260  0.151690  1.0  0.2022
  C  C3692  1  0.058470  0.407910  0.170380  1.0  0.395
  C  C3693  1  0.082700  0.426190  0.188230  1.0  0.2645
  C  C3694  1  0.074220  0.435530  0.155700  1.0  0.4019
  C  C3695  1  0.095650  0.462420  0.137250  1.0  0.192
  C  C3696  1  0.078360  0.448780  0.137290  1.0  -0.1746
  C  C3697  1  0.066010  0.447900  0.119280  1.0  -0.0385
  C  C3698  1  0.071410  0.460630  0.102560  1.0  -0.1286
  C  C3699  1  0.088420  0.473770  0.104150  1.0  0.1609
  C  C3700  1  0.130090  0.501260  0.074960  1.0  0.2901
  C  C3701  1  0.167070  0.517600  0.111360  1.0  0.1535
  C  C3702  1  0.184730  0.529250  0.112140  1.0  -0.1679
  C  C3703  1  0.186450  0.545190  0.127020  1.0  -0.0525
  C  C3704  1  0.169890  0.548220  0.140670  1.0  -0.1857
  C  C3705  1  0.152590  0.534960  0.139230  1.0  0.1789
  C  C3706  1  0.170610  0.564330  0.156960  1.0  0.4132
  C  C3707  1  0.100840  0.911050  0.718780  1.0  0.1977
  C  C3708  1  0.096330  0.928450  0.706840  1.0  -0.1354
  C  C3709  1  0.106000  0.947330  0.711940  1.0  -0.0646
  C  C3710  1  0.119440  0.947600  0.728840  1.0  -0.1549
  C  C3711  1  0.123100  0.929240  0.739850  1.0  0.1796
  C  C3712  1  0.968790  0.843020  0.648280  1.0  0.2767
  C  C3713  1  0.015340  0.858630  0.664820  1.0  0.1539
  C  C3714  1  0.027950  0.859440  0.682640  1.0  -0.1373
  C  C3715  1  0.041770  0.875510  0.685010  1.0  -0.0056
  C  C3716  1  0.043330  0.890570  0.669060  1.0  -0.169
  C  C3717  1  0.030650  0.888260  0.651690  1.0  0.2022
  C  C3718  1  0.058470  0.907910  0.670380  1.0  0.395
  C  C3719  1  0.082700  0.926190  0.688230  1.0  0.2645
  C  C3720  1  0.074220  0.935530  0.655700  1.0  0.4019
  C  C3721  1  0.095650  0.962420  0.637250  1.0  0.192
  C  C3722  1  0.078360  0.948780  0.637290  1.0  -0.1746
  C  C3723  1  0.066010  0.947900  0.619280  1.0  -0.0385
  C  C3724  1  0.071410  0.960630  0.602560  1.0  -0.1286
  C  C3725  1  0.088420  0.973770  0.604150  1.0  0.1609
  C  C3726  1  0.130090  0.001260  0.574960  1.0  0.2901
  C  C3727  1  0.167070  0.017600  0.611360  1.0  0.1535
  C  C3728  1  0.184730  0.029250  0.612140  1.0  -0.1679
  C  C3729  1  0.186450  0.045190  0.627020  1.0  -0.0525
  C  C3730  1  0.169890  0.048220  0.640670  1.0  -0.1857
  C  C3731  1  0.152590  0.034960  0.639230  1.0  0.1789
  C  C3732  1  0.170610  0.064330  0.656960  1.0  0.4132
  C  C3733  1  0.600840  0.411050  0.718780  1.0  0.1977
  C  C3734  1  0.596330  0.428450  0.706840  1.0  -0.1354
  C  C3735  1  0.606000  0.447330  0.711940  1.0  -0.0646
  C  C3736  1  0.619440  0.447600  0.728840  1.0  -0.1549
  C  C3737  1  0.623100  0.429240  0.739850  1.0  0.1796
  C  C3738  1  0.468790  0.343020  0.648280  1.0  0.2767
  C  C3739  1  0.515340  0.358630  0.664820  1.0  0.1539
  C  C3740  1  0.527950  0.359440  0.682640  1.0  -0.1373
  C  C3741  1  0.541770  0.375510  0.685010  1.0  -0.0056
  C  C3742  1  0.543330  0.390570  0.669060  1.0  -0.169
  C  C3743  1  0.530650  0.388260  0.651690  1.0  0.2022
  C  C3744  1  0.558470  0.407910  0.670380  1.0  0.395
  C  C3745  1  0.582700  0.426190  0.688230  1.0  0.2625
  C  C3746  1  0.574220  0.435530  0.655700  1.0  0.4019
  C  C3747  1  0.595650  0.462420  0.637250  1.0  0.192
  C  C3748  1  0.578360  0.448780  0.637290  1.0  -0.1746
  C  C3749  1  0.566010  0.447900  0.619280  1.0  -0.0385
  C  C3750  1  0.571410  0.460630  0.602560  1.0  -0.1286
  C  C3751  1  0.588420  0.473770  0.604150  1.0  0.1609
  C  C3752  1  0.630090  0.501260  0.574960  1.0  0.2901
  C  C3753  1  0.667070  0.517600  0.611360  1.0  0.1535
  C  C3754  1  0.684730  0.529250  0.612140  1.0  -0.1679
  C  C3755  1  0.686450  0.545190  0.627020  1.0  -0.0525
  C  C3756  1  0.669890  0.548220  0.640670  1.0  -0.1857
  C  C3757  1  0.652590  0.534960  0.639230  1.0  0.1789
  C  C3758  1  0.670610  0.564330  0.656960  1.0  0.4132
  C  C3759  1  0.600840  0.911050  0.218780  1.0  0.1977
  C  C3760  1  0.596330  0.928450  0.206840  1.0  -0.1354
  C  C3761  1  0.606000  0.947330  0.211940  1.0  -0.0646
  C  C3762  1  0.619440  0.947600  0.228840  1.0  -0.1549
  C  C3763  1  0.623100  0.929240  0.239850  1.0  0.1796
  C  C3764  1  0.468790  0.843020  0.148280  1.0  0.2767
  C  C3765  1  0.515340  0.858630  0.164820  1.0  0.1539
  C  C3766  1  0.527950  0.859440  0.182640  1.0  -0.1373
  C  C3767  1  0.541770  0.875510  0.185010  1.0  -0.0056
  C  C3768  1  0.543330  0.890570  0.169060  1.0  -0.169
  C  C3769  1  0.530650  0.888260  0.151690  1.0  0.2022
  C  C3770  1  0.558470  0.907910  0.170380  1.0  0.395
  C  C3771  1  0.582700  0.926190  0.188230  1.0  0.2625
  C  C3772  1  0.574220  0.935530  0.155700  1.0  0.4019
  C  C3773  1  0.595650  0.962420  0.137250  1.0  0.192
  C  C3774  1  0.578360  0.948780  0.137290  1.0  -0.1746
  C  C3775  1  0.566010  0.947900  0.119280  1.0  -0.0385
  C  C3776  1  0.571410  0.960630  0.102560  1.0  -0.1286
  C  C3777  1  0.588420  0.973770  0.104150  1.0  0.1609
  C  C3778  1  0.630090  0.001260  0.074960  1.0  0.2901
  C  C3779  1  0.667070  0.017600  0.111360  1.0  0.1535
  C  C3780  1  0.684730  0.029250  0.112140  1.0  -0.1679
  C  C3781  1  0.686450  0.045190  0.127020  1.0  -0.0525
  C  C3782  1  0.669890  0.048220  0.140670  1.0  -0.1857
  C  C3783  1  0.652590  0.034960  0.139230  1.0  0.1789
  C  C3784  1  0.670610  0.064330  0.156960  1.0  0.4132
  C  C3785  1  0.600840  0.838950  0.531220  1.0  0.1981
  C  C3786  1  0.596330  0.821550  0.543160  1.0  -0.1367
  C  C3787  1  0.606000  0.802670  0.538060  1.0  -0.0639
  C  C3788  1  0.619440  0.802400  0.521160  1.0  -0.1557
  C  C3789  1  0.623100  0.820760  0.510150  1.0  0.1802
  C  C3790  1  0.468790  0.906980  0.601720  1.0  0.2788
  C  C3791  1  0.515340  0.891370  0.585180  1.0  0.1549
  C  C3792  1  0.527950  0.890560  0.567360  1.0  -0.1373
  C  C3793  1  0.541770  0.874490  0.564990  1.0  -0.0066
  C  C3794  1  0.543330  0.859430  0.580940  1.0  -0.1691
  C  C3795  1  0.530650  0.861740  0.598310  1.0  0.203
  C  C3796  1  0.558470  0.842090  0.579620  1.0  0.3952
  C  C3797  1  0.582700  0.823810  0.561770  1.0  0.2627
  C  C3798  1  0.574220  0.814470  0.594300  1.0  0.4014
  C  C3799  1  0.595650  0.787580  0.612750  1.0  0.1924
  C  C3800  1  0.578360  0.801220  0.612710  1.0  -0.1741
  C  C3801  1  0.566010  0.802100  0.630720  1.0  -0.0388
  C  C3802  1  0.571410  0.789370  0.647440  1.0  -0.1302
  C  C3803  1  0.588420  0.776230  0.645850  1.0  0.1592
  C  C3804  1  0.630090  0.748740  0.675040  1.0  0.2902
  C  C3805  1  0.667070  0.732400  0.638640  1.0  0.1531
  C  C3806  1  0.684730  0.720750  0.637860  1.0  -0.1686
  C  C3807  1  0.686450  0.704810  0.622980  1.0  -0.0531
  C  C3808  1  0.669890  0.701780  0.609330  1.0  -0.1855
  C  C3809  1  0.652590  0.715040  0.610770  1.0  0.1797
  C  C3810  1  0.670610  0.685670  0.593040  1.0  0.4134
  C  C3811  1  0.600840  0.338950  0.031220  1.0  0.1981
  C  C3812  1  0.596330  0.321550  0.043160  1.0  -0.1367
  C  C3813  1  0.606000  0.302670  0.038060  1.0  -0.0639
  C  C3814  1  0.619440  0.302400  0.021160  1.0  -0.1557
  C  C3815  1  0.623100  0.320760  0.010150  1.0  0.1802
  C  C3816  1  0.468790  0.406980  0.101720  1.0  0.2788
  C  C3817  1  0.515340  0.391370  0.085180  1.0  0.1549
  C  C3818  1  0.527950  0.390560  0.067360  1.0  -0.1373
  C  C3819  1  0.541770  0.374490  0.064990  1.0  -0.0066
  C  C3820  1  0.543330  0.359430  0.080940  1.0  -0.1691
  C  C3821  1  0.530650  0.361740  0.098310  1.0  0.203
  C  C3822  1  0.558470  0.342090  0.079620  1.0  0.3952
  C  C3823  1  0.582700  0.323810  0.061770  1.0  0.2627
  C  C3824  1  0.574220  0.314470  0.094300  1.0  0.4014
  C  C3825  1  0.595650  0.287580  0.112750  1.0  0.1924
  C  C3826  1  0.578360  0.301220  0.112710  1.0  -0.1741
  C  C3827  1  0.566010  0.302100  0.130720  1.0  -0.0388
  C  C3828  1  0.571410  0.289370  0.147440  1.0  -0.1302
  C  C3829  1  0.588420  0.276230  0.145850  1.0  0.1592
  C  C3830  1  0.630090  0.248740  0.175040  1.0  0.2902
  C  C3831  1  0.667070  0.232400  0.138640  1.0  0.1531
  C  C3832  1  0.684730  0.220750  0.137860  1.0  -0.1686
  C  C3833  1  0.686450  0.204810  0.122980  1.0  -0.0531
  C  C3834  1  0.669890  0.201780  0.109330  1.0  -0.1855
  C  C3835  1  0.652590  0.215040  0.110770  1.0  0.1797
  C  C3836  1  0.670610  0.185670  0.093040  1.0  0.4134
  C  C3837  1  0.100840  0.838950  0.031220  1.0  0.1981
  C  C3838  1  0.096330  0.821550  0.043160  1.0  -0.1367
  C  C3839  1  0.106000  0.802670  0.038060  1.0  -0.0639
  C  C3840  1  0.119440  0.802400  0.021160  1.0  -0.1557
  C  C3841  1  0.123100  0.820760  0.010150  1.0  0.1802
  C  C3842  1  0.968790  0.906980  0.101720  1.0  0.2788
  C  C3843  1  0.015340  0.891370  0.085180  1.0  0.1549
  C  C3844  1  0.027950  0.890560  0.067360  1.0  -0.1373
  C  C3845  1  0.041770  0.874490  0.064990  1.0  -0.0066
  C  C3846  1  0.043330  0.859430  0.080940  1.0  -0.1691
  C  C3847  1  0.030650  0.861740  0.098310  1.0  0.203
  C  C3848  1  0.058470  0.842090  0.079620  1.0  0.3952
  C  C3849  1  0.082700  0.823810  0.061770  1.0  0.2646
  C  C3850  1  0.074220  0.814470  0.094300  1.0  0.4014
  C  C3851  1  0.095650  0.787580  0.112750  1.0  0.1924
  C  C3852  1  0.078360  0.801220  0.112710  1.0  -0.1741
  C  C3853  1  0.066010  0.802100  0.130720  1.0  -0.0388
  C  C3854  1  0.071410  0.789370  0.147440  1.0  -0.1302
  C  C3855  1  0.088420  0.776230  0.145850  1.0  0.1592
  C  C3856  1  0.130090  0.748740  0.175040  1.0  0.2902
  C  C3857  1  0.167070  0.732400  0.138640  1.0  0.1531
  C  C3858  1  0.184730  0.720750  0.137860  1.0  -0.1686
  C  C3859  1  0.186450  0.704810  0.122980  1.0  -0.0531
  C  C3860  1  0.169890  0.701780  0.109330  1.0  -0.1855
  C  C3861  1  0.152590  0.715040  0.110770  1.0  0.1797
  C  C3862  1  0.170610  0.685670  0.093040  1.0  0.4134
  C  C3863  1  0.100840  0.338950  0.531220  1.0  0.1981
  C  C3864  1  0.096330  0.321550  0.543160  1.0  -0.1367
  C  C3865  1  0.106000  0.302670  0.538060  1.0  -0.0639
  C  C3866  1  0.119440  0.302400  0.521160  1.0  -0.1557
  C  C3867  1  0.123100  0.320760  0.510150  1.0  0.1802
  C  C3868  1  0.968790  0.406980  0.601720  1.0  0.2788
  C  C3869  1  0.015340  0.391370  0.585180  1.0  0.1549
  C  C3870  1  0.027950  0.390560  0.567360  1.0  -0.1373
  C  C3871  1  0.041770  0.374490  0.564990  1.0  -0.0066
  C  C3872  1  0.043330  0.359430  0.580940  1.0  -0.1691
  C  C3873  1  0.030650  0.361740  0.598310  1.0  0.203
  C  C3874  1  0.058470  0.342090  0.579620  1.0  0.3952
  C  C3875  1  0.082700  0.323810  0.561770  1.0  0.2646
  C  C3876  1  0.074220  0.314470  0.594300  1.0  0.4014
  C  C3877  1  0.095650  0.287580  0.612750  1.0  0.1924
  C  C3878  1  0.078360  0.301220  0.612710  1.0  -0.1741
  C  C3879  1  0.066010  0.302100  0.630720  1.0  -0.0388
  C  C3880  1  0.071410  0.289370  0.647440  1.0  -0.1302
  C  C3881  1  0.088420  0.276230  0.645850  1.0  0.1592
  C  C3882  1  0.130090  0.248740  0.675040  1.0  0.2902
  C  C3883  1  0.167070  0.232400  0.638640  1.0  0.1531
  C  C3884  1  0.184730  0.220750  0.637860  1.0  -0.1686
  C  C3885  1  0.186450  0.204810  0.622980  1.0  -0.0531
  C  C3886  1  0.169890  0.201780  0.609330  1.0  -0.1855
  C  C3887  1  0.152590  0.215040  0.610770  1.0  0.1797
  C  C3888  1  0.170610  0.185670  0.593040  1.0  0.4134
  C  C3889  1  0.149160  0.338950  0.718780  1.0  0.198
  C  C3890  1  0.153670  0.321550  0.706840  1.0  -0.1369
  C  C3891  1  0.144000  0.302670  0.711940  1.0  -0.0632
  C  C3892  1  0.130560  0.302400  0.728840  1.0  -0.1563
  C  C3893  1  0.126900  0.320760  0.739850  1.0  0.1812
  C  C3894  1  0.281210  0.406980  0.648280  1.0  0.2761
  C  C3895  1  0.234660  0.391370  0.664820  1.0  0.1532
  C  C3896  1  0.222050  0.390560  0.682640  1.0  -0.1363
  C  C3897  1  0.208230  0.374490  0.685010  1.0  -0.0055
  C  C3898  1  0.206670  0.359430  0.669060  1.0  -0.1683
  C  C3899  1  0.219350  0.361740  0.651690  1.0  0.2028
  C  C3900  1  0.191530  0.342090  0.670380  1.0  0.3949
  C  C3901  1  0.167300  0.323810  0.688230  1.0  0.263
  C  C3902  1  0.175780  0.314470  0.655700  1.0  0.4025
  C  C3903  1  0.154350  0.287580  0.637250  1.0  0.1916
  C  C3904  1  0.171640  0.301220  0.637290  1.0  -0.1757
  C  C3905  1  0.183990  0.302100  0.619280  1.0  -0.0382
  C  C3906  1  0.178590  0.289370  0.602560  1.0  -0.1281
  C  C3907  1  0.161580  0.276230  0.604150  1.0  0.1597
  C  C3908  1  0.119910  0.248740  0.574960  1.0  0.2899
  C  C3909  1  0.082930  0.232400  0.611360  1.0  0.1522
  C  C3910  1  0.065270  0.220750  0.612140  1.0  -0.168
  C  C3911  1  0.063550  0.204810  0.627020  1.0  -0.0549
  C  C3912  1  0.080110  0.201780  0.640670  1.0  -0.1861
  C  C3913  1  0.097410  0.215040  0.639230  1.0  0.1785
  C  C3914  1  0.079390  0.185670  0.656960  1.0  0.413
  C  C3915  1  0.149160  0.838950  0.218780  1.0  0.198
  C  C3916  1  0.153670  0.821550  0.206840  1.0  -0.1369
  C  C3917  1  0.144000  0.802670  0.211940  1.0  -0.0632
  C  C3918  1  0.130560  0.802400  0.228840  1.0  -0.1563
  C  C3919  1  0.126900  0.820760  0.239850  1.0  0.1812
  C  C3920  1  0.281210  0.906980  0.148280  1.0  0.2761
  C  C3921  1  0.234660  0.891370  0.164820  1.0  0.1532
  C  C3922  1  0.222050  0.890560  0.182640  1.0  -0.1363
  C  C3923  1  0.208230  0.874490  0.185010  1.0  -0.0055
  C  C3924  1  0.206670  0.859430  0.169060  1.0  -0.1683
  C  C3925  1  0.219350  0.861740  0.151690  1.0  0.2028
  C  C3926  1  0.191530  0.842090  0.170380  1.0  0.3949
  C  C3927  1  0.167300  0.823810  0.188230  1.0  0.263
  C  C3928  1  0.175780  0.814470  0.155700  1.0  0.4025
  C  C3929  1  0.154350  0.787580  0.137250  1.0  0.1916
  C  C3930  1  0.171640  0.801220  0.137290  1.0  -0.1757
  C  C3931  1  0.183990  0.802100  0.119280  1.0  -0.0382
  C  C3932  1  0.178590  0.789370  0.102560  1.0  -0.1281
  C  C3933  1  0.161580  0.776230  0.104150  1.0  0.1597
  C  C3934  1  0.119910  0.748740  0.074960  1.0  0.2899
  C  C3935  1  0.082930  0.732400  0.111360  1.0  0.1522
  C  C3936  1  0.065270  0.720750  0.112140  1.0  -0.168
  C  C3937  1  0.063550  0.704810  0.127020  1.0  -0.0549
  C  C3938  1  0.080110  0.701780  0.140670  1.0  -0.1861
  C  C3939  1  0.097410  0.715040  0.139230  1.0  0.1785
  C  C3940  1  0.079390  0.685670  0.156960  1.0  0.413
  C  C3941  1  0.649160  0.338950  0.218780  1.0  0.198
  C  C3942  1  0.653670  0.321550  0.206840  1.0  -0.1369
  C  C3943  1  0.644000  0.302670  0.211940  1.0  -0.0632
  C  C3944  1  0.630560  0.302400  0.228840  1.0  -0.1563
  C  C3945  1  0.626900  0.320760  0.239850  1.0  0.1812
  C  C3946  1  0.781210  0.406980  0.148280  1.0  0.2761
  C  C3947  1  0.734660  0.391370  0.164820  1.0  0.1532
  C  C3948  1  0.722050  0.390560  0.182640  1.0  -0.1363
  C  C3949  1  0.708230  0.374490  0.185010  1.0  -0.0055
  C  C3950  1  0.706670  0.359430  0.169060  1.0  -0.1683
  C  C3951  1  0.719350  0.361740  0.151690  1.0  0.2028
  C  C3952  1  0.691530  0.342090  0.170380  1.0  0.3949
  C  C3953  1  0.667300  0.323810  0.188230  1.0  0.263
  C  C3954  1  0.675780  0.314470  0.155700  1.0  0.4025
  C  C3955  1  0.654350  0.287580  0.137250  1.0  0.1916
  C  C3956  1  0.671640  0.301220  0.137290  1.0  -0.1757
  C  C3957  1  0.683990  0.302100  0.119280  1.0  -0.0382
  C  C3958  1  0.678590  0.289370  0.102560  1.0  -0.1281
  C  C3959  1  0.661580  0.276230  0.104150  1.0  0.1597
  C  C3960  1  0.619910  0.248740  0.074960  1.0  0.2899
  C  C3961  1  0.582930  0.232400  0.111360  1.0  0.1522
  C  C3962  1  0.565270  0.220750  0.112140  1.0  -0.168
  C  C3963  1  0.563550  0.204810  0.127020  1.0  -0.0549
  C  C3964  1  0.580110  0.201780  0.140670  1.0  -0.1861
  C  C3965  1  0.597410  0.215040  0.139230  1.0  0.1785
  C  C3966  1  0.579390  0.185670  0.156960  1.0  0.413
  C  C3967  1  0.649160  0.838950  0.718780  1.0  0.198
  C  C3968  1  0.653670  0.821550  0.706840  1.0  -0.1369
  C  C3969  1  0.644000  0.802670  0.711940  1.0  -0.0632
  C  C3970  1  0.630560  0.802400  0.728840  1.0  -0.1563
  C  C3971  1  0.626900  0.820760  0.739850  1.0  0.1812
  C  C3972  1  0.781210  0.906980  0.648280  1.0  0.2761
  C  C3973  1  0.734660  0.891370  0.664820  1.0  0.1532
  C  C3974  1  0.722050  0.890560  0.682640  1.0  -0.1363
  C  C3975  1  0.708230  0.874490  0.685010  1.0  -0.0055
  C  C3976  1  0.706670  0.859430  0.669060  1.0  -0.1683
  C  C3977  1  0.719350  0.861740  0.651690  1.0  0.2028
  C  C3978  1  0.691530  0.842090  0.670380  1.0  0.3949
  C  C3979  1  0.667300  0.823810  0.688230  1.0  0.263
  C  C3980  1  0.675780  0.814470  0.655700  1.0  0.4025
  C  C3981  1  0.654350  0.787580  0.637250  1.0  0.1916
  C  C3982  1  0.671640  0.801220  0.637290  1.0  -0.1757
  C  C3983  1  0.683990  0.802100  0.619280  1.0  -0.0382
  C  C3984  1  0.678590  0.789370  0.602560  1.0  -0.1281
  C  C3985  1  0.661580  0.776230  0.604150  1.0  0.1597
  C  C3986  1  0.619910  0.748740  0.574960  1.0  0.2899
  C  C3987  1  0.582930  0.732400  0.611360  1.0  0.1522
  C  C3988  1  0.565270  0.720750  0.612140  1.0  -0.168
  C  C3989  1  0.563550  0.704810  0.627020  1.0  -0.0549
  C  C3990  1  0.580110  0.701780  0.640670  1.0  -0.1861
  C  C3991  1  0.597410  0.715040  0.639230  1.0  0.1785
  C  C3992  1  0.579390  0.685670  0.656960  1.0  0.413
  C  C3993  1  0.649160  0.911050  0.031220  1.0  0.1979
  C  C3994  1  0.653670  0.928450  0.043160  1.0  -0.1367
  C  C3995  1  0.644000  0.947330  0.038060  1.0  -0.0654
  C  C3996  1  0.630560  0.947600  0.021160  1.0  -0.1557
  C  C3997  1  0.626900  0.929240  0.010150  1.0  0.1805
  C  C3998  1  0.781210  0.843020  0.101720  1.0  0.2765
  C  C3999  1  0.734660  0.858630  0.085180  1.0  0.1551
  C  C4000  1  0.722050  0.859440  0.067360  1.0  -0.1365
  C  C4001  1  0.708230  0.875510  0.064990  1.0  -0.0062
  C  C4002  1  0.706670  0.890570  0.080940  1.0  -0.1684
  C  C4003  1  0.719350  0.888260  0.098310  1.0  0.2027
  C  C4004  1  0.691530  0.907910  0.079620  1.0  0.3948
  C  C4005  1  0.667300  0.926190  0.061770  1.0  0.2632
  C  C4006  1  0.675780  0.935530  0.094300  1.0  0.4021
  C  C4007  1  0.654350  0.962420  0.112750  1.0  0.1924
  C  C4008  1  0.671640  0.948780  0.112710  1.0  -0.175
  C  C4009  1  0.683990  0.947900  0.130720  1.0  -0.0381
  C  C4010  1  0.678590  0.960630  0.147440  1.0  -0.128
  C  C4011  1  0.661580  0.973770  0.145850  1.0  0.159
  C  C4012  1  0.619910  0.001260  0.175040  1.0  0.2903
  C  C4013  1  0.582930  0.017600  0.138640  1.0  0.1514
  C  C4014  1  0.565270  0.029250  0.137860  1.0  -0.1688
  C  C4015  1  0.563550  0.045190  0.122980  1.0  -0.0552
  C  C4016  1  0.580110  0.048220  0.109330  1.0  -0.1852
  C  C4017  1  0.597410  0.034960  0.110770  1.0  0.1777
  C  C4018  1  0.579390  0.064330  0.093040  1.0  0.4132
  C  C4019  1  0.649160  0.411050  0.531220  1.0  0.1979
  C  C4020  1  0.653670  0.428450  0.543160  1.0  -0.1367
  C  C4021  1  0.644000  0.447330  0.538060  1.0  -0.0654
  C  C4022  1  0.630560  0.447600  0.521160  1.0  -0.1557
  C  C4023  1  0.626900  0.429240  0.510150  1.0  0.1805
  C  C4024  1  0.781210  0.343020  0.601720  1.0  0.2765
  C  C4025  1  0.734660  0.358630  0.585180  1.0  0.1551
  C  C4026  1  0.722050  0.359440  0.567360  1.0  -0.1365
  C  C4027  1  0.708230  0.375510  0.564990  1.0  -0.0062
  C  C4028  1  0.706670  0.390570  0.580940  1.0  -0.1684
  C  C4029  1  0.719350  0.388260  0.598310  1.0  0.2027
  C  C4030  1  0.691530  0.407910  0.579620  1.0  0.3948
  C  C4031  1  0.667300  0.426190  0.561770  1.0  0.2632
  C  C4032  1  0.675780  0.435530  0.594300  1.0  0.4021
  C  C4033  1  0.654350  0.462420  0.612750  1.0  0.1924
  C  C4034  1  0.671640  0.448780  0.612710  1.0  -0.175
  C  C4035  1  0.683990  0.447900  0.630720  1.0  -0.0381
  C  C4036  1  0.678590  0.460630  0.647440  1.0  -0.128
  C  C4037  1  0.661580  0.473770  0.645850  1.0  0.159
  C  C4038  1  0.619910  0.501260  0.675040  1.0  0.2903
  C  C4039  1  0.582930  0.517600  0.638640  1.0  0.1514
  C  C4040  1  0.565270  0.529250  0.637860  1.0  -0.1688
  C  C4041  1  0.563550  0.545190  0.622980  1.0  -0.0552
  C  C4042  1  0.580110  0.548220  0.609330  1.0  -0.1852
  C  C4043  1  0.597410  0.534960  0.610770  1.0  0.1777
  C  C4044  1  0.579390  0.564330  0.593040  1.0  0.4132
  C  C4045  1  0.149160  0.911050  0.531220  1.0  0.1979
  C  C4046  1  0.153670  0.928450  0.543160  1.0  -0.1367
  C  C4047  1  0.144000  0.947330  0.538060  1.0  -0.0654
  C  C4048  1  0.130560  0.947600  0.521160  1.0  -0.1557
  C  C4049  1  0.126900  0.929240  0.510150  1.0  0.1805
  C  C4050  1  0.281210  0.843020  0.601720  1.0  0.2765
  C  C4051  1  0.234660  0.858630  0.585180  1.0  0.1551
  C  C4052  1  0.222050  0.859440  0.567360  1.0  -0.1365
  C  C4053  1  0.208230  0.875510  0.564990  1.0  -0.0062
  C  C4054  1  0.206670  0.890570  0.580940  1.0  -0.1684
  C  C4055  1  0.219350  0.888260  0.598310  1.0  0.2027
  C  C4056  1  0.191530  0.907910  0.579620  1.0  0.3948
  C  C4057  1  0.167300  0.926190  0.561770  1.0  0.2632
  C  C4058  1  0.175780  0.935530  0.594300  1.0  0.4021
  C  C4059  1  0.154350  0.962420  0.612750  1.0  0.1924
  C  C4060  1  0.171640  0.948780  0.612710  1.0  -0.175
  C  C4061  1  0.183990  0.947900  0.630720  1.0  -0.0381
  C  C4062  1  0.178590  0.960630  0.647440  1.0  -0.128
  C  C4063  1  0.161580  0.973770  0.645850  1.0  0.159
  C  C4064  1  0.119910  0.001260  0.675040  1.0  0.2903
  C  C4065  1  0.082930  0.017600  0.638640  1.0  0.1514
  C  C4066  1  0.065270  0.029250  0.637860  1.0  -0.1688
  C  C4067  1  0.063550  0.045190  0.622980  1.0  -0.0552
  C  C4068  1  0.080110  0.048220  0.609330  1.0  -0.1852
  C  C4069  1  0.097410  0.034960  0.610770  1.0  0.1777
  C  C4070  1  0.079390  0.064330  0.593040  1.0  0.4132
  C  C4071  1  0.149160  0.411050  0.031220  1.0  0.1979
  C  C4072  1  0.153670  0.428450  0.043160  1.0  -0.1367
  C  C4073  1  0.144000  0.447330  0.038060  1.0  -0.0654
  C  C4074  1  0.130560  0.447600  0.021160  1.0  -0.1557
  C  C4075  1  0.126900  0.429240  0.010150  1.0  0.1805
  C  C4076  1  0.281210  0.343020  0.101720  1.0  0.2765
  C  C4077  1  0.234660  0.358630  0.085180  1.0  0.1551
  C  C4078  1  0.222050  0.359440  0.067360  1.0  -0.1365
  C  C4079  1  0.208230  0.375510  0.064990  1.0  -0.0062
  C  C4080  1  0.206670  0.390570  0.080940  1.0  -0.1684
  C  C4081  1  0.219350  0.388260  0.098310  1.0  0.2027
  C  C4082  1  0.191530  0.407910  0.079620  1.0  0.3948
  C  C4083  1  0.167300  0.426190  0.061770  1.0  0.2632
  C  C4084  1  0.175780  0.435530  0.094300  1.0  0.4021
  C  C4085  1  0.154350  0.462420  0.112750  1.0  0.1924
  C  C4086  1  0.171640  0.448780  0.112710  1.0  -0.175
  C  C4087  1  0.183990  0.447900  0.130720  1.0  -0.0381
  C  C4088  1  0.178590  0.460630  0.147440  1.0  -0.128
  C  C4089  1  0.161580  0.473770  0.145850  1.0  0.159
  C  C4090  1  0.119910  0.501260  0.175040  1.0  0.2903
  C  C4091  1  0.082930  0.517600  0.138640  1.0  0.1514
  C  C4092  1  0.065270  0.529250  0.137860  1.0  -0.1688
  C  C4093  1  0.063550  0.545190  0.122980  1.0  -0.0552
  C  C4094  1  0.080110  0.548220  0.109330  1.0  -0.1852
  C  C4095  1  0.097410  0.534960  0.110770  1.0  0.1777
  C  C4096  1  0.079390  0.564330  0.093040  1.0  0.4132
  C  C4097  1  0.218780  0.100840  0.411050  1.0  0.1982
  C  C4098  1  0.206840  0.096330  0.428450  1.0  -0.1329
  C  C4099  1  0.211940  0.106000  0.447330  1.0  -0.0679
  C  C4100  1  0.228840  0.119440  0.447600  1.0  -0.1553
  C  C4101  1  0.239850  0.123100  0.429240  1.0  0.1807
  C  C4102  1  0.148280  0.968790  0.343020  1.0  0.275
  C  C4103  1  0.164820  0.015340  0.358630  1.0  0.16
  C  C4104  1  0.182640  0.027950  0.359440  1.0  -0.1333
  C  C4105  1  0.185010  0.041770  0.375510  1.0  -0.0047
  C  C4106  1  0.169060  0.043330  0.390570  1.0  -0.1723
  C  C4107  1  0.151690  0.030650  0.388260  1.0  0.2015
  C  C4108  1  0.170380  0.058470  0.407910  1.0  0.3947
  C  C4109  1  0.188230  0.082700  0.426190  1.0  0.2652
  C  C4110  1  0.155700  0.074220  0.435530  1.0  0.4021
  C  C4111  1  0.137250  0.095650  0.462420  1.0  0.1936
  C  C4112  1  0.137290  0.078360  0.448780  1.0  -0.1711
  C  C4113  1  0.119280  0.066010  0.447900  1.0  -0.0401
  C  C4114  1  0.102560  0.071410  0.460630  1.0  -0.1316
  C  C4115  1  0.104150  0.088420  0.473770  1.0  0.1637
  C  C4116  1  0.074960  0.130090  0.501260  1.0  0.2945
  C  C4117  1  0.111360  0.167070  0.517600  1.0  0.1519
  C  C4118  1  0.112140  0.184730  0.529250  1.0  -0.1666
  C  C4119  1  0.127020  0.186450  0.545190  1.0  -0.0516
  C  C4120  1  0.140670  0.169890  0.548220  1.0  -0.1828
  C  C4121  1  0.139230  0.152590  0.534960  1.0  0.1796
  C  C4122  1  0.156960  0.170610  0.564330  1.0  0.4128
  C  C4123  1  0.218780  0.600840  0.911050  1.0  0.1982
  C  C4124  1  0.206840  0.596330  0.928450  1.0  -0.1329
  C  C4125  1  0.211940  0.606000  0.947330  1.0  -0.0679
  C  C4126  1  0.228840  0.619440  0.947600  1.0  -0.1553
  C  C4127  1  0.239850  0.623100  0.929240  1.0  0.1807
  C  C4128  1  0.148280  0.468790  0.843020  1.0  0.275
  C  C4129  1  0.164820  0.515340  0.858630  1.0  0.16
  C  C4130  1  0.182640  0.527950  0.859440  1.0  -0.1333
  C  C4131  1  0.185010  0.541770  0.875510  1.0  -0.0047
  C  C4132  1  0.169060  0.543330  0.890570  1.0  -0.1723
  C  C4133  1  0.151690  0.530650  0.888260  1.0  0.2015
  C  C4134  1  0.170380  0.558470  0.907910  1.0  0.3947
  C  C4135  1  0.188230  0.582700  0.926190  1.0  0.2631
  C  C4136  1  0.155700  0.574220  0.935530  1.0  0.4021
  C  C4137  1  0.137250  0.595650  0.962420  1.0  0.1936
  C  C4138  1  0.137290  0.578360  0.948780  1.0  -0.1711
  C  C4139  1  0.119280  0.566010  0.947900  1.0  -0.0401
  C  C4140  1  0.102560  0.571410  0.960630  1.0  -0.1316
  C  C4141  1  0.104150  0.588420  0.973770  1.0  0.1637
  C  C4142  1  0.074960  0.630090  0.001260  1.0  0.2945
  C  C4143  1  0.111360  0.667070  0.017600  1.0  0.1519
  C  C4144  1  0.112140  0.684730  0.029250  1.0  -0.1666
  C  C4145  1  0.127020  0.686450  0.045190  1.0  -0.0516
  C  C4146  1  0.140670  0.669890  0.048220  1.0  -0.1828
  C  C4147  1  0.139230  0.652590  0.034960  1.0  0.1796
  C  C4148  1  0.156960  0.670610  0.064330  1.0  0.4128
  C  C4149  1  0.718780  0.100840  0.911050  1.0  0.1982
  C  C4150  1  0.706840  0.096330  0.928450  1.0  -0.1329
  C  C4151  1  0.711940  0.106000  0.947330  1.0  -0.0679
  C  C4152  1  0.728840  0.119440  0.947600  1.0  -0.1553
  C  C4153  1  0.739850  0.123100  0.929240  1.0  0.1807
  C  C4154  1  0.648280  0.968790  0.843020  1.0  0.275
  C  C4155  1  0.664820  0.015340  0.858630  1.0  0.16
  C  C4156  1  0.682640  0.027950  0.859440  1.0  -0.1333
  C  C4157  1  0.685010  0.041770  0.875510  1.0  -0.0047
  C  C4158  1  0.669060  0.043330  0.890570  1.0  -0.1723
  C  C4159  1  0.651690  0.030650  0.888260  1.0  0.2015
  C  C4160  1  0.670380  0.058470  0.907910  1.0  0.3947
  C  C4161  1  0.688230  0.082700  0.926190  1.0  0.2652
  C  C4162  1  0.655700  0.074220  0.935530  1.0  0.4021
  C  C4163  1  0.637250  0.095650  0.962420  1.0  0.1936
  C  C4164  1  0.637290  0.078360  0.948780  1.0  -0.1711
  C  C4165  1  0.619280  0.066010  0.947900  1.0  -0.0401
  C  C4166  1  0.602560  0.071410  0.960630  1.0  -0.1316
  C  C4167  1  0.604150  0.088420  0.973770  1.0  0.1637
  C  C4168  1  0.574960  0.130090  0.001260  1.0  0.2945
  C  C4169  1  0.611360  0.167070  0.017600  1.0  0.1519
  C  C4170  1  0.612140  0.184730  0.029250  1.0  -0.1666
  C  C4171  1  0.627020  0.186450  0.045190  1.0  -0.0516
  C  C4172  1  0.640670  0.169890  0.048220  1.0  -0.1828
  C  C4173  1  0.639230  0.152590  0.034960  1.0  0.1796
  C  C4174  1  0.656960  0.170610  0.064330  1.0  0.4128
  C  C4175  1  0.718780  0.600840  0.411050  1.0  0.1982
  C  C4176  1  0.706840  0.596330  0.428450  1.0  -0.1329
  C  C4177  1  0.711940  0.606000  0.447330  1.0  -0.0679
  C  C4178  1  0.728840  0.619440  0.447600  1.0  -0.1553
  C  C4179  1  0.739850  0.623100  0.429240  1.0  0.1807
  C  C4180  1  0.648280  0.468790  0.343020  1.0  0.275
  C  C4181  1  0.664820  0.515340  0.358630  1.0  0.16
  C  C4182  1  0.682640  0.527950  0.359440  1.0  -0.1333
  C  C4183  1  0.685010  0.541770  0.375510  1.0  -0.0047
  C  C4184  1  0.669060  0.543330  0.390570  1.0  -0.1723
  C  C4185  1  0.651690  0.530650  0.388260  1.0  0.2015
  C  C4186  1  0.670380  0.558470  0.407910  1.0  0.3947
  C  C4187  1  0.688230  0.582700  0.426190  1.0  0.2631
  C  C4188  1  0.655700  0.574220  0.435530  1.0  0.4021
  C  C4189  1  0.637250  0.595650  0.462420  1.0  0.1936
  C  C4190  1  0.637290  0.578360  0.448780  1.0  -0.1711
  C  C4191  1  0.619280  0.566010  0.447900  1.0  -0.0401
  C  C4192  1  0.602560  0.571410  0.460630  1.0  -0.1316
  C  C4193  1  0.604150  0.588420  0.473770  1.0  0.1637
  C  C4194  1  0.574960  0.630090  0.501260  1.0  0.2945
  C  C4195  1  0.611360  0.667070  0.517600  1.0  0.1519
  C  C4196  1  0.612140  0.684730  0.529250  1.0  -0.1666
  C  C4197  1  0.627020  0.686450  0.545190  1.0  -0.0516
  C  C4198  1  0.640670  0.669890  0.548220  1.0  -0.1828
  C  C4199  1  0.639230  0.652590  0.534960  1.0  0.1796
  C  C4200  1  0.656960  0.670610  0.564330  1.0  0.4128
  C  C4201  1  0.531220  0.600840  0.838950  1.0  0.1985
  C  C4202  1  0.543160  0.596330  0.821550  1.0  -0.135
  C  C4203  1  0.538060  0.606000  0.802670  1.0  -0.0682
  C  C4204  1  0.521160  0.619440  0.802400  1.0  -0.1555
  C  C4205  1  0.510150  0.623100  0.820760  1.0  0.18
  C  C4206  1  0.601720  0.468790  0.906980  1.0  0.2782
  C  C4207  1  0.585180  0.515340  0.891370  1.0  0.1583
  C  C4208  1  0.567360  0.527950  0.890560  1.0  -0.1374
  C  C4209  1  0.564990  0.541770  0.874490  1.0  -0.0053
  C  C4210  1  0.580940  0.543330  0.859430  1.0  -0.1717
  C  C4211  1  0.598310  0.530650  0.861740  1.0  0.2017
  C  C4212  1  0.579620  0.558470  0.842090  1.0  0.3947
  C  C4213  1  0.561770  0.582700  0.823810  1.0  0.2634
  C  C4214  1  0.594300  0.574220  0.814470  1.0  0.4023
  C  C4215  1  0.612750  0.595650  0.787580  1.0  0.1933
  C  C4216  1  0.612710  0.578360  0.801220  1.0  -0.1698
  C  C4217  1  0.630720  0.566010  0.802100  1.0  -0.0402
  C  C4218  1  0.647440  0.571410  0.789370  1.0  -0.1302
  C  C4219  1  0.645850  0.588420  0.776230  1.0  0.1649
  C  C4220  1  0.675040  0.630090  0.748740  1.0  0.296
  C  C4221  1  0.638640  0.667070  0.732400  1.0  0.1514
  C  C4222  1  0.637860  0.684730  0.720750  1.0  -0.1677
  C  C4223  1  0.622980  0.686450  0.704810  1.0  -0.0516
  C  C4224  1  0.609330  0.669890  0.701780  1.0  -0.1837
  C  C4225  1  0.610770  0.652590  0.715040  1.0  0.1801
  C  C4226  1  0.593040  0.670610  0.685670  1.0  0.413
  C  C4227  1  0.531220  0.100840  0.338950  1.0  0.1985
  C  C4228  1  0.543160  0.096330  0.321550  1.0  -0.135
  C  C4229  1  0.538060  0.106000  0.302670  1.0  -0.0682
  C  C4230  1  0.521160  0.119440  0.302400  1.0  -0.1555
  C  C4231  1  0.510150  0.123100  0.320760  1.0  0.18
  C  C4232  1  0.601720  0.968790  0.406980  1.0  0.2782
  C  C4233  1  0.585180  0.015340  0.391370  1.0  0.1583
  C  C4234  1  0.567360  0.027950  0.390560  1.0  -0.1374
  C  C4235  1  0.564990  0.041770  0.374490  1.0  -0.0053
  C  C4236  1  0.580940  0.043330  0.359430  1.0  -0.1717
  C  C4237  1  0.598310  0.030650  0.361740  1.0  0.2017
  C  C4238  1  0.579620  0.058470  0.342090  1.0  0.3947
  C  C4239  1  0.561770  0.082700  0.323810  1.0  0.2654
  C  C4240  1  0.594300  0.074220  0.314470  1.0  0.4023
  C  C4241  1  0.612750  0.095650  0.287580  1.0  0.1933
  C  C4242  1  0.612710  0.078360  0.301220  1.0  -0.1698
  C  C4243  1  0.630720  0.066010  0.302100  1.0  -0.0402
  C  C4244  1  0.647440  0.071410  0.289370  1.0  -0.1302
  C  C4245  1  0.645850  0.088420  0.276230  1.0  0.1649
  C  C4246  1  0.675040  0.130090  0.248740  1.0  0.296
  C  C4247  1  0.638640  0.167070  0.232400  1.0  0.1514
  C  C4248  1  0.637860  0.184730  0.220750  1.0  -0.1677
  C  C4249  1  0.622980  0.186450  0.204810  1.0  -0.0516
  C  C4250  1  0.609330  0.169890  0.201780  1.0  -0.1837
  C  C4251  1  0.610770  0.152590  0.215040  1.0  0.1801
  C  C4252  1  0.593040  0.170610  0.185670  1.0  0.413
  C  C4253  1  0.031220  0.600840  0.338950  1.0  0.1985
  C  C4254  1  0.043160  0.596330  0.321550  1.0  -0.135
  C  C4255  1  0.038060  0.606000  0.302670  1.0  -0.0682
  C  C4256  1  0.021160  0.619440  0.302400  1.0  -0.1555
  C  C4257  1  0.010150  0.623100  0.320760  1.0  0.18
  C  C4258  1  0.101720  0.468790  0.406980  1.0  0.2782
  C  C4259  1  0.085180  0.515340  0.391370  1.0  0.1583
  C  C4260  1  0.067360  0.527950  0.390560  1.0  -0.1374
  C  C4261  1  0.064990  0.541770  0.374490  1.0  -0.0053
  C  C4262  1  0.080940  0.543330  0.359430  1.0  -0.1717
  C  C4263  1  0.098310  0.530650  0.361740  1.0  0.2017
  C  C4264  1  0.079620  0.558470  0.342090  1.0  0.3947
  C  C4265  1  0.061770  0.582700  0.323810  1.0  0.2634
  C  C4266  1  0.094300  0.574220  0.314470  1.0  0.4023
  C  C4267  1  0.112750  0.595650  0.287580  1.0  0.1933
  C  C4268  1  0.112710  0.578360  0.301220  1.0  -0.1698
  C  C4269  1  0.130720  0.566010  0.302100  1.0  -0.0402
  C  C4270  1  0.147440  0.571410  0.289370  1.0  -0.1302
  C  C4271  1  0.145850  0.588420  0.276230  1.0  0.1649
  C  C4272  1  0.175040  0.630090  0.248740  1.0  0.296
  C  C4273  1  0.138640  0.667070  0.232400  1.0  0.1514
  C  C4274  1  0.137860  0.684730  0.220750  1.0  -0.1677
  C  C4275  1  0.122980  0.686450  0.204810  1.0  -0.0516
  C  C4276  1  0.109330  0.669890  0.201780  1.0  -0.1837
  C  C4277  1  0.110770  0.652590  0.215040  1.0  0.1801
  C  C4278  1  0.093040  0.670610  0.185670  1.0  0.413
  C  C4279  1  0.031220  0.100840  0.838950  1.0  0.1985
  C  C4280  1  0.043160  0.096330  0.821550  1.0  -0.135
  C  C4281  1  0.038060  0.106000  0.802670  1.0  -0.0682
  C  C4282  1  0.021160  0.119440  0.802400  1.0  -0.1555
  C  C4283  1  0.010150  0.123100  0.820760  1.0  0.18
  C  C4284  1  0.101720  0.968790  0.906980  1.0  0.2782
  C  C4285  1  0.085180  0.015340  0.891370  1.0  0.1583
  C  C4286  1  0.067360  0.027950  0.890560  1.0  -0.1374
  C  C4287  1  0.064990  0.041770  0.874490  1.0  -0.0053
  C  C4288  1  0.080940  0.043330  0.859430  1.0  -0.1717
  C  C4289  1  0.098310  0.030650  0.861740  1.0  0.2017
  C  C4290  1  0.079620  0.058470  0.842090  1.0  0.3947
  C  C4291  1  0.061770  0.082700  0.823810  1.0  0.2654
  C  C4292  1  0.094300  0.074220  0.814470  1.0  0.4023
  C  C4293  1  0.112750  0.095650  0.787580  1.0  0.1933
  C  C4294  1  0.112710  0.078360  0.801220  1.0  -0.1698
  C  C4295  1  0.130720  0.066010  0.802100  1.0  -0.0402
  C  C4296  1  0.147440  0.071410  0.789370  1.0  -0.1302
  C  C4297  1  0.145850  0.088420  0.776230  1.0  0.1649
  C  C4298  1  0.175040  0.130090  0.748740  1.0  0.296
  C  C4299  1  0.138640  0.167070  0.732400  1.0  0.1514
  C  C4300  1  0.137860  0.184730  0.720750  1.0  -0.1677
  C  C4301  1  0.122980  0.186450  0.704810  1.0  -0.0516
  C  C4302  1  0.109330  0.169890  0.701780  1.0  -0.1837
  C  C4303  1  0.110770  0.152590  0.715040  1.0  0.1801
  C  C4304  1  0.093040  0.170610  0.685670  1.0  0.413
  C  C4305  1  0.718780  0.149160  0.338950  1.0  0.1977
  C  C4306  1  0.706840  0.153670  0.321550  1.0  -0.133
  C  C4307  1  0.711940  0.144000  0.302670  1.0  -0.0682
  C  C4308  1  0.728840  0.130560  0.302400  1.0  -0.154
  C  C4309  1  0.739850  0.126900  0.320760  1.0  0.1804
  C  C4310  1  0.648280  0.281210  0.406980  1.0  0.2744
  C  C4311  1  0.664820  0.234660  0.391370  1.0  0.1598
  C  C4312  1  0.682640  0.222050  0.390560  1.0  -0.133
  C  C4313  1  0.685010  0.208230  0.374490  1.0  -0.0045
  C  C4314  1  0.669060  0.206670  0.359430  1.0  -0.1716
  C  C4315  1  0.651690  0.219350  0.361740  1.0  0.2021
  C  C4316  1  0.670380  0.191530  0.342090  1.0  0.3947
  C  C4317  1  0.688230  0.167300  0.323810  1.0  0.2631
  C  C4318  1  0.655700  0.175780  0.314470  1.0  0.4021
  C  C4319  1  0.637250  0.154350  0.287580  1.0  0.1923
  C  C4320  1  0.637290  0.171640  0.301220  1.0  -0.1701
  C  C4321  1  0.619280  0.183990  0.302100  1.0  -0.04
  C  C4322  1  0.602560  0.178590  0.289370  1.0  -0.1325
  C  C4323  1  0.604150  0.161580  0.276230  1.0  0.1638
  C  C4324  1  0.574960  0.119910  0.248740  1.0  0.2947
  C  C4325  1  0.611360  0.082930  0.232400  1.0  0.152
  C  C4326  1  0.612140  0.065270  0.220750  1.0  -0.1699
  C  C4327  1  0.627020  0.063550  0.204810  1.0  -0.0521
  C  C4328  1  0.640670  0.080110  0.201780  1.0  -0.1834
  C  C4329  1  0.639230  0.097410  0.215040  1.0  0.1789
  C  C4330  1  0.656960  0.079390  0.185670  1.0  0.413
  C  C4331  1  0.718780  0.649160  0.838950  1.0  0.1977
  C  C4332  1  0.706840  0.653670  0.821550  1.0  -0.133
  C  C4333  1  0.711940  0.644000  0.802670  1.0  -0.0682
  C  C4334  1  0.728840  0.630560  0.802400  1.0  -0.154
  C  C4335  1  0.739850  0.626900  0.820760  1.0  0.1804
  C  C4336  1  0.648280  0.781210  0.906980  1.0  0.2744
  C  C4337  1  0.664820  0.734660  0.891370  1.0  0.1598
  C  C4338  1  0.682640  0.722050  0.890560  1.0  -0.133
  C  C4339  1  0.685010  0.708230  0.874490  1.0  -0.0045
  C  C4340  1  0.669060  0.706670  0.859430  1.0  -0.1716
  C  C4341  1  0.651690  0.719350  0.861740  1.0  0.2021
  C  C4342  1  0.670380  0.691530  0.842090  1.0  0.3947
  C  C4343  1  0.688230  0.667300  0.823810  1.0  0.2631
  C  C4344  1  0.655700  0.675780  0.814470  1.0  0.4021
  C  C4345  1  0.637250  0.654350  0.787580  1.0  0.1923
  C  C4346  1  0.637290  0.671640  0.801220  1.0  -0.1701
  C  C4347  1  0.619280  0.683990  0.802100  1.0  -0.04
  C  C4348  1  0.602560  0.678590  0.789370  1.0  -0.1325
  C  C4349  1  0.604150  0.661580  0.776230  1.0  0.1638
  C  C4350  1  0.574960  0.619910  0.748740  1.0  0.2947
  C  C4351  1  0.611360  0.582930  0.732400  1.0  0.152
  C  C4352  1  0.612140  0.565270  0.720750  1.0  -0.1699
  C  C4353  1  0.627020  0.563550  0.704810  1.0  -0.0521
  C  C4354  1  0.640670  0.580110  0.701780  1.0  -0.1834
  C  C4355  1  0.639230  0.597410  0.715040  1.0  0.1789
  C  C4356  1  0.656960  0.579390  0.685670  1.0  0.413
  C  C4357  1  0.218780  0.149160  0.838950  1.0  0.1977
  C  C4358  1  0.206840  0.153670  0.821550  1.0  -0.133
  C  C4359  1  0.211940  0.144000  0.802670  1.0  -0.0682
  C  C4360  1  0.228840  0.130560  0.802400  1.0  -0.154
  C  C4361  1  0.239850  0.126900  0.820760  1.0  0.1804
  C  C4362  1  0.148280  0.281210  0.906980  1.0  0.2744
  C  C4363  1  0.164820  0.234660  0.891370  1.0  0.1598
  C  C4364  1  0.182640  0.222050  0.890560  1.0  -0.133
  C  C4365  1  0.185010  0.208230  0.874490  1.0  -0.0045
  C  C4366  1  0.169060  0.206670  0.859430  1.0  -0.1716
  C  C4367  1  0.151690  0.219350  0.861740  1.0  0.2021
  C  C4368  1  0.170380  0.191530  0.842090  1.0  0.3947
  C  C4369  1  0.188230  0.167300  0.823810  1.0  0.2631
  C  C4370  1  0.155700  0.175780  0.814470  1.0  0.4021
  C  C4371  1  0.137250  0.154350  0.787580  1.0  0.1923
  C  C4372  1  0.137290  0.171640  0.801220  1.0  -0.1701
  C  C4373  1  0.119280  0.183990  0.802100  1.0  -0.04
  C  C4374  1  0.102560  0.178590  0.789370  1.0  -0.1325
  C  C4375  1  0.104150  0.161580  0.776230  1.0  0.1638
  C  C4376  1  0.074960  0.119910  0.748740  1.0  0.2947
  C  C4377  1  0.111360  0.082930  0.732400  1.0  0.152
  C  C4378  1  0.112140  0.065270  0.720750  1.0  -0.1699
  C  C4379  1  0.127020  0.063550  0.704810  1.0  -0.0521
  C  C4380  1  0.140670  0.080110  0.701780  1.0  -0.1834
  C  C4381  1  0.139230  0.097410  0.715040  1.0  0.1789
  C  C4382  1  0.156960  0.079390  0.685670  1.0  0.413
  C  C4383  1  0.218780  0.649160  0.338950  1.0  0.1977
  C  C4384  1  0.206840  0.653670  0.321550  1.0  -0.133
  C  C4385  1  0.211940  0.644000  0.302670  1.0  -0.0682
  C  C4386  1  0.228840  0.630560  0.302400  1.0  -0.154
  C  C4387  1  0.239850  0.626900  0.320760  1.0  0.1804
  C  C4388  1  0.148280  0.781210  0.406980  1.0  0.2744
  C  C4389  1  0.164820  0.734660  0.391370  1.0  0.1598
  C  C4390  1  0.182640  0.722050  0.390560  1.0  -0.133
  C  C4391  1  0.185010  0.708230  0.374490  1.0  -0.0045
  C  C4392  1  0.169060  0.706670  0.359430  1.0  -0.1716
  C  C4393  1  0.151690  0.719350  0.361740  1.0  0.2021
  C  C4394  1  0.170380  0.691530  0.342090  1.0  0.3947
  C  C4395  1  0.188230  0.667300  0.323810  1.0  0.2631
  C  C4396  1  0.155700  0.675780  0.314470  1.0  0.4021
  C  C4397  1  0.137250  0.654350  0.287580  1.0  0.1923
  C  C4398  1  0.137290  0.671640  0.301220  1.0  -0.1701
  C  C4399  1  0.119280  0.683990  0.302100  1.0  -0.04
  C  C4400  1  0.102560  0.678590  0.289370  1.0  -0.1325
  C  C4401  1  0.104150  0.661580  0.276230  1.0  0.1638
  C  C4402  1  0.074960  0.619910  0.248740  1.0  0.2947
  C  C4403  1  0.111360  0.582930  0.232400  1.0  0.152
  C  C4404  1  0.112140  0.565270  0.220750  1.0  -0.1699
  C  C4405  1  0.127020  0.563550  0.204810  1.0  -0.0521
  C  C4406  1  0.140670  0.580110  0.201780  1.0  -0.1834
  C  C4407  1  0.139230  0.597410  0.215040  1.0  0.1789
  C  C4408  1  0.156960  0.579390  0.185670  1.0  0.413
  C  C4409  1  0.031220  0.649160  0.911050  1.0  0.1984
  C  C4410  1  0.043160  0.653670  0.928450  1.0  -0.1339
  C  C4411  1  0.038060  0.644000  0.947330  1.0  -0.0675
  C  C4412  1  0.021160  0.630560  0.947600  1.0  -0.1556
  C  C4413  1  0.010150  0.626900  0.929240  1.0  0.1803
  C  C4414  1  0.101720  0.781210  0.843020  1.0  0.2772
  C  C4415  1  0.085180  0.734660  0.858630  1.0  0.1591
  C  C4416  1  0.067360  0.722050  0.859440  1.0  -0.1361
  C  C4417  1  0.064990  0.708230  0.875510  1.0  -0.0044
  C  C4418  1  0.080940  0.706670  0.890570  1.0  -0.1713
  C  C4419  1  0.098310  0.719350  0.888260  1.0  0.2012
  C  C4420  1  0.079620  0.691530  0.907910  1.0  0.3948
  C  C4421  1  0.061770  0.667300  0.926190  1.0  0.2632
  C  C4422  1  0.094300  0.675780  0.935530  1.0  0.4023
  C  C4423  1  0.112750  0.654350  0.962420  1.0  0.1945
  C  C4424  1  0.112710  0.671640  0.948780  1.0  -0.1708
  C  C4425  1  0.130720  0.683990  0.947900  1.0  -0.0402
  C  C4426  1  0.147440  0.678590  0.960630  1.0  -0.1304
  C  C4427  1  0.145850  0.661580  0.973770  1.0  0.1649
  C  C4428  1  0.175040  0.619910  0.001260  1.0  0.2958
  C  C4429  1  0.138640  0.582930  0.017600  1.0  0.1521
  C  C4430  1  0.137860  0.565270  0.029250  1.0  -0.169
  C  C4431  1  0.122980  0.563550  0.045190  1.0  -0.0525
  C  C4432  1  0.109330  0.580110  0.048220  1.0  -0.1835
  C  C4433  1  0.110770  0.597410  0.034960  1.0  0.1794
  C  C4434  1  0.093040  0.579390  0.064330  1.0  0.4125
  C  C4435  1  0.031220  0.149160  0.411050  1.0  0.1984
  C  C4436  1  0.043160  0.153670  0.428450  1.0  -0.1339
  C  C4437  1  0.038060  0.144000  0.447330  1.0  -0.0675
  C  C4438  1  0.021160  0.130560  0.447600  1.0  -0.1556
  C  C4439  1  0.010150  0.126900  0.429240  1.0  0.1803
  C  C4440  1  0.101720  0.281210  0.343020  1.0  0.2772
  C  C4441  1  0.085180  0.234660  0.358630  1.0  0.1591
  C  C4442  1  0.067360  0.222050  0.359440  1.0  -0.1361
  C  C4443  1  0.064990  0.208230  0.375510  1.0  -0.0044
  C  C4444  1  0.080940  0.206670  0.390570  1.0  -0.1713
  C  C4445  1  0.098310  0.219350  0.388260  1.0  0.2012
  C  C4446  1  0.079620  0.191530  0.407910  1.0  0.3948
  C  C4447  1  0.061770  0.167300  0.426190  1.0  0.2632
  C  C4448  1  0.094300  0.175780  0.435530  1.0  0.4023
  C  C4449  1  0.112750  0.154350  0.462420  1.0  0.1945
  C  C4450  1  0.112710  0.171640  0.448780  1.0  -0.1708
  C  C4451  1  0.130720  0.183990  0.447900  1.0  -0.0402
  C  C4452  1  0.147440  0.178590  0.460630  1.0  -0.1304
  C  C4453  1  0.145850  0.161580  0.473770  1.0  0.1649
  C  C4454  1  0.175040  0.119910  0.501260  1.0  0.2958
  C  C4455  1  0.138640  0.082930  0.517600  1.0  0.1521
  C  C4456  1  0.137860  0.065270  0.529250  1.0  -0.169
  C  C4457  1  0.122980  0.063550  0.545190  1.0  -0.0525
  C  C4458  1  0.109330  0.080110  0.548220  1.0  -0.1835
  C  C4459  1  0.110770  0.097410  0.534960  1.0  0.1794
  C  C4460  1  0.093040  0.079390  0.564330  1.0  0.4125
  C  C4461  1  0.531220  0.649160  0.411050  1.0  0.1984
  C  C4462  1  0.543160  0.653670  0.428450  1.0  -0.1339
  C  C4463  1  0.538060  0.644000  0.447330  1.0  -0.0675
  C  C4464  1  0.521160  0.630560  0.447600  1.0  -0.1556
  C  C4465  1  0.510150  0.626900  0.429240  1.0  0.1803
  C  C4466  1  0.601720  0.781210  0.343020  1.0  0.2772
  C  C4467  1  0.585180  0.734660  0.358630  1.0  0.1591
  C  C4468  1  0.567360  0.722050  0.359440  1.0  -0.1361
  C  C4469  1  0.564990  0.708230  0.375510  1.0  -0.0044
  C  C4470  1  0.580940  0.706670  0.390570  1.0  -0.1713
  C  C4471  1  0.598310  0.719350  0.388260  1.0  0.2012
  C  C4472  1  0.579620  0.691530  0.407910  1.0  0.3948
  C  C4473  1  0.561770  0.667300  0.426190  1.0  0.2632
  C  C4474  1  0.594300  0.675780  0.435530  1.0  0.4023
  C  C4475  1  0.612750  0.654350  0.462420  1.0  0.1945
  C  C4476  1  0.612710  0.671640  0.448780  1.0  -0.1708
  C  C4477  1  0.630720  0.683990  0.447900  1.0  -0.0402
  C  C4478  1  0.647440  0.678590  0.460630  1.0  -0.1304
  C  C4479  1  0.645850  0.661580  0.473770  1.0  0.1649
  C  C4480  1  0.675040  0.619910  0.501260  1.0  0.2958
  C  C4481  1  0.638640  0.582930  0.517600  1.0  0.1521
  C  C4482  1  0.637860  0.565270  0.529250  1.0  -0.169
  C  C4483  1  0.622980  0.563550  0.545190  1.0  -0.0525
  C  C4484  1  0.609330  0.580110  0.548220  1.0  -0.1835
  C  C4485  1  0.610770  0.597410  0.534960  1.0  0.1794
  C  C4486  1  0.593040  0.579390  0.564330  1.0  0.4125
  C  C4487  1  0.531220  0.149160  0.911050  1.0  0.1984
  C  C4488  1  0.543160  0.153670  0.928450  1.0  -0.1339
  C  C4489  1  0.538060  0.144000  0.947330  1.0  -0.0675
  C  C4490  1  0.521160  0.130560  0.947600  1.0  -0.1556
  C  C4491  1  0.510150  0.126900  0.929240  1.0  0.1803
  C  C4492  1  0.601720  0.281210  0.843020  1.0  0.2772
  C  C4493  1  0.585180  0.234660  0.858630  1.0  0.1591
  C  C4494  1  0.567360  0.222050  0.859440  1.0  -0.1361
  C  C4495  1  0.564990  0.208230  0.875510  1.0  -0.0044
  C  C4496  1  0.580940  0.206670  0.890570  1.0  -0.1713
  C  C4497  1  0.598310  0.219350  0.888260  1.0  0.2012
  C  C4498  1  0.579620  0.191530  0.907910  1.0  0.3948
  C  C4499  1  0.561770  0.167300  0.926190  1.0  0.2632
  C  C4500  1  0.594300  0.175780  0.935530  1.0  0.4023
  C  C4501  1  0.612750  0.154350  0.962420  1.0  0.1945
  C  C4502  1  0.612710  0.171640  0.948780  1.0  -0.1708
  C  C4503  1  0.630720  0.183990  0.947900  1.0  -0.0402
  C  C4504  1  0.647440  0.178590  0.960630  1.0  -0.1304
  C  C4505  1  0.645850  0.161580  0.973770  1.0  0.1649
  C  C4506  1  0.675040  0.119910  0.001260  1.0  0.2958
  C  C4507  1  0.638640  0.082930  0.017600  1.0  0.1521
  C  C4508  1  0.637860  0.065270  0.029250  1.0  -0.169
  C  C4509  1  0.622980  0.063550  0.045190  1.0  -0.0525
  C  C4510  1  0.609330  0.080110  0.048220  1.0  -0.1835
  C  C4511  1  0.610770  0.097410  0.034960  1.0  0.1794
  C  C4512  1  0.593040  0.079390  0.064330  1.0  0.4125
  C  C4513  1  0.968780  0.661050  0.899160  1.0  0.1965
  C  C4514  1  0.956840  0.678450  0.903670  1.0  -0.1346
  C  C4515  1  0.961940  0.697330  0.894000  1.0  -0.0679
  C  C4516  1  0.978840  0.697600  0.880560  1.0  -0.1563
  C  C4517  1  0.989850  0.679240  0.876900  1.0  0.18
  C  C4518  1  0.898280  0.593020  0.031210  1.0  0.2735
  C  C4519  1  0.914820  0.608630  0.984660  1.0  0.1624
  C  C4520  1  0.932640  0.609440  0.972050  1.0  -0.1343
  C  C4521  1  0.935010  0.625510  0.958230  1.0  -0.0036
  C  C4522  1  0.919060  0.640570  0.956670  1.0  -0.1705
  C  C4523  1  0.901690  0.638260  0.969350  1.0  0.2018
  C  C4524  1  0.920380  0.657910  0.941530  1.0  0.3949
  C  C4525  1  0.938230  0.676190  0.917300  1.0  0.2648
  C  C4526  1  0.905700  0.685530  0.925780  1.0  0.4017
  C  C4527  1  0.887250  0.712420  0.904350  1.0  0.1937
  C  C4528  1  0.887290  0.698780  0.921640  1.0  -0.1704
  C  C4529  1  0.869280  0.697900  0.933990  1.0  -0.0399
  C  C4530  1  0.852560  0.710630  0.928590  1.0  -0.1331
  C  C4531  1  0.854150  0.723770  0.911580  1.0  0.1638
  C  C4532  1  0.824960  0.751260  0.869910  1.0  0.2944
  C  C4533  1  0.861360  0.767600  0.832930  1.0  0.1513
  C  C4534  1  0.862140  0.779250  0.815270  1.0  -0.1637
  C  C4535  1  0.877020  0.795190  0.813550  1.0  -0.0541
  C  C4536  1  0.890670  0.798220  0.830110  1.0  -0.1832
  C  C4537  1  0.889230  0.784960  0.847410  1.0  0.1816
  C  C4538  1  0.906960  0.814330  0.829390  1.0  0.4133
  C  C4539  1  0.968780  0.161050  0.399160  1.0  0.1965
  C  C4540  1  0.956840  0.178450  0.403670  1.0  -0.1346
  C  C4541  1  0.961940  0.197330  0.394000  1.0  -0.0679
  C  C4542  1  0.978840  0.197600  0.380560  1.0  -0.1563
  C  C4543  1  0.989850  0.179240  0.376900  1.0  0.18
  C  C4544  1  0.898280  0.093020  0.531210  1.0  0.2735
  C  C4545  1  0.914820  0.108630  0.484660  1.0  0.1624
  C  C4546  1  0.932640  0.109440  0.472050  1.0  -0.1343
  C  C4547  1  0.935010  0.125510  0.458230  1.0  -0.0036
  C  C4548  1  0.919060  0.140570  0.456670  1.0  -0.1705
  C  C4549  1  0.901690  0.138260  0.469350  1.0  0.2018
  C  C4550  1  0.920380  0.157910  0.441530  1.0  0.3949
  C  C4551  1  0.938230  0.176190  0.417300  1.0  0.2627
  C  C4552  1  0.905700  0.185530  0.425780  1.0  0.4017
  C  C4553  1  0.887250  0.212420  0.404350  1.0  0.1937
  C  C4554  1  0.887290  0.198780  0.421640  1.0  -0.1704
  C  C4555  1  0.869280  0.197900  0.433990  1.0  -0.0399
  C  C4556  1  0.852560  0.210630  0.428590  1.0  -0.1331
  C  C4557  1  0.854150  0.223770  0.411580  1.0  0.1638
  C  C4558  1  0.824960  0.251260  0.369910  1.0  0.2944
  C  C4559  1  0.861360  0.267600  0.332930  1.0  0.1513
  C  C4560  1  0.862140  0.279250  0.315270  1.0  -0.1637
  C  C4561  1  0.877020  0.295190  0.313550  1.0  -0.0541
  C  C4562  1  0.890670  0.298220  0.330110  1.0  -0.1832
  C  C4563  1  0.889230  0.284960  0.347410  1.0  0.1816
  C  C4564  1  0.906960  0.314330  0.329390  1.0  0.4133
  C  C4565  1  0.468780  0.661050  0.399160  1.0  0.1965
  C  C4566  1  0.456840  0.678450  0.403670  1.0  -0.1346
  C  C4567  1  0.461940  0.697330  0.394000  1.0  -0.0679
  C  C4568  1  0.478840  0.697600  0.380560  1.0  -0.1563
  C  C4569  1  0.489850  0.679240  0.376900  1.0  0.18
  C  C4570  1  0.398280  0.593020  0.531210  1.0  0.2735
  C  C4571  1  0.414820  0.608630  0.484660  1.0  0.1624
  C  C4572  1  0.432640  0.609440  0.472050  1.0  -0.1343
  C  C4573  1  0.435010  0.625510  0.458230  1.0  -0.0036
  C  C4574  1  0.419060  0.640570  0.456670  1.0  -0.1705
  C  C4575  1  0.401690  0.638260  0.469350  1.0  0.2018
  C  C4576  1  0.420380  0.657910  0.441530  1.0  0.3949
  C  C4577  1  0.438230  0.676190  0.417300  1.0  0.2627
  C  C4578  1  0.405700  0.685530  0.425780  1.0  0.4017
  C  C4579  1  0.387250  0.712420  0.404350  1.0  0.1937
  C  C4580  1  0.387290  0.698780  0.421640  1.0  -0.1704
  C  C4581  1  0.369280  0.697900  0.433990  1.0  -0.0399
  C  C4582  1  0.352560  0.710630  0.428590  1.0  -0.1331
  C  C4583  1  0.354150  0.723770  0.411580  1.0  0.1638
  C  C4584  1  0.324960  0.751260  0.369910  1.0  0.2944
  C  C4585  1  0.361360  0.767600  0.332930  1.0  0.1513
  C  C4586  1  0.362140  0.779250  0.315270  1.0  -0.1637
  C  C4587  1  0.377020  0.795190  0.313550  1.0  -0.0541
  C  C4588  1  0.390670  0.798220  0.330110  1.0  -0.1832
  C  C4589  1  0.389230  0.784960  0.347410  1.0  0.1816
  C  C4590  1  0.406960  0.814330  0.329390  1.0  0.4133
  C  C4591  1  0.468780  0.161050  0.899160  1.0  0.1965
  C  C4592  1  0.456840  0.178450  0.903670  1.0  -0.1346
  C  C4593  1  0.461940  0.197330  0.894000  1.0  -0.0679
  C  C4594  1  0.478840  0.197600  0.880560  1.0  -0.1563
  C  C4595  1  0.489850  0.179240  0.876900  1.0  0.18
  C  C4596  1  0.398280  0.093020  0.031210  1.0  0.2735
  C  C4597  1  0.414820  0.108630  0.984660  1.0  0.1624
  C  C4598  1  0.432640  0.109440  0.972050  1.0  -0.1343
  C  C4599  1  0.435010  0.125510  0.958230  1.0  -0.0036
  C  C4600  1  0.419060  0.140570  0.956670  1.0  -0.1705
  C  C4601  1  0.401690  0.138260  0.969350  1.0  0.2018
  C  C4602  1  0.420380  0.157910  0.941530  1.0  0.3949
  C  C4603  1  0.438230  0.176190  0.917300  1.0  0.2648
  C  C4604  1  0.405700  0.185530  0.925780  1.0  0.4017
  C  C4605  1  0.387250  0.212420  0.904350  1.0  0.1937
  C  C4606  1  0.387290  0.198780  0.921640  1.0  -0.1704
  C  C4607  1  0.369280  0.197900  0.933990  1.0  -0.0399
  C  C4608  1  0.352560  0.210630  0.928590  1.0  -0.1331
  C  C4609  1  0.354150  0.223770  0.911580  1.0  0.1638
  C  C4610  1  0.324960  0.251260  0.869910  1.0  0.2944
  C  C4611  1  0.361360  0.267600  0.832930  1.0  0.1513
  C  C4612  1  0.362140  0.279250  0.815270  1.0  -0.1637
  C  C4613  1  0.377020  0.295190  0.813550  1.0  -0.0541
  C  C4614  1  0.390670  0.298220  0.830110  1.0  -0.1832
  C  C4615  1  0.389230  0.284960  0.847410  1.0  0.1816
  C  C4616  1  0.406960  0.314330  0.829390  1.0  0.4133
  C  C4617  1  0.281220  0.088950  0.399160  1.0  0.197
  C  C4618  1  0.293160  0.071550  0.403670  1.0  -0.1366
  C  C4619  1  0.288060  0.052670  0.394000  1.0  -0.0659
  C  C4620  1  0.271160  0.052400  0.380560  1.0  -0.1576
  C  C4621  1  0.260150  0.070760  0.376900  1.0  0.1802
  C  C4622  1  0.351720  0.156980  0.531210  1.0  0.2763
  C  C4623  1  0.335180  0.141370  0.484660  1.0  0.1599
  C  C4624  1  0.317360  0.140560  0.472050  1.0  -0.1377
  C  C4625  1  0.314990  0.124490  0.458230  1.0  -0.004
  C  C4626  1  0.330940  0.109430  0.456670  1.0  -0.1711
  C  C4627  1  0.348310  0.111740  0.469350  1.0  0.2018
  C  C4628  1  0.329620  0.092090  0.441530  1.0  0.3951
  C  C4629  1  0.311770  0.073810  0.417300  1.0  0.263
  C  C4630  1  0.344300  0.064470  0.425780  1.0  0.402
  C  C4631  1  0.362750  0.037580  0.404350  1.0  0.1944
  C  C4632  1  0.362710  0.051220  0.421640  1.0  -0.17
  C  C4633  1  0.380720  0.052100  0.433990  1.0  -0.0397
  C  C4634  1  0.397440  0.039370  0.428590  1.0  -0.1297
  C  C4635  1  0.395850  0.026230  0.411580  1.0  0.1647
  C  C4636  1  0.425040  0.998740  0.369910  1.0  0.2956
  C  C4637  1  0.388640  0.982400  0.332930  1.0  0.1513
  C  C4638  1  0.387860  0.970750  0.315270  1.0  -0.1647
  C  C4639  1  0.372980  0.954810  0.313550  1.0  -0.0544
  C  C4640  1  0.359330  0.951780  0.330110  1.0  -0.1845
  C  C4641  1  0.360770  0.965040  0.347410  1.0  0.1831
  C  C4642  1  0.343040  0.935670  0.329390  1.0  0.4133
  C  C4643  1  0.281220  0.588950  0.899160  1.0  0.197
  C  C4644  1  0.293160  0.571550  0.903670  1.0  -0.1366
  C  C4645  1  0.288060  0.552670  0.894000  1.0  -0.0659
  C  C4646  1  0.271160  0.552400  0.880560  1.0  -0.1576
  C  C4647  1  0.260150  0.570760  0.876900  1.0  0.1802
  C  C4648  1  0.351720  0.656980  0.031210  1.0  0.2763
  C  C4649  1  0.335180  0.641370  0.984660  1.0  0.1599
  C  C4650  1  0.317360  0.640560  0.972050  1.0  -0.1377
  C  C4651  1  0.314990  0.624490  0.958230  1.0  -0.004
  C  C4652  1  0.330940  0.609430  0.956670  1.0  -0.1711
  C  C4653  1  0.348310  0.611740  0.969350  1.0  0.2018
  C  C4654  1  0.329620  0.592090  0.941530  1.0  0.3951
  C  C4655  1  0.311770  0.573810  0.917300  1.0  0.2651
  C  C4656  1  0.344300  0.564470  0.925780  1.0  0.402
  C  C4657  1  0.362750  0.537580  0.904350  1.0  0.1944
  C  C4658  1  0.362710  0.551220  0.921640  1.0  -0.17
  C  C4659  1  0.380720  0.552100  0.933990  1.0  -0.0397
  C  C4660  1  0.397440  0.539370  0.928590  1.0  -0.1297
  C  C4661  1  0.395850  0.526230  0.911580  1.0  0.1647
  C  C4662  1  0.425040  0.498740  0.869910  1.0  0.2956
  C  C4663  1  0.388640  0.482400  0.832930  1.0  0.1513
  C  C4664  1  0.387860  0.470750  0.815270  1.0  -0.1647
  C  C4665  1  0.372980  0.454810  0.813550  1.0  -0.0544
  C  C4666  1  0.359330  0.451780  0.830110  1.0  -0.1845
  C  C4667  1  0.360770  0.465040  0.847410  1.0  0.1831
  C  C4668  1  0.343040  0.435670  0.829390  1.0  0.4133
  C  C4669  1  0.781220  0.088950  0.899160  1.0  0.197
  C  C4670  1  0.793160  0.071550  0.903670  1.0  -0.1366
  C  C4671  1  0.788060  0.052670  0.894000  1.0  -0.0659
  C  C4672  1  0.771160  0.052400  0.880560  1.0  -0.1576
  C  C4673  1  0.760150  0.070760  0.876900  1.0  0.1802
  C  C4674  1  0.851720  0.156980  0.031210  1.0  0.2763
  C  C4675  1  0.835180  0.141370  0.984660  1.0  0.1599
  C  C4676  1  0.817360  0.140560  0.972050  1.0  -0.1377
  C  C4677  1  0.814990  0.124490  0.958230  1.0  -0.004
  C  C4678  1  0.830940  0.109430  0.956670  1.0  -0.1711
  C  C4679  1  0.848310  0.111740  0.969350  1.0  0.2018
  C  C4680  1  0.829620  0.092090  0.941530  1.0  0.3951
  C  C4681  1  0.811770  0.073810  0.917300  1.0  0.2651
  C  C4682  1  0.844300  0.064470  0.925780  1.0  0.402
  C  C4683  1  0.862750  0.037580  0.904350  1.0  0.1944
  C  C4684  1  0.862710  0.051220  0.921640  1.0  -0.17
  C  C4685  1  0.880720  0.052100  0.933990  1.0  -0.0397
  C  C4686  1  0.897440  0.039370  0.928590  1.0  -0.1297
  C  C4687  1  0.895850  0.026230  0.911580  1.0  0.1647
  C  C4688  1  0.925040  0.998740  0.869910  1.0  0.2956
  C  C4689  1  0.888640  0.982400  0.832930  1.0  0.1513
  C  C4690  1  0.887860  0.970750  0.815270  1.0  -0.1647
  C  C4691  1  0.872980  0.954810  0.813550  1.0  -0.0544
  C  C4692  1  0.859330  0.951780  0.830110  1.0  -0.1845
  C  C4693  1  0.860770  0.965040  0.847410  1.0  0.1831
  C  C4694  1  0.843040  0.935670  0.829390  1.0  0.4133
  C  C4695  1  0.781220  0.588950  0.399160  1.0  0.197
  C  C4696  1  0.793160  0.571550  0.403670  1.0  -0.1366
  C  C4697  1  0.788060  0.552670  0.394000  1.0  -0.0659
  C  C4698  1  0.771160  0.552400  0.380560  1.0  -0.1576
  C  C4699  1  0.760150  0.570760  0.376900  1.0  0.1802
  C  C4700  1  0.851720  0.656980  0.531210  1.0  0.2763
  C  C4701  1  0.835180  0.641370  0.484660  1.0  0.1599
  C  C4702  1  0.817360  0.640560  0.472050  1.0  -0.1377
  C  C4703  1  0.814990  0.624490  0.458230  1.0  -0.004
  C  C4704  1  0.830940  0.609430  0.456670  1.0  -0.1711
  C  C4705  1  0.848310  0.611740  0.469350  1.0  0.2018
  C  C4706  1  0.829620  0.592090  0.441530  1.0  0.3951
  C  C4707  1  0.811770  0.573810  0.417300  1.0  0.263
  C  C4708  1  0.844300  0.564470  0.425780  1.0  0.402
  C  C4709  1  0.862750  0.537580  0.404350  1.0  0.1944
  C  C4710  1  0.862710  0.551220  0.421640  1.0  -0.17
  C  C4711  1  0.880720  0.552100  0.433990  1.0  -0.0397
  C  C4712  1  0.897440  0.539370  0.428590  1.0  -0.1297
  C  C4713  1  0.895850  0.526230  0.411580  1.0  0.1647
  C  C4714  1  0.925040  0.498740  0.369910  1.0  0.2956
  C  C4715  1  0.888640  0.482400  0.332930  1.0  0.1513
  C  C4716  1  0.887860  0.470750  0.315270  1.0  -0.1647
  C  C4717  1  0.872980  0.454810  0.313550  1.0  -0.0544
  C  C4718  1  0.859330  0.451780  0.330110  1.0  -0.1845
  C  C4719  1  0.860770  0.465040  0.347410  1.0  0.1831
  C  C4720  1  0.843040  0.435670  0.329390  1.0  0.4133
  C  C4721  1  0.468780  0.588950  0.850840  1.0  0.1964
  C  C4722  1  0.456840  0.571550  0.846330  1.0  -0.135
  C  C4723  1  0.461940  0.552670  0.856000  1.0  -0.066
  C  C4724  1  0.478840  0.552400  0.869440  1.0  -0.1565
  C  C4725  1  0.489850  0.570760  0.873100  1.0  0.1807
  C  C4726  1  0.398280  0.656980  0.718790  1.0  0.2756
  C  C4727  1  0.414820  0.641370  0.765340  1.0  0.161
  C  C4728  1  0.432640  0.640560  0.777950  1.0  -0.134
  C  C4729  1  0.435010  0.624490  0.791770  1.0  -0.0037
  C  C4730  1  0.419060  0.609430  0.793330  1.0  -0.1707
  C  C4731  1  0.401690  0.611740  0.780650  1.0  0.2025
  C  C4732  1  0.420380  0.592090  0.808470  1.0  0.3953
  C  C4733  1  0.438230  0.573810  0.832700  1.0  0.2628
  C  C4734  1  0.405700  0.564470  0.824220  1.0  0.4016
  C  C4735  1  0.387250  0.537580  0.845650  1.0  0.1934
  C  C4736  1  0.387290  0.551220  0.828360  1.0  -0.1705
  C  C4737  1  0.369280  0.552100  0.816010  1.0  -0.0402
  C  C4738  1  0.352560  0.539370  0.821410  1.0  -0.1317
  C  C4739  1  0.354150  0.526230  0.838420  1.0  0.1634
  C  C4740  1  0.324960  0.498740  0.880090  1.0  0.2941
  C  C4741  1  0.361360  0.482400  0.917070  1.0  0.1508
  C  C4742  1  0.362140  0.470750  0.934730  1.0  -0.1668
  C  C4743  1  0.377020  0.454810  0.936450  1.0  -0.0535
  C  C4744  1  0.390670  0.451780  0.919890  1.0  -0.1834
  C  C4745  1  0.389230  0.465040  0.902590  1.0  0.1807
  C  C4746  1  0.406960  0.435670  0.920610  1.0  0.4131
  C  C4747  1  0.468780  0.088950  0.350840  1.0  0.1964
  C  C4748  1  0.456840  0.071550  0.346330  1.0  -0.135
  C  C4749  1  0.461940  0.052670  0.356000  1.0  -0.066
  C  C4750  1  0.478840  0.052400  0.369440  1.0  -0.1565
  C  C4751  1  0.489850  0.070760  0.373100  1.0  0.1807
  C  C4752  1  0.398280  0.156980  0.218790  1.0  0.2756
  C  C4753  1  0.414820  0.141370  0.265340  1.0  0.161
  C  C4754  1  0.432640  0.140560  0.277950  1.0  -0.134
  C  C4755  1  0.435010  0.124490  0.291770  1.0  -0.0037
  C  C4756  1  0.419060  0.109430  0.293330  1.0  -0.1707
  C  C4757  1  0.401690  0.111740  0.280650  1.0  0.2025
  C  C4758  1  0.420380  0.092090  0.308470  1.0  0.3953
  C  C4759  1  0.438230  0.073810  0.332700  1.0  0.2628
  C  C4760  1  0.405700  0.064470  0.324220  1.0  0.4016
  C  C4761  1  0.387250  0.037580  0.345650  1.0  0.1934
  C  C4762  1  0.387290  0.051220  0.328360  1.0  -0.1705
  C  C4763  1  0.369280  0.052100  0.316010  1.0  -0.0402
  C  C4764  1  0.352560  0.039370  0.321410  1.0  -0.1317
  C  C4765  1  0.354150  0.026230  0.338420  1.0  0.1634
  C  C4766  1  0.324960  0.998740  0.380090  1.0  0.2941
  C  C4767  1  0.361360  0.982400  0.417070  1.0  0.1508
  C  C4768  1  0.362140  0.970750  0.434730  1.0  -0.1668
  C  C4769  1  0.377020  0.954810  0.436450  1.0  -0.0535
  C  C4770  1  0.390670  0.951780  0.419890  1.0  -0.1834
  C  C4771  1  0.389230  0.965040  0.402590  1.0  0.1807
  C  C4772  1  0.406960  0.935670  0.420610  1.0  0.4131
  C  C4773  1  0.968780  0.588950  0.350840  1.0  0.1964
  C  C4774  1  0.956840  0.571550  0.346330  1.0  -0.135
  C  C4775  1  0.961940  0.552670  0.356000  1.0  -0.066
  C  C4776  1  0.978840  0.552400  0.369440  1.0  -0.1565
  C  C4777  1  0.989850  0.570760  0.373100  1.0  0.1807
  C  C4778  1  0.898280  0.656980  0.218790  1.0  0.2756
  C  C4779  1  0.914820  0.641370  0.265340  1.0  0.161
  C  C4780  1  0.932640  0.640560  0.277950  1.0  -0.134
  C  C4781  1  0.935010  0.624490  0.291770  1.0  -0.0037
  C  C4782  1  0.919060  0.609430  0.293330  1.0  -0.1707
  C  C4783  1  0.901690  0.611740  0.280650  1.0  0.2025
  C  C4784  1  0.920380  0.592090  0.308470  1.0  0.3953
  C  C4785  1  0.938230  0.573810  0.332700  1.0  0.2628
  C  C4786  1  0.905700  0.564470  0.324220  1.0  0.4016
  C  C4787  1  0.887250  0.537580  0.345650  1.0  0.1934
  C  C4788  1  0.887290  0.551220  0.328360  1.0  -0.1705
  C  C4789  1  0.869280  0.552100  0.316010  1.0  -0.0402
  C  C4790  1  0.852560  0.539370  0.321410  1.0  -0.1317
  C  C4791  1  0.854150  0.526230  0.338420  1.0  0.1634
  C  C4792  1  0.824960  0.498740  0.380090  1.0  0.2941
  C  C4793  1  0.861360  0.482400  0.417070  1.0  0.1508
  C  C4794  1  0.862140  0.470750  0.434730  1.0  -0.1668
  C  C4795  1  0.877020  0.454810  0.436450  1.0  -0.0535
  C  C4796  1  0.890670  0.451780  0.419890  1.0  -0.1834
  C  C4797  1  0.889230  0.465040  0.402590  1.0  0.1807
  C  C4798  1  0.906960  0.435670  0.420610  1.0  0.4131
  C  C4799  1  0.968780  0.088950  0.850840  1.0  0.1964
  C  C4800  1  0.956840  0.071550  0.846330  1.0  -0.135
  C  C4801  1  0.961940  0.052670  0.856000  1.0  -0.066
  C  C4802  1  0.978840  0.052400  0.869440  1.0  -0.1565
  C  C4803  1  0.989850  0.070760  0.873100  1.0  0.1807
  C  C4804  1  0.898280  0.156980  0.718790  1.0  0.2756
  C  C4805  1  0.914820  0.141370  0.765340  1.0  0.161
  C  C4806  1  0.932640  0.140560  0.777950  1.0  -0.134
  C  C4807  1  0.935010  0.124490  0.791770  1.0  -0.0037
  C  C4808  1  0.919060  0.109430  0.793330  1.0  -0.1707
  C  C4809  1  0.901690  0.111740  0.780650  1.0  0.2025
  C  C4810  1  0.920380  0.092090  0.808470  1.0  0.3953
  C  C4811  1  0.938230  0.073810  0.832700  1.0  0.2628
  C  C4812  1  0.905700  0.064470  0.824220  1.0  0.4016
  C  C4813  1  0.887250  0.037580  0.845650  1.0  0.1934
  C  C4814  1  0.887290  0.051220  0.828360  1.0  -0.1705
  C  C4815  1  0.869280  0.052100  0.816010  1.0  -0.0402
  C  C4816  1  0.852560  0.039370  0.821410  1.0  -0.1317
  C  C4817  1  0.854150  0.026230  0.838420  1.0  0.1634
  C  C4818  1  0.824960  0.998740  0.880090  1.0  0.2941
  C  C4819  1  0.861360  0.982400  0.917070  1.0  0.1508
  C  C4820  1  0.862140  0.970750  0.934730  1.0  -0.1668
  C  C4821  1  0.877020  0.954810  0.936450  1.0  -0.0535
  C  C4822  1  0.890670  0.951780  0.919890  1.0  -0.1834
  C  C4823  1  0.889230  0.965040  0.902590  1.0  0.1807
  C  C4824  1  0.906960  0.935670  0.920610  1.0  0.4131
  C  C4825  1  0.781220  0.161050  0.350840  1.0  0.197
  C  C4826  1  0.793160  0.178450  0.346330  1.0  -0.1356
  C  C4827  1  0.788060  0.197330  0.356000  1.0  -0.0665
  C  C4828  1  0.771160  0.197600  0.369440  1.0  -0.1577
  C  C4829  1  0.760150  0.179240  0.373100  1.0  0.18
  C  C4830  1  0.851720  0.093020  0.218790  1.0  0.2764
  C  C4831  1  0.835180  0.108630  0.265340  1.0  0.1604
  C  C4832  1  0.817360  0.109440  0.277950  1.0  -0.1374
  C  C4833  1  0.814990  0.125510  0.291770  1.0  -0.0043
  C  C4834  1  0.830940  0.140570  0.293330  1.0  -0.1705
  C  C4835  1  0.848310  0.138260  0.280650  1.0  0.2015
  C  C4836  1  0.829620  0.157910  0.308470  1.0  0.3951
  C  C4837  1  0.811770  0.176190  0.332700  1.0  0.263
  C  C4838  1  0.844300  0.185530  0.324220  1.0  0.4017
  C  C4839  1  0.862750  0.212420  0.345650  1.0  0.1946
  C  C4840  1  0.862710  0.198780  0.328360  1.0  -0.1713
  C  C4841  1  0.880720  0.197900  0.316010  1.0  -0.0416
  C  C4842  1  0.897440  0.210630  0.321410  1.0  -0.13
  C  C4843  1  0.895850  0.223770  0.338420  1.0  0.1653
  C  C4844  1  0.925040  0.251260  0.380090  1.0  0.2958
  C  C4845  1  0.888640  0.267600  0.417070  1.0  0.1513
  C  C4846  1  0.887860  0.279250  0.434730  1.0  -0.1657
  C  C4847  1  0.872980  0.295190  0.436450  1.0  -0.0536
  C  C4848  1  0.859330  0.298220  0.419890  1.0  -0.1834
  C  C4849  1  0.860770  0.284960  0.402590  1.0  0.1811
  C  C4850  1  0.843040  0.314330  0.420610  1.0  0.413
  C  C4851  1  0.781220  0.661050  0.850840  1.0  0.197
  C  C4852  1  0.793160  0.678450  0.846330  1.0  -0.1356
  C  C4853  1  0.788060  0.697330  0.856000  1.0  -0.0665
  C  C4854  1  0.771160  0.697600  0.869440  1.0  -0.1577
  C  C4855  1  0.760150  0.679240  0.873100  1.0  0.18
  C  C4856  1  0.851720  0.593020  0.718790  1.0  0.2764
  C  C4857  1  0.835180  0.608630  0.765340  1.0  0.1604
  C  C4858  1  0.817360  0.609440  0.777950  1.0  -0.1374
  C  C4859  1  0.814990  0.625510  0.791770  1.0  -0.0043
  C  C4860  1  0.830940  0.640570  0.793330  1.0  -0.1705
  C  C4861  1  0.848310  0.638260  0.780650  1.0  0.2015
  C  C4862  1  0.829620  0.657910  0.808470  1.0  0.3951
  C  C4863  1  0.811770  0.676190  0.832700  1.0  0.263
  C  C4864  1  0.844300  0.685530  0.824220  1.0  0.4017
  C  C4865  1  0.862750  0.712420  0.845650  1.0  0.1946
  C  C4866  1  0.862710  0.698780  0.828360  1.0  -0.1713
  C  C4867  1  0.880720  0.697900  0.816010  1.0  -0.0416
  C  C4868  1  0.897440  0.710630  0.821410  1.0  -0.13
  C  C4869  1  0.895850  0.723770  0.838420  1.0  0.1653
  C  C4870  1  0.925040  0.751260  0.880090  1.0  0.2958
  C  C4871  1  0.888640  0.767600  0.917070  1.0  0.1513
  C  C4872  1  0.887860  0.779250  0.934730  1.0  -0.1657
  C  C4873  1  0.872980  0.795190  0.936450  1.0  -0.0536
  C  C4874  1  0.859330  0.798220  0.919890  1.0  -0.1834
  C  C4875  1  0.860770  0.784960  0.902590  1.0  0.1811
  C  C4876  1  0.843040  0.814330  0.920610  1.0  0.413
  C  C4877  1  0.281220  0.161050  0.850840  1.0  0.197
  C  C4878  1  0.293160  0.178450  0.846330  1.0  -0.1356
  C  C4879  1  0.288060  0.197330  0.856000  1.0  -0.0665
  C  C4880  1  0.271160  0.197600  0.869440  1.0  -0.1577
  C  C4881  1  0.260150  0.179240  0.873100  1.0  0.18
  C  C4882  1  0.351720  0.093020  0.718790  1.0  0.2764
  C  C4883  1  0.335180  0.108630  0.765340  1.0  0.1604
  C  C4884  1  0.317360  0.109440  0.777950  1.0  -0.1374
  C  C4885  1  0.314990  0.125510  0.791770  1.0  -0.0043
  C  C4886  1  0.330940  0.140570  0.793330  1.0  -0.1705
  C  C4887  1  0.348310  0.138260  0.780650  1.0  0.2015
  C  C4888  1  0.329620  0.157910  0.808470  1.0  0.3951
  C  C4889  1  0.311770  0.176190  0.832700  1.0  0.263
  C  C4890  1  0.344300  0.185530  0.824220  1.0  0.4017
  C  C4891  1  0.362750  0.212420  0.845650  1.0  0.1946
  C  C4892  1  0.362710  0.198780  0.828360  1.0  -0.1713
  C  C4893  1  0.380720  0.197900  0.816010  1.0  -0.0416
  C  C4894  1  0.397440  0.210630  0.821410  1.0  -0.13
  C  C4895  1  0.395850  0.223770  0.838420  1.0  0.1653
  C  C4896  1  0.425040  0.251260  0.880090  1.0  0.2958
  C  C4897  1  0.388640  0.267600  0.917070  1.0  0.1513
  C  C4898  1  0.387860  0.279250  0.934730  1.0  -0.1657
  C  C4899  1  0.372980  0.295190  0.936450  1.0  -0.0536
  C  C4900  1  0.359330  0.298220  0.919890  1.0  -0.1834
  C  C4901  1  0.360770  0.284960  0.902590  1.0  0.1811
  C  C4902  1  0.343040  0.314330  0.920610  1.0  0.413
  C  C4903  1  0.281220  0.661050  0.350840  1.0  0.197
  C  C4904  1  0.293160  0.678450  0.346330  1.0  -0.1356
  C  C4905  1  0.288060  0.697330  0.356000  1.0  -0.0665
  C  C4906  1  0.271160  0.697600  0.369440  1.0  -0.1577
  C  C4907  1  0.260150  0.679240  0.373100  1.0  0.18
  C  C4908  1  0.351720  0.593020  0.218790  1.0  0.2764
  C  C4909  1  0.335180  0.608630  0.265340  1.0  0.1604
  C  C4910  1  0.317360  0.609440  0.277950  1.0  -0.1374
  C  C4911  1  0.314990  0.625510  0.291770  1.0  -0.0043
  C  C4912  1  0.330940  0.640570  0.293330  1.0  -0.1705
  C  C4913  1  0.348310  0.638260  0.280650  1.0  0.2015
  C  C4914  1  0.329620  0.657910  0.308470  1.0  0.3951
  C  C4915  1  0.311770  0.676190  0.332700  1.0  0.263
  C  C4916  1  0.344300  0.685530  0.324220  1.0  0.4017
  C  C4917  1  0.362750  0.712420  0.345650  1.0  0.1946
  C  C4918  1  0.362710  0.698780  0.328360  1.0  -0.1713
  C  C4919  1  0.380720  0.697900  0.316010  1.0  -0.0416
  C  C4920  1  0.397440  0.710630  0.321410  1.0  -0.13
  C  C4921  1  0.395850  0.723770  0.338420  1.0  0.1653
  C  C4922  1  0.425040  0.751260  0.380090  1.0  0.2958
  C  C4923  1  0.388640  0.767600  0.417070  1.0  0.1513
  C  C4924  1  0.387860  0.779250  0.434730  1.0  -0.1657
  C  C4925  1  0.372980  0.795190  0.436450  1.0  -0.0536
  C  C4926  1  0.359330  0.798220  0.419890  1.0  -0.1834
  C  C4927  1  0.360770  0.784960  0.402590  1.0  0.1811
  C  C4928  1  0.343040  0.814330  0.420610  1.0  0.413
  C  C4929  1  0.161050  0.350840  0.781220  1.0  0.1983
  C  C4930  1  0.178450  0.346330  0.793160  1.0  -0.1365
  C  C4931  1  0.197330  0.356000  0.788060  1.0  -0.0644
  C  C4932  1  0.197600  0.369440  0.771160  1.0  -0.1544
  C  C4933  1  0.179240  0.373100  0.760150  1.0  0.1846
  C  C4934  1  0.093020  0.218790  0.851720  1.0  0.2759
  C  C4935  1  0.108630  0.265340  0.835180  1.0  0.1551
  C  C4936  1  0.109440  0.277950  0.817360  1.0  -0.1371
  C  C4937  1  0.125510  0.291770  0.814990  1.0  -0.0064
  C  C4938  1  0.140570  0.293330  0.830940  1.0  -0.1689
  C  C4939  1  0.138260  0.280650  0.848310  1.0  0.2024
  C  C4940  1  0.157910  0.308470  0.829620  1.0  0.3948
  C  C4941  1  0.176190  0.332700  0.811770  1.0  0.2626
  C  C4942  1  0.185530  0.324220  0.844300  1.0  0.4018
  C  C4943  1  0.212420  0.345650  0.862750  1.0  0.1932
  C  C4944  1  0.198780  0.328360  0.862710  1.0  -0.1749
  C  C4945  1  0.197900  0.316010  0.880720  1.0  -0.0378
  C  C4946  1  0.210630  0.321410  0.897440  1.0  -0.1305
  C  C4947  1  0.223770  0.338420  0.895850  1.0  0.1577
  C  C4948  1  0.251260  0.380090  0.925040  1.0  0.2892
  C  C4949  1  0.267600  0.417070  0.888640  1.0  0.1501
  C  C4950  1  0.279250  0.434730  0.887860  1.0  -0.1695
  C  C4951  1  0.295190  0.436450  0.872980  1.0  -0.0528
  C  C4952  1  0.298220  0.419890  0.859330  1.0  -0.1845
  C  C4953  1  0.284960  0.402590  0.860770  1.0  0.1794
  C  C4954  1  0.314330  0.420610  0.843040  1.0  0.4131
  C  C4955  1  0.161050  0.850840  0.281220  1.0  0.1983
  C  C4956  1  0.178450  0.846330  0.293160  1.0  -0.1365
  C  C4957  1  0.197330  0.856000  0.288060  1.0  -0.0644
  C  C4958  1  0.197600  0.869440  0.271160  1.0  -0.1544
  C  C4959  1  0.179240  0.873100  0.260150  1.0  0.1846
  C  C4960  1  0.093020  0.718790  0.351720  1.0  0.2759
  C  C4961  1  0.108630  0.765340  0.335180  1.0  0.1551
  C  C4962  1  0.109440  0.777950  0.317360  1.0  -0.1371
  C  C4963  1  0.125510  0.791770  0.314990  1.0  -0.0064
  C  C4964  1  0.140570  0.793330  0.330940  1.0  -0.1689
  C  C4965  1  0.138260  0.780650  0.348310  1.0  0.2024
  C  C4966  1  0.157910  0.808470  0.329620  1.0  0.3948
  C  C4967  1  0.176190  0.832700  0.311770  1.0  0.2626
  C  C4968  1  0.185530  0.824220  0.344300  1.0  0.4018
  C  C4969  1  0.212420  0.845650  0.362750  1.0  0.1932
  C  C4970  1  0.198780  0.828360  0.362710  1.0  -0.1749
  C  C4971  1  0.197900  0.816010  0.380720  1.0  -0.0378
  C  C4972  1  0.210630  0.821410  0.397440  1.0  -0.1305
  C  C4973  1  0.223770  0.838420  0.395850  1.0  0.1577
  C  C4974  1  0.251260  0.880090  0.425040  1.0  0.2892
  C  C4975  1  0.267600  0.917070  0.388640  1.0  0.1501
  C  C4976  1  0.279250  0.934730  0.387860  1.0  -0.1695
  C  C4977  1  0.295190  0.936450  0.372980  1.0  -0.0528
  C  C4978  1  0.298220  0.919890  0.359330  1.0  -0.1845
  C  C4979  1  0.284960  0.902590  0.360770  1.0  0.1794
  C  C4980  1  0.314330  0.920610  0.343040  1.0  0.4131
  C  C4981  1  0.661050  0.350840  0.281220  1.0  0.1983
  C  C4982  1  0.678450  0.346330  0.293160  1.0  -0.1365
  C  C4983  1  0.697330  0.356000  0.288060  1.0  -0.0644
  C  C4984  1  0.697600  0.369440  0.271160  1.0  -0.1544
  C  C4985  1  0.679240  0.373100  0.260150  1.0  0.1846
  C  C4986  1  0.593020  0.218790  0.351720  1.0  0.2759
  C  C4987  1  0.608630  0.265340  0.335180  1.0  0.1551
  C  C4988  1  0.609440  0.277950  0.317360  1.0  -0.1371
  C  C4989  1  0.625510  0.291770  0.314990  1.0  -0.0064
  C  C4990  1  0.640570  0.293330  0.330940  1.0  -0.1689
  C  C4991  1  0.638260  0.280650  0.348310  1.0  0.2024
  C  C4992  1  0.657910  0.308470  0.329620  1.0  0.3948
  C  C4993  1  0.676190  0.332700  0.311770  1.0  0.2626
  C  C4994  1  0.685530  0.324220  0.344300  1.0  0.4018
  C  C4995  1  0.712420  0.345650  0.362750  1.0  0.1932
  C  C4996  1  0.698780  0.328360  0.362710  1.0  -0.1749
  C  C4997  1  0.697900  0.316010  0.380720  1.0  -0.0378
  C  C4998  1  0.710630  0.321410  0.397440  1.0  -0.1305
  C  C4999  1  0.723770  0.338420  0.395850  1.0  0.1577
  C  C5000  1  0.751260  0.380090  0.425040  1.0  0.2892
  C  C5001  1  0.767600  0.417070  0.388640  1.0  0.1501
  C  C5002  1  0.779250  0.434730  0.387860  1.0  -0.1695
  C  C5003  1  0.795190  0.436450  0.372980  1.0  -0.0528
  C  C5004  1  0.798220  0.419890  0.359330  1.0  -0.1845
  C  C5005  1  0.784960  0.402590  0.360770  1.0  0.1794
  C  C5006  1  0.814330  0.420610  0.343040  1.0  0.4131
  C  C5007  1  0.661050  0.850840  0.781220  1.0  0.1983
  C  C5008  1  0.678450  0.846330  0.793160  1.0  -0.1365
  C  C5009  1  0.697330  0.856000  0.788060  1.0  -0.0644
  C  C5010  1  0.697600  0.869440  0.771160  1.0  -0.1544
  C  C5011  1  0.679240  0.873100  0.760150  1.0  0.1846
  C  C5012  1  0.593020  0.718790  0.851720  1.0  0.2759
  C  C5013  1  0.608630  0.765340  0.835180  1.0  0.1551
  C  C5014  1  0.609440  0.777950  0.817360  1.0  -0.1371
  C  C5015  1  0.625510  0.791770  0.814990  1.0  -0.0064
  C  C5016  1  0.640570  0.793330  0.830940  1.0  -0.1689
  C  C5017  1  0.638260  0.780650  0.848310  1.0  0.2024
  C  C5018  1  0.657910  0.808470  0.829620  1.0  0.3948
  C  C5019  1  0.676190  0.832700  0.811770  1.0  0.2626
  C  C5020  1  0.685530  0.824220  0.844300  1.0  0.4018
  C  C5021  1  0.712420  0.845650  0.862750  1.0  0.1932
  C  C5022  1  0.698780  0.828360  0.862710  1.0  -0.1749
  C  C5023  1  0.697900  0.816010  0.880720  1.0  -0.0378
  C  C5024  1  0.710630  0.821410  0.897440  1.0  -0.1305
  C  C5025  1  0.723770  0.838420  0.895850  1.0  0.1577
  C  C5026  1  0.751260  0.880090  0.925040  1.0  0.2892
  C  C5027  1  0.767600  0.917070  0.888640  1.0  0.1501
  C  C5028  1  0.779250  0.934730  0.887860  1.0  -0.1695
  C  C5029  1  0.795190  0.936450  0.872980  1.0  -0.0528
  C  C5030  1  0.798220  0.919890  0.859330  1.0  -0.1845
  C  C5031  1  0.784960  0.902590  0.860770  1.0  0.1794
  C  C5032  1  0.814330  0.920610  0.843040  1.0  0.4131
  C  C5033  1  0.588950  0.850840  0.468780  1.0  0.1977
  C  C5034  1  0.571550  0.846330  0.456840  1.0  -0.1358
  C  C5035  1  0.552670  0.856000  0.461940  1.0  -0.0663
  C  C5036  1  0.552400  0.869440  0.478840  1.0  -0.1559
  C  C5037  1  0.570760  0.873100  0.489850  1.0  0.1836
  C  C5038  1  0.656980  0.718790  0.398280  1.0  0.2731
  C  C5039  1  0.641370  0.765340  0.414820  1.0  0.1535
  C  C5040  1  0.640560  0.777950  0.432640  1.0  -0.1335
  C  C5041  1  0.624490  0.791770  0.435010  1.0  -0.0061
  C  C5042  1  0.609430  0.793330  0.419060  1.0  -0.1682
  C  C5043  1  0.611740  0.780650  0.401690  1.0  0.2035
  C  C5044  1  0.592090  0.808470  0.420380  1.0  0.3946
  C  C5045  1  0.573810  0.832700  0.438230  1.0  0.2627
  C  C5046  1  0.564470  0.824220  0.405700  1.0  0.4023
  C  C5047  1  0.537580  0.845650  0.387250  1.0  0.1926
  C  C5048  1  0.551220  0.828360  0.387290  1.0  -0.1754
  C  C5049  1  0.552100  0.816010  0.369280  1.0  -0.0392
  C  C5050  1  0.539370  0.821410  0.352560  1.0  -0.13
  C  C5051  1  0.526230  0.838420  0.354150  1.0  0.159
  C  C5052  1  0.498740  0.880090  0.324960  1.0  0.2905
  C  C5053  1  0.482400  0.917070  0.361360  1.0  0.15
  C  C5054  1  0.470750  0.934730  0.362140  1.0  -0.1689
  C  C5055  1  0.454810  0.936450  0.377020  1.0  -0.0541
  C  C5056  1  0.451780  0.919890  0.390670  1.0  -0.1859
  C  C5057  1  0.465040  0.902590  0.389230  1.0  0.1796
  C  C5058  1  0.435670  0.920610  0.406960  1.0  0.4126
  C  C5059  1  0.588950  0.350840  0.968780  1.0  0.1977
  C  C5060  1  0.571550  0.346330  0.956840  1.0  -0.1358
  C  C5061  1  0.552670  0.356000  0.961940  1.0  -0.0663
  C  C5062  1  0.552400  0.369440  0.978840  1.0  -0.1559
  C  C5063  1  0.570760  0.373100  0.989850  1.0  0.1836
  C  C5064  1  0.656980  0.218790  0.898280  1.0  0.2731
  C  C5065  1  0.641370  0.265340  0.914820  1.0  0.1535
  C  C5066  1  0.640560  0.277950  0.932640  1.0  -0.1335
  C  C5067  1  0.624490  0.291770  0.935010  1.0  -0.0061
  C  C5068  1  0.609430  0.293330  0.919060  1.0  -0.1682
  C  C5069  1  0.611740  0.280650  0.901690  1.0  0.2035
  C  C5070  1  0.592090  0.308470  0.920380  1.0  0.3946
  C  C5071  1  0.573810  0.332700  0.938230  1.0  0.2627
  C  C5072  1  0.564470  0.324220  0.905700  1.0  0.4023
  C  C5073  1  0.537580  0.345650  0.887250  1.0  0.1926
  C  C5074  1  0.551220  0.328360  0.887290  1.0  -0.1754
  C  C5075  1  0.552100  0.316010  0.869280  1.0  -0.0392
  C  C5076  1  0.539370  0.321410  0.852560  1.0  -0.13
  C  C5077  1  0.526230  0.338420  0.854150  1.0  0.159
  C  C5078  1  0.498740  0.380090  0.824960  1.0  0.2905
  C  C5079  1  0.482400  0.417070  0.861360  1.0  0.15
  C  C5080  1  0.470750  0.434730  0.862140  1.0  -0.1689
  C  C5081  1  0.454810  0.436450  0.877020  1.0  -0.0541
  C  C5082  1  0.451780  0.419890  0.890670  1.0  -0.1859
  C  C5083  1  0.465040  0.402590  0.889230  1.0  0.1796
  C  C5084  1  0.435670  0.420610  0.906960  1.0  0.4126
  C  C5085  1  0.088950  0.850840  0.968780  1.0  0.1977
  C  C5086  1  0.071550  0.846330  0.956840  1.0  -0.1358
  C  C5087  1  0.052670  0.856000  0.961940  1.0  -0.0663
  C  C5088  1  0.052400  0.869440  0.978840  1.0  -0.1559
  C  C5089  1  0.070760  0.873100  0.989850  1.0  0.1836
  C  C5090  1  0.156980  0.718790  0.898280  1.0  0.2731
  C  C5091  1  0.141370  0.765340  0.914820  1.0  0.1535
  C  C5092  1  0.140560  0.777950  0.932640  1.0  -0.1335
  C  C5093  1  0.124490  0.791770  0.935010  1.0  -0.0061
  C  C5094  1  0.109430  0.793330  0.919060  1.0  -0.1682
  C  C5095  1  0.111740  0.780650  0.901690  1.0  0.2035
  C  C5096  1  0.092090  0.808470  0.920380  1.0  0.3946
  C  C5097  1  0.073810  0.832700  0.938230  1.0  0.2627
  C  C5098  1  0.064470  0.824220  0.905700  1.0  0.4023
  C  C5099  1  0.037580  0.845650  0.887250  1.0  0.1926
  C  C5100  1  0.051220  0.828360  0.887290  1.0  -0.1754
  C  C5101  1  0.052100  0.816010  0.869280  1.0  -0.0392
  C  C5102  1  0.039370  0.821410  0.852560  1.0  -0.13
  C  C5103  1  0.026230  0.838420  0.854150  1.0  0.159
  C  C5104  1  0.998740  0.880090  0.824960  1.0  0.2905
  C  C5105  1  0.982400  0.917070  0.861360  1.0  0.15
  C  C5106  1  0.970750  0.934730  0.862140  1.0  -0.1689
  C  C5107  1  0.954810  0.936450  0.877020  1.0  -0.0541
  C  C5108  1  0.951780  0.919890  0.890670  1.0  -0.1859
  C  C5109  1  0.965040  0.902590  0.889230  1.0  0.1796
  C  C5110  1  0.935670  0.920610  0.906960  1.0  0.4126
  C  C5111  1  0.088950  0.350840  0.468780  1.0  0.1977
  C  C5112  1  0.071550  0.346330  0.456840  1.0  -0.1358
  C  C5113  1  0.052670  0.356000  0.461940  1.0  -0.0663
  C  C5114  1  0.052400  0.369440  0.478840  1.0  -0.1559
  C  C5115  1  0.070760  0.373100  0.489850  1.0  0.1836
  C  C5116  1  0.156980  0.218790  0.398280  1.0  0.2731
  C  C5117  1  0.141370  0.265340  0.414820  1.0  0.1535
  C  C5118  1  0.140560  0.277950  0.432640  1.0  -0.1335
  C  C5119  1  0.124490  0.291770  0.435010  1.0  -0.0061
  C  C5120  1  0.109430  0.293330  0.419060  1.0  -0.1682
  C  C5121  1  0.111740  0.280650  0.401690  1.0  0.2035
  C  C5122  1  0.092090  0.308470  0.420380  1.0  0.3946
  C  C5123  1  0.073810  0.332700  0.438230  1.0  0.2627
  C  C5124  1  0.064470  0.324220  0.405700  1.0  0.4023
  C  C5125  1  0.037580  0.345650  0.387250  1.0  0.1926
  C  C5126  1  0.051220  0.328360  0.387290  1.0  -0.1754
  C  C5127  1  0.052100  0.316010  0.369280  1.0  -0.0392
  C  C5128  1  0.039370  0.321410  0.352560  1.0  -0.13
  C  C5129  1  0.026230  0.338420  0.354150  1.0  0.159
  C  C5130  1  0.998740  0.380090  0.324960  1.0  0.2905
  C  C5131  1  0.982400  0.417070  0.361360  1.0  0.15
  C  C5132  1  0.970750  0.434730  0.362140  1.0  -0.1689
  C  C5133  1  0.954810  0.436450  0.377020  1.0  -0.0541
  C  C5134  1  0.951780  0.419890  0.390670  1.0  -0.1859
  C  C5135  1  0.965040  0.402590  0.389230  1.0  0.1796
  C  C5136  1  0.935670  0.420610  0.406960  1.0  0.4126
  C  C5137  1  0.088950  0.399160  0.281220  1.0  0.1973
  C  C5138  1  0.071550  0.403670  0.293160  1.0  -0.1352
  C  C5139  1  0.052670  0.394000  0.288060  1.0  -0.0664
  C  C5140  1  0.052400  0.380560  0.271160  1.0  -0.155
  C  C5141  1  0.070760  0.376900  0.260150  1.0  0.1836
  C  C5142  1  0.156980  0.531210  0.351720  1.0  0.2724
  C  C5143  1  0.141370  0.484660  0.335180  1.0  0.1541
  C  C5144  1  0.140560  0.472050  0.317360  1.0  -0.1336
  C  C5145  1  0.124490  0.458230  0.314990  1.0  -0.0068
  C  C5146  1  0.109430  0.456670  0.330940  1.0  -0.1688
  C  C5147  1  0.111740  0.469350  0.348310  1.0  0.2039
  C  C5148  1  0.092090  0.441530  0.329620  1.0  0.3948
  C  C5149  1  0.073810  0.417300  0.311770  1.0  0.2627
  C  C5150  1  0.064470  0.425780  0.344300  1.0  0.4019
  C  C5151  1  0.037580  0.404350  0.362750  1.0  0.1933
  C  C5152  1  0.051220  0.421640  0.362710  1.0  -0.1742
  C  C5153  1  0.052100  0.433990  0.380720  1.0  -0.0374
  C  C5154  1  0.039370  0.428590  0.397440  1.0  -0.13
  C  C5155  1  0.026230  0.411580  0.395850  1.0  0.1584
  C  C5156  1  0.998740  0.369910  0.425040  1.0  0.2907
  C  C5157  1  0.982400  0.332930  0.388640  1.0  0.1496
  C  C5158  1  0.970750  0.315270  0.387860  1.0  -0.1711
  C  C5159  1  0.954810  0.313550  0.372980  1.0  -0.0545
  C  C5160  1  0.951780  0.330110  0.359330  1.0  -0.1864
  C  C5161  1  0.965040  0.347410  0.360770  1.0  0.1787
  C  C5162  1  0.935670  0.329390  0.343040  1.0  0.4126
  C  C5163  1  0.088950  0.899160  0.781220  1.0  0.1973
  C  C5164  1  0.071550  0.903670  0.793160  1.0  -0.1352
  C  C5165  1  0.052670  0.894000  0.788060  1.0  -0.0664
  C  C5166  1  0.052400  0.880560  0.771160  1.0  -0.155
  C  C5167  1  0.070760  0.876900  0.760150  1.0  0.1836
  C  C5168  1  0.156980  0.031210  0.851720  1.0  0.2724
  C  C5169  1  0.141370  0.984660  0.835180  1.0  0.1541
  C  C5170  1  0.140560  0.972050  0.817360  1.0  -0.1336
  C  C5171  1  0.124490  0.958230  0.814990  1.0  -0.0068
  C  C5172  1  0.109430  0.956670  0.830940  1.0  -0.1688
  C  C5173  1  0.111740  0.969350  0.848310  1.0  0.2039
  C  C5174  1  0.092090  0.941530  0.829620  1.0  0.3948
  C  C5175  1  0.073810  0.917300  0.811770  1.0  0.2648
  C  C5176  1  0.064470  0.925780  0.844300  1.0  0.4019
  C  C5177  1  0.037580  0.904350  0.862750  1.0  0.1933
  C  C5178  1  0.051220  0.921640  0.862710  1.0  -0.1742
  C  C5179  1  0.052100  0.933990  0.880720  1.0  -0.0374
  C  C5180  1  0.039370  0.928590  0.897440  1.0  -0.13
  C  C5181  1  0.026230  0.911580  0.895850  1.0  0.1584
  C  C5182  1  0.998740  0.869910  0.925040  1.0  0.2907
  C  C5183  1  0.982400  0.832930  0.888640  1.0  0.1496
  C  C5184  1  0.970750  0.815270  0.887860  1.0  -0.1711
  C  C5185  1  0.954810  0.813550  0.872980  1.0  -0.0545
  C  C5186  1  0.951780  0.830110  0.859330  1.0  -0.1864
  C  C5187  1  0.965040  0.847410  0.860770  1.0  0.1787
  C  C5188  1  0.935670  0.829390  0.843040  1.0  0.4126
  C  C5189  1  0.588950  0.399160  0.781220  1.0  0.1973
  C  C5190  1  0.571550  0.403670  0.793160  1.0  -0.1352
  C  C5191  1  0.552670  0.394000  0.788060  1.0  -0.0664
  C  C5192  1  0.552400  0.380560  0.771160  1.0  -0.155
  C  C5193  1  0.570760  0.376900  0.760150  1.0  0.1836
  C  C5194  1  0.656980  0.531210  0.851720  1.0  0.2724
  C  C5195  1  0.641370  0.484660  0.835180  1.0  0.1541
  C  C5196  1  0.640560  0.472050  0.817360  1.0  -0.1336
  C  C5197  1  0.624490  0.458230  0.814990  1.0  -0.0068
  C  C5198  1  0.609430  0.456670  0.830940  1.0  -0.1688
  C  C5199  1  0.611740  0.469350  0.848310  1.0  0.2039
  C  C5200  1  0.592090  0.441530  0.829620  1.0  0.3948
  C  C5201  1  0.573810  0.417300  0.811770  1.0  0.2627
  C  C5202  1  0.564470  0.425780  0.844300  1.0  0.4019
  C  C5203  1  0.537580  0.404350  0.862750  1.0  0.1933
  C  C5204  1  0.551220  0.421640  0.862710  1.0  -0.1742
  C  C5205  1  0.552100  0.433990  0.880720  1.0  -0.0374
  C  C5206  1  0.539370  0.428590  0.897440  1.0  -0.13
  C  C5207  1  0.526230  0.411580  0.895850  1.0  0.1584
  C  C5208  1  0.498740  0.369910  0.925040  1.0  0.2907
  C  C5209  1  0.482400  0.332930  0.888640  1.0  0.1496
  C  C5210  1  0.470750  0.315270  0.887860  1.0  -0.1711
  C  C5211  1  0.454810  0.313550  0.872980  1.0  -0.0545
  C  C5212  1  0.451780  0.330110  0.859330  1.0  -0.1864
  C  C5213  1  0.465040  0.347410  0.860770  1.0  0.1787
  C  C5214  1  0.435670  0.329390  0.843040  1.0  0.4126
  C  C5215  1  0.588950  0.899160  0.281220  1.0  0.1973
  C  C5216  1  0.571550  0.903670  0.293160  1.0  -0.1352
  C  C5217  1  0.552670  0.894000  0.288060  1.0  -0.0664
  C  C5218  1  0.552400  0.880560  0.271160  1.0  -0.155
  C  C5219  1  0.570760  0.876900  0.260150  1.0  0.1836
  C  C5220  1  0.656980  0.031210  0.351720  1.0  0.2724
  C  C5221  1  0.641370  0.984660  0.335180  1.0  0.1541
  C  C5222  1  0.640560  0.972050  0.317360  1.0  -0.1336
  C  C5223  1  0.624490  0.958230  0.314990  1.0  -0.0068
  C  C5224  1  0.609430  0.956670  0.330940  1.0  -0.1688
  C  C5225  1  0.611740  0.969350  0.348310  1.0  0.2039
  C  C5226  1  0.592090  0.941530  0.329620  1.0  0.3948
  C  C5227  1  0.573810  0.917300  0.311770  1.0  0.2648
  C  C5228  1  0.564470  0.925780  0.344300  1.0  0.4019
  C  C5229  1  0.537580  0.904350  0.362750  1.0  0.1933
  C  C5230  1  0.551220  0.921640  0.362710  1.0  -0.1742
  C  C5231  1  0.552100  0.933990  0.380720  1.0  -0.0374
  C  C5232  1  0.539370  0.928590  0.397440  1.0  -0.13
  C  C5233  1  0.526230  0.911580  0.395850  1.0  0.1584
  C  C5234  1  0.498740  0.869910  0.425040  1.0  0.2907
  C  C5235  1  0.482400  0.832930  0.388640  1.0  0.1496
  C  C5236  1  0.470750  0.815270  0.387860  1.0  -0.1711
  C  C5237  1  0.454810  0.813550  0.372980  1.0  -0.0545
  C  C5238  1  0.451780  0.830110  0.359330  1.0  -0.1864
  C  C5239  1  0.465040  0.847410  0.360770  1.0  0.1787
  C  C5240  1  0.435670  0.829390  0.343040  1.0  0.4126
  C  C5241  1  0.661050  0.899160  0.968780  1.0  0.1978
  C  C5242  1  0.678450  0.903670  0.956840  1.0  -0.1359
  C  C5243  1  0.697330  0.894000  0.961940  1.0  -0.0645
  C  C5244  1  0.697600  0.880560  0.978840  1.0  -0.1536
  C  C5245  1  0.679240  0.876900  0.989850  1.0  0.1846
  C  C5246  1  0.593020  0.031210  0.898280  1.0  0.2738
  C  C5247  1  0.608630  0.984660  0.914820  1.0  0.1527
  C  C5248  1  0.609440  0.972050  0.932640  1.0  -0.1377
  C  C5249  1  0.625510  0.958230  0.935010  1.0  -0.0052
  C  C5250  1  0.640570  0.956670  0.919060  1.0  -0.1687
  C  C5251  1  0.638260  0.969350  0.901690  1.0  0.2023
  C  C5252  1  0.657910  0.941530  0.920380  1.0  0.3948
  C  C5253  1  0.676190  0.917300  0.938230  1.0  0.2642
  C  C5254  1  0.685530  0.925780  0.905700  1.0  0.4022
  C  C5255  1  0.712420  0.904350  0.887250  1.0  0.1927
  C  C5256  1  0.698780  0.921640  0.887290  1.0  -0.1739
  C  C5257  1  0.697900  0.933990  0.869280  1.0  -0.0385
  C  C5258  1  0.710630  0.928590  0.852560  1.0  -0.1302
  C  C5259  1  0.723770  0.911580  0.854150  1.0  0.1592
  C  C5260  1  0.751260  0.869910  0.824960  1.0  0.2893
  C  C5261  1  0.767600  0.832930  0.861360  1.0  0.151
  C  C5262  1  0.779250  0.815270  0.862140  1.0  -0.1705
  C  C5263  1  0.795190  0.813550  0.877020  1.0  -0.0541
  C  C5264  1  0.798220  0.830110  0.890670  1.0  -0.1856
  C  C5265  1  0.784960  0.847410  0.889230  1.0  0.1794
  C  C5266  1  0.814330  0.829390  0.906960  1.0  0.4127
  C  C5267  1  0.661050  0.399160  0.468780  1.0  0.1978
  C  C5268  1  0.678450  0.403670  0.456840  1.0  -0.1359
  C  C5269  1  0.697330  0.394000  0.461940  1.0  -0.0645
  C  C5270  1  0.697600  0.380560  0.478840  1.0  -0.1536
  C  C5271  1  0.679240  0.376900  0.489850  1.0  0.1846
  C  C5272  1  0.593020  0.531210  0.398280  1.0  0.2738
  C  C5273  1  0.608630  0.484660  0.414820  1.0  0.1527
  C  C5274  1  0.609440  0.472050  0.432640  1.0  -0.1377
  C  C5275  1  0.625510  0.458230  0.435010  1.0  -0.0052
  C  C5276  1  0.640570  0.456670  0.419060  1.0  -0.1687
  C  C5277  1  0.638260  0.469350  0.401690  1.0  0.2023
  C  C5278  1  0.657910  0.441530  0.420380  1.0  0.3948
  C  C5279  1  0.676190  0.417300  0.438230  1.0  0.2622
  C  C5280  1  0.685530  0.425780  0.405700  1.0  0.4022
  C  C5281  1  0.712420  0.404350  0.387250  1.0  0.1927
  C  C5282  1  0.698780  0.421640  0.387290  1.0  -0.1739
  C  C5283  1  0.697900  0.433990  0.369280  1.0  -0.0385
  C  C5284  1  0.710630  0.428590  0.352560  1.0  -0.1302
  C  C5285  1  0.723770  0.411580  0.354150  1.0  0.1592
  C  C5286  1  0.751260  0.369910  0.324960  1.0  0.2893
  C  C5287  1  0.767600  0.332930  0.361360  1.0  0.151
  C  C5288  1  0.779250  0.315270  0.362140  1.0  -0.1705
  C  C5289  1  0.795190  0.313550  0.377020  1.0  -0.0541
  C  C5290  1  0.798220  0.330110  0.390670  1.0  -0.1856
  C  C5291  1  0.784960  0.347410  0.389230  1.0  0.1794
  C  C5292  1  0.814330  0.329390  0.406960  1.0  0.4127
  C  C5293  1  0.161050  0.899160  0.468780  1.0  0.1978
  C  C5294  1  0.178450  0.903670  0.456840  1.0  -0.1359
  C  C5295  1  0.197330  0.894000  0.461940  1.0  -0.0645
  C  C5296  1  0.197600  0.880560  0.478840  1.0  -0.1536
  C  C5297  1  0.179240  0.876900  0.489850  1.0  0.1846
  C  C5298  1  0.093020  0.031210  0.398280  1.0  0.2738
  C  C5299  1  0.108630  0.984660  0.414820  1.0  0.1527
  C  C5300  1  0.109440  0.972050  0.432640  1.0  -0.1377
  C  C5301  1  0.125510  0.958230  0.435010  1.0  -0.0052
  C  C5302  1  0.140570  0.956670  0.419060  1.0  -0.1687
  C  C5303  1  0.138260  0.969350  0.401690  1.0  0.2023
  C  C5304  1  0.157910  0.941530  0.420380  1.0  0.3948
  C  C5305  1  0.176190  0.917300  0.438230  1.0  0.2642
  C  C5306  1  0.185530  0.925780  0.405700  1.0  0.4022
  C  C5307  1  0.212420  0.904350  0.387250  1.0  0.1927
  C  C5308  1  0.198780  0.921640  0.387290  1.0  -0.1739
  C  C5309  1  0.197900  0.933990  0.369280  1.0  -0.0385
  C  C5310  1  0.210630  0.928590  0.352560  1.0  -0.1302
  C  C5311  1  0.223770  0.911580  0.354150  1.0  0.1592
  C  C5312  1  0.251260  0.869910  0.324960  1.0  0.2893
  C  C5313  1  0.267600  0.832930  0.361360  1.0  0.151
  C  C5314  1  0.279250  0.815270  0.362140  1.0  -0.1705
  C  C5315  1  0.295190  0.813550  0.377020  1.0  -0.0541
  C  C5316  1  0.298220  0.830110  0.390670  1.0  -0.1856
  C  C5317  1  0.284960  0.847410  0.389230  1.0  0.1794
  C  C5318  1  0.314330  0.829390  0.406960  1.0  0.4127
  C  C5319  1  0.161050  0.399160  0.968780  1.0  0.1978
  C  C5320  1  0.178450  0.403670  0.956840  1.0  -0.1359
  C  C5321  1  0.197330  0.394000  0.961940  1.0  -0.0645
  C  C5322  1  0.197600  0.380560  0.978840  1.0  -0.1536
  C  C5323  1  0.179240  0.376900  0.989850  1.0  0.1846
  C  C5324  1  0.093020  0.531210  0.898280  1.0  0.2738
  C  C5325  1  0.108630  0.484660  0.914820  1.0  0.1527
  C  C5326  1  0.109440  0.472050  0.932640  1.0  -0.1377
  C  C5327  1  0.125510  0.458230  0.935010  1.0  -0.0052
  C  C5328  1  0.140570  0.456670  0.919060  1.0  -0.1687
  C  C5329  1  0.138260  0.469350  0.901690  1.0  0.2023
  C  C5330  1  0.157910  0.441530  0.920380  1.0  0.3948
  C  C5331  1  0.176190  0.417300  0.938230  1.0  0.2622
  C  C5332  1  0.185530  0.425780  0.905700  1.0  0.4022
  C  C5333  1  0.212420  0.404350  0.887250  1.0  0.1927
  C  C5334  1  0.198780  0.421640  0.887290  1.0  -0.1739
  C  C5335  1  0.197900  0.433990  0.869280  1.0  -0.0385
  C  C5336  1  0.210630  0.428590  0.852560  1.0  -0.1302
  C  C5337  1  0.223770  0.411580  0.854150  1.0  0.1592
  C  C5338  1  0.251260  0.369910  0.824960  1.0  0.2893
  C  C5339  1  0.267600  0.332930  0.861360  1.0  0.151
  C  C5340  1  0.279250  0.315270  0.862140  1.0  -0.1705
  C  C5341  1  0.295190  0.313550  0.877020  1.0  -0.0541
  C  C5342  1  0.298220  0.330110  0.890670  1.0  -0.1856
  C  C5343  1  0.284960  0.347410  0.889230  1.0  0.1794
  C  C5344  1  0.314330  0.329390  0.906960  1.0  0.4127
  C  C5345  1  0.850840  0.468780  0.588950  1.0  0.1994
  C  C5346  1  0.846330  0.456840  0.571550  1.0  -0.1354
  C  C5347  1  0.856000  0.461940  0.552670  1.0  -0.0664
  C  C5348  1  0.869440  0.478840  0.552400  1.0  -0.1545
  C  C5349  1  0.873100  0.489850  0.570760  1.0  0.1778
  C  C5350  1  0.718790  0.398280  0.656980  1.0  0.2771
  C  C5351  1  0.765340  0.414820  0.641370  1.0  0.1552
  C  C5352  1  0.777950  0.432640  0.640560  1.0  -0.1386
  C  C5353  1  0.791770  0.435010  0.624490  1.0  -0.0048
  C  C5354  1  0.793330  0.419060  0.609430  1.0  -0.171
  C  C5355  1  0.780650  0.401690  0.611740  1.0  0.2
  C  C5356  1  0.808470  0.420380  0.592090  1.0  0.3947
  C  C5357  1  0.832700  0.438230  0.573810  1.0  0.2629
  C  C5358  1  0.824220  0.405700  0.564470  1.0  0.402
  C  C5359  1  0.845650  0.387250  0.537580  1.0  0.1915
  C  C5360  1  0.828360  0.387290  0.551220  1.0  -0.1716
  C  C5361  1  0.816010  0.369280  0.552100  1.0  -0.0401
  C  C5362  1  0.821410  0.352560  0.539370  1.0  -0.1328
  C  C5363  1  0.838420  0.354150  0.526230  1.0  0.1612
  C  C5364  1  0.880090  0.324960  0.498740  1.0  0.292
  C  C5365  1  0.917070  0.361360  0.482400  1.0  0.1519
  C  C5366  1  0.934730  0.362140  0.470750  1.0  -0.1695
  C  C5367  1  0.936450  0.377020  0.454810  1.0  -0.0523
  C  C5368  1  0.919890  0.390670  0.451780  1.0  -0.1851
  C  C5369  1  0.902590  0.389230  0.465040  1.0  0.1791
  C  C5370  1  0.920610  0.406960  0.435670  1.0  0.4135
  C  C5371  1  0.850840  0.968780  0.088950  1.0  0.1994
  C  C5372  1  0.846330  0.956840  0.071550  1.0  -0.1354
  C  C5373  1  0.856000  0.961940  0.052670  1.0  -0.0664
  C  C5374  1  0.869440  0.978840  0.052400  1.0  -0.1545
  C  C5375  1  0.873100  0.989850  0.070760  1.0  0.1778
  C  C5376  1  0.718790  0.898280  0.156980  1.0  0.2771
  C  C5377  1  0.765340  0.914820  0.141370  1.0  0.1552
  C  C5378  1  0.777950  0.932640  0.140560  1.0  -0.1386
  C  C5379  1  0.791770  0.935010  0.124490  1.0  -0.0048
  C  C5380  1  0.793330  0.919060  0.109430  1.0  -0.171
  C  C5381  1  0.780650  0.901690  0.111740  1.0  0.2
  C  C5382  1  0.808470  0.920380  0.092090  1.0  0.3947
  C  C5383  1  0.832700  0.938230  0.073810  1.0  0.2629
  C  C5384  1  0.824220  0.905700  0.064470  1.0  0.402
  C  C5385  1  0.845650  0.887250  0.037580  1.0  0.1915
  C  C5386  1  0.828360  0.887290  0.051220  1.0  -0.1716
  C  C5387  1  0.816010  0.869280  0.052100  1.0  -0.0401
  C  C5388  1  0.821410  0.852560  0.039370  1.0  -0.1328
  C  C5389  1  0.838420  0.854150  0.026230  1.0  0.1612
  C  C5390  1  0.880090  0.824960  0.998740  1.0  0.292
  C  C5391  1  0.917070  0.861360  0.982400  1.0  0.1519
  C  C5392  1  0.934730  0.862140  0.970750  1.0  -0.1695
  C  C5393  1  0.936450  0.877020  0.954810  1.0  -0.0523
  C  C5394  1  0.919890  0.890670  0.951780  1.0  -0.1851
  C  C5395  1  0.902590  0.889230  0.965040  1.0  0.1791
  C  C5396  1  0.920610  0.906960  0.935670  1.0  0.4135
  C  C5397  1  0.350840  0.468780  0.088950  1.0  0.1994
  C  C5398  1  0.346330  0.456840  0.071550  1.0  -0.1354
  C  C5399  1  0.356000  0.461940  0.052670  1.0  -0.0664
  C  C5400  1  0.369440  0.478840  0.052400  1.0  -0.1545
  C  C5401  1  0.373100  0.489850  0.070760  1.0  0.1778
  C  C5402  1  0.218790  0.398280  0.156980  1.0  0.2771
  C  C5403  1  0.265340  0.414820  0.141370  1.0  0.1552
  C  C5404  1  0.277950  0.432640  0.140560  1.0  -0.1386
  C  C5405  1  0.291770  0.435010  0.124490  1.0  -0.0048
  C  C5406  1  0.293330  0.419060  0.109430  1.0  -0.171
  C  C5407  1  0.280650  0.401690  0.111740  1.0  0.2
  C  C5408  1  0.308470  0.420380  0.092090  1.0  0.3947
  C  C5409  1  0.332700  0.438230  0.073810  1.0  0.2629
  C  C5410  1  0.324220  0.405700  0.064470  1.0  0.402
  C  C5411  1  0.345650  0.387250  0.037580  1.0  0.1915
  C  C5412  1  0.328360  0.387290  0.051220  1.0  -0.1716
  C  C5413  1  0.316010  0.369280  0.052100  1.0  -0.0401
  C  C5414  1  0.321410  0.352560  0.039370  1.0  -0.1328
  C  C5415  1  0.338420  0.354150  0.026230  1.0  0.1612
  C  C5416  1  0.380090  0.324960  0.998740  1.0  0.292
  C  C5417  1  0.417070  0.361360  0.982400  1.0  0.1519
  C  C5418  1  0.434730  0.362140  0.970750  1.0  -0.1695
  C  C5419  1  0.436450  0.377020  0.954810  1.0  -0.0523
  C  C5420  1  0.419890  0.390670  0.951780  1.0  -0.1851
  C  C5421  1  0.402590  0.389230  0.965040  1.0  0.1791
  C  C5422  1  0.420610  0.406960  0.935670  1.0  0.4135
  C  C5423  1  0.350840  0.968780  0.588950  1.0  0.1994
  C  C5424  1  0.346330  0.956840  0.571550  1.0  -0.1354
  C  C5425  1  0.356000  0.961940  0.552670  1.0  -0.0664
  C  C5426  1  0.369440  0.978840  0.552400  1.0  -0.1545
  C  C5427  1  0.373100  0.989850  0.570760  1.0  0.1778
  C  C5428  1  0.218790  0.898280  0.656980  1.0  0.2771
  C  C5429  1  0.265340  0.914820  0.641370  1.0  0.1552
  C  C5430  1  0.277950  0.932640  0.640560  1.0  -0.1386
  C  C5431  1  0.291770  0.935010  0.624490  1.0  -0.0048
  C  C5432  1  0.293330  0.919060  0.609430  1.0  -0.171
  C  C5433  1  0.280650  0.901690  0.611740  1.0  0.2
  C  C5434  1  0.308470  0.920380  0.592090  1.0  0.3947
  C  C5435  1  0.332700  0.938230  0.573810  1.0  0.2629
  C  C5436  1  0.324220  0.905700  0.564470  1.0  0.402
  C  C5437  1  0.345650  0.887250  0.537580  1.0  0.1915
  C  C5438  1  0.328360  0.887290  0.551220  1.0  -0.1716
  C  C5439  1  0.316010  0.869280  0.552100  1.0  -0.0401
  C  C5440  1  0.321410  0.852560  0.539370  1.0  -0.1328
  C  C5441  1  0.338420  0.854150  0.526230  1.0  0.1612
  C  C5442  1  0.380090  0.824960  0.498740  1.0  0.292
  C  C5443  1  0.417070  0.861360  0.482400  1.0  0.1519
  C  C5444  1  0.434730  0.862140  0.470750  1.0  -0.1695
  C  C5445  1  0.436450  0.877020  0.454810  1.0  -0.0523
  C  C5446  1  0.419890  0.890670  0.451780  1.0  -0.1851
  C  C5447  1  0.402590  0.889230  0.465040  1.0  0.1791
  C  C5448  1  0.420610  0.906960  0.435670  1.0  0.4135
  C  C5449  1  0.350840  0.781220  0.161050  1.0  0.1996
  C  C5450  1  0.346330  0.793160  0.178450  1.0  -0.1338
  C  C5451  1  0.356000  0.788060  0.197330  1.0  -0.0667
  C  C5452  1  0.369440  0.771160  0.197600  1.0  -0.1541
  C  C5453  1  0.373100  0.760150  0.179240  1.0  0.1787
  C  C5454  1  0.218790  0.851720  0.093020  1.0  0.2784
  C  C5455  1  0.265340  0.835180  0.108630  1.0  0.1567
  C  C5456  1  0.277950  0.817360  0.109440  1.0  -0.1383
  C  C5457  1  0.291770  0.814990  0.125510  1.0  -0.0046
  C  C5458  1  0.293330  0.830940  0.140570  1.0  -0.1711
  C  C5459  1  0.280650  0.848310  0.138260  1.0  0.2007
  C  C5460  1  0.308470  0.829620  0.157910  1.0  0.3946
  C  C5461  1  0.332700  0.811770  0.176190  1.0  0.2622
  C  C5462  1  0.324220  0.844300  0.185530  1.0  0.4021
  C  C5463  1  0.345650  0.862750  0.212420  1.0  0.1926
  C  C5464  1  0.328360  0.862710  0.198780  1.0  -0.1742
  C  C5465  1  0.316010  0.880720  0.197900  1.0  -0.0401
  C  C5466  1  0.321410  0.897440  0.210630  1.0  -0.1322
  C  C5467  1  0.338420  0.895850  0.223770  1.0  0.1604
  C  C5468  1  0.380090  0.925040  0.251260  1.0  0.2913
  C  C5469  1  0.417070  0.888640  0.267600  1.0  0.1519
  C  C5470  1  0.434730  0.887860  0.279250  1.0  -0.1686
  C  C5471  1  0.436450  0.872980  0.295190  1.0  -0.0515
  C  C5472  1  0.419890  0.859330  0.298220  1.0  -0.1851
  C  C5473  1  0.402590  0.860770  0.284960  1.0  0.1795
  C  C5474  1  0.420610  0.843040  0.314330  1.0  0.4133
  C  C5475  1  0.350840  0.281220  0.661050  1.0  0.1996
  C  C5476  1  0.346330  0.293160  0.678450  1.0  -0.1338
  C  C5477  1  0.356000  0.288060  0.697330  1.0  -0.0667
  C  C5478  1  0.369440  0.271160  0.697600  1.0  -0.1541
  C  C5479  1  0.373100  0.260150  0.679240  1.0  0.1787
  C  C5480  1  0.218790  0.351720  0.593020  1.0  0.2784
  C  C5481  1  0.265340  0.335180  0.608630  1.0  0.1567
  C  C5482  1  0.277950  0.317360  0.609440  1.0  -0.1383
  C  C5483  1  0.291770  0.314990  0.625510  1.0  -0.0046
  C  C5484  1  0.293330  0.330940  0.640570  1.0  -0.1711
  C  C5485  1  0.280650  0.348310  0.638260  1.0  0.2007
  C  C5486  1  0.308470  0.329620  0.657910  1.0  0.3946
  C  C5487  1  0.332700  0.311770  0.676190  1.0  0.2622
  C  C5488  1  0.324220  0.344300  0.685530  1.0  0.4021
  C  C5489  1  0.345650  0.362750  0.712420  1.0  0.1926
  C  C5490  1  0.328360  0.362710  0.698780  1.0  -0.1742
  C  C5491  1  0.316010  0.380720  0.697900  1.0  -0.0401
  C  C5492  1  0.321410  0.397440  0.710630  1.0  -0.1322
  C  C5493  1  0.338420  0.395850  0.723770  1.0  0.1604
  C  C5494  1  0.380090  0.425040  0.751260  1.0  0.2913
  C  C5495  1  0.417070  0.388640  0.767600  1.0  0.1519
  C  C5496  1  0.434730  0.387860  0.779250  1.0  -0.1686
  C  C5497  1  0.436450  0.372980  0.795190  1.0  -0.0515
  C  C5498  1  0.419890  0.359330  0.798220  1.0  -0.1851
  C  C5499  1  0.402590  0.360770  0.784960  1.0  0.1795
  C  C5500  1  0.420610  0.343040  0.814330  1.0  0.4133
  C  C5501  1  0.850840  0.781220  0.661050  1.0  0.1996
  C  C5502  1  0.846330  0.793160  0.678450  1.0  -0.1338
  C  C5503  1  0.856000  0.788060  0.697330  1.0  -0.0667
  C  C5504  1  0.869440  0.771160  0.697600  1.0  -0.1541
  C  C5505  1  0.873100  0.760150  0.679240  1.0  0.1787
  C  C5506  1  0.718790  0.851720  0.593020  1.0  0.2784
  C  C5507  1  0.765340  0.835180  0.608630  1.0  0.1567
  C  C5508  1  0.777950  0.817360  0.609440  1.0  -0.1383
  C  C5509  1  0.791770  0.814990  0.625510  1.0  -0.0046
  C  C5510  1  0.793330  0.830940  0.640570  1.0  -0.1711
  C  C5511  1  0.780650  0.848310  0.638260  1.0  0.2007
  C  C5512  1  0.808470  0.829620  0.657910  1.0  0.3946
  C  C5513  1  0.832700  0.811770  0.676190  1.0  0.2622
  C  C5514  1  0.824220  0.844300  0.685530  1.0  0.4021
  C  C5515  1  0.845650  0.862750  0.712420  1.0  0.1926
  C  C5516  1  0.828360  0.862710  0.698780  1.0  -0.1742
  C  C5517  1  0.816010  0.880720  0.697900  1.0  -0.0401
  C  C5518  1  0.821410  0.897440  0.710630  1.0  -0.1322
  C  C5519  1  0.838420  0.895850  0.723770  1.0  0.1604
  C  C5520  1  0.880090  0.925040  0.751260  1.0  0.2913
  C  C5521  1  0.917070  0.888640  0.767600  1.0  0.1519
  C  C5522  1  0.934730  0.887860  0.779250  1.0  -0.1686
  C  C5523  1  0.936450  0.872980  0.795190  1.0  -0.0515
  C  C5524  1  0.919890  0.859330  0.798220  1.0  -0.1851
  C  C5525  1  0.902590  0.860770  0.784960  1.0  0.1795
  C  C5526  1  0.920610  0.843040  0.814330  1.0  0.4133
  C  C5527  1  0.850840  0.281220  0.161050  1.0  0.1996
  C  C5528  1  0.846330  0.293160  0.178450  1.0  -0.1338
  C  C5529  1  0.856000  0.288060  0.197330  1.0  -0.0667
  C  C5530  1  0.869440  0.271160  0.197600  1.0  -0.1541
  C  C5531  1  0.873100  0.260150  0.179240  1.0  0.1787
  C  C5532  1  0.718790  0.351720  0.093020  1.0  0.2784
  C  C5533  1  0.765340  0.335180  0.108630  1.0  0.1567
  C  C5534  1  0.777950  0.317360  0.109440  1.0  -0.1383
  C  C5535  1  0.791770  0.314990  0.125510  1.0  -0.0046
  C  C5536  1  0.793330  0.330940  0.140570  1.0  -0.1711
  C  C5537  1  0.780650  0.348310  0.138260  1.0  0.2007
  C  C5538  1  0.808470  0.329620  0.157910  1.0  0.3946
  C  C5539  1  0.832700  0.311770  0.176190  1.0  0.2622
  C  C5540  1  0.824220  0.344300  0.185530  1.0  0.4021
  C  C5541  1  0.845650  0.362750  0.212420  1.0  0.1926
  C  C5542  1  0.828360  0.362710  0.198780  1.0  -0.1742
  C  C5543  1  0.816010  0.380720  0.197900  1.0  -0.0401
  C  C5544  1  0.821410  0.397440  0.210630  1.0  -0.1322
  C  C5545  1  0.838420  0.395850  0.223770  1.0  0.1604
  C  C5546  1  0.880090  0.425040  0.251260  1.0  0.2913
  C  C5547  1  0.917070  0.388640  0.267600  1.0  0.1519
  C  C5548  1  0.934730  0.387860  0.279250  1.0  -0.1686
  C  C5549  1  0.936450  0.372980  0.295190  1.0  -0.0515
  C  C5550  1  0.919890  0.359330  0.298220  1.0  -0.1851
  C  C5551  1  0.902590  0.360770  0.284960  1.0  0.1795
  C  C5552  1  0.920610  0.343040  0.314330  1.0  0.4133
  C  C5553  1  0.899160  0.968780  0.661050  1.0  0.1999
  C  C5554  1  0.903670  0.956840  0.678450  1.0  -0.1348
  C  C5555  1  0.894000  0.961940  0.697330  1.0  -0.0661
  C  C5556  1  0.880560  0.978840  0.697600  1.0  -0.1562
  C  C5557  1  0.876900  0.989850  0.679240  1.0  0.178
  C  C5558  1  0.031210  0.898280  0.593020  1.0  0.2766
  C  C5559  1  0.984660  0.914820  0.608630  1.0  0.1555
  C  C5560  1  0.972050  0.932640  0.609440  1.0  -0.1382
  C  C5561  1  0.958230  0.935010  0.625510  1.0  -0.0051
  C  C5562  1  0.956670  0.919060  0.640570  1.0  -0.1702
  C  C5563  1  0.969350  0.901690  0.638260  1.0  0.2007
  C  C5564  1  0.941530  0.920380  0.657910  1.0  0.3944
  C  C5565  1  0.917300  0.938230  0.676190  1.0  0.265
  C  C5566  1  0.925780  0.905700  0.685530  1.0  0.4027
  C  C5567  1  0.904350  0.887250  0.712420  1.0  0.1925
  C  C5568  1  0.921640  0.887290  0.698780  1.0  -0.1735
  C  C5569  1  0.933990  0.869280  0.697900  1.0  -0.0403
  C  C5570  1  0.928590  0.852560  0.710630  1.0  -0.1312
  C  C5571  1  0.911580  0.854150  0.723770  1.0  0.1615
  C  C5572  1  0.869910  0.824960  0.751260  1.0  0.2921
  C  C5573  1  0.832930  0.861360  0.767600  1.0  0.1509
  C  C5574  1  0.815270  0.862140  0.779250  1.0  -0.1687
  C  C5575  1  0.813550  0.877020  0.795190  1.0  -0.0543
  C  C5576  1  0.830110  0.890670  0.798220  1.0  -0.1853
  C  C5577  1  0.847410  0.889230  0.784960  1.0  0.1785
  C  C5578  1  0.829390  0.906960  0.814330  1.0  0.413
  C  C5579  1  0.899160  0.468780  0.161050  1.0  0.1999
  C  C5580  1  0.903670  0.456840  0.178450  1.0  -0.1348
  C  C5581  1  0.894000  0.461940  0.197330  1.0  -0.0661
  C  C5582  1  0.880560  0.478840  0.197600  1.0  -0.1562
  C  C5583  1  0.876900  0.489850  0.179240  1.0  0.178
  C  C5584  1  0.031210  0.398280  0.093020  1.0  0.2766
  C  C5585  1  0.984660  0.414820  0.108630  1.0  0.1555
  C  C5586  1  0.972050  0.432640  0.109440  1.0  -0.1382
  C  C5587  1  0.958230  0.435010  0.125510  1.0  -0.0051
  C  C5588  1  0.956670  0.419060  0.140570  1.0  -0.1702
  C  C5589  1  0.969350  0.401690  0.138260  1.0  0.2007
  C  C5590  1  0.941530  0.420380  0.157910  1.0  0.3944
  C  C5591  1  0.917300  0.438230  0.176190  1.0  0.265
  C  C5592  1  0.925780  0.405700  0.185530  1.0  0.4027
  C  C5593  1  0.904350  0.387250  0.212420  1.0  0.1925
  C  C5594  1  0.921640  0.387290  0.198780  1.0  -0.1735
  C  C5595  1  0.933990  0.369280  0.197900  1.0  -0.0403
  C  C5596  1  0.928590  0.352560  0.210630  1.0  -0.1312
  C  C5597  1  0.911580  0.354150  0.223770  1.0  0.1615
  C  C5598  1  0.869910  0.324960  0.251260  1.0  0.2921
  C  C5599  1  0.832930  0.361360  0.267600  1.0  0.1509
  C  C5600  1  0.815270  0.362140  0.279250  1.0  -0.1687
  C  C5601  1  0.813550  0.377020  0.295190  1.0  -0.0543
  C  C5602  1  0.830110  0.390670  0.298220  1.0  -0.1853
  C  C5603  1  0.847410  0.389230  0.284960  1.0  0.1785
  C  C5604  1  0.829390  0.406960  0.314330  1.0  0.413
  C  C5605  1  0.399160  0.968780  0.161050  1.0  0.1999
  C  C5606  1  0.403670  0.956840  0.178450  1.0  -0.1348
  C  C5607  1  0.394000  0.961940  0.197330  1.0  -0.0661
  C  C5608  1  0.380560  0.978840  0.197600  1.0  -0.1562
  C  C5609  1  0.376900  0.989850  0.179240  1.0  0.178
  C  C5610  1  0.531210  0.898280  0.093020  1.0  0.2766
  C  C5611  1  0.484660  0.914820  0.108630  1.0  0.1555
  C  C5612  1  0.472050  0.932640  0.109440  1.0  -0.1382
  C  C5613  1  0.458230  0.935010  0.125510  1.0  -0.0051
  C  C5614  1  0.456670  0.919060  0.140570  1.0  -0.1702
  C  C5615  1  0.469350  0.901690  0.138260  1.0  0.2007
  C  C5616  1  0.441530  0.920380  0.157910  1.0  0.3944
  C  C5617  1  0.417300  0.938230  0.176190  1.0  0.2633
  C  C5618  1  0.425780  0.905700  0.185530  1.0  0.4027
  C  C5619  1  0.404350  0.887250  0.212420  1.0  0.1925
  C  C5620  1  0.421640  0.887290  0.198780  1.0  -0.1735
  C  C5621  1  0.433990  0.869280  0.197900  1.0  -0.0403
  C  C5622  1  0.428590  0.852560  0.210630  1.0  -0.1312
  C  C5623  1  0.411580  0.854150  0.223770  1.0  0.1615
  C  C5624  1  0.369910  0.824960  0.251260  1.0  0.2921
  C  C5625  1  0.332930  0.861360  0.267600  1.0  0.1509
  C  C5626  1  0.315270  0.862140  0.279250  1.0  -0.1687
  C  C5627  1  0.313550  0.877020  0.295190  1.0  -0.0543
  C  C5628  1  0.330110  0.890670  0.298220  1.0  -0.1853
  C  C5629  1  0.347410  0.889230  0.284960  1.0  0.1785
  C  C5630  1  0.329390  0.906960  0.314330  1.0  0.413
  C  C5631  1  0.399160  0.468780  0.661050  1.0  0.1999
  C  C5632  1  0.403670  0.456840  0.678450  1.0  -0.1348
  C  C5633  1  0.394000  0.461940  0.697330  1.0  -0.0661
  C  C5634  1  0.380560  0.478840  0.697600  1.0  -0.1562
  C  C5635  1  0.376900  0.489850  0.679240  1.0  0.178
  C  C5636  1  0.531210  0.398280  0.593020  1.0  0.2766
  C  C5637  1  0.484660  0.414820  0.608630  1.0  0.1555
  C  C5638  1  0.472050  0.432640  0.609440  1.0  -0.1382
  C  C5639  1  0.458230  0.435010  0.625510  1.0  -0.0051
  C  C5640  1  0.456670  0.419060  0.640570  1.0  -0.1702
  C  C5641  1  0.469350  0.401690  0.638260  1.0  0.2007
  C  C5642  1  0.441530  0.420380  0.657910  1.0  0.3944
  C  C5643  1  0.417300  0.438230  0.676190  1.0  0.2633
  C  C5644  1  0.425780  0.405700  0.685530  1.0  0.4027
  C  C5645  1  0.404350  0.387250  0.712420  1.0  0.1925
  C  C5646  1  0.421640  0.387290  0.698780  1.0  -0.1735
  C  C5647  1  0.433990  0.369280  0.697900  1.0  -0.0403
  C  C5648  1  0.428590  0.352560  0.710630  1.0  -0.1312
  C  C5649  1  0.411580  0.354150  0.723770  1.0  0.1615
  C  C5650  1  0.369910  0.324960  0.751260  1.0  0.2921
  C  C5651  1  0.332930  0.361360  0.767600  1.0  0.1509
  C  C5652  1  0.315270  0.362140  0.779250  1.0  -0.1687
  C  C5653  1  0.313550  0.377020  0.795190  1.0  -0.0543
  C  C5654  1  0.330110  0.390670  0.798220  1.0  -0.1853
  C  C5655  1  0.347410  0.389230  0.784960  1.0  0.1785
  C  C5656  1  0.329390  0.406960  0.814330  1.0  0.413
  C  C5657  1  0.399160  0.281220  0.088950  1.0  0.1993
  C  C5658  1  0.403670  0.293160  0.071550  1.0  -0.1353
  C  C5659  1  0.394000  0.288060  0.052670  1.0  -0.0674
  C  C5660  1  0.380560  0.271160  0.052400  1.0  -0.1545
  C  C5661  1  0.376900  0.260150  0.070760  1.0  0.1789
  C  C5662  1  0.531210  0.351720  0.156980  1.0  0.2774
  C  C5663  1  0.484660  0.335180  0.141370  1.0  0.1561
  C  C5664  1  0.472050  0.317360  0.140560  1.0  -0.1395
  C  C5665  1  0.458230  0.314990  0.124490  1.0  -0.0046
  C  C5666  1  0.456670  0.330940  0.109430  1.0  -0.1707
  C  C5667  1  0.469350  0.348310  0.111740  1.0  0.202
  C  C5668  1  0.441530  0.329620  0.092090  1.0  0.3943
  C  C5669  1  0.417300  0.311770  0.073810  1.0  0.2629
  C  C5670  1  0.425780  0.344300  0.064470  1.0  0.4027
  C  C5671  1  0.404350  0.362750  0.037580  1.0  0.1917
  C  C5672  1  0.421640  0.362710  0.051220  1.0  -0.1733
  C  C5673  1  0.433990  0.380720  0.052100  1.0  -0.0397
  C  C5674  1  0.428590  0.397440  0.039370  1.0  -0.1308
  C  C5675  1  0.411580  0.395850  0.026230  1.0  0.1613
  C  C5676  1  0.369910  0.425040  0.998740  1.0  0.2917
  C  C5677  1  0.332930  0.388640  0.982400  1.0  0.1505
  C  C5678  1  0.315270  0.387860  0.970750  1.0  -0.1683
  C  C5679  1  0.313550  0.372980  0.954810  1.0  -0.0544
  C  C5680  1  0.330110  0.359330  0.951780  1.0  -0.1865
  C  C5681  1  0.347410  0.360770  0.965040  1.0  0.1782
  C  C5682  1  0.329390  0.343040  0.935670  1.0  0.4135
  C  C5683  1  0.399160  0.781220  0.588950  1.0  0.1993
  C  C5684  1  0.403670  0.793160  0.571550  1.0  -0.1353
  C  C5685  1  0.394000  0.788060  0.552670  1.0  -0.0674
  C  C5686  1  0.380560  0.771160  0.552400  1.0  -0.1545
  C  C5687  1  0.376900  0.760150  0.570760  1.0  0.1789
  C  C5688  1  0.531210  0.851720  0.656980  1.0  0.2774
  C  C5689  1  0.484660  0.835180  0.641370  1.0  0.1561
  C  C5690  1  0.472050  0.817360  0.640560  1.0  -0.1395
  C  C5691  1  0.458230  0.814990  0.624490  1.0  -0.0046
  C  C5692  1  0.456670  0.830940  0.609430  1.0  -0.1707
  C  C5693  1  0.469350  0.848310  0.611740  1.0  0.202
  C  C5694  1  0.441530  0.829620  0.592090  1.0  0.3943
  C  C5695  1  0.417300  0.811770  0.573810  1.0  0.2629
  C  C5696  1  0.425780  0.844300  0.564470  1.0  0.4027
  C  C5697  1  0.404350  0.862750  0.537580  1.0  0.1917
  C  C5698  1  0.421640  0.862710  0.551220  1.0  -0.1733
  C  C5699  1  0.433990  0.880720  0.552100  1.0  -0.0397
  C  C5700  1  0.428590  0.897440  0.539370  1.0  -0.1308
  C  C5701  1  0.411580  0.895850  0.526230  1.0  0.1613
  C  C5702  1  0.369910  0.925040  0.498740  1.0  0.2917
  C  C5703  1  0.332930  0.888640  0.482400  1.0  0.1505
  C  C5704  1  0.315270  0.887860  0.470750  1.0  -0.1683
  C  C5705  1  0.313550  0.872980  0.454810  1.0  -0.0544
  C  C5706  1  0.330110  0.859330  0.451780  1.0  -0.1865
  C  C5707  1  0.347410  0.860770  0.465040  1.0  0.1782
  C  C5708  1  0.329390  0.843040  0.435670  1.0  0.4135
  C  C5709  1  0.899160  0.281220  0.588950  1.0  0.1993
  C  C5710  1  0.903670  0.293160  0.571550  1.0  -0.1353
  C  C5711  1  0.894000  0.288060  0.552670  1.0  -0.0674
  C  C5712  1  0.880560  0.271160  0.552400  1.0  -0.1545
  C  C5713  1  0.876900  0.260150  0.570760  1.0  0.1789
  C  C5714  1  0.031210  0.351720  0.656980  1.0  0.2774
  C  C5715  1  0.984660  0.335180  0.641370  1.0  0.1561
  C  C5716  1  0.972050  0.317360  0.640560  1.0  -0.1395
  C  C5717  1  0.958230  0.314990  0.624490  1.0  -0.0046
  C  C5718  1  0.956670  0.330940  0.609430  1.0  -0.1707
  C  C5719  1  0.969350  0.348310  0.611740  1.0  0.202
  C  C5720  1  0.941530  0.329620  0.592090  1.0  0.3943
  C  C5721  1  0.917300  0.311770  0.573810  1.0  0.2647
  C  C5722  1  0.925780  0.344300  0.564470  1.0  0.4027
  C  C5723  1  0.904350  0.362750  0.537580  1.0  0.1917
  C  C5724  1  0.921640  0.362710  0.551220  1.0  -0.1733
  C  C5725  1  0.933990  0.380720  0.552100  1.0  -0.0397
  C  C5726  1  0.928590  0.397440  0.539370  1.0  -0.1308
  C  C5727  1  0.911580  0.395850  0.526230  1.0  0.1613
  C  C5728  1  0.869910  0.425040  0.498740  1.0  0.2917
  C  C5729  1  0.832930  0.388640  0.482400  1.0  0.1505
  C  C5730  1  0.815270  0.387860  0.470750  1.0  -0.1683
  C  C5731  1  0.813550  0.372980  0.454810  1.0  -0.0544
  C  C5732  1  0.830110  0.359330  0.451780  1.0  -0.1865
  C  C5733  1  0.847410  0.360770  0.465040  1.0  0.1782
  C  C5734  1  0.829390  0.343040  0.435670  1.0  0.4135
  C  C5735  1  0.899160  0.781220  0.088950  1.0  0.1993
  C  C5736  1  0.903670  0.793160  0.071550  1.0  -0.1353
  C  C5737  1  0.894000  0.788060  0.052670  1.0  -0.0674
  C  C5738  1  0.880560  0.771160  0.052400  1.0  -0.1545
  C  C5739  1  0.876900  0.760150  0.070760  1.0  0.1789
  C  C5740  1  0.031210  0.851720  0.156980  1.0  0.2774
  C  C5741  1  0.984660  0.835180  0.141370  1.0  0.1561
  C  C5742  1  0.972050  0.817360  0.140560  1.0  -0.1395
  C  C5743  1  0.958230  0.814990  0.124490  1.0  -0.0046
  C  C5744  1  0.956670  0.830940  0.109430  1.0  -0.1707
  C  C5745  1  0.969350  0.848310  0.111740  1.0  0.202
  C  C5746  1  0.941530  0.829620  0.092090  1.0  0.3943
  C  C5747  1  0.917300  0.811770  0.073810  1.0  0.2647
  C  C5748  1  0.925780  0.844300  0.064470  1.0  0.4027
  C  C5749  1  0.904350  0.862750  0.037580  1.0  0.1917
  C  C5750  1  0.921640  0.862710  0.051220  1.0  -0.1733
  C  C5751  1  0.933990  0.880720  0.052100  1.0  -0.0397
  C  C5752  1  0.928590  0.897440  0.039370  1.0  -0.1308
  C  C5753  1  0.911580  0.895850  0.026230  1.0  0.1613
  C  C5754  1  0.869910  0.925040  0.998740  1.0  0.2917
  C  C5755  1  0.832930  0.888640  0.982400  1.0  0.1505
  C  C5756  1  0.815270  0.887860  0.970750  1.0  -0.1683
  C  C5757  1  0.813550  0.872980  0.954810  1.0  -0.0544
  C  C5758  1  0.830110  0.859330  0.951780  1.0  -0.1865
  C  C5759  1  0.847410  0.860770  0.965040  1.0  0.1782
  C  C5760  1  0.829390  0.843040  0.935670  1.0  0.4135
  C  C5761  1  0.588950  0.781220  0.899160  1.0  0.1977
  C  C5762  1  0.571550  0.793160  0.903670  1.0  -0.1354
  C  C5763  1  0.552670  0.788060  0.894000  1.0  -0.0675
  C  C5764  1  0.552400  0.771160  0.880560  1.0  -0.1556
  C  C5765  1  0.570760  0.760150  0.876900  1.0  0.182
  C  C5766  1  0.656980  0.851720  0.031210  1.0  0.2722
  C  C5767  1  0.641370  0.835180  0.984660  1.0  0.1577
  C  C5768  1  0.640560  0.817360  0.972050  1.0  -0.1364
  C  C5769  1  0.624490  0.814990  0.958230  1.0  -0.0036
  C  C5770  1  0.609430  0.830940  0.956670  1.0  -0.1697
  C  C5771  1  0.611740  0.848310  0.969350  1.0  0.2023
  C  C5772  1  0.592090  0.829620  0.941530  1.0  0.3944
  C  C5773  1  0.573810  0.811770  0.917300  1.0  0.2644
  C  C5774  1  0.564470  0.844300  0.925780  1.0  0.402
  C  C5775  1  0.537580  0.862750  0.904350  1.0  0.1938
  C  C5776  1  0.551220  0.862710  0.921640  1.0  -0.1729
  C  C5777  1  0.552100  0.880720  0.933990  1.0  -0.0395
  C  C5778  1  0.539370  0.897440  0.928590  1.0  -0.1329
  C  C5779  1  0.526230  0.895850  0.911580  1.0  0.1605
  C  C5780  1  0.498740  0.925040  0.869910  1.0  0.292
  C  C5781  1  0.482400  0.888640  0.832930  1.0  0.1486
  C  C5782  1  0.470750  0.887860  0.815270  1.0  -0.1655
  C  C5783  1  0.454810  0.872980  0.813550  1.0  -0.0551
  C  C5784  1  0.451780  0.859330  0.830110  1.0  -0.186
  C  C5785  1  0.465040  0.860770  0.847410  1.0  0.1825
  C  C5786  1  0.435670  0.843040  0.829390  1.0  0.4132
  C  C5787  1  0.588950  0.281220  0.399160  1.0  0.1977
  C  C5788  1  0.571550  0.293160  0.403670  1.0  -0.1354
  C  C5789  1  0.552670  0.288060  0.394000  1.0  -0.0675
  C  C5790  1  0.552400  0.271160  0.380560  1.0  -0.1556
  C  C5791  1  0.570760  0.260150  0.376900  1.0  0.182
  C  C5792  1  0.656980  0.351720  0.531210  1.0  0.2722
  C  C5793  1  0.641370  0.335180  0.484660  1.0  0.1577
  C  C5794  1  0.640560  0.317360  0.472050  1.0  -0.1364
  C  C5795  1  0.624490  0.314990  0.458230  1.0  -0.0036
  C  C5796  1  0.609430  0.330940  0.456670  1.0  -0.1697
  C  C5797  1  0.611740  0.348310  0.469350  1.0  0.2023
  C  C5798  1  0.592090  0.329620  0.441530  1.0  0.3944
  C  C5799  1  0.573810  0.311770  0.417300  1.0  0.2623
  C  C5800  1  0.564470  0.344300  0.425780  1.0  0.402
  C  C5801  1  0.537580  0.362750  0.404350  1.0  0.1938
  C  C5802  1  0.551220  0.362710  0.421640  1.0  -0.1729
  C  C5803  1  0.552100  0.380720  0.433990  1.0  -0.0395
  C  C5804  1  0.539370  0.397440  0.428590  1.0  -0.1329
  C  C5805  1  0.526230  0.395850  0.411580  1.0  0.1605
  C  C5806  1  0.498740  0.425040  0.369910  1.0  0.292
  C  C5807  1  0.482400  0.388640  0.332930  1.0  0.1486
  C  C5808  1  0.470750  0.387860  0.315270  1.0  -0.1655
  C  C5809  1  0.454810  0.372980  0.313550  1.0  -0.0551
  C  C5810  1  0.451780  0.359330  0.330110  1.0  -0.186
  C  C5811  1  0.465040  0.360770  0.347410  1.0  0.1825
  C  C5812  1  0.435670  0.343040  0.329390  1.0  0.4132
  C  C5813  1  0.088950  0.781220  0.399160  1.0  0.1977
  C  C5814  1  0.071550  0.793160  0.403670  1.0  -0.1354
  C  C5815  1  0.052670  0.788060  0.394000  1.0  -0.0675
  C  C5816  1  0.052400  0.771160  0.380560  1.0  -0.1556
  C  C5817  1  0.070760  0.760150  0.376900  1.0  0.182
  C  C5818  1  0.156980  0.851720  0.531210  1.0  0.2722
  C  C5819  1  0.141370  0.835180  0.484660  1.0  0.1577
  C  C5820  1  0.140560  0.817360  0.472050  1.0  -0.1364
  C  C5821  1  0.124490  0.814990  0.458230  1.0  -0.0036
  C  C5822  1  0.109430  0.830940  0.456670  1.0  -0.1697
  C  C5823  1  0.111740  0.848310  0.469350  1.0  0.2023
  C  C5824  1  0.092090  0.829620  0.441530  1.0  0.3944
  C  C5825  1  0.073810  0.811770  0.417300  1.0  0.2623
  C  C5826  1  0.064470  0.844300  0.425780  1.0  0.402
  C  C5827  1  0.037580  0.862750  0.404350  1.0  0.1938
  C  C5828  1  0.051220  0.862710  0.421640  1.0  -0.1729
  C  C5829  1  0.052100  0.880720  0.433990  1.0  -0.0395
  C  C5830  1  0.039370  0.897440  0.428590  1.0  -0.1329
  C  C5831  1  0.026230  0.895850  0.411580  1.0  0.1605
  C  C5832  1  0.998740  0.925040  0.369910  1.0  0.292
  C  C5833  1  0.982400  0.888640  0.332930  1.0  0.1486
  C  C5834  1  0.970750  0.887860  0.315270  1.0  -0.1655
  C  C5835  1  0.954810  0.872980  0.313550  1.0  -0.0551
  C  C5836  1  0.951780  0.859330  0.330110  1.0  -0.186
  C  C5837  1  0.965040  0.860770  0.347410  1.0  0.1825
  C  C5838  1  0.935670  0.843040  0.329390  1.0  0.4132
  C  C5839  1  0.088950  0.281220  0.899160  1.0  0.1977
  C  C5840  1  0.071550  0.293160  0.903670  1.0  -0.1354
  C  C5841  1  0.052670  0.288060  0.894000  1.0  -0.0675
  C  C5842  1  0.052400  0.271160  0.880560  1.0  -0.1556
  C  C5843  1  0.070760  0.260150  0.876900  1.0  0.182
  C  C5844  1  0.156980  0.351720  0.031210  1.0  0.2722
  C  C5845  1  0.141370  0.335180  0.984660  1.0  0.1577
  C  C5846  1  0.140560  0.317360  0.972050  1.0  -0.1364
  C  C5847  1  0.124490  0.314990  0.958230  1.0  -0.0036
  C  C5848  1  0.109430  0.330940  0.956670  1.0  -0.1697
  C  C5849  1  0.111740  0.348310  0.969350  1.0  0.2023
  C  C5850  1  0.092090  0.329620  0.941530  1.0  0.3944
  C  C5851  1  0.073810  0.311770  0.917300  1.0  0.2644
  C  C5852  1  0.064470  0.344300  0.925780  1.0  0.402
  C  C5853  1  0.037580  0.362750  0.904350  1.0  0.1938
  C  C5854  1  0.051220  0.362710  0.921640  1.0  -0.1729
  C  C5855  1  0.052100  0.380720  0.933990  1.0  -0.0395
  C  C5856  1  0.039370  0.397440  0.928590  1.0  -0.1329
  C  C5857  1  0.026230  0.395850  0.911580  1.0  0.1605
  C  C5858  1  0.998740  0.425040  0.869910  1.0  0.292
  C  C5859  1  0.982400  0.388640  0.832930  1.0  0.1486
  C  C5860  1  0.970750  0.387860  0.815270  1.0  -0.1655
  C  C5861  1  0.954810  0.372980  0.813550  1.0  -0.0551
  C  C5862  1  0.951780  0.359330  0.830110  1.0  -0.186
  C  C5863  1  0.965040  0.360770  0.847410  1.0  0.1825
  C  C5864  1  0.935670  0.343040  0.829390  1.0  0.4132
  C  C5865  1  0.161050  0.468780  0.399160  1.0  0.1981
  C  C5866  1  0.178450  0.456840  0.403670  1.0  -0.1365
  C  C5867  1  0.197330  0.461940  0.394000  1.0  -0.0653
  C  C5868  1  0.197600  0.478840  0.380560  1.0  -0.1545
  C  C5869  1  0.179240  0.489850  0.376900  1.0  0.183
  C  C5870  1  0.093020  0.398280  0.531210  1.0  0.274
  C  C5871  1  0.108630  0.414820  0.484660  1.0  0.157
  C  C5872  1  0.109440  0.432640  0.472050  1.0  -0.1395
  C  C5873  1  0.125510  0.435010  0.458230  1.0  -0.003
  C  C5874  1  0.140570  0.419060  0.456670  1.0  -0.1698
  C  C5875  1  0.138260  0.401690  0.469350  1.0  0.201
  C  C5876  1  0.157910  0.420380  0.441530  1.0  0.3947
  C  C5877  1  0.176190  0.438230  0.417300  1.0  0.2624
  C  C5878  1  0.185530  0.405700  0.425780  1.0  0.402
  C  C5879  1  0.212420  0.387250  0.404350  1.0  0.1937
  C  C5880  1  0.198780  0.387290  0.421640  1.0  -0.1716
  C  C5881  1  0.197900  0.369280  0.433990  1.0  -0.0401
  C  C5882  1  0.210630  0.352560  0.428590  1.0  -0.1339
  C  C5883  1  0.223770  0.354150  0.411580  1.0  0.1604
  C  C5884  1  0.251260  0.324960  0.369910  1.0  0.291
  C  C5885  1  0.267600  0.361360  0.332930  1.0  0.1486
  C  C5886  1  0.279250  0.362140  0.315270  1.0  -0.1666
  C  C5887  1  0.295190  0.377020  0.313550  1.0  -0.0548
  C  C5888  1  0.298220  0.390670  0.330110  1.0  -0.1848
  C  C5889  1  0.284960  0.389230  0.347410  1.0  0.1824
  C  C5890  1  0.314330  0.406960  0.329390  1.0  0.4133
  C  C5891  1  0.161050  0.968780  0.899160  1.0  0.1981
  C  C5892  1  0.178450  0.956840  0.903670  1.0  -0.1365
  C  C5893  1  0.197330  0.961940  0.894000  1.0  -0.0653
  C  C5894  1  0.197600  0.978840  0.880560  1.0  -0.1545
  C  C5895  1  0.179240  0.989850  0.876900  1.0  0.183
  C  C5896  1  0.093020  0.898280  0.031210  1.0  0.274
  C  C5897  1  0.108630  0.914820  0.984660  1.0  0.157
  C  C5898  1  0.109440  0.932640  0.972050  1.0  -0.1395
  C  C5899  1  0.125510  0.935010  0.958230  1.0  -0.003
  C  C5900  1  0.140570  0.919060  0.956670  1.0  -0.1698
  C  C5901  1  0.138260  0.901690  0.969350  1.0  0.201
  C  C5902  1  0.157910  0.920380  0.941530  1.0  0.3947
  C  C5903  1  0.176190  0.938230  0.917300  1.0  0.2643
  C  C5904  1  0.185530  0.905700  0.925780  1.0  0.402
  C  C5905  1  0.212420  0.887250  0.904350  1.0  0.1937
  C  C5906  1  0.198780  0.887290  0.921640  1.0  -0.1716
  C  C5907  1  0.197900  0.869280  0.933990  1.0  -0.0401
  C  C5908  1  0.210630  0.852560  0.928590  1.0  -0.1339
  C  C5909  1  0.223770  0.854150  0.911580  1.0  0.1604
  C  C5910  1  0.251260  0.824960  0.869910  1.0  0.291
  C  C5911  1  0.267600  0.861360  0.832930  1.0  0.1486
  C  C5912  1  0.279250  0.862140  0.815270  1.0  -0.1666
  C  C5913  1  0.295190  0.877020  0.813550  1.0  -0.0548
  C  C5914  1  0.298220  0.890670  0.830110  1.0  -0.1848
  C  C5915  1  0.284960  0.889230  0.847410  1.0  0.1824
  C  C5916  1  0.314330  0.906960  0.829390  1.0  0.4133
  C  C5917  1  0.661050  0.468780  0.899160  1.0  0.1981
  C  C5918  1  0.678450  0.456840  0.903670  1.0  -0.1365
  C  C5919  1  0.697330  0.461940  0.894000  1.0  -0.0653
  C  C5920  1  0.697600  0.478840  0.880560  1.0  -0.1545
  C  C5921  1  0.679240  0.489850  0.876900  1.0  0.183
  C  C5922  1  0.593020  0.398280  0.031210  1.0  0.274
  C  C5923  1  0.608630  0.414820  0.984660  1.0  0.157
  C  C5924  1  0.609440  0.432640  0.972050  1.0  -0.1395
  C  C5925  1  0.625510  0.435010  0.958230  1.0  -0.003
  C  C5926  1  0.640570  0.419060  0.956670  1.0  -0.1698
  C  C5927  1  0.638260  0.401690  0.969350  1.0  0.201
  C  C5928  1  0.657910  0.420380  0.941530  1.0  0.3947
  C  C5929  1  0.676190  0.438230  0.917300  1.0  0.2643
  C  C5930  1  0.685530  0.405700  0.925780  1.0  0.402
  C  C5931  1  0.712420  0.387250  0.904350  1.0  0.1937
  C  C5932  1  0.698780  0.387290  0.921640  1.0  -0.1716
  C  C5933  1  0.697900  0.369280  0.933990  1.0  -0.0401
  C  C5934  1  0.710630  0.352560  0.928590  1.0  -0.1339
  C  C5935  1  0.723770  0.354150  0.911580  1.0  0.1604
  C  C5936  1  0.751260  0.324960  0.869910  1.0  0.291
  C  C5937  1  0.767600  0.361360  0.832930  1.0  0.1486
  C  C5938  1  0.779250  0.362140  0.815270  1.0  -0.1666
  C  C5939  1  0.795190  0.377020  0.813550  1.0  -0.0548
  C  C5940  1  0.798220  0.390670  0.830110  1.0  -0.1848
  C  C5941  1  0.784960  0.389230  0.847410  1.0  0.1824
  C  C5942  1  0.814330  0.406960  0.829390  1.0  0.4133
  C  C5943  1  0.661050  0.968780  0.399160  1.0  0.1981
  C  C5944  1  0.678450  0.956840  0.403670  1.0  -0.1365
  C  C5945  1  0.697330  0.961940  0.394000  1.0  -0.0653
  C  C5946  1  0.697600  0.978840  0.380560  1.0  -0.1545
  C  C5947  1  0.679240  0.989850  0.376900  1.0  0.183
  C  C5948  1  0.593020  0.898280  0.531210  1.0  0.274
  C  C5949  1  0.608630  0.914820  0.484660  1.0  0.157
  C  C5950  1  0.609440  0.932640  0.472050  1.0  -0.1395
  C  C5951  1  0.625510  0.935010  0.458230  1.0  -0.003
  C  C5952  1  0.640570  0.919060  0.456670  1.0  -0.1698
  C  C5953  1  0.638260  0.901690  0.469350  1.0  0.201
  C  C5954  1  0.657910  0.920380  0.441530  1.0  0.3947
  C  C5955  1  0.676190  0.938230  0.417300  1.0  0.2624
  C  C5956  1  0.685530  0.905700  0.425780  1.0  0.402
  C  C5957  1  0.712420  0.887250  0.404350  1.0  0.1937
  C  C5958  1  0.698780  0.887290  0.421640  1.0  -0.1716
  C  C5959  1  0.697900  0.869280  0.433990  1.0  -0.0401
  C  C5960  1  0.710630  0.852560  0.428590  1.0  -0.1339
  C  C5961  1  0.723770  0.854150  0.411580  1.0  0.1604
  C  C5962  1  0.751260  0.824960  0.369910  1.0  0.291
  C  C5963  1  0.767600  0.861360  0.332930  1.0  0.1486
  C  C5964  1  0.779250  0.862140  0.315270  1.0  -0.1666
  C  C5965  1  0.795190  0.877020  0.313550  1.0  -0.0548
  C  C5966  1  0.798220  0.890670  0.330110  1.0  -0.1848
  C  C5967  1  0.784960  0.889230  0.347410  1.0  0.1824
  C  C5968  1  0.814330  0.906960  0.329390  1.0  0.4133
  C  C5969  1  0.661050  0.281220  0.850840  1.0  0.198
  C  C5970  1  0.678450  0.293160  0.846330  1.0  -0.1358
  C  C5971  1  0.697330  0.288060  0.856000  1.0  -0.0655
  C  C5972  1  0.697600  0.271160  0.869440  1.0  -0.1541
  C  C5973  1  0.679240  0.260150  0.873100  1.0  0.1827
  C  C5974  1  0.593020  0.351720  0.718790  1.0  0.2764
  C  C5975  1  0.608630  0.335180  0.765340  1.0  0.1581
  C  C5976  1  0.609440  0.317360  0.777950  1.0  -0.1401
  C  C5977  1  0.625510  0.314990  0.791770  1.0  -0.0031
  C  C5978  1  0.640570  0.330940  0.793330  1.0  -0.17
  C  C5979  1  0.638260  0.348310  0.780650  1.0  0.2016
  C  C5980  1  0.657910  0.329620  0.808470  1.0  0.3948
  C  C5981  1  0.676190  0.311770  0.832700  1.0  0.2621
  C  C5982  1  0.685530  0.344300  0.824220  1.0  0.4018
  C  C5983  1  0.712420  0.362750  0.845650  1.0  0.1937
  C  C5984  1  0.698780  0.362710  0.828360  1.0  -0.1736
  C  C5985  1  0.697900  0.380720  0.816010  1.0  -0.0406
  C  C5986  1  0.710630  0.397440  0.821410  1.0  -0.133
  C  C5987  1  0.723770  0.395850  0.838420  1.0  0.16
  C  C5988  1  0.751260  0.425040  0.880090  1.0  0.2906
  C  C5989  1  0.767600  0.388640  0.917070  1.0  0.1488
  C  C5990  1  0.779250  0.387860  0.934730  1.0  -0.1669
  C  C5991  1  0.795190  0.372980  0.936450  1.0  -0.0536
  C  C5992  1  0.798220  0.359330  0.919890  1.0  -0.1848
  C  C5993  1  0.784960  0.360770  0.902590  1.0  0.181
  C  C5994  1  0.814330  0.343040  0.920610  1.0  0.4132
  C  C5995  1  0.661050  0.781220  0.350840  1.0  0.198
  C  C5996  1  0.678450  0.793160  0.346330  1.0  -0.1358
  C  C5997  1  0.697330  0.788060  0.356000  1.0  -0.0655
  C  C5998  1  0.697600  0.771160  0.369440  1.0  -0.1541
  C  C5999  1  0.679240  0.760150  0.373100  1.0  0.1827
  C  C6000  1  0.593020  0.851720  0.218790  1.0  0.2764
  C  C6001  1  0.608630  0.835180  0.265340  1.0  0.1581
  C  C6002  1  0.609440  0.817360  0.277950  1.0  -0.1401
  C  C6003  1  0.625510  0.814990  0.291770  1.0  -0.0031
  C  C6004  1  0.640570  0.830940  0.293330  1.0  -0.17
  C  C6005  1  0.638260  0.848310  0.280650  1.0  0.2016
  C  C6006  1  0.657910  0.829620  0.308470  1.0  0.3948
  C  C6007  1  0.676190  0.811770  0.332700  1.0  0.2621
  C  C6008  1  0.685530  0.844300  0.324220  1.0  0.4018
  C  C6009  1  0.712420  0.862750  0.345650  1.0  0.1937
  C  C6010  1  0.698780  0.862710  0.328360  1.0  -0.1736
  C  C6011  1  0.697900  0.880720  0.316010  1.0  -0.0406
  C  C6012  1  0.710630  0.897440  0.321410  1.0  -0.133
  C  C6013  1  0.723770  0.895850  0.338420  1.0  0.16
  C  C6014  1  0.751260  0.925040  0.380090  1.0  0.2906
  C  C6015  1  0.767600  0.888640  0.417070  1.0  0.1488
  C  C6016  1  0.779250  0.887860  0.434730  1.0  -0.1669
  C  C6017  1  0.795190  0.872980  0.436450  1.0  -0.0536
  C  C6018  1  0.798220  0.859330  0.419890  1.0  -0.1848
  C  C6019  1  0.784960  0.860770  0.402590  1.0  0.181
  C  C6020  1  0.814330  0.843040  0.420610  1.0  0.4132
  C  C6021  1  0.161050  0.281220  0.350840  1.0  0.198
  C  C6022  1  0.178450  0.293160  0.346330  1.0  -0.1358
  C  C6023  1  0.197330  0.288060  0.356000  1.0  -0.0655
  C  C6024  1  0.197600  0.271160  0.369440  1.0  -0.1541
  C  C6025  1  0.179240  0.260150  0.373100  1.0  0.1827
  C  C6026  1  0.093020  0.351720  0.218790  1.0  0.2764
  C  C6027  1  0.108630  0.335180  0.265340  1.0  0.1581
  C  C6028  1  0.109440  0.317360  0.277950  1.0  -0.1401
  C  C6029  1  0.125510  0.314990  0.291770  1.0  -0.0031
  C  C6030  1  0.140570  0.330940  0.293330  1.0  -0.17
  C  C6031  1  0.138260  0.348310  0.280650  1.0  0.2016
  C  C6032  1  0.157910  0.329620  0.308470  1.0  0.3948
  C  C6033  1  0.176190  0.311770  0.332700  1.0  0.2621
  C  C6034  1  0.185530  0.344300  0.324220  1.0  0.4018
  C  C6035  1  0.212420  0.362750  0.345650  1.0  0.1937
  C  C6036  1  0.198780  0.362710  0.328360  1.0  -0.1736
  C  C6037  1  0.197900  0.380720  0.316010  1.0  -0.0406
  C  C6038  1  0.210630  0.397440  0.321410  1.0  -0.133
  C  C6039  1  0.223770  0.395850  0.338420  1.0  0.16
  C  C6040  1  0.251260  0.425040  0.380090  1.0  0.2906
  C  C6041  1  0.267600  0.388640  0.417070  1.0  0.1488
  C  C6042  1  0.279250  0.387860  0.434730  1.0  -0.1669
  C  C6043  1  0.295190  0.372980  0.436450  1.0  -0.0536
  C  C6044  1  0.298220  0.359330  0.419890  1.0  -0.1848
  C  C6045  1  0.284960  0.360770  0.402590  1.0  0.181
  C  C6046  1  0.314330  0.343040  0.420610  1.0  0.4132
  C  C6047  1  0.161050  0.781220  0.850840  1.0  0.198
  C  C6048  1  0.178450  0.793160  0.846330  1.0  -0.1358
  C  C6049  1  0.197330  0.788060  0.856000  1.0  -0.0655
  C  C6050  1  0.197600  0.771160  0.869440  1.0  -0.1541
  C  C6051  1  0.179240  0.760150  0.873100  1.0  0.1827
  C  C6052  1  0.093020  0.851720  0.718790  1.0  0.2764
  C  C6053  1  0.108630  0.835180  0.765340  1.0  0.1581
  C  C6054  1  0.109440  0.817360  0.777950  1.0  -0.1401
  C  C6055  1  0.125510  0.814990  0.791770  1.0  -0.0031
  C  C6056  1  0.140570  0.830940  0.793330  1.0  -0.17
  C  C6057  1  0.138260  0.848310  0.780650  1.0  0.2016
  C  C6058  1  0.157910  0.829620  0.808470  1.0  0.3948
  C  C6059  1  0.176190  0.811770  0.832700  1.0  0.2621
  C  C6060  1  0.185530  0.844300  0.824220  1.0  0.4018
  C  C6061  1  0.212420  0.862750  0.845650  1.0  0.1937
  C  C6062  1  0.198780  0.862710  0.828360  1.0  -0.1736
  C  C6063  1  0.197900  0.880720  0.816010  1.0  -0.0406
  C  C6064  1  0.210630  0.897440  0.821410  1.0  -0.133
  C  C6065  1  0.223770  0.895850  0.838420  1.0  0.16
  C  C6066  1  0.251260  0.925040  0.880090  1.0  0.2906
  C  C6067  1  0.267600  0.888640  0.917070  1.0  0.1488
  C  C6068  1  0.279250  0.887860  0.934730  1.0  -0.1669
  C  C6069  1  0.295190  0.872980  0.936450  1.0  -0.0536
  C  C6070  1  0.298220  0.859330  0.919890  1.0  -0.1848
  C  C6071  1  0.284960  0.860770  0.902590  1.0  0.181
  C  C6072  1  0.314330  0.843040  0.920610  1.0  0.4132
  C  C6073  1  0.088950  0.968780  0.350840  1.0  0.1978
  C  C6074  1  0.071550  0.956840  0.346330  1.0  -0.136
  C  C6075  1  0.052670  0.961940  0.356000  1.0  -0.0669
  C  C6076  1  0.052400  0.978840  0.369440  1.0  -0.156
  C  C6077  1  0.070760  0.989850  0.373100  1.0  0.1816
  C  C6078  1  0.156980  0.898280  0.218790  1.0  0.2732
  C  C6079  1  0.141370  0.914820  0.265340  1.0  0.1563
  C  C6080  1  0.140560  0.932640  0.277950  1.0  -0.1359
  C  C6081  1  0.124490  0.935010  0.291770  1.0  -0.0044
  C  C6082  1  0.109430  0.919060  0.293330  1.0  -0.1692
  C  C6083  1  0.111740  0.901690  0.280650  1.0  0.2017
  C  C6084  1  0.092090  0.920380  0.308470  1.0  0.3947
  C  C6085  1  0.073810  0.938230  0.332700  1.0  0.2629
  C  C6086  1  0.064470  0.905700  0.324220  1.0  0.4019
  C  C6087  1  0.037580  0.887250  0.345650  1.0  0.1931
  C  C6088  1  0.051220  0.887290  0.328360  1.0  -0.1727
  C  C6089  1  0.052100  0.869280  0.316010  1.0  -0.0417
  C  C6090  1  0.039370  0.852560  0.321410  1.0  -0.1337
  C  C6091  1  0.026230  0.854150  0.338420  1.0  0.1603
  C  C6092  1  0.998740  0.824960  0.380090  1.0  0.2925
  C  C6093  1  0.982400  0.861360  0.417070  1.0  0.1483
  C  C6094  1  0.970750  0.862140  0.434730  1.0  -0.1675
  C  C6095  1  0.954810  0.877020  0.436450  1.0  -0.0551
  C  C6096  1  0.951780  0.890670  0.419890  1.0  -0.1853
  C  C6097  1  0.965040  0.889230  0.402590  1.0  0.1809
  C  C6098  1  0.935670  0.906960  0.420610  1.0  0.4128
  C  C6099  1  0.088950  0.468780  0.850840  1.0  0.1978
  C  C6100  1  0.071550  0.456840  0.846330  1.0  -0.136
  C  C6101  1  0.052670  0.461940  0.856000  1.0  -0.0669
  C  C6102  1  0.052400  0.478840  0.869440  1.0  -0.156
  C  C6103  1  0.070760  0.489850  0.873100  1.0  0.1816
  C  C6104  1  0.156980  0.398280  0.718790  1.0  0.2732
  C  C6105  1  0.141370  0.414820  0.765340  1.0  0.1563
  C  C6106  1  0.140560  0.432640  0.777950  1.0  -0.1359
  C  C6107  1  0.124490  0.435010  0.791770  1.0  -0.0044
  C  C6108  1  0.109430  0.419060  0.793330  1.0  -0.1692
  C  C6109  1  0.111740  0.401690  0.780650  1.0  0.2017
  C  C6110  1  0.092090  0.420380  0.808470  1.0  0.3947
  C  C6111  1  0.073810  0.438230  0.832700  1.0  0.2629
  C  C6112  1  0.064470  0.405700  0.824220  1.0  0.4019
  C  C6113  1  0.037580  0.387250  0.845650  1.0  0.1931
  C  C6114  1  0.051220  0.387290  0.828360  1.0  -0.1727
  C  C6115  1  0.052100  0.369280  0.816010  1.0  -0.0417
  C  C6116  1  0.039370  0.352560  0.821410  1.0  -0.1337
  C  C6117  1  0.026230  0.354150  0.838420  1.0  0.1603
  C  C6118  1  0.998740  0.324960  0.880090  1.0  0.2925
  C  C6119  1  0.982400  0.361360  0.917070  1.0  0.1483
  C  C6120  1  0.970750  0.362140  0.934730  1.0  -0.1675
  C  C6121  1  0.954810  0.377020  0.936450  1.0  -0.0551
  C  C6122  1  0.951780  0.390670  0.919890  1.0  -0.1853
  C  C6123  1  0.965040  0.389230  0.902590  1.0  0.1809
  C  C6124  1  0.935670  0.406960  0.920610  1.0  0.4128
  C  C6125  1  0.588950  0.968780  0.850840  1.0  0.1978
  C  C6126  1  0.571550  0.956840  0.846330  1.0  -0.136
  C  C6127  1  0.552670  0.961940  0.856000  1.0  -0.0669
  C  C6128  1  0.552400  0.978840  0.869440  1.0  -0.156
  C  C6129  1  0.570760  0.989850  0.873100  1.0  0.1816
  C  C6130  1  0.656980  0.898280  0.718790  1.0  0.2732
  C  C6131  1  0.641370  0.914820  0.765340  1.0  0.1563
  C  C6132  1  0.640560  0.932640  0.777950  1.0  -0.1359
  C  C6133  1  0.624490  0.935010  0.791770  1.0  -0.0044
  C  C6134  1  0.609430  0.919060  0.793330  1.0  -0.1692
  C  C6135  1  0.611740  0.901690  0.780650  1.0  0.2017
  C  C6136  1  0.592090  0.920380  0.808470  1.0  0.3947
  C  C6137  1  0.573810  0.938230  0.832700  1.0  0.2629
  C  C6138  1  0.564470  0.905700  0.824220  1.0  0.4019
  C  C6139  1  0.537580  0.887250  0.845650  1.0  0.1931
  C  C6140  1  0.551220  0.887290  0.828360  1.0  -0.1727
  C  C6141  1  0.552100  0.869280  0.816010  1.0  -0.0417
  C  C6142  1  0.539370  0.852560  0.821410  1.0  -0.1337
  C  C6143  1  0.526230  0.854150  0.838420  1.0  0.1603
  C  C6144  1  0.498740  0.824960  0.880090  1.0  0.2925
  C  C6145  1  0.482400  0.861360  0.917070  1.0  0.1483
  C  C6146  1  0.470750  0.862140  0.934730  1.0  -0.1675
  C  C6147  1  0.454810  0.877020  0.936450  1.0  -0.0551
  C  C6148  1  0.451780  0.890670  0.919890  1.0  -0.1853
  C  C6149  1  0.465040  0.889230  0.902590  1.0  0.1809
  C  C6150  1  0.435670  0.906960  0.920610  1.0  0.4128
  C  C6151  1  0.588950  0.468780  0.350840  1.0  0.1978
  C  C6152  1  0.571550  0.456840  0.346330  1.0  -0.136
  C  C6153  1  0.552670  0.461940  0.356000  1.0  -0.0669
  C  C6154  1  0.552400  0.478840  0.369440  1.0  -0.156
  C  C6155  1  0.570760  0.489850  0.373100  1.0  0.1816
  C  C6156  1  0.656980  0.398280  0.218790  1.0  0.2732
  C  C6157  1  0.641370  0.414820  0.265340  1.0  0.1563
  C  C6158  1  0.640560  0.432640  0.277950  1.0  -0.1359
  C  C6159  1  0.624490  0.435010  0.291770  1.0  -0.0044
  C  C6160  1  0.609430  0.419060  0.293330  1.0  -0.1692
  C  C6161  1  0.611740  0.401690  0.280650  1.0  0.2017
  C  C6162  1  0.592090  0.420380  0.308470  1.0  0.3947
  C  C6163  1  0.573810  0.438230  0.332700  1.0  0.2629
  C  C6164  1  0.564470  0.405700  0.324220  1.0  0.4019
  C  C6165  1  0.537580  0.387250  0.345650  1.0  0.1931
  C  C6166  1  0.551220  0.387290  0.328360  1.0  -0.1727
  C  C6167  1  0.552100  0.369280  0.316010  1.0  -0.0417
  C  C6168  1  0.539370  0.352560  0.321410  1.0  -0.1337
  C  C6169  1  0.526230  0.354150  0.338420  1.0  0.1603
  C  C6170  1  0.498740  0.324960  0.380090  1.0  0.2925
  C  C6171  1  0.482400  0.361360  0.417070  1.0  0.1483
  C  C6172  1  0.470750  0.362140  0.434730  1.0  -0.1675
  C  C6173  1  0.454810  0.377020  0.436450  1.0  -0.0551
  C  C6174  1  0.451780  0.390670  0.419890  1.0  -0.1853
  C  C6175  1  0.465040  0.389230  0.402590  1.0  0.1809
  C  C6176  1  0.435670  0.406960  0.420610  1.0  0.4128
  C  C6177  1  0.899160  0.588950  0.781220  1.0  0.1985
  C  C6178  1  0.903670  0.571550  0.793160  1.0  -0.1372
  C  C6179  1  0.894000  0.552670  0.788060  1.0  -0.0641
  C  C6180  1  0.880560  0.552400  0.771160  1.0  -0.1562
  C  C6181  1  0.876900  0.570760  0.760150  1.0  0.1808
  C  C6182  1  0.031210  0.656980  0.851720  1.0  0.2776
  C  C6183  1  0.984660  0.641370  0.835180  1.0  0.1543
  C  C6184  1  0.972050  0.640560  0.817360  1.0  -0.1368
  C  C6185  1  0.958230  0.624490  0.814990  1.0  -0.0056
  C  C6186  1  0.956670  0.609430  0.830940  1.0  -0.1687
  C  C6187  1  0.969350  0.611740  0.848310  1.0  0.2037
  C  C6188  1  0.941530  0.592090  0.829620  1.0  0.3951
  C  C6189  1  0.917300  0.573810  0.811770  1.0  0.265
  C  C6190  1  0.925780  0.564470  0.844300  1.0  0.4021
  C  C6191  1  0.904350  0.537580  0.862750  1.0  0.1922
  C  C6192  1  0.921640  0.551220  0.862710  1.0  -0.1746
  C  C6193  1  0.933990  0.552100  0.880720  1.0  -0.038
  C  C6194  1  0.928590  0.539370  0.897440  1.0  -0.1285
  C  C6195  1  0.911580  0.526230  0.895850  1.0  0.159
  C  C6196  1  0.869910  0.498740  0.925040  1.0  0.2903
  C  C6197  1  0.832930  0.482400  0.888640  1.0  0.1515
  C  C6198  1  0.815270  0.470750  0.887860  1.0  -0.1696
  C  C6199  1  0.813550  0.454810  0.872980  1.0  -0.055
  C  C6200  1  0.830110  0.451780  0.859330  1.0  -0.1862
  C  C6201  1  0.847410  0.465040  0.860770  1.0  0.1783
  C  C6202  1  0.829390  0.435670  0.843040  1.0  0.4132
  C  C6203  1  0.899160  0.088950  0.281220  1.0  0.1985
  C  C6204  1  0.903670  0.071550  0.293160  1.0  -0.1372
  C  C6205  1  0.894000  0.052670  0.288060  1.0  -0.0641
  C  C6206  1  0.880560  0.052400  0.271160  1.0  -0.1562
  C  C6207  1  0.876900  0.070760  0.260150  1.0  0.1808
  C  C6208  1  0.031210  0.156980  0.351720  1.0  0.2776
  C  C6209  1  0.984660  0.141370  0.335180  1.0  0.1543
  C  C6210  1  0.972050  0.140560  0.317360  1.0  -0.1368
  C  C6211  1  0.958230  0.124490  0.314990  1.0  -0.0056
  C  C6212  1  0.956670  0.109430  0.330940  1.0  -0.1687
  C  C6213  1  0.969350  0.111740  0.348310  1.0  0.2037
  C  C6214  1  0.941530  0.092090  0.329620  1.0  0.3951
  C  C6215  1  0.917300  0.073810  0.311770  1.0  0.265
  C  C6216  1  0.925780  0.064470  0.344300  1.0  0.4021
  C  C6217  1  0.904350  0.037580  0.362750  1.0  0.1922
  C  C6218  1  0.921640  0.051220  0.362710  1.0  -0.1746
  C  C6219  1  0.933990  0.052100  0.380720  1.0  -0.038
  C  C6220  1  0.928590  0.039370  0.397440  1.0  -0.1285
  C  C6221  1  0.911580  0.026230  0.395850  1.0  0.159
  C  C6222  1  0.869910  0.998740  0.425040  1.0  0.2903
  C  C6223  1  0.832930  0.982400  0.388640  1.0  0.1515
  C  C6224  1  0.815270  0.970750  0.387860  1.0  -0.1696
  C  C6225  1  0.813550  0.954810  0.372980  1.0  -0.055
  C  C6226  1  0.830110  0.951780  0.359330  1.0  -0.1862
  C  C6227  1  0.847410  0.965040  0.360770  1.0  0.1783
  C  C6228  1  0.829390  0.935670  0.343040  1.0  0.4132
  C  C6229  1  0.399160  0.588950  0.281220  1.0  0.1985
  C  C6230  1  0.403670  0.571550  0.293160  1.0  -0.1372
  C  C6231  1  0.394000  0.552670  0.288060  1.0  -0.0641
  C  C6232  1  0.380560  0.552400  0.271160  1.0  -0.1562
  C  C6233  1  0.376900  0.570760  0.260150  1.0  0.1808
  C  C6234  1  0.531210  0.656980  0.351720  1.0  0.2776
  C  C6235  1  0.484660  0.641370  0.335180  1.0  0.1543
  C  C6236  1  0.472050  0.640560  0.317360  1.0  -0.1368
  C  C6237  1  0.458230  0.624490  0.314990  1.0  -0.0056
  C  C6238  1  0.456670  0.609430  0.330940  1.0  -0.1687
  C  C6239  1  0.469350  0.611740  0.348310  1.0  0.2037
  C  C6240  1  0.441530  0.592090  0.329620  1.0  0.3951
  C  C6241  1  0.417300  0.573810  0.311770  1.0  0.2632
  C  C6242  1  0.425780  0.564470  0.344300  1.0  0.4021
  C  C6243  1  0.404350  0.537580  0.362750  1.0  0.1922
  C  C6244  1  0.421640  0.551220  0.362710  1.0  -0.1746
  C  C6245  1  0.433990  0.552100  0.380720  1.0  -0.038
  C  C6246  1  0.428590  0.539370  0.397440  1.0  -0.1285
  C  C6247  1  0.411580  0.526230  0.395850  1.0  0.159
  C  C6248  1  0.369910  0.498740  0.425040  1.0  0.2903
  C  C6249  1  0.332930  0.482400  0.388640  1.0  0.1515
  C  C6250  1  0.315270  0.470750  0.387860  1.0  -0.1696
  C  C6251  1  0.313550  0.454810  0.372980  1.0  -0.055
  C  C6252  1  0.330110  0.451780  0.359330  1.0  -0.1862
  C  C6253  1  0.347410  0.465040  0.360770  1.0  0.1783
  C  C6254  1  0.329390  0.435670  0.343040  1.0  0.4132
  C  C6255  1  0.399160  0.088950  0.781220  1.0  0.1985
  C  C6256  1  0.403670  0.071550  0.793160  1.0  -0.1372
  C  C6257  1  0.394000  0.052670  0.788060  1.0  -0.0641
  C  C6258  1  0.380560  0.052400  0.771160  1.0  -0.1562
  C  C6259  1  0.376900  0.070760  0.760150  1.0  0.1808
  C  C6260  1  0.531210  0.156980  0.851720  1.0  0.2776
  C  C6261  1  0.484660  0.141370  0.835180  1.0  0.1543
  C  C6262  1  0.472050  0.140560  0.817360  1.0  -0.1368
  C  C6263  1  0.458230  0.124490  0.814990  1.0  -0.0056
  C  C6264  1  0.456670  0.109430  0.830940  1.0  -0.1687
  C  C6265  1  0.469350  0.111740  0.848310  1.0  0.2037
  C  C6266  1  0.441530  0.092090  0.829620  1.0  0.3951
  C  C6267  1  0.417300  0.073810  0.811770  1.0  0.2632
  C  C6268  1  0.425780  0.064470  0.844300  1.0  0.4021
  C  C6269  1  0.404350  0.037580  0.862750  1.0  0.1922
  C  C6270  1  0.421640  0.051220  0.862710  1.0  -0.1746
  C  C6271  1  0.433990  0.052100  0.880720  1.0  -0.038
  C  C6272  1  0.428590  0.039370  0.897440  1.0  -0.1285
  C  C6273  1  0.411580  0.026230  0.895850  1.0  0.159
  C  C6274  1  0.369910  0.998740  0.925040  1.0  0.2903
  C  C6275  1  0.332930  0.982400  0.888640  1.0  0.1515
  C  C6276  1  0.315270  0.970750  0.887860  1.0  -0.1696
  C  C6277  1  0.313550  0.954810  0.872980  1.0  -0.055
  C  C6278  1  0.330110  0.951780  0.859330  1.0  -0.1862
  C  C6279  1  0.347410  0.965040  0.860770  1.0  0.1783
  C  C6280  1  0.329390  0.935670  0.843040  1.0  0.4132
  C  C6281  1  0.399160  0.161050  0.468780  1.0  0.198
  C  C6282  1  0.403670  0.178450  0.456840  1.0  -0.1363
  C  C6283  1  0.394000  0.197330  0.461940  1.0  -0.0645
  C  C6284  1  0.380560  0.197600  0.478840  1.0  -0.1559
  C  C6285  1  0.376900  0.179240  0.489850  1.0  0.1806
  C  C6286  1  0.531210  0.093020  0.398280  1.0  0.2752
  C  C6287  1  0.484660  0.108630  0.414820  1.0  0.1537
  C  C6288  1  0.472050  0.109440  0.432640  1.0  -0.137
  C  C6289  1  0.458230  0.125510  0.435010  1.0  -0.0061
  C  C6290  1  0.456670  0.140570  0.419060  1.0  -0.1682
  C  C6291  1  0.469350  0.138260  0.401690  1.0  0.2029
  C  C6292  1  0.441530  0.157910  0.420380  1.0  0.3947
  C  C6293  1  0.417300  0.176190  0.438230  1.0  0.263
  C  C6294  1  0.425780  0.185530  0.405700  1.0  0.4025
  C  C6295  1  0.404350  0.212420  0.387250  1.0  0.1922
  C  C6296  1  0.421640  0.198780  0.387290  1.0  -0.1759
  C  C6297  1  0.433990  0.197900  0.369280  1.0  -0.0385
  C  C6298  1  0.428590  0.210630  0.352560  1.0  -0.1276
  C  C6299  1  0.411580  0.223770  0.354150  1.0  0.1603
  C  C6300  1  0.369910  0.251260  0.324960  1.0  0.2899
  C  C6301  1  0.332930  0.267600  0.361360  1.0  0.1523
  C  C6302  1  0.315270  0.279250  0.362140  1.0  -0.1674
  C  C6303  1  0.313550  0.295190  0.377020  1.0  -0.055
  C  C6304  1  0.330110  0.298220  0.390670  1.0  -0.1853
  C  C6305  1  0.347410  0.284960  0.389230  1.0  0.1775
  C  C6306  1  0.329390  0.314330  0.406960  1.0  0.413
  C  C6307  1  0.399160  0.661050  0.968780  1.0  0.198
  C  C6308  1  0.403670  0.678450  0.956840  1.0  -0.1363
  C  C6309  1  0.394000  0.697330  0.961940  1.0  -0.0645
  C  C6310  1  0.380560  0.697600  0.978840  1.0  -0.1559
  C  C6311  1  0.376900  0.679240  0.989850  1.0  0.1806
  C  C6312  1  0.531210  0.593020  0.898280  1.0  0.2752
  C  C6313  1  0.484660  0.608630  0.914820  1.0  0.1537
  C  C6314  1  0.472050  0.609440  0.932640  1.0  -0.137
  C  C6315  1  0.458230  0.625510  0.935010  1.0  -0.0061
  C  C6316  1  0.456670  0.640570  0.919060  1.0  -0.1682
  C  C6317  1  0.469350  0.638260  0.901690  1.0  0.2029
  C  C6318  1  0.441530  0.657910  0.920380  1.0  0.3947
  C  C6319  1  0.417300  0.676190  0.938230  1.0  0.263
  C  C6320  1  0.425780  0.685530  0.905700  1.0  0.4025
  C  C6321  1  0.404350  0.712420  0.887250  1.0  0.1922
  C  C6322  1  0.421640  0.698780  0.887290  1.0  -0.1759
  C  C6323  1  0.433990  0.697900  0.869280  1.0  -0.0385
  C  C6324  1  0.428590  0.710630  0.852560  1.0  -0.1276
  C  C6325  1  0.411580  0.723770  0.854150  1.0  0.1603
  C  C6326  1  0.369910  0.751260  0.824960  1.0  0.2899
  C  C6327  1  0.332930  0.767600  0.861360  1.0  0.1523
  C  C6328  1  0.315270  0.779250  0.862140  1.0  -0.1674
  C  C6329  1  0.313550  0.795190  0.877020  1.0  -0.055
  C  C6330  1  0.330110  0.798220  0.890670  1.0  -0.1853
  C  C6331  1  0.347410  0.784960  0.889230  1.0  0.1775
  C  C6332  1  0.329390  0.814330  0.906960  1.0  0.413
  C  C6333  1  0.899160  0.161050  0.968780  1.0  0.198
  C  C6334  1  0.903670  0.178450  0.956840  1.0  -0.1363
  C  C6335  1  0.894000  0.197330  0.961940  1.0  -0.0645
  C  C6336  1  0.880560  0.197600  0.978840  1.0  -0.1559
  C  C6337  1  0.876900  0.179240  0.989850  1.0  0.1806
  C  C6338  1  0.031210  0.093020  0.898280  1.0  0.2752
  C  C6339  1  0.984660  0.108630  0.914820  1.0  0.1537
  C  C6340  1  0.972050  0.109440  0.932640  1.0  -0.137
  C  C6341  1  0.958230  0.125510  0.935010  1.0  -0.0061
  C  C6342  1  0.956670  0.140570  0.919060  1.0  -0.1682
  C  C6343  1  0.969350  0.138260  0.901690  1.0  0.2029
  C  C6344  1  0.941530  0.157910  0.920380  1.0  0.3947
  C  C6345  1  0.917300  0.176190  0.938230  1.0  0.2648
  C  C6346  1  0.925780  0.185530  0.905700  1.0  0.4025
  C  C6347  1  0.904350  0.212420  0.887250  1.0  0.1922
  C  C6348  1  0.921640  0.198780  0.887290  1.0  -0.1759
  C  C6349  1  0.933990  0.197900  0.869280  1.0  -0.0385
  C  C6350  1  0.928590  0.210630  0.852560  1.0  -0.1276
  C  C6351  1  0.911580  0.223770  0.854150  1.0  0.1603
  C  C6352  1  0.869910  0.251260  0.824960  1.0  0.2899
  C  C6353  1  0.832930  0.267600  0.861360  1.0  0.1523
  C  C6354  1  0.815270  0.279250  0.862140  1.0  -0.1674
  C  C6355  1  0.813550  0.295190  0.877020  1.0  -0.055
  C  C6356  1  0.830110  0.298220  0.890670  1.0  -0.1853
  C  C6357  1  0.847410  0.284960  0.889230  1.0  0.1775
  C  C6358  1  0.829390  0.314330  0.906960  1.0  0.413
  C  C6359  1  0.899160  0.661050  0.468780  1.0  0.198
  C  C6360  1  0.903670  0.678450  0.456840  1.0  -0.1363
  C  C6361  1  0.894000  0.697330  0.461940  1.0  -0.0645
  C  C6362  1  0.880560  0.697600  0.478840  1.0  -0.1559
  C  C6363  1  0.876900  0.679240  0.489850  1.0  0.1806
  C  C6364  1  0.031210  0.593020  0.398280  1.0  0.2752
  C  C6365  1  0.984660  0.608630  0.414820  1.0  0.1537
  C  C6366  1  0.972050  0.609440  0.432640  1.0  -0.137
  C  C6367  1  0.958230  0.625510  0.435010  1.0  -0.0061
  C  C6368  1  0.956670  0.640570  0.419060  1.0  -0.1682
  C  C6369  1  0.969350  0.638260  0.401690  1.0  0.2029
  C  C6370  1  0.941530  0.657910  0.420380  1.0  0.3947
  C  C6371  1  0.917300  0.676190  0.438230  1.0  0.2648
  C  C6372  1  0.925780  0.685530  0.405700  1.0  0.4025
  C  C6373  1  0.904350  0.712420  0.387250  1.0  0.1922
  C  C6374  1  0.921640  0.698780  0.387290  1.0  -0.1759
  C  C6375  1  0.933990  0.697900  0.369280  1.0  -0.0385
  C  C6376  1  0.928590  0.710630  0.352560  1.0  -0.1276
  C  C6377  1  0.911580  0.723770  0.354150  1.0  0.1603
  C  C6378  1  0.869910  0.751260  0.324960  1.0  0.2899
  C  C6379  1  0.832930  0.767600  0.361360  1.0  0.1523
  C  C6380  1  0.815270  0.779250  0.362140  1.0  -0.1674
  C  C6381  1  0.813550  0.795190  0.377020  1.0  -0.055
  C  C6382  1  0.830110  0.798220  0.390670  1.0  -0.1853
  C  C6383  1  0.847410  0.784960  0.389230  1.0  0.1775
  C  C6384  1  0.829390  0.814330  0.406960  1.0  0.413
  C  C6385  1  0.850840  0.661050  0.281220  1.0  0.1974
  C  C6386  1  0.846330  0.678450  0.293160  1.0  -0.1356
  C  C6387  1  0.856000  0.697330  0.288060  1.0  -0.0652
  C  C6388  1  0.869440  0.697600  0.271160  1.0  -0.1548
  C  C6389  1  0.873100  0.679240  0.260150  1.0  0.1797
  C  C6390  1  0.718790  0.593020  0.351720  1.0  0.2773
  C  C6391  1  0.765340  0.608630  0.335180  1.0  0.1556
  C  C6392  1  0.777950  0.609440  0.317360  1.0  -0.1365
  C  C6393  1  0.791770  0.625510  0.314990  1.0  -0.0065
  C  C6394  1  0.793330  0.640570  0.330940  1.0  -0.1691
  C  C6395  1  0.780650  0.638260  0.348310  1.0  0.202
  C  C6396  1  0.808470  0.657910  0.329620  1.0  0.395
  C  C6397  1  0.832700  0.676190  0.311770  1.0  0.2626
  C  C6398  1  0.824220  0.685530  0.344300  1.0  0.4015
  C  C6399  1  0.845650  0.712420  0.362750  1.0  0.1921
  C  C6400  1  0.828360  0.698780  0.362710  1.0  -0.1751
  C  C6401  1  0.816010  0.697900  0.380720  1.0  -0.0384
  C  C6402  1  0.821410  0.710630  0.397440  1.0  -0.1296
  C  C6403  1  0.838420  0.723770  0.395850  1.0  0.1592
  C  C6404  1  0.880090  0.751260  0.425040  1.0  0.2902
  C  C6405  1  0.917070  0.767600  0.388640  1.0  0.1527
  C  C6406  1  0.934730  0.779250  0.387860  1.0  -0.1681
  C  C6407  1  0.936450  0.795190  0.372980  1.0  -0.0526
  C  C6408  1  0.919890  0.798220  0.359330  1.0  -0.1852
  C  C6409  1  0.902590  0.784960  0.360770  1.0  0.1791
  C  C6410  1  0.920610  0.814330  0.343040  1.0  0.4134
  C  C6411  1  0.850840  0.161050  0.781220  1.0  0.1974
  C  C6412  1  0.846330  0.178450  0.793160  1.0  -0.1356
  C  C6413  1  0.856000  0.197330  0.788060  1.0  -0.0652
  C  C6414  1  0.869440  0.197600  0.771160  1.0  -0.1548
  C  C6415  1  0.873100  0.179240  0.760150  1.0  0.1797
  C  C6416  1  0.718790  0.093020  0.851720  1.0  0.2773
  C  C6417  1  0.765340  0.108630  0.835180  1.0  0.1556
  C  C6418  1  0.777950  0.109440  0.817360  1.0  -0.1365
  C  C6419  1  0.791770  0.125510  0.814990  1.0  -0.0065
  C  C6420  1  0.793330  0.140570  0.830940  1.0  -0.1691
  C  C6421  1  0.780650  0.138260  0.848310  1.0  0.202
  C  C6422  1  0.808470  0.157910  0.829620  1.0  0.395
  C  C6423  1  0.832700  0.176190  0.811770  1.0  0.2626
  C  C6424  1  0.824220  0.185530  0.844300  1.0  0.4015
  C  C6425  1  0.845650  0.212420  0.862750  1.0  0.1921
  C  C6426  1  0.828360  0.198780  0.862710  1.0  -0.1751
  C  C6427  1  0.816010  0.197900  0.880720  1.0  -0.0384
  C  C6428  1  0.821410  0.210630  0.897440  1.0  -0.1296
  C  C6429  1  0.838420  0.223770  0.895850  1.0  0.1592
  C  C6430  1  0.880090  0.251260  0.925040  1.0  0.2902
  C  C6431  1  0.917070  0.267600  0.888640  1.0  0.1527
  C  C6432  1  0.934730  0.279250  0.887860  1.0  -0.1681
  C  C6433  1  0.936450  0.295190  0.872980  1.0  -0.0526
  C  C6434  1  0.919890  0.298220  0.859330  1.0  -0.1852
  C  C6435  1  0.902590  0.284960  0.860770  1.0  0.1791
  C  C6436  1  0.920610  0.314330  0.843040  1.0  0.4134
  C  C6437  1  0.350840  0.661050  0.781220  1.0  0.1974
  C  C6438  1  0.346330  0.678450  0.793160  1.0  -0.1356
  C  C6439  1  0.356000  0.697330  0.788060  1.0  -0.0652
  C  C6440  1  0.369440  0.697600  0.771160  1.0  -0.1548
  C  C6441  1  0.373100  0.679240  0.760150  1.0  0.1797
  C  C6442  1  0.218790  0.593020  0.851720  1.0  0.2773
  C  C6443  1  0.265340  0.608630  0.835180  1.0  0.1556
  C  C6444  1  0.277950  0.609440  0.817360  1.0  -0.1365
  C  C6445  1  0.291770  0.625510  0.814990  1.0  -0.0065
  C  C6446  1  0.293330  0.640570  0.830940  1.0  -0.1691
  C  C6447  1  0.280650  0.638260  0.848310  1.0  0.202
  C  C6448  1  0.308470  0.657910  0.829620  1.0  0.395
  C  C6449  1  0.332700  0.676190  0.811770  1.0  0.2626
  C  C6450  1  0.324220  0.685530  0.844300  1.0  0.4015
  C  C6451  1  0.345650  0.712420  0.862750  1.0  0.1921
  C  C6452  1  0.328360  0.698780  0.862710  1.0  -0.1751
  C  C6453  1  0.316010  0.697900  0.880720  1.0  -0.0384
  C  C6454  1  0.321410  0.710630  0.897440  1.0  -0.1296
  C  C6455  1  0.338420  0.723770  0.895850  1.0  0.1592
  C  C6456  1  0.380090  0.751260  0.925040  1.0  0.2902
  C  C6457  1  0.417070  0.767600  0.888640  1.0  0.1527
  C  C6458  1  0.434730  0.779250  0.887860  1.0  -0.1681
  C  C6459  1  0.436450  0.795190  0.872980  1.0  -0.0526
  C  C6460  1  0.419890  0.798220  0.859330  1.0  -0.1852
  C  C6461  1  0.402590  0.784960  0.860770  1.0  0.1791
  C  C6462  1  0.420610  0.814330  0.843040  1.0  0.4134
  C  C6463  1  0.350840  0.161050  0.281220  1.0  0.1974
  C  C6464  1  0.346330  0.178450  0.293160  1.0  -0.1356
  C  C6465  1  0.356000  0.197330  0.288060  1.0  -0.0652
  C  C6466  1  0.369440  0.197600  0.271160  1.0  -0.1548
  C  C6467  1  0.373100  0.179240  0.260150  1.0  0.1797
  C  C6468  1  0.218790  0.093020  0.351720  1.0  0.2773
  C  C6469  1  0.265340  0.108630  0.335180  1.0  0.1556
  C  C6470  1  0.277950  0.109440  0.317360  1.0  -0.1365
  C  C6471  1  0.291770  0.125510  0.314990  1.0  -0.0065
  C  C6472  1  0.293330  0.140570  0.330940  1.0  -0.1691
  C  C6473  1  0.280650  0.138260  0.348310  1.0  0.202
  C  C6474  1  0.308470  0.157910  0.329620  1.0  0.395
  C  C6475  1  0.332700  0.176190  0.311770  1.0  0.2626
  C  C6476  1  0.324220  0.185530  0.344300  1.0  0.4015
  C  C6477  1  0.345650  0.212420  0.362750  1.0  0.1921
  C  C6478  1  0.328360  0.198780  0.362710  1.0  -0.1751
  C  C6479  1  0.316010  0.197900  0.380720  1.0  -0.0384
  C  C6480  1  0.321410  0.210630  0.397440  1.0  -0.1296
  C  C6481  1  0.338420  0.223770  0.395850  1.0  0.1592
  C  C6482  1  0.380090  0.251260  0.425040  1.0  0.2902
  C  C6483  1  0.417070  0.267600  0.388640  1.0  0.1527
  C  C6484  1  0.434730  0.279250  0.387860  1.0  -0.1681
  C  C6485  1  0.436450  0.295190  0.372980  1.0  -0.0526
  C  C6486  1  0.419890  0.298220  0.359330  1.0  -0.1852
  C  C6487  1  0.402590  0.284960  0.360770  1.0  0.1791
  C  C6488  1  0.420610  0.314330  0.343040  1.0  0.4134
  C  C6489  1  0.350840  0.088950  0.968780  1.0  0.1978
  C  C6490  1  0.346330  0.071550  0.956840  1.0  -0.1368
  C  C6491  1  0.356000  0.052670  0.961940  1.0  -0.0634
  C  C6492  1  0.369440  0.052400  0.978840  1.0  -0.156
  C  C6493  1  0.373100  0.070760  0.989850  1.0  0.1804
  C  C6494  1  0.218790  0.156980  0.898280  1.0  0.2774
  C  C6495  1  0.265340  0.141370  0.914820  1.0  0.1536
  C  C6496  1  0.277950  0.140560  0.932640  1.0  -0.137
  C  C6497  1  0.291770  0.124490  0.935010  1.0  -0.0054
  C  C6498  1  0.293330  0.109430  0.919060  1.0  -0.1689
  C  C6499  1  0.280650  0.111740  0.901690  1.0  0.2021
  C  C6500  1  0.308470  0.092090  0.920380  1.0  0.3951
  C  C6501  1  0.332700  0.073810  0.938230  1.0  0.2626
  C  C6502  1  0.324220  0.064470  0.905700  1.0  0.4019
  C  C6503  1  0.345650  0.037580  0.887250  1.0  0.1917
  C  C6504  1  0.328360  0.051220  0.887290  1.0  -0.1739
  C  C6505  1  0.316010  0.052100  0.869280  1.0  -0.0387
  C  C6506  1  0.321410  0.039370  0.852560  1.0  -0.129
  C  C6507  1  0.338420  0.026230  0.854150  1.0  0.1603
  C  C6508  1  0.380090  0.998740  0.824960  1.0  0.2901
  C  C6509  1  0.417070  0.982400  0.861360  1.0  0.1536
  C  C6510  1  0.434730  0.970750  0.862140  1.0  -0.1683
  C  C6511  1  0.436450  0.954810  0.877020  1.0  -0.0527
  C  C6512  1  0.419890  0.951780  0.890670  1.0  -0.186
  C  C6513  1  0.402590  0.965040  0.889230  1.0  0.18
  C  C6514  1  0.420610  0.935670  0.906960  1.0  0.4132
  C  C6515  1  0.350840  0.588950  0.468780  1.0  0.1978
  C  C6516  1  0.346330  0.571550  0.456840  1.0  -0.1368
  C  C6517  1  0.356000  0.552670  0.461940  1.0  -0.0634
  C  C6518  1  0.369440  0.552400  0.478840  1.0  -0.156
  C  C6519  1  0.373100  0.570760  0.489850  1.0  0.1804
  C  C6520  1  0.218790  0.656980  0.398280  1.0  0.2774
  C  C6521  1  0.265340  0.641370  0.414820  1.0  0.1536
  C  C6522  1  0.277950  0.640560  0.432640  1.0  -0.137
  C  C6523  1  0.291770  0.624490  0.435010  1.0  -0.0054
  C  C6524  1  0.293330  0.609430  0.419060  1.0  -0.1689
  C  C6525  1  0.280650  0.611740  0.401690  1.0  0.2021
  C  C6526  1  0.308470  0.592090  0.420380  1.0  0.3951
  C  C6527  1  0.332700  0.573810  0.438230  1.0  0.2626
  C  C6528  1  0.324220  0.564470  0.405700  1.0  0.4019
  C  C6529  1  0.345650  0.537580  0.387250  1.0  0.1917
  C  C6530  1  0.328360  0.551220  0.387290  1.0  -0.1739
  C  C6531  1  0.316010  0.552100  0.369280  1.0  -0.0387
  C  C6532  1  0.321410  0.539370  0.352560  1.0  -0.129
  C  C6533  1  0.338420  0.526230  0.354150  1.0  0.1603
  C  C6534  1  0.380090  0.498740  0.324960  1.0  0.2901
  C  C6535  1  0.417070  0.482400  0.361360  1.0  0.1536
  C  C6536  1  0.434730  0.470750  0.362140  1.0  -0.1683
  C  C6537  1  0.436450  0.454810  0.377020  1.0  -0.0527
  C  C6538  1  0.419890  0.451780  0.390670  1.0  -0.186
  C  C6539  1  0.402590  0.465040  0.389230  1.0  0.18
  C  C6540  1  0.420610  0.435670  0.406960  1.0  0.4132
  C  C6541  1  0.850840  0.088950  0.468780  1.0  0.1978
  C  C6542  1  0.846330  0.071550  0.456840  1.0  -0.1368
  C  C6543  1  0.856000  0.052670  0.461940  1.0  -0.0634
  C  C6544  1  0.869440  0.052400  0.478840  1.0  -0.156
  C  C6545  1  0.873100  0.070760  0.489850  1.0  0.1804
  C  C6546  1  0.718790  0.156980  0.398280  1.0  0.2774
  C  C6547  1  0.765340  0.141370  0.414820  1.0  0.1536
  C  C6548  1  0.777950  0.140560  0.432640  1.0  -0.137
  C  C6549  1  0.791770  0.124490  0.435010  1.0  -0.0054
  C  C6550  1  0.793330  0.109430  0.419060  1.0  -0.1689
  C  C6551  1  0.780650  0.111740  0.401690  1.0  0.2021
  C  C6552  1  0.808470  0.092090  0.420380  1.0  0.3951
  C  C6553  1  0.832700  0.073810  0.438230  1.0  0.2626
  C  C6554  1  0.824220  0.064470  0.405700  1.0  0.4019
  C  C6555  1  0.845650  0.037580  0.387250  1.0  0.1917
  C  C6556  1  0.828360  0.051220  0.387290  1.0  -0.1739
  C  C6557  1  0.816010  0.052100  0.369280  1.0  -0.0387
  C  C6558  1  0.821410  0.039370  0.352560  1.0  -0.129
  C  C6559  1  0.838420  0.026230  0.354150  1.0  0.1603
  C  C6560  1  0.880090  0.998740  0.324960  1.0  0.2901
  C  C6561  1  0.917070  0.982400  0.361360  1.0  0.1536
  C  C6562  1  0.934730  0.970750  0.362140  1.0  -0.1683
  C  C6563  1  0.936450  0.954810  0.377020  1.0  -0.0527
  C  C6564  1  0.919890  0.951780  0.390670  1.0  -0.186
  C  C6565  1  0.902590  0.965040  0.389230  1.0  0.18
  C  C6566  1  0.920610  0.935670  0.406960  1.0  0.4132
  C  C6567  1  0.850840  0.588950  0.968780  1.0  0.1978
  C  C6568  1  0.846330  0.571550  0.956840  1.0  -0.1368
  C  C6569  1  0.856000  0.552670  0.961940  1.0  -0.0634
  C  C6570  1  0.869440  0.552400  0.978840  1.0  -0.156
  C  C6571  1  0.873100  0.570760  0.989850  1.0  0.1804
  C  C6572  1  0.718790  0.656980  0.898280  1.0  0.2774
  C  C6573  1  0.765340  0.641370  0.914820  1.0  0.1536
  C  C6574  1  0.777950  0.640560  0.932640  1.0  -0.137
  C  C6575  1  0.791770  0.624490  0.935010  1.0  -0.0054
  C  C6576  1  0.793330  0.609430  0.919060  1.0  -0.1689
  C  C6577  1  0.780650  0.611740  0.901690  1.0  0.2021
  C  C6578  1  0.808470  0.592090  0.920380  1.0  0.3951
  C  C6579  1  0.832700  0.573810  0.938230  1.0  0.2626
  C  C6580  1  0.824220  0.564470  0.905700  1.0  0.4019
  C  C6581  1  0.845650  0.537580  0.887250  1.0  0.1917
  C  C6582  1  0.828360  0.551220  0.887290  1.0  -0.1739
  C  C6583  1  0.816010  0.552100  0.869280  1.0  -0.0387
  C  C6584  1  0.821410  0.539370  0.852560  1.0  -0.129
  C  C6585  1  0.838420  0.526230  0.854150  1.0  0.1603
  C  C6586  1  0.880090  0.498740  0.824960  1.0  0.2901
  C  C6587  1  0.917070  0.482400  0.861360  1.0  0.1536
  C  C6588  1  0.934730  0.470750  0.862140  1.0  -0.1683
  C  C6589  1  0.936450  0.454810  0.877020  1.0  -0.0527
  C  C6590  1  0.919890  0.451780  0.890670  1.0  -0.186
  C  C6591  1  0.902590  0.465040  0.889230  1.0  0.18
  C  C6592  1  0.920610  0.435670  0.906960  1.0  0.4132
  C  C6593  1  0.781220  0.899160  0.588950  1.0  0.1983
  C  C6594  1  0.793160  0.903670  0.571550  1.0  -0.1345
  C  C6595  1  0.788060  0.894000  0.552670  1.0  -0.0684
  C  C6596  1  0.771160  0.880560  0.552400  1.0  -0.1544
  C  C6597  1  0.760150  0.876900  0.570760  1.0  0.1802
  C  C6598  1  0.851720  0.031210  0.656980  1.0  0.2766
  C  C6599  1  0.835180  0.984660  0.641370  1.0  0.1578
  C  C6600  1  0.817360  0.972050  0.640560  1.0  -0.1374
  C  C6601  1  0.814990  0.958230  0.624490  1.0  -0.0046
  C  C6602  1  0.830940  0.956670  0.609430  1.0  -0.1722
  C  C6603  1  0.848310  0.969350  0.611740  1.0  0.2015
  C  C6604  1  0.829620  0.941530  0.592090  1.0  0.3948
  C  C6605  1  0.811770  0.917300  0.573810  1.0  0.2653
  C  C6606  1  0.844300  0.925780  0.564470  1.0  0.4023
  C  C6607  1  0.862750  0.904350  0.537580  1.0  0.1934
  C  C6608  1  0.862710  0.921640  0.551220  1.0  -0.1696
  C  C6609  1  0.880720  0.933990  0.552100  1.0  -0.0395
  C  C6610  1  0.897440  0.928590  0.539370  1.0  -0.1304
  C  C6611  1  0.895850  0.911580  0.526230  1.0  0.165
  C  C6612  1  0.925040  0.869910  0.498740  1.0  0.296
  C  C6613  1  0.888640  0.832930  0.482400  1.0  0.1516
  C  C6614  1  0.887860  0.815270  0.470750  1.0  -0.1699
  C  C6615  1  0.872980  0.813550  0.454810  1.0  -0.0524
  C  C6616  1  0.859330  0.830110  0.451780  1.0  -0.1841
  C  C6617  1  0.860770  0.847410  0.465040  1.0  0.1793
  C  C6618  1  0.843040  0.829390  0.435670  1.0  0.4129
  C  C6619  1  0.781220  0.399160  0.088950  1.0  0.1983
  C  C6620  1  0.793160  0.403670  0.071550  1.0  -0.1345
  C  C6621  1  0.788060  0.394000  0.052670  1.0  -0.0684
  C  C6622  1  0.771160  0.380560  0.052400  1.0  -0.1544
  C  C6623  1  0.760150  0.376900  0.070760  1.0  0.1802
  C  C6624  1  0.851720  0.531210  0.156980  1.0  0.2766
  C  C6625  1  0.835180  0.484660  0.141370  1.0  0.1578
  C  C6626  1  0.817360  0.472050  0.140560  1.0  -0.1374
  C  C6627  1  0.814990  0.458230  0.124490  1.0  -0.0046
  C  C6628  1  0.830940  0.456670  0.109430  1.0  -0.1722
  C  C6629  1  0.848310  0.469350  0.111740  1.0  0.2015
  C  C6630  1  0.829620  0.441530  0.092090  1.0  0.3948
  C  C6631  1  0.811770  0.417300  0.073810  1.0  0.2632
  C  C6632  1  0.844300  0.425780  0.064470  1.0  0.4023
  C  C6633  1  0.862750  0.404350  0.037580  1.0  0.1934
  C  C6634  1  0.862710  0.421640  0.051220  1.0  -0.1696
  C  C6635  1  0.880720  0.433990  0.052100  1.0  -0.0395
  C  C6636  1  0.897440  0.428590  0.039370  1.0  -0.1304
  C  C6637  1  0.895850  0.411580  0.026230  1.0  0.165
  C  C6638  1  0.925040  0.369910  0.998740  1.0  0.296
  C  C6639  1  0.888640  0.332930  0.982400  1.0  0.1516
  C  C6640  1  0.887860  0.315270  0.970750  1.0  -0.1699
  C  C6641  1  0.872980  0.313550  0.954810  1.0  -0.0524
  C  C6642  1  0.859330  0.330110  0.951780  1.0  -0.1841
  C  C6643  1  0.860770  0.347410  0.965040  1.0  0.1793
  C  C6644  1  0.843040  0.329390  0.935670  1.0  0.4129
  C  C6645  1  0.281220  0.899160  0.088950  1.0  0.1983
  C  C6646  1  0.293160  0.903670  0.071550  1.0  -0.1345
  C  C6647  1  0.288060  0.894000  0.052670  1.0  -0.0684
  C  C6648  1  0.271160  0.880560  0.052400  1.0  -0.1544
  C  C6649  1  0.260150  0.876900  0.070760  1.0  0.1802
  C  C6650  1  0.351720  0.031210  0.156980  1.0  0.2766
  C  C6651  1  0.335180  0.984660  0.141370  1.0  0.1578
  C  C6652  1  0.317360  0.972050  0.140560  1.0  -0.1374
  C  C6653  1  0.314990  0.958230  0.124490  1.0  -0.0046
  C  C6654  1  0.330940  0.956670  0.109430  1.0  -0.1722
  C  C6655  1  0.348310  0.969350  0.111740  1.0  0.2015
  C  C6656  1  0.329620  0.941530  0.092090  1.0  0.3948
  C  C6657  1  0.311770  0.917300  0.073810  1.0  0.2653
  C  C6658  1  0.344300  0.925780  0.064470  1.0  0.4023
  C  C6659  1  0.362750  0.904350  0.037580  1.0  0.1934
  C  C6660  1  0.362710  0.921640  0.051220  1.0  -0.1696
  C  C6661  1  0.380720  0.933990  0.052100  1.0  -0.0395
  C  C6662  1  0.397440  0.928590  0.039370  1.0  -0.1304
  C  C6663  1  0.395850  0.911580  0.026230  1.0  0.165
  C  C6664  1  0.425040  0.869910  0.998740  1.0  0.296
  C  C6665  1  0.388640  0.832930  0.982400  1.0  0.1516
  C  C6666  1  0.387860  0.815270  0.970750  1.0  -0.1699
  C  C6667  1  0.372980  0.813550  0.954810  1.0  -0.0524
  C  C6668  1  0.359330  0.830110  0.951780  1.0  -0.1841
  C  C6669  1  0.360770  0.847410  0.965040  1.0  0.1793
  C  C6670  1  0.343040  0.829390  0.935670  1.0  0.4129
  C  C6671  1  0.281220  0.399160  0.588950  1.0  0.1983
  C  C6672  1  0.293160  0.403670  0.571550  1.0  -0.1345
  C  C6673  1  0.288060  0.394000  0.552670  1.0  -0.0684
  C  C6674  1  0.271160  0.380560  0.552400  1.0  -0.1544
  C  C6675  1  0.260150  0.376900  0.570760  1.0  0.1802
  C  C6676  1  0.351720  0.531210  0.656980  1.0  0.2766
  C  C6677  1  0.335180  0.484660  0.641370  1.0  0.1578
  C  C6678  1  0.317360  0.472050  0.640560  1.0  -0.1374
  C  C6679  1  0.314990  0.458230  0.624490  1.0  -0.0046
  C  C6680  1  0.330940  0.456670  0.609430  1.0  -0.1722
  C  C6681  1  0.348310  0.469350  0.611740  1.0  0.2015
  C  C6682  1  0.329620  0.441530  0.592090  1.0  0.3948
  C  C6683  1  0.311770  0.417300  0.573810  1.0  0.2632
  C  C6684  1  0.344300  0.425780  0.564470  1.0  0.4023
  C  C6685  1  0.362750  0.404350  0.537580  1.0  0.1934
  C  C6686  1  0.362710  0.421640  0.551220  1.0  -0.1696
  C  C6687  1  0.380720  0.433990  0.552100  1.0  -0.0395
  C  C6688  1  0.397440  0.428590  0.539370  1.0  -0.1304
  C  C6689  1  0.395850  0.411580  0.526230  1.0  0.165
  C  C6690  1  0.425040  0.369910  0.498740  1.0  0.296
  C  C6691  1  0.388640  0.332930  0.482400  1.0  0.1516
  C  C6692  1  0.387860  0.315270  0.470750  1.0  -0.1699
  C  C6693  1  0.372980  0.313550  0.454810  1.0  -0.0524
  C  C6694  1  0.359330  0.330110  0.451780  1.0  -0.1841
  C  C6695  1  0.360770  0.347410  0.465040  1.0  0.1793
  C  C6696  1  0.343040  0.329390  0.435670  1.0  0.4129
  C  C6697  1  0.468780  0.399160  0.161050  1.0  0.1982
  C  C6698  1  0.456840  0.403670  0.178450  1.0  -0.1324
  C  C6699  1  0.461940  0.394000  0.197330  1.0  -0.0684
  C  C6700  1  0.478840  0.380560  0.197600  1.0  -0.1541
  C  C6701  1  0.489850  0.376900  0.179240  1.0  0.1812
  C  C6702  1  0.398280  0.531210  0.093020  1.0  0.274
  C  C6703  1  0.414820  0.484660  0.108630  1.0  0.1603
  C  C6704  1  0.432640  0.472050  0.109440  1.0  -0.1326
  C  C6705  1  0.435010  0.458230  0.125510  1.0  -0.004
  C  C6706  1  0.419060  0.456670  0.140570  1.0  -0.1718
  C  C6707  1  0.401690  0.469350  0.138260  1.0  0.2019
  C  C6708  1  0.420380  0.441530  0.157910  1.0  0.3948
  C  C6709  1  0.438230  0.417300  0.176190  1.0  0.263
  C  C6710  1  0.405700  0.425780  0.185530  1.0  0.4021
  C  C6711  1  0.387250  0.404350  0.212420  1.0  0.1934
  C  C6712  1  0.387290  0.421640  0.198780  1.0  -0.1709
  C  C6713  1  0.369280  0.433990  0.197900  1.0  -0.0399
  C  C6714  1  0.352560  0.428590  0.210630  1.0  -0.1326
  C  C6715  1  0.354150  0.411580  0.223770  1.0  0.1639
  C  C6716  1  0.324960  0.369910  0.251260  1.0  0.2946
  C  C6717  1  0.361360  0.332930  0.267600  1.0  0.1519
  C  C6718  1  0.362140  0.315270  0.279250  1.0  -0.1686
  C  C6719  1  0.377020  0.313550  0.295190  1.0  -0.0522
  C  C6720  1  0.390670  0.330110  0.298220  1.0  -0.1831
  C  C6721  1  0.389230  0.347410  0.284960  1.0  0.1791
  C  C6722  1  0.406960  0.329390  0.314330  1.0  0.4126
  C  C6723  1  0.468780  0.899160  0.661050  1.0  0.1982
  C  C6724  1  0.456840  0.903670  0.678450  1.0  -0.1324
  C  C6725  1  0.461940  0.894000  0.697330  1.0  -0.0684
  C  C6726  1  0.478840  0.880560  0.697600  1.0  -0.1541
  C  C6727  1  0.489850  0.876900  0.679240  1.0  0.1812
  C  C6728  1  0.398280  0.031210  0.593020  1.0  0.274
  C  C6729  1  0.414820  0.984660  0.608630  1.0  0.1603
  C  C6730  1  0.432640  0.972050  0.609440  1.0  -0.1326
  C  C6731  1  0.435010  0.958230  0.625510  1.0  -0.004
  C  C6732  1  0.419060  0.956670  0.640570  1.0  -0.1718
  C  C6733  1  0.401690  0.969350  0.638260  1.0  0.2019
  C  C6734  1  0.420380  0.941530  0.657910  1.0  0.3948
  C  C6735  1  0.438230  0.917300  0.676190  1.0  0.2651
  C  C6736  1  0.405700  0.925780  0.685530  1.0  0.4021
  C  C6737  1  0.387250  0.904350  0.712420  1.0  0.1934
  C  C6738  1  0.387290  0.921640  0.698780  1.0  -0.1709
  C  C6739  1  0.369280  0.933990  0.697900  1.0  -0.0399
  C  C6740  1  0.352560  0.928590  0.710630  1.0  -0.1326
  C  C6741  1  0.354150  0.911580  0.723770  1.0  0.1639
  C  C6742  1  0.324960  0.869910  0.751260  1.0  0.2946
  C  C6743  1  0.361360  0.832930  0.767600  1.0  0.1519
  C  C6744  1  0.362140  0.815270  0.779250  1.0  -0.1686
  C  C6745  1  0.377020  0.813550  0.795190  1.0  -0.0522
  C  C6746  1  0.390670  0.830110  0.798220  1.0  -0.1831
  C  C6747  1  0.389230  0.847410  0.784960  1.0  0.1791
  C  C6748  1  0.406960  0.829390  0.814330  1.0  0.4126
  C  C6749  1  0.968780  0.399160  0.661050  1.0  0.1982
  C  C6750  1  0.956840  0.403670  0.678450  1.0  -0.1324
  C  C6751  1  0.961940  0.394000  0.697330  1.0  -0.0684
  C  C6752  1  0.978840  0.380560  0.697600  1.0  -0.1541
  C  C6753  1  0.989850  0.376900  0.679240  1.0  0.1812
  C  C6754  1  0.898280  0.531210  0.593020  1.0  0.274
  C  C6755  1  0.914820  0.484660  0.608630  1.0  0.1603
  C  C6756  1  0.932640  0.472050  0.609440  1.0  -0.1326
  C  C6757  1  0.935010  0.458230  0.625510  1.0  -0.004
  C  C6758  1  0.919060  0.456670  0.640570  1.0  -0.1718
  C  C6759  1  0.901690  0.469350  0.638260  1.0  0.2019
  C  C6760  1  0.920380  0.441530  0.657910  1.0  0.3948
  C  C6761  1  0.938230  0.417300  0.676190  1.0  0.263
  C  C6762  1  0.905700  0.425780  0.685530  1.0  0.4021
  C  C6763  1  0.887250  0.404350  0.712420  1.0  0.1934
  C  C6764  1  0.887290  0.421640  0.698780  1.0  -0.1709
  C  C6765  1  0.869280  0.433990  0.697900  1.0  -0.0399
  C  C6766  1  0.852560  0.428590  0.710630  1.0  -0.1326
  C  C6767  1  0.854150  0.411580  0.723770  1.0  0.1639
  C  C6768  1  0.824960  0.369910  0.751260  1.0  0.2946
  C  C6769  1  0.861360  0.332930  0.767600  1.0  0.1519
  C  C6770  1  0.862140  0.315270  0.779250  1.0  -0.1686
  C  C6771  1  0.877020  0.313550  0.795190  1.0  -0.0522
  C  C6772  1  0.890670  0.330110  0.798220  1.0  -0.1831
  C  C6773  1  0.889230  0.347410  0.784960  1.0  0.1791
  C  C6774  1  0.906960  0.329390  0.814330  1.0  0.4126
  C  C6775  1  0.968780  0.899160  0.161050  1.0  0.1982
  C  C6776  1  0.956840  0.903670  0.178450  1.0  -0.1324
  C  C6777  1  0.961940  0.894000  0.197330  1.0  -0.0684
  C  C6778  1  0.978840  0.880560  0.197600  1.0  -0.1541
  C  C6779  1  0.989850  0.876900  0.179240  1.0  0.1812
  C  C6780  1  0.898280  0.031210  0.093020  1.0  0.274
  C  C6781  1  0.914820  0.984660  0.108630  1.0  0.1603
  C  C6782  1  0.932640  0.972050  0.109440  1.0  -0.1326
  C  C6783  1  0.935010  0.958230  0.125510  1.0  -0.004
  C  C6784  1  0.919060  0.956670  0.140570  1.0  -0.1718
  C  C6785  1  0.901690  0.969350  0.138260  1.0  0.2019
  C  C6786  1  0.920380  0.941530  0.157910  1.0  0.3948
  C  C6787  1  0.938230  0.917300  0.176190  1.0  0.2651
  C  C6788  1  0.905700  0.925780  0.185530  1.0  0.4021
  C  C6789  1  0.887250  0.904350  0.212420  1.0  0.1934
  C  C6790  1  0.887290  0.921640  0.198780  1.0  -0.1709
  C  C6791  1  0.869280  0.933990  0.197900  1.0  -0.0399
  C  C6792  1  0.852560  0.928590  0.210630  1.0  -0.1326
  C  C6793  1  0.854150  0.911580  0.223770  1.0  0.1639
  C  C6794  1  0.824960  0.869910  0.251260  1.0  0.2946
  C  C6795  1  0.861360  0.832930  0.267600  1.0  0.1519
  C  C6796  1  0.862140  0.815270  0.279250  1.0  -0.1686
  C  C6797  1  0.877020  0.813550  0.295190  1.0  -0.0522
  C  C6798  1  0.890670  0.830110  0.298220  1.0  -0.1831
  C  C6799  1  0.889230  0.847410  0.284960  1.0  0.1791
  C  C6800  1  0.906960  0.829390  0.314330  1.0  0.4126
  C  C6801  1  0.281220  0.850840  0.661050  1.0  0.1986
  C  C6802  1  0.293160  0.846330  0.678450  1.0  -0.1343
  C  C6803  1  0.288060  0.856000  0.697330  1.0  -0.0668
  C  C6804  1  0.271160  0.869440  0.697600  1.0  -0.1572
  C  C6805  1  0.260150  0.873100  0.679240  1.0  0.18
  C  C6806  1  0.351720  0.718790  0.593020  1.0  0.2773
  C  C6807  1  0.335180  0.765340  0.608630  1.0  0.1591
  C  C6808  1  0.317360  0.777950  0.609440  1.0  -0.1365
  C  C6809  1  0.314990  0.791770  0.625510  1.0  -0.0051
  C  C6810  1  0.330940  0.793330  0.640570  1.0  -0.1716
  C  C6811  1  0.348310  0.780650  0.638260  1.0  0.2012
  C  C6812  1  0.329620  0.808470  0.657910  1.0  0.3947
  C  C6813  1  0.311770  0.832700  0.676190  1.0  0.2633
  C  C6814  1  0.344300  0.824220  0.685530  1.0  0.4023
  C  C6815  1  0.362750  0.845650  0.712420  1.0  0.1942
  C  C6816  1  0.362710  0.828360  0.698780  1.0  -0.1714
  C  C6817  1  0.380720  0.816010  0.697900  1.0  -0.0412
  C  C6818  1  0.397440  0.821410  0.710630  1.0  -0.1299
  C  C6819  1  0.395850  0.838420  0.723770  1.0  0.1643
  C  C6820  1  0.425040  0.880090  0.751260  1.0  0.2956
  C  C6821  1  0.388640  0.917070  0.767600  1.0  0.1519
  C  C6822  1  0.387860  0.934730  0.779250  1.0  -0.1677
  C  C6823  1  0.372980  0.936450  0.795190  1.0  -0.0516
  C  C6824  1  0.359330  0.919890  0.798220  1.0  -0.1832
  C  C6825  1  0.360770  0.902590  0.784960  1.0  0.18
  C  C6826  1  0.343040  0.920610  0.814330  1.0  0.4127
  C  C6827  1  0.281220  0.350840  0.161050  1.0  0.1986
  C  C6828  1  0.293160  0.346330  0.178450  1.0  -0.1343
  C  C6829  1  0.288060  0.356000  0.197330  1.0  -0.0668
  C  C6830  1  0.271160  0.369440  0.197600  1.0  -0.1572
  C  C6831  1  0.260150  0.373100  0.179240  1.0  0.18
  C  C6832  1  0.351720  0.218790  0.093020  1.0  0.2773
  C  C6833  1  0.335180  0.265340  0.108630  1.0  0.1591
  C  C6834  1  0.317360  0.277950  0.109440  1.0  -0.1365
  C  C6835  1  0.314990  0.291770  0.125510  1.0  -0.0051
  C  C6836  1  0.330940  0.293330  0.140570  1.0  -0.1716
  C  C6837  1  0.348310  0.280650  0.138260  1.0  0.2012
  C  C6838  1  0.329620  0.308470  0.157910  1.0  0.3947
  C  C6839  1  0.311770  0.332700  0.176190  1.0  0.2633
  C  C6840  1  0.344300  0.324220  0.185530  1.0  0.4023
  C  C6841  1  0.362750  0.345650  0.212420  1.0  0.1942
  C  C6842  1  0.362710  0.328360  0.198780  1.0  -0.1714
  C  C6843  1  0.380720  0.316010  0.197900  1.0  -0.0412
  C  C6844  1  0.397440  0.321410  0.210630  1.0  -0.1299
  C  C6845  1  0.395850  0.338420  0.223770  1.0  0.1643
  C  C6846  1  0.425040  0.380090  0.251260  1.0  0.2956
  C  C6847  1  0.388640  0.417070  0.267600  1.0  0.1519
  C  C6848  1  0.387860  0.434730  0.279250  1.0  -0.1677
  C  C6849  1  0.372980  0.436450  0.295190  1.0  -0.0516
  C  C6850  1  0.359330  0.419890  0.298220  1.0  -0.1832
  C  C6851  1  0.360770  0.402590  0.284960  1.0  0.18
  C  C6852  1  0.343040  0.420610  0.314330  1.0  0.4127
  C  C6853  1  0.781220  0.850840  0.161050  1.0  0.1986
  C  C6854  1  0.793160  0.846330  0.178450  1.0  -0.1343
  C  C6855  1  0.788060  0.856000  0.197330  1.0  -0.0668
  C  C6856  1  0.771160  0.869440  0.197600  1.0  -0.1572
  C  C6857  1  0.760150  0.873100  0.179240  1.0  0.18
  C  C6858  1  0.851720  0.718790  0.093020  1.0  0.2773
  C  C6859  1  0.835180  0.765340  0.108630  1.0  0.1591
  C  C6860  1  0.817360  0.777950  0.109440  1.0  -0.1365
  C  C6861  1  0.814990  0.791770  0.125510  1.0  -0.0051
  C  C6862  1  0.830940  0.793330  0.140570  1.0  -0.1716
  C  C6863  1  0.848310  0.780650  0.138260  1.0  0.2012
  C  C6864  1  0.829620  0.808470  0.157910  1.0  0.3947
  C  C6865  1  0.811770  0.832700  0.176190  1.0  0.2633
  C  C6866  1  0.844300  0.824220  0.185530  1.0  0.4023
  C  C6867  1  0.862750  0.845650  0.212420  1.0  0.1942
  C  C6868  1  0.862710  0.828360  0.198780  1.0  -0.1714
  C  C6869  1  0.880720  0.816010  0.197900  1.0  -0.0412
  C  C6870  1  0.897440  0.821410  0.210630  1.0  -0.1299
  C  C6871  1  0.895850  0.838420  0.223770  1.0  0.1643
  C  C6872  1  0.925040  0.880090  0.251260  1.0  0.2956
  C  C6873  1  0.888640  0.917070  0.267600  1.0  0.1519
  C  C6874  1  0.887860  0.934730  0.279250  1.0  -0.1677
  C  C6875  1  0.872980  0.936450  0.295190  1.0  -0.0516
  C  C6876  1  0.859330  0.919890  0.298220  1.0  -0.1832
  C  C6877  1  0.860770  0.902590  0.284960  1.0  0.18
  C  C6878  1  0.843040  0.920610  0.314330  1.0  0.4127
  C  C6879  1  0.781220  0.350840  0.661050  1.0  0.1986
  C  C6880  1  0.793160  0.346330  0.678450  1.0  -0.1343
  C  C6881  1  0.788060  0.356000  0.697330  1.0  -0.0668
  C  C6882  1  0.771160  0.369440  0.697600  1.0  -0.1572
  C  C6883  1  0.760150  0.373100  0.679240  1.0  0.18
  C  C6884  1  0.851720  0.218790  0.593020  1.0  0.2773
  C  C6885  1  0.835180  0.265340  0.608630  1.0  0.1591
  C  C6886  1  0.817360  0.277950  0.609440  1.0  -0.1365
  C  C6887  1  0.814990  0.291770  0.625510  1.0  -0.0051
  C  C6888  1  0.830940  0.293330  0.640570  1.0  -0.1716
  C  C6889  1  0.848310  0.280650  0.638260  1.0  0.2012
  C  C6890  1  0.829620  0.308470  0.657910  1.0  0.3947
  C  C6891  1  0.811770  0.332700  0.676190  1.0  0.2633
  C  C6892  1  0.844300  0.324220  0.685530  1.0  0.4023
  C  C6893  1  0.862750  0.345650  0.712420  1.0  0.1942
  C  C6894  1  0.862710  0.328360  0.698780  1.0  -0.1714
  C  C6895  1  0.880720  0.316010  0.697900  1.0  -0.0412
  C  C6896  1  0.897440  0.321410  0.710630  1.0  -0.1299
  C  C6897  1  0.895850  0.338420  0.723770  1.0  0.1643
  C  C6898  1  0.925040  0.380090  0.751260  1.0  0.2956
  C  C6899  1  0.888640  0.417070  0.767600  1.0  0.1519
  C  C6900  1  0.887860  0.434730  0.779250  1.0  -0.1677
  C  C6901  1  0.872980  0.436450  0.795190  1.0  -0.0516
  C  C6902  1  0.859330  0.419890  0.798220  1.0  -0.1832
  C  C6903  1  0.860770  0.402590  0.784960  1.0  0.18
  C  C6904  1  0.843040  0.420610  0.814330  1.0  0.4127
  C  C6905  1  0.968780  0.350840  0.088950  1.0  0.1978
  C  C6906  1  0.956840  0.346330  0.071550  1.0  -0.1341
  C  C6907  1  0.961940  0.356000  0.052670  1.0  -0.068
  C  C6908  1  0.978840  0.369440  0.052400  1.0  -0.1549
  C  C6909  1  0.989850  0.373100  0.070760  1.0  0.18
  C  C6910  1  0.898280  0.218790  0.156980  1.0  0.2756
  C  C6911  1  0.914820  0.265340  0.141370  1.0  0.1598
  C  C6912  1  0.932640  0.277950  0.140560  1.0  -0.1332
  C  C6913  1  0.935010  0.291770  0.124490  1.0  -0.0051
  C  C6914  1  0.919060  0.293330  0.109430  1.0  -0.1715
  C  C6915  1  0.901690  0.280650  0.111740  1.0  0.202
  C  C6916  1  0.920380  0.308470  0.092090  1.0  0.3947
  C  C6917  1  0.938230  0.332700  0.073810  1.0  0.2632
  C  C6918  1  0.905700  0.324220  0.064470  1.0  0.4022
  C  C6919  1  0.887250  0.345650  0.037580  1.0  0.1926
  C  C6920  1  0.887290  0.328360  0.051220  1.0  -0.1699
  C  C6921  1  0.869280  0.316010  0.052100  1.0  -0.0399
  C  C6922  1  0.852560  0.321410  0.039370  1.0  -0.1318
  C  C6923  1  0.854150  0.338420  0.026230  1.0  0.1638
  C  C6924  1  0.824960  0.380090  0.998740  1.0  0.2947
  C  C6925  1  0.861360  0.417070  0.982400  1.0  0.1521
  C  C6926  1  0.862140  0.434730  0.970750  1.0  -0.1672
  C  C6927  1  0.877020  0.436450  0.954810  1.0  -0.0516
  C  C6928  1  0.890670  0.419890  0.951780  1.0  -0.1831
  C  C6929  1  0.889230  0.402590  0.965040  1.0  0.1794
  C  C6930  1  0.906960  0.420610  0.935670  1.0  0.4131
  C  C6931  1  0.968780  0.850840  0.588950  1.0  0.1978
  C  C6932  1  0.956840  0.846330  0.571550  1.0  -0.1341
  C  C6933  1  0.961940  0.856000  0.552670  1.0  -0.068
  C  C6934  1  0.978840  0.869440  0.552400  1.0  -0.1549
  C  C6935  1  0.989850  0.873100  0.570760  1.0  0.18
  C  C6936  1  0.898280  0.718790  0.656980  1.0  0.2756
  C  C6937  1  0.914820  0.765340  0.641370  1.0  0.1598
  C  C6938  1  0.932640  0.777950  0.640560  1.0  -0.1332
  C  C6939  1  0.935010  0.791770  0.624490  1.0  -0.0051
  C  C6940  1  0.919060  0.793330  0.609430  1.0  -0.1715
  C  C6941  1  0.901690  0.780650  0.611740  1.0  0.202
  C  C6942  1  0.920380  0.808470  0.592090  1.0  0.3947
  C  C6943  1  0.938230  0.832700  0.573810  1.0  0.2632
  C  C6944  1  0.905700  0.824220  0.564470  1.0  0.4022
  C  C6945  1  0.887250  0.845650  0.537580  1.0  0.1926
  C  C6946  1  0.887290  0.828360  0.551220  1.0  -0.1699
  C  C6947  1  0.869280  0.816010  0.552100  1.0  -0.0399
  C  C6948  1  0.852560  0.821410  0.539370  1.0  -0.1318
  C  C6949  1  0.854150  0.838420  0.526230  1.0  0.1638
  C  C6950  1  0.824960  0.880090  0.498740  1.0  0.2947
  C  C6951  1  0.861360  0.917070  0.482400  1.0  0.1521
  C  C6952  1  0.862140  0.934730  0.470750  1.0  -0.1672
  C  C6953  1  0.877020  0.936450  0.454810  1.0  -0.0516
  C  C6954  1  0.890670  0.919890  0.451780  1.0  -0.1831
  C  C6955  1  0.889230  0.902590  0.465040  1.0  0.1794
  C  C6956  1  0.906960  0.920610  0.435670  1.0  0.4131
  C  C6957  1  0.468780  0.350840  0.588950  1.0  0.1978
  C  C6958  1  0.456840  0.346330  0.571550  1.0  -0.1341
  C  C6959  1  0.461940  0.356000  0.552670  1.0  -0.068
  C  C6960  1  0.478840  0.369440  0.552400  1.0  -0.1549
  C  C6961  1  0.489850  0.373100  0.570760  1.0  0.18
  C  C6962  1  0.398280  0.218790  0.656980  1.0  0.2756
  C  C6963  1  0.414820  0.265340  0.641370  1.0  0.1598
  C  C6964  1  0.432640  0.277950  0.640560  1.0  -0.1332
  C  C6965  1  0.435010  0.291770  0.624490  1.0  -0.0051
  C  C6966  1  0.419060  0.293330  0.609430  1.0  -0.1715
  C  C6967  1  0.401690  0.280650  0.611740  1.0  0.202
  C  C6968  1  0.420380  0.308470  0.592090  1.0  0.3947
  C  C6969  1  0.438230  0.332700  0.573810  1.0  0.2632
  C  C6970  1  0.405700  0.324220  0.564470  1.0  0.4022
  C  C6971  1  0.387250  0.345650  0.537580  1.0  0.1926
  C  C6972  1  0.387290  0.328360  0.551220  1.0  -0.1699
  C  C6973  1  0.369280  0.316010  0.552100  1.0  -0.0399
  C  C6974  1  0.352560  0.321410  0.539370  1.0  -0.1318
  C  C6975  1  0.354150  0.338420  0.526230  1.0  0.1638
  C  C6976  1  0.324960  0.380090  0.498740  1.0  0.2947
  C  C6977  1  0.361360  0.417070  0.482400  1.0  0.1521
  C  C6978  1  0.362140  0.434730  0.470750  1.0  -0.1672
  C  C6979  1  0.377020  0.436450  0.454810  1.0  -0.0516
  C  C6980  1  0.390670  0.419890  0.451780  1.0  -0.1831
  C  C6981  1  0.389230  0.402590  0.465040  1.0  0.1794
  C  C6982  1  0.406960  0.420610  0.435670  1.0  0.4131
  C  C6983  1  0.468780  0.850840  0.088950  1.0  0.1978
  C  C6984  1  0.456840  0.846330  0.071550  1.0  -0.1341
  C  C6985  1  0.461940  0.856000  0.052670  1.0  -0.068
  C  C6986  1  0.478840  0.869440  0.052400  1.0  -0.1549
  C  C6987  1  0.489850  0.873100  0.070760  1.0  0.18
  C  C6988  1  0.398280  0.718790  0.156980  1.0  0.2756
  C  C6989  1  0.414820  0.765340  0.141370  1.0  0.1598
  C  C6990  1  0.432640  0.777950  0.140560  1.0  -0.1332
  C  C6991  1  0.435010  0.791770  0.124490  1.0  -0.0051
  C  C6992  1  0.419060  0.793330  0.109430  1.0  -0.1715
  C  C6993  1  0.401690  0.780650  0.111740  1.0  0.202
  C  C6994  1  0.420380  0.808470  0.092090  1.0  0.3947
  C  C6995  1  0.438230  0.832700  0.073810  1.0  0.2632
  C  C6996  1  0.405700  0.824220  0.064470  1.0  0.4022
  C  C6997  1  0.387250  0.845650  0.037580  1.0  0.1926
  C  C6998  1  0.387290  0.828360  0.051220  1.0  -0.1699
  C  C6999  1  0.369280  0.816010  0.052100  1.0  -0.0399
  C  C7000  1  0.352560  0.821410  0.039370  1.0  -0.1318
  C  C7001  1  0.354150  0.838420  0.026230  1.0  0.1638
  C  C7002  1  0.324960  0.880090  0.998740  1.0  0.2947
  C  C7003  1  0.361360  0.917070  0.982400  1.0  0.1521
  C  C7004  1  0.362140  0.934730  0.970750  1.0  -0.1672
  C  C7005  1  0.377020  0.936450  0.954810  1.0  -0.0516
  C  C7006  1  0.390670  0.919890  0.951780  1.0  -0.1831
  C  C7007  1  0.389230  0.902590  0.965040  1.0  0.1794
  C  C7008  1  0.406960  0.920610  0.935670  1.0  0.4131
  C  C7009  1  0.031220  0.338950  0.100840  1.0  0.1973
  C  C7010  1  0.043160  0.321550  0.096330  1.0  -0.1361
  C  C7011  1  0.038060  0.302670  0.106000  1.0  -0.0655
  C  C7012  1  0.021160  0.302400  0.119440  1.0  -0.1582
  C  C7013  1  0.010150  0.320760  0.123100  1.0  0.1807
  C  C7014  1  0.101720  0.406980  0.968790  1.0  0.2775
  C  C7015  1  0.085180  0.391370  0.015340  1.0  0.16
  C  C7016  1  0.067360  0.390560  0.027950  1.0  -0.1377
  C  C7017  1  0.064990  0.374490  0.041770  1.0  -0.0039
  C  C7018  1  0.080940  0.359430  0.043330  1.0  -0.171
  C  C7019  1  0.098310  0.361740  0.030650  1.0  0.2018
  C  C7020  1  0.079620  0.342090  0.058470  1.0  0.3954
  C  C7021  1  0.061770  0.323810  0.082700  1.0  0.265
  C  C7022  1  0.094300  0.314470  0.074220  1.0  0.4018
  C  C7023  1  0.112750  0.287580  0.095650  1.0  0.1938
  C  C7024  1  0.112710  0.301220  0.078360  1.0  -0.1704
  C  C7025  1  0.130720  0.302100  0.066010  1.0  -0.0413
  C  C7026  1  0.147440  0.289370  0.071410  1.0  -0.1304
  C  C7027  1  0.145850  0.276230  0.088420  1.0  0.165
  C  C7028  1  0.175040  0.248740  0.130090  1.0  0.2957
  C  C7029  1  0.138640  0.232400  0.167070  1.0  0.1514
  C  C7030  1  0.137860  0.220750  0.184730  1.0  -0.1665
  C  C7031  1  0.122980  0.204810  0.186450  1.0  -0.0538
  C  C7032  1  0.109330  0.201780  0.169890  1.0  -0.184
  C  C7033  1  0.110770  0.215040  0.152590  1.0  0.1814
  C  C7034  1  0.093040  0.185670  0.170610  1.0  0.413
  C  C7035  1  0.031220  0.838950  0.600840  1.0  0.1973
  C  C7036  1  0.043160  0.821550  0.596330  1.0  -0.1361
  C  C7037  1  0.038060  0.802670  0.606000  1.0  -0.0655
  C  C7038  1  0.021160  0.802400  0.619440  1.0  -0.1582
  C  C7039  1  0.010150  0.820760  0.623100  1.0  0.1807
  C  C7040  1  0.101720  0.906980  0.468790  1.0  0.2775
  C  C7041  1  0.085180  0.891370  0.515340  1.0  0.16
  C  C7042  1  0.067360  0.890560  0.527950  1.0  -0.1377
  C  C7043  1  0.064990  0.874490  0.541770  1.0  -0.0039
  C  C7044  1  0.080940  0.859430  0.543330  1.0  -0.171
  C  C7045  1  0.098310  0.861740  0.530650  1.0  0.2018
  C  C7046  1  0.079620  0.842090  0.558470  1.0  0.3954
  C  C7047  1  0.061770  0.823810  0.582700  1.0  0.263
  C  C7048  1  0.094300  0.814470  0.574220  1.0  0.4018
  C  C7049  1  0.112750  0.787580  0.595650  1.0  0.1938
  C  C7050  1  0.112710  0.801220  0.578360  1.0  -0.1704
  C  C7051  1  0.130720  0.802100  0.566010  1.0  -0.0413
  C  C7052  1  0.147440  0.789370  0.571410  1.0  -0.1304
  C  C7053  1  0.145850  0.776230  0.588420  1.0  0.165
  C  C7054  1  0.175040  0.748740  0.630090  1.0  0.2957
  C  C7055  1  0.138640  0.732400  0.667070  1.0  0.1514
  C  C7056  1  0.137860  0.720750  0.684730  1.0  -0.1665
  C  C7057  1  0.122980  0.704810  0.686450  1.0  -0.0538
  C  C7058  1  0.109330  0.701780  0.669890  1.0  -0.184
  C  C7059  1  0.110770  0.715040  0.652590  1.0  0.1814
  C  C7060  1  0.093040  0.685670  0.670610  1.0  0.413
  C  C7061  1  0.531220  0.338950  0.600840  1.0  0.1973
  C  C7062  1  0.543160  0.321550  0.596330  1.0  -0.1361
  C  C7063  1  0.538060  0.302670  0.606000  1.0  -0.0655
  C  C7064  1  0.521160  0.302400  0.619440  1.0  -0.1582
  C  C7065  1  0.510150  0.320760  0.623100  1.0  0.1807
  C  C7066  1  0.601720  0.406980  0.468790  1.0  0.2775
  C  C7067  1  0.585180  0.391370  0.515340  1.0  0.16
  C  C7068  1  0.567360  0.390560  0.527950  1.0  -0.1377
  C  C7069  1  0.564990  0.374490  0.541770  1.0  -0.0039
  C  C7070  1  0.580940  0.359430  0.543330  1.0  -0.171
  C  C7071  1  0.598310  0.361740  0.530650  1.0  0.2018
  C  C7072  1  0.579620  0.342090  0.558470  1.0  0.3954
  C  C7073  1  0.561770  0.323810  0.582700  1.0  0.263
  C  C7074  1  0.594300  0.314470  0.574220  1.0  0.4018
  C  C7075  1  0.612750  0.287580  0.595650  1.0  0.1938
  C  C7076  1  0.612710  0.301220  0.578360  1.0  -0.1704
  C  C7077  1  0.630720  0.302100  0.566010  1.0  -0.0413
  C  C7078  1  0.647440  0.289370  0.571410  1.0  -0.1304
  C  C7079  1  0.645850  0.276230  0.588420  1.0  0.165
  C  C7080  1  0.675040  0.248740  0.630090  1.0  0.2957
  C  C7081  1  0.638640  0.232400  0.667070  1.0  0.1514
  C  C7082  1  0.637860  0.220750  0.684730  1.0  -0.1665
  C  C7083  1  0.622980  0.204810  0.686450  1.0  -0.0538
  C  C7084  1  0.609330  0.201780  0.669890  1.0  -0.184
  C  C7085  1  0.610770  0.215040  0.652590  1.0  0.1814
  C  C7086  1  0.593040  0.185670  0.670610  1.0  0.413
  C  C7087  1  0.531220  0.838950  0.100840  1.0  0.1973
  C  C7088  1  0.543160  0.821550  0.096330  1.0  -0.1361
  C  C7089  1  0.538060  0.802670  0.106000  1.0  -0.0655
  C  C7090  1  0.521160  0.802400  0.119440  1.0  -0.1582
  C  C7091  1  0.510150  0.820760  0.123100  1.0  0.1807
  C  C7092  1  0.601720  0.906980  0.968790  1.0  0.2775
  C  C7093  1  0.585180  0.891370  0.015340  1.0  0.16
  C  C7094  1  0.567360  0.890560  0.027950  1.0  -0.1377
  C  C7095  1  0.564990  0.874490  0.041770  1.0  -0.0039
  C  C7096  1  0.580940  0.859430  0.043330  1.0  -0.171
  C  C7097  1  0.598310  0.861740  0.030650  1.0  0.2018
  C  C7098  1  0.579620  0.842090  0.058470  1.0  0.3954
  C  C7099  1  0.561770  0.823810  0.082700  1.0  0.265
  C  C7100  1  0.594300  0.814470  0.074220  1.0  0.4018
  C  C7101  1  0.612750  0.787580  0.095650  1.0  0.1938
  C  C7102  1  0.612710  0.801220  0.078360  1.0  -0.1704
  C  C7103  1  0.630720  0.802100  0.066010  1.0  -0.0413
  C  C7104  1  0.647440  0.789370  0.071410  1.0  -0.1304
  C  C7105  1  0.645850  0.776230  0.088420  1.0  0.165
  C  C7106  1  0.675040  0.748740  0.130090  1.0  0.2957
  C  C7107  1  0.638640  0.732400  0.167070  1.0  0.1514
  C  C7108  1  0.637860  0.720750  0.184730  1.0  -0.1665
  C  C7109  1  0.622980  0.704810  0.186450  1.0  -0.0538
  C  C7110  1  0.609330  0.701780  0.169890  1.0  -0.184
  C  C7111  1  0.610770  0.715040  0.152590  1.0  0.1814
  C  C7112  1  0.593040  0.685670  0.170610  1.0  0.413
  C  C7113  1  0.718780  0.911050  0.600840  1.0  0.1967
  C  C7114  1  0.706840  0.928450  0.596330  1.0  -0.134
  C  C7115  1  0.711940  0.947330  0.606000  1.0  -0.0677
  C  C7116  1  0.728840  0.947600  0.619440  1.0  -0.1556
  C  C7117  1  0.739850  0.929240  0.623100  1.0  0.1799
  C  C7118  1  0.648280  0.843020  0.468790  1.0  0.2739
  C  C7119  1  0.664820  0.858630  0.515340  1.0  0.1613
  C  C7120  1  0.682640  0.859440  0.527950  1.0  -0.1344
  C  C7121  1  0.685010  0.875510  0.541770  1.0  -0.0041
  C  C7122  1  0.669060  0.890570  0.543330  1.0  -0.1709
  C  C7123  1  0.651690  0.888260  0.530650  1.0  0.2017
  C  C7124  1  0.670380  0.907910  0.558470  1.0  0.3951
  C  C7125  1  0.688230  0.926190  0.582700  1.0  0.2628
  C  C7126  1  0.655700  0.935530  0.574220  1.0  0.4015
  C  C7127  1  0.637250  0.962420  0.595650  1.0  0.1936
  C  C7128  1  0.637290  0.948780  0.578360  1.0  -0.1708
  C  C7129  1  0.619280  0.947900  0.566010  1.0  -0.0402
  C  C7130  1  0.602560  0.960630  0.571410  1.0  -0.1312
  C  C7131  1  0.604150  0.973770  0.588420  1.0  0.1639
  C  C7132  1  0.574960  0.001260  0.630090  1.0  0.2944
  C  C7133  1  0.611360  0.017600  0.667070  1.0  0.151
  C  C7134  1  0.612140  0.029250  0.684730  1.0  -0.1656
  C  C7135  1  0.627020  0.045190  0.686450  1.0  -0.0534
  C  C7136  1  0.640670  0.048220  0.669890  1.0  -0.1831
  C  C7137  1  0.639230  0.034960  0.652590  1.0  0.1806
  C  C7138  1  0.656960  0.064330  0.670610  1.0  0.4131
  C  C7139  1  0.718780  0.411050  0.100840  1.0  0.1967
  C  C7140  1  0.706840  0.428450  0.096330  1.0  -0.134
  C  C7141  1  0.711940  0.447330  0.106000  1.0  -0.0677
  C  C7142  1  0.728840  0.447600  0.119440  1.0  -0.1556
  C  C7143  1  0.739850  0.429240  0.123100  1.0  0.1799
  C  C7144  1  0.648280  0.343020  0.968790  1.0  0.2739
  C  C7145  1  0.664820  0.358630  0.015340  1.0  0.1613
  C  C7146  1  0.682640  0.359440  0.027950  1.0  -0.1344
  C  C7147  1  0.685010  0.375510  0.041770  1.0  -0.0041
  C  C7148  1  0.669060  0.390570  0.043330  1.0  -0.1709
  C  C7149  1  0.651690  0.388260  0.030650  1.0  0.2017
  C  C7150  1  0.670380  0.407910  0.058470  1.0  0.3951
  C  C7151  1  0.688230  0.426190  0.082700  1.0  0.2648
  C  C7152  1  0.655700  0.435530  0.074220  1.0  0.4015
  C  C7153  1  0.637250  0.462420  0.095650  1.0  0.1936
  C  C7154  1  0.637290  0.448780  0.078360  1.0  -0.1708
  C  C7155  1  0.619280  0.447900  0.066010  1.0  -0.0402
  C  C7156  1  0.602560  0.460630  0.071410  1.0  -0.1312
  C  C7157  1  0.604150  0.473770  0.088420  1.0  0.1639
  C  C7158  1  0.574960  0.501260  0.130090  1.0  0.2944
  C  C7159  1  0.611360  0.517600  0.167070  1.0  0.151
  C  C7160  1  0.612140  0.529250  0.184730  1.0  -0.1656
  C  C7161  1  0.627020  0.545190  0.186450  1.0  -0.0534
  C  C7162  1  0.640670  0.548220  0.169890  1.0  -0.1831
  C  C7163  1  0.639230  0.534960  0.152590  1.0  0.1806
  C  C7164  1  0.656960  0.564330  0.170610  1.0  0.4131
  C  C7165  1  0.218780  0.911050  0.100840  1.0  0.1967
  C  C7166  1  0.206840  0.928450  0.096330  1.0  -0.134
  C  C7167  1  0.211940  0.947330  0.106000  1.0  -0.0677
  C  C7168  1  0.228840  0.947600  0.119440  1.0  -0.1556
  C  C7169  1  0.239850  0.929240  0.123100  1.0  0.1799
  C  C7170  1  0.148280  0.843020  0.968790  1.0  0.2739
  C  C7171  1  0.164820  0.858630  0.015340  1.0  0.1613
  C  C7172  1  0.182640  0.859440  0.027950  1.0  -0.1344
  C  C7173  1  0.185010  0.875510  0.041770  1.0  -0.0041
  C  C7174  1  0.169060  0.890570  0.043330  1.0  -0.1709
  C  C7175  1  0.151690  0.888260  0.030650  1.0  0.2017
  C  C7176  1  0.170380  0.907910  0.058470  1.0  0.3951
  C  C7177  1  0.188230  0.926190  0.082700  1.0  0.2648
  C  C7178  1  0.155700  0.935530  0.074220  1.0  0.4015
  C  C7179  1  0.137250  0.962420  0.095650  1.0  0.1936
  C  C7180  1  0.137290  0.948780  0.078360  1.0  -0.1708
  C  C7181  1  0.119280  0.947900  0.066010  1.0  -0.0402
  C  C7182  1  0.102560  0.960630  0.071410  1.0  -0.1312
  C  C7183  1  0.104150  0.973770  0.088420  1.0  0.1639
  C  C7184  1  0.074960  0.001260  0.130090  1.0  0.2944
  C  C7185  1  0.111360  0.017600  0.167070  1.0  0.151
  C  C7186  1  0.112140  0.029250  0.184730  1.0  -0.1656
  C  C7187  1  0.127020  0.045190  0.186450  1.0  -0.0534
  C  C7188  1  0.140670  0.048220  0.169890  1.0  -0.1831
  C  C7189  1  0.139230  0.034960  0.152590  1.0  0.1806
  C  C7190  1  0.156960  0.064330  0.170610  1.0  0.4131
  C  C7191  1  0.218780  0.411050  0.600840  1.0  0.1967
  C  C7192  1  0.206840  0.428450  0.596330  1.0  -0.134
  C  C7193  1  0.211940  0.447330  0.606000  1.0  -0.0677
  C  C7194  1  0.228840  0.447600  0.619440  1.0  -0.1556
  C  C7195  1  0.239850  0.429240  0.623100  1.0  0.1799
  C  C7196  1  0.148280  0.343020  0.468790  1.0  0.2739
  C  C7197  1  0.164820  0.358630  0.515340  1.0  0.1613
  C  C7198  1  0.182640  0.359440  0.527950  1.0  -0.1344
  C  C7199  1  0.185010  0.375510  0.541770  1.0  -0.0041
  C  C7200  1  0.169060  0.390570  0.543330  1.0  -0.1709
  C  C7201  1  0.151690  0.388260  0.530650  1.0  0.2017
  C  C7202  1  0.170380  0.407910  0.558470  1.0  0.3951
  C  C7203  1  0.188230  0.426190  0.582700  1.0  0.2628
  C  C7204  1  0.155700  0.435530  0.574220  1.0  0.4015
  C  C7205  1  0.137250  0.462420  0.595650  1.0  0.1936
  C  C7206  1  0.137290  0.448780  0.578360  1.0  -0.1708
  C  C7207  1  0.119280  0.447900  0.566010  1.0  -0.0402
  C  C7208  1  0.102560  0.460630  0.571410  1.0  -0.1312
  C  C7209  1  0.104150  0.473770  0.588420  1.0  0.1639
  C  C7210  1  0.074960  0.501260  0.630090  1.0  0.2944
  C  C7211  1  0.111360  0.517600  0.667070  1.0  0.151
  C  C7212  1  0.112140  0.529250  0.684730  1.0  -0.1656
  C  C7213  1  0.127020  0.545190  0.686450  1.0  -0.0534
  C  C7214  1  0.140670  0.548220  0.669890  1.0  -0.1831
  C  C7215  1  0.139230  0.534960  0.652590  1.0  0.1806
  C  C7216  1  0.156960  0.564330  0.670610  1.0  0.4131
  C  C7217  1  0.531220  0.411050  0.149160  1.0  0.1967
  C  C7218  1  0.543160  0.428450  0.153670  1.0  -0.1363
  C  C7219  1  0.538060  0.447330  0.144000  1.0  -0.0668
  C  C7220  1  0.521160  0.447600  0.130560  1.0  -0.158
  C  C7221  1  0.510150  0.429240  0.126900  1.0  0.18
  C  C7222  1  0.601720  0.343020  0.281210  1.0  0.2748
  C  C7223  1  0.585180  0.358630  0.234660  1.0  0.1608
  C  C7224  1  0.567360  0.359440  0.222050  1.0  -0.1374
  C  C7225  1  0.564990  0.375510  0.208230  1.0  -0.0042
  C  C7226  1  0.580940  0.390570  0.206670  1.0  -0.1705
  C  C7227  1  0.598310  0.388260  0.219350  1.0  0.2017
  C  C7228  1  0.579620  0.407910  0.191530  1.0  0.3949
  C  C7229  1  0.561770  0.426190  0.167300  1.0  0.263
  C  C7230  1  0.594300  0.435530  0.175780  1.0  0.4018
  C  C7231  1  0.612750  0.462420  0.154350  1.0  0.1948
  C  C7232  1  0.612710  0.448780  0.171640  1.0  -0.1706
  C  C7233  1  0.630720  0.447900  0.183990  1.0  -0.04
  C  C7234  1  0.647440  0.460630  0.178590  1.0  -0.1295
  C  C7235  1  0.645850  0.473770  0.161580  1.0  0.1652
  C  C7236  1  0.675040  0.501260  0.119910  1.0  0.2957
  C  C7237  1  0.638640  0.517600  0.082930  1.0  0.151
  C  C7238  1  0.637860  0.529250  0.065270  1.0  -0.1641
  C  C7239  1  0.622980  0.545190  0.063550  1.0  -0.0547
  C  C7240  1  0.609330  0.548220  0.080110  1.0  -0.1835
  C  C7241  1  0.610770  0.534960  0.097410  1.0  0.182
  C  C7242  1  0.593040  0.564330  0.079390  1.0  0.4132
  C  C7243  1  0.531220  0.911050  0.649160  1.0  0.1967
  C  C7244  1  0.543160  0.928450  0.653670  1.0  -0.1363
  C  C7245  1  0.538060  0.947330  0.644000  1.0  -0.0668
  C  C7246  1  0.521160  0.947600  0.630560  1.0  -0.158
  C  C7247  1  0.510150  0.929240  0.626900  1.0  0.18
  C  C7248  1  0.601720  0.843020  0.781210  1.0  0.2748
  C  C7249  1  0.585180  0.858630  0.734660  1.0  0.1608
  C  C7250  1  0.567360  0.859440  0.722050  1.0  -0.1374
  C  C7251  1  0.564990  0.875510  0.708230  1.0  -0.0042
  C  C7252  1  0.580940  0.890570  0.706670  1.0  -0.1705
  C  C7253  1  0.598310  0.888260  0.719350  1.0  0.2017
  C  C7254  1  0.579620  0.907910  0.691530  1.0  0.3949
  C  C7255  1  0.561770  0.926190  0.667300  1.0  0.263
  C  C7256  1  0.594300  0.935530  0.675780  1.0  0.4018
  C  C7257  1  0.612750  0.962420  0.654350  1.0  0.1948
  C  C7258  1  0.612710  0.948780  0.671640  1.0  -0.1706
  C  C7259  1  0.630720  0.947900  0.683990  1.0  -0.04
  C  C7260  1  0.647440  0.960630  0.678590  1.0  -0.1295
  C  C7261  1  0.645850  0.973770  0.661580  1.0  0.1652
  C  C7262  1  0.675040  0.001260  0.619910  1.0  0.2957
  C  C7263  1  0.638640  0.017600  0.582930  1.0  0.151
  C  C7264  1  0.637860  0.029250  0.565270  1.0  -0.1641
  C  C7265  1  0.622980  0.045190  0.563550  1.0  -0.0547
  C  C7266  1  0.609330  0.048220  0.580110  1.0  -0.1835
  C  C7267  1  0.610770  0.034960  0.597410  1.0  0.182
  C  C7268  1  0.593040  0.064330  0.579390  1.0  0.4132
  C  C7269  1  0.031220  0.411050  0.649160  1.0  0.1967
  C  C7270  1  0.043160  0.428450  0.653670  1.0  -0.1363
  C  C7271  1  0.038060  0.447330  0.644000  1.0  -0.0668
  C  C7272  1  0.021160  0.447600  0.630560  1.0  -0.158
  C  C7273  1  0.010150  0.429240  0.626900  1.0  0.18
  C  C7274  1  0.101720  0.343020  0.781210  1.0  0.2748
  C  C7275  1  0.085180  0.358630  0.734660  1.0  0.1608
  C  C7276  1  0.067360  0.359440  0.722050  1.0  -0.1374
  C  C7277  1  0.064990  0.375510  0.708230  1.0  -0.0042
  C  C7278  1  0.080940  0.390570  0.706670  1.0  -0.1705
  C  C7279  1  0.098310  0.388260  0.719350  1.0  0.2017
  C  C7280  1  0.079620  0.407910  0.691530  1.0  0.3949
  C  C7281  1  0.061770  0.426190  0.667300  1.0  0.263
  C  C7282  1  0.094300  0.435530  0.675780  1.0  0.4018
  C  C7283  1  0.112750  0.462420  0.654350  1.0  0.1948
  C  C7284  1  0.112710  0.448780  0.671640  1.0  -0.1706
  C  C7285  1  0.130720  0.447900  0.683990  1.0  -0.04
  C  C7286  1  0.147440  0.460630  0.678590  1.0  -0.1295
  C  C7287  1  0.145850  0.473770  0.661580  1.0  0.1652
  C  C7288  1  0.175040  0.501260  0.619910  1.0  0.2957
  C  C7289  1  0.138640  0.517600  0.582930  1.0  0.151
  C  C7290  1  0.137860  0.529250  0.565270  1.0  -0.1641
  C  C7291  1  0.122980  0.545190  0.563550  1.0  -0.0547
  C  C7292  1  0.109330  0.548220  0.580110  1.0  -0.1835
  C  C7293  1  0.110770  0.534960  0.597410  1.0  0.182
  C  C7294  1  0.093040  0.564330  0.579390  1.0  0.4132
  C  C7295  1  0.031220  0.911050  0.149160  1.0  0.1967
  C  C7296  1  0.043160  0.928450  0.153670  1.0  -0.1363
  C  C7297  1  0.038060  0.947330  0.144000  1.0  -0.0668
  C  C7298  1  0.021160  0.947600  0.130560  1.0  -0.158
  C  C7299  1  0.010150  0.929240  0.126900  1.0  0.18
  C  C7300  1  0.101720  0.843020  0.281210  1.0  0.2748
  C  C7301  1  0.085180  0.858630  0.234660  1.0  0.1608
  C  C7302  1  0.067360  0.859440  0.222050  1.0  -0.1374
  C  C7303  1  0.064990  0.875510  0.208230  1.0  -0.0042
  C  C7304  1  0.080940  0.890570  0.206670  1.0  -0.1705
  C  C7305  1  0.098310  0.888260  0.219350  1.0  0.2017
  C  C7306  1  0.079620  0.907910  0.191530  1.0  0.3949
  C  C7307  1  0.061770  0.926190  0.167300  1.0  0.263
  C  C7308  1  0.094300  0.935530  0.175780  1.0  0.4018
  C  C7309  1  0.112750  0.962420  0.154350  1.0  0.1948
  C  C7310  1  0.112710  0.948780  0.171640  1.0  -0.1706
  C  C7311  1  0.130720  0.947900  0.183990  1.0  -0.04
  C  C7312  1  0.147440  0.960630  0.178590  1.0  -0.1295
  C  C7313  1  0.145850  0.973770  0.161580  1.0  0.1652
  C  C7314  1  0.175040  0.001260  0.119910  1.0  0.2957
  C  C7315  1  0.138640  0.017600  0.082930  1.0  0.151
  C  C7316  1  0.137860  0.029250  0.065270  1.0  -0.1641
  C  C7317  1  0.122980  0.045190  0.063550  1.0  -0.0547
  C  C7318  1  0.109330  0.048220  0.080110  1.0  -0.1835
  C  C7319  1  0.110770  0.034960  0.097410  1.0  0.182
  C  C7320  1  0.093040  0.064330  0.079390  1.0  0.4132
  C  C7321  1  0.218780  0.838950  0.649160  1.0  0.1962
  C  C7322  1  0.206840  0.821550  0.653670  1.0  -0.1354
  C  C7323  1  0.211940  0.802670  0.644000  1.0  -0.0663
  C  C7324  1  0.228840  0.802400  0.630560  1.0  -0.156
  C  C7325  1  0.239850  0.820760  0.626900  1.0  0.1804
  C  C7326  1  0.148280  0.906980  0.781210  1.0  0.274
  C  C7327  1  0.164820  0.891370  0.734660  1.0  0.1614
  C  C7328  1  0.182640  0.890560  0.722050  1.0  -0.1338
  C  C7329  1  0.185010  0.874490  0.708230  1.0  -0.0035
  C  C7330  1  0.169060  0.859430  0.706670  1.0  -0.1705
  C  C7331  1  0.151690  0.861740  0.719350  1.0  0.2023
  C  C7332  1  0.170380  0.842090  0.691530  1.0  0.395
  C  C7333  1  0.188230  0.823810  0.667300  1.0  0.2627
  C  C7334  1  0.155700  0.814470  0.675780  1.0  0.4018
  C  C7335  1  0.137250  0.787580  0.654350  1.0  0.1939
  C  C7336  1  0.137290  0.801220  0.671640  1.0  -0.1703
  C  C7337  1  0.119280  0.802100  0.683990  1.0  -0.04
  C  C7338  1  0.102560  0.789370  0.678590  1.0  -0.1336
  C  C7339  1  0.104150  0.776230  0.661580  1.0  0.1632
  C  C7340  1  0.074960  0.748740  0.619910  1.0  0.2941
  C  C7341  1  0.111360  0.732400  0.582930  1.0  0.1514
  C  C7342  1  0.112140  0.720750  0.565270  1.0  -0.1643
  C  C7343  1  0.127020  0.704810  0.563550  1.0  -0.0538
  C  C7344  1  0.140670  0.701780  0.580110  1.0  -0.1837
  C  C7345  1  0.139230  0.715040  0.597410  1.0  0.1826
  C  C7346  1  0.156960  0.685670  0.579390  1.0  0.4133
  C  C7347  1  0.218780  0.338950  0.149160  1.0  0.1962
  C  C7348  1  0.206840  0.321550  0.153670  1.0  -0.1354
  C  C7349  1  0.211940  0.302670  0.144000  1.0  -0.0663
  C  C7350  1  0.228840  0.302400  0.130560  1.0  -0.156
  C  C7351  1  0.239850  0.320760  0.126900  1.0  0.1804
  C  C7352  1  0.148280  0.406980  0.281210  1.0  0.274
  C  C7353  1  0.164820  0.391370  0.234660  1.0  0.1614
  C  C7354  1  0.182640  0.390560  0.222050  1.0  -0.1338
  C  C7355  1  0.185010  0.374490  0.208230  1.0  -0.0035
  C  C7356  1  0.169060  0.359430  0.206670  1.0  -0.1705
  C  C7357  1  0.151690  0.361740  0.219350  1.0  0.2023
  C  C7358  1  0.170380  0.342090  0.191530  1.0  0.395
  C  C7359  1  0.188230  0.323810  0.167300  1.0  0.2627
  C  C7360  1  0.155700  0.314470  0.175780  1.0  0.4018
  C  C7361  1  0.137250  0.287580  0.154350  1.0  0.1939
  C  C7362  1  0.137290  0.301220  0.171640  1.0  -0.1703
  C  C7363  1  0.119280  0.302100  0.183990  1.0  -0.04
  C  C7364  1  0.102560  0.289370  0.178590  1.0  -0.1336
  C  C7365  1  0.104150  0.276230  0.161580  1.0  0.1632
  C  C7366  1  0.074960  0.248740  0.119910  1.0  0.2941
  C  C7367  1  0.111360  0.232400  0.082930  1.0  0.1514
  C  C7368  1  0.112140  0.220750  0.065270  1.0  -0.1643
  C  C7369  1  0.127020  0.204810  0.063550  1.0  -0.0538
  C  C7370  1  0.140670  0.201780  0.080110  1.0  -0.1837
  C  C7371  1  0.139230  0.215040  0.097410  1.0  0.1826
  C  C7372  1  0.156960  0.185670  0.079390  1.0  0.4133
  C  C7373  1  0.718780  0.838950  0.149160  1.0  0.1962
  C  C7374  1  0.706840  0.821550  0.153670  1.0  -0.1354
  C  C7375  1  0.711940  0.802670  0.144000  1.0  -0.0663
  C  C7376  1  0.728840  0.802400  0.130560  1.0  -0.156
  C  C7377  1  0.739850  0.820760  0.126900  1.0  0.1804
  C  C7378  1  0.648280  0.906980  0.281210  1.0  0.274
  C  C7379  1  0.664820  0.891370  0.234660  1.0  0.1614
  C  C7380  1  0.682640  0.890560  0.222050  1.0  -0.1338
  C  C7381  1  0.685010  0.874490  0.208230  1.0  -0.0035
  C  C7382  1  0.669060  0.859430  0.206670  1.0  -0.1705
  C  C7383  1  0.651690  0.861740  0.219350  1.0  0.2023
  C  C7384  1  0.670380  0.842090  0.191530  1.0  0.395
  C  C7385  1  0.688230  0.823810  0.167300  1.0  0.2627
  C  C7386  1  0.655700  0.814470  0.175780  1.0  0.4018
  C  C7387  1  0.637250  0.787580  0.154350  1.0  0.1939
  C  C7388  1  0.637290  0.801220  0.171640  1.0  -0.1703
  C  C7389  1  0.619280  0.802100  0.183990  1.0  -0.04
  C  C7390  1  0.602560  0.789370  0.178590  1.0  -0.1336
  C  C7391  1  0.604150  0.776230  0.161580  1.0  0.1632
  C  C7392  1  0.574960  0.748740  0.119910  1.0  0.2941
  C  C7393  1  0.611360  0.732400  0.082930  1.0  0.1514
  C  C7394  1  0.612140  0.720750  0.065270  1.0  -0.1643
  C  C7395  1  0.627020  0.704810  0.063550  1.0  -0.0538
  C  C7396  1  0.640670  0.701780  0.080110  1.0  -0.1837
  C  C7397  1  0.639230  0.715040  0.097410  1.0  0.1826
  C  C7398  1  0.656960  0.685670  0.079390  1.0  0.4133
  C  C7399  1  0.718780  0.338950  0.649160  1.0  0.1962
  C  C7400  1  0.706840  0.321550  0.653670  1.0  -0.1354
  C  C7401  1  0.711940  0.302670  0.644000  1.0  -0.0663
  C  C7402  1  0.728840  0.302400  0.630560  1.0  -0.156
  C  C7403  1  0.739850  0.320760  0.626900  1.0  0.1804
  C  C7404  1  0.648280  0.406980  0.781210  1.0  0.274
  C  C7405  1  0.664820  0.391370  0.734660  1.0  0.1614
  C  C7406  1  0.682640  0.390560  0.722050  1.0  -0.1338
  C  C7407  1  0.685010  0.374490  0.708230  1.0  -0.0035
  C  C7408  1  0.669060  0.359430  0.706670  1.0  -0.1705
  C  C7409  1  0.651690  0.361740  0.719350  1.0  0.2023
  C  C7410  1  0.670380  0.342090  0.691530  1.0  0.395
  C  C7411  1  0.688230  0.323810  0.667300  1.0  0.2627
  C  C7412  1  0.655700  0.314470  0.675780  1.0  0.4018
  C  C7413  1  0.637250  0.287580  0.654350  1.0  0.1939
  C  C7414  1  0.637290  0.301220  0.671640  1.0  -0.1703
  C  C7415  1  0.619280  0.302100  0.683990  1.0  -0.04
  C  C7416  1  0.602560  0.289370  0.678590  1.0  -0.1336
  C  C7417  1  0.604150  0.276230  0.661580  1.0  0.1632
  C  C7418  1  0.574960  0.248740  0.619910  1.0  0.2941
  C  C7419  1  0.611360  0.232400  0.582930  1.0  0.1514
  C  C7420  1  0.612140  0.220750  0.565270  1.0  -0.1643
  C  C7421  1  0.627020  0.204810  0.563550  1.0  -0.0538
  C  C7422  1  0.640670  0.201780  0.580110  1.0  -0.1837
  C  C7423  1  0.639230  0.215040  0.597410  1.0  0.1826
  C  C7424  1  0.656960  0.185670  0.579390  1.0  0.4133
  C  C7425  1  0.838950  0.649160  0.218780  1.0  0.1978
  C  C7426  1  0.821550  0.653670  0.206840  1.0  -0.1349
  C  C7427  1  0.802670  0.644000  0.211940  1.0  -0.0664
  C  C7428  1  0.802400  0.630560  0.228840  1.0  -0.1549
  C  C7429  1  0.820760  0.626900  0.239850  1.0  0.1841
  C  C7430  1  0.906980  0.781210  0.148280  1.0  0.2717
  C  C7431  1  0.891370  0.734660  0.164820  1.0  0.1534
  C  C7432  1  0.890560  0.722050  0.182640  1.0  -0.1334
  C  C7433  1  0.874490  0.708230  0.185010  1.0  -0.0058
  C  C7434  1  0.859430  0.706670  0.169060  1.0  -0.1684
  C  C7435  1  0.861740  0.719350  0.151690  1.0  0.2033
  C  C7436  1  0.842090  0.691530  0.170380  1.0  0.3947
  C  C7437  1  0.823810  0.667300  0.188230  1.0  0.2625
  C  C7438  1  0.814470  0.675780  0.155700  1.0  0.4023
  C  C7439  1  0.787580  0.654350  0.137250  1.0  0.1928
  C  C7440  1  0.801220  0.671640  0.137290  1.0  -0.1753
  C  C7441  1  0.802100  0.683990  0.119280  1.0  -0.0376
  C  C7442  1  0.789370  0.678590  0.102560  1.0  -0.1304
  C  C7443  1  0.776230  0.661580  0.104150  1.0  0.159
  C  C7444  1  0.748740  0.619910  0.074960  1.0  0.2904
  C  C7445  1  0.732400  0.582930  0.111360  1.0  0.15
  C  C7446  1  0.720750  0.565270  0.112140  1.0  -0.1692
  C  C7447  1  0.704810  0.563550  0.127020  1.0  -0.0547
  C  C7448  1  0.701780  0.580110  0.140670  1.0  -0.1863
  C  C7449  1  0.715040  0.597410  0.139230  1.0  0.1785
  C  C7450  1  0.685670  0.579390  0.156960  1.0  0.4124
  C  C7451  1  0.838950  0.149160  0.718780  1.0  0.1978
  C  C7452  1  0.821550  0.153670  0.706840  1.0  -0.1349
  C  C7453  1  0.802670  0.144000  0.711940  1.0  -0.0664
  C  C7454  1  0.802400  0.130560  0.728840  1.0  -0.1549
  C  C7455  1  0.820760  0.126900  0.739850  1.0  0.1841
  C  C7456  1  0.906980  0.281210  0.648280  1.0  0.2717
  C  C7457  1  0.891370  0.234660  0.664820  1.0  0.1534
  C  C7458  1  0.890560  0.222050  0.682640  1.0  -0.1334
  C  C7459  1  0.874490  0.208230  0.685010  1.0  -0.0058
  C  C7460  1  0.859430  0.206670  0.669060  1.0  -0.1684
  C  C7461  1  0.861740  0.219350  0.651690  1.0  0.2033
  C  C7462  1  0.842090  0.191530  0.670380  1.0  0.3947
  C  C7463  1  0.823810  0.167300  0.688230  1.0  0.2625
  C  C7464  1  0.814470  0.175780  0.655700  1.0  0.4023
  C  C7465  1  0.787580  0.154350  0.637250  1.0  0.1928
  C  C7466  1  0.801220  0.171640  0.637290  1.0  -0.1753
  C  C7467  1  0.802100  0.183990  0.619280  1.0  -0.0376
  C  C7468  1  0.789370  0.178590  0.602560  1.0  -0.1304
  C  C7469  1  0.776230  0.161580  0.604150  1.0  0.159
  C  C7470  1  0.748740  0.119910  0.574960  1.0  0.2904
  C  C7471  1  0.732400  0.082930  0.611360  1.0  0.15
  C  C7472  1  0.720750  0.065270  0.612140  1.0  -0.1692
  C  C7473  1  0.704810  0.063550  0.627020  1.0  -0.0547
  C  C7474  1  0.701780  0.080110  0.640670  1.0  -0.1863
  C  C7475  1  0.715040  0.097410  0.639230  1.0  0.1785
  C  C7476  1  0.685670  0.079390  0.656960  1.0  0.4124
  C  C7477  1  0.338950  0.649160  0.718780  1.0  0.1978
  C  C7478  1  0.321550  0.653670  0.706840  1.0  -0.1349
  C  C7479  1  0.302670  0.644000  0.711940  1.0  -0.0664
  C  C7480  1  0.302400  0.630560  0.728840  1.0  -0.1549
  C  C7481  1  0.320760  0.626900  0.739850  1.0  0.1841
  C  C7482  1  0.406980  0.781210  0.648280  1.0  0.2717
  C  C7483  1  0.391370  0.734660  0.664820  1.0  0.1534
  C  C7484  1  0.390560  0.722050  0.682640  1.0  -0.1334
  C  C7485  1  0.374490  0.708230  0.685010  1.0  -0.0058
  C  C7486  1  0.359430  0.706670  0.669060  1.0  -0.1684
  C  C7487  1  0.361740  0.719350  0.651690  1.0  0.2033
  C  C7488  1  0.342090  0.691530  0.670380  1.0  0.3947
  C  C7489  1  0.323810  0.667300  0.688230  1.0  0.2625
  C  C7490  1  0.314470  0.675780  0.655700  1.0  0.4023
  C  C7491  1  0.287580  0.654350  0.637250  1.0  0.1928
  C  C7492  1  0.301220  0.671640  0.637290  1.0  -0.1753
  C  C7493  1  0.302100  0.683990  0.619280  1.0  -0.0376
  C  C7494  1  0.289370  0.678590  0.602560  1.0  -0.1304
  C  C7495  1  0.276230  0.661580  0.604150  1.0  0.159
  C  C7496  1  0.248740  0.619910  0.574960  1.0  0.2904
  C  C7497  1  0.232400  0.582930  0.611360  1.0  0.15
  C  C7498  1  0.220750  0.565270  0.612140  1.0  -0.1692
  C  C7499  1  0.204810  0.563550  0.627020  1.0  -0.0547
  C  C7500  1  0.201780  0.580110  0.640670  1.0  -0.1863
  C  C7501  1  0.215040  0.597410  0.639230  1.0  0.1785
  C  C7502  1  0.185670  0.579390  0.656960  1.0  0.4124
  C  C7503  1  0.338950  0.149160  0.218780  1.0  0.1978
  C  C7504  1  0.321550  0.153670  0.206840  1.0  -0.1349
  C  C7505  1  0.302670  0.144000  0.211940  1.0  -0.0664
  C  C7506  1  0.302400  0.130560  0.228840  1.0  -0.1549
  C  C7507  1  0.320760  0.126900  0.239850  1.0  0.1841
  C  C7508  1  0.406980  0.281210  0.148280  1.0  0.2717
  C  C7509  1  0.391370  0.234660  0.164820  1.0  0.1534
  C  C7510  1  0.390560  0.222050  0.182640  1.0  -0.1334
  C  C7511  1  0.374490  0.208230  0.185010  1.0  -0.0058
  C  C7512  1  0.359430  0.206670  0.169060  1.0  -0.1684
  C  C7513  1  0.361740  0.219350  0.151690  1.0  0.2033
  C  C7514  1  0.342090  0.191530  0.170380  1.0  0.3947
  C  C7515  1  0.323810  0.167300  0.188230  1.0  0.2625
  C  C7516  1  0.314470  0.175780  0.155700  1.0  0.4023
  C  C7517  1  0.287580  0.154350  0.137250  1.0  0.1928
  C  C7518  1  0.301220  0.171640  0.137290  1.0  -0.1753
  C  C7519  1  0.302100  0.183990  0.119280  1.0  -0.0376
  C  C7520  1  0.289370  0.178590  0.102560  1.0  -0.1304
  C  C7521  1  0.276230  0.161580  0.104150  1.0  0.159
  C  C7522  1  0.248740  0.119910  0.074960  1.0  0.2904
  C  C7523  1  0.232400  0.082930  0.111360  1.0  0.15
  C  C7524  1  0.220750  0.065270  0.112140  1.0  -0.1692
  C  C7525  1  0.204810  0.063550  0.127020  1.0  -0.0547
  C  C7526  1  0.201780  0.080110  0.140670  1.0  -0.1863
  C  C7527  1  0.215040  0.097410  0.139230  1.0  0.1785
  C  C7528  1  0.185670  0.079390  0.156960  1.0  0.4124
  C  C7529  1  0.411050  0.149160  0.531220  1.0  0.198
  C  C7530  1  0.428450  0.153670  0.543160  1.0  -0.1364
  C  C7531  1  0.447330  0.144000  0.538060  1.0  -0.0645
  C  C7532  1  0.447600  0.130560  0.521160  1.0  -0.1541
  C  C7533  1  0.429240  0.126900  0.510150  1.0  0.1843
  C  C7534  1  0.343020  0.281210  0.601720  1.0  0.2752
  C  C7535  1  0.358630  0.234660  0.585180  1.0  0.1547
  C  C7536  1  0.359440  0.222050  0.567360  1.0  -0.1367
  C  C7537  1  0.375510  0.208230  0.564990  1.0  -0.006
  C  C7538  1  0.390570  0.206670  0.580940  1.0  -0.1687
  C  C7539  1  0.388260  0.219350  0.598310  1.0  0.2024
  C  C7540  1  0.407910  0.191530  0.579620  1.0  0.3948
  C  C7541  1  0.426190  0.167300  0.561770  1.0  0.2625
  C  C7542  1  0.435530  0.175780  0.594300  1.0  0.4018
  C  C7543  1  0.462420  0.154350  0.612750  1.0  0.1928
  C  C7544  1  0.448780  0.171640  0.612710  1.0  -0.1742
  C  C7545  1  0.447900  0.183990  0.630720  1.0  -0.0383
  C  C7546  1  0.460630  0.178590  0.647440  1.0  -0.1309
  C  C7547  1  0.473770  0.161580  0.645850  1.0  0.1584
  C  C7548  1  0.501260  0.119910  0.675040  1.0  0.2893
  C  C7549  1  0.517600  0.082930  0.638640  1.0  0.1504
  C  C7550  1  0.529250  0.065270  0.637860  1.0  -0.1727
  C  C7551  1  0.545190  0.063550  0.622980  1.0  -0.0539
  C  C7552  1  0.548220  0.080110  0.609330  1.0  -0.1849
  C  C7553  1  0.534960  0.097410  0.610770  1.0  0.1794
  C  C7554  1  0.564330  0.079390  0.593040  1.0  0.4129
  C  C7555  1  0.411050  0.649160  0.031220  1.0  0.198
  C  C7556  1  0.428450  0.653670  0.043160  1.0  -0.1364
  C  C7557  1  0.447330  0.644000  0.038060  1.0  -0.0645
  C  C7558  1  0.447600  0.630560  0.021160  1.0  -0.1541
  C  C7559  1  0.429240  0.626900  0.010150  1.0  0.1843
  C  C7560  1  0.343020  0.781210  0.101720  1.0  0.2752
  C  C7561  1  0.358630  0.734660  0.085180  1.0  0.1547
  C  C7562  1  0.359440  0.722050  0.067360  1.0  -0.1367
  C  C7563  1  0.375510  0.708230  0.064990  1.0  -0.006
  C  C7564  1  0.390570  0.706670  0.080940  1.0  -0.1687
  C  C7565  1  0.388260  0.719350  0.098310  1.0  0.2024
  C  C7566  1  0.407910  0.691530  0.079620  1.0  0.3948
  C  C7567  1  0.426190  0.667300  0.061770  1.0  0.2625
  C  C7568  1  0.435530  0.675780  0.094300  1.0  0.4018
  C  C7569  1  0.462420  0.654350  0.112750  1.0  0.1928
  C  C7570  1  0.448780  0.671640  0.112710  1.0  -0.1742
  C  C7571  1  0.447900  0.683990  0.130720  1.0  -0.0383
  C  C7572  1  0.460630  0.678590  0.147440  1.0  -0.1309
  C  C7573  1  0.473770  0.661580  0.145850  1.0  0.1584
  C  C7574  1  0.501260  0.619910  0.175040  1.0  0.2893
  C  C7575  1  0.517600  0.582930  0.138640  1.0  0.1504
  C  C7576  1  0.529250  0.565270  0.137860  1.0  -0.1727
  C  C7577  1  0.545190  0.563550  0.122980  1.0  -0.0539
  C  C7578  1  0.548220  0.580110  0.109330  1.0  -0.1849
  C  C7579  1  0.534960  0.597410  0.110770  1.0  0.1794
  C  C7580  1  0.564330  0.579390  0.093040  1.0  0.4129
  C  C7581  1  0.911050  0.149160  0.031220  1.0  0.198
  C  C7582  1  0.928450  0.153670  0.043160  1.0  -0.1364
  C  C7583  1  0.947330  0.144000  0.038060  1.0  -0.0645
  C  C7584  1  0.947600  0.130560  0.021160  1.0  -0.1541
  C  C7585  1  0.929240  0.126900  0.010150  1.0  0.1843
  C  C7586  1  0.843020  0.281210  0.101720  1.0  0.2752
  C  C7587  1  0.858630  0.234660  0.085180  1.0  0.1547
  C  C7588  1  0.859440  0.222050  0.067360  1.0  -0.1367
  C  C7589  1  0.875510  0.208230  0.064990  1.0  -0.006
  C  C7590  1  0.890570  0.206670  0.080940  1.0  -0.1687
  C  C7591  1  0.888260  0.219350  0.098310  1.0  0.2024
  C  C7592  1  0.907910  0.191530  0.079620  1.0  0.3948
  C  C7593  1  0.926190  0.167300  0.061770  1.0  0.2625
  C  C7594  1  0.935530  0.175780  0.094300  1.0  0.4018
  C  C7595  1  0.962420  0.154350  0.112750  1.0  0.1928
  C  C7596  1  0.948780  0.171640  0.112710  1.0  -0.1742
  C  C7597  1  0.947900  0.183990  0.130720  1.0  -0.0383
  C  C7598  1  0.960630  0.178590  0.147440  1.0  -0.1309
  C  C7599  1  0.973770  0.161580  0.145850  1.0  0.1584
  C  C7600  1  0.001260  0.119910  0.175040  1.0  0.2893
  C  C7601  1  0.017600  0.082930  0.138640  1.0  0.1504
  C  C7602  1  0.029250  0.065270  0.137860  1.0  -0.1727
  C  C7603  1  0.045190  0.063550  0.122980  1.0  -0.0539
  C  C7604  1  0.048220  0.080110  0.109330  1.0  -0.1849
  C  C7605  1  0.034960  0.097410  0.110770  1.0  0.1794
  C  C7606  1  0.064330  0.079390  0.093040  1.0  0.4129
  C  C7607  1  0.911050  0.649160  0.531220  1.0  0.198
  C  C7608  1  0.928450  0.653670  0.543160  1.0  -0.1364
  C  C7609  1  0.947330  0.644000  0.538060  1.0  -0.0645
  C  C7610  1  0.947600  0.630560  0.521160  1.0  -0.1541
  C  C7611  1  0.929240  0.626900  0.510150  1.0  0.1843
  C  C7612  1  0.843020  0.781210  0.601720  1.0  0.2752
  C  C7613  1  0.858630  0.734660  0.585180  1.0  0.1547
  C  C7614  1  0.859440  0.722050  0.567360  1.0  -0.1367
  C  C7615  1  0.875510  0.708230  0.564990  1.0  -0.006
  C  C7616  1  0.890570  0.706670  0.580940  1.0  -0.1687
  C  C7617  1  0.888260  0.719350  0.598310  1.0  0.2024
  C  C7618  1  0.907910  0.691530  0.579620  1.0  0.3948
  C  C7619  1  0.926190  0.667300  0.561770  1.0  0.2625
  C  C7620  1  0.935530  0.675780  0.594300  1.0  0.4018
  C  C7621  1  0.962420  0.654350  0.612750  1.0  0.1928
  C  C7622  1  0.948780  0.671640  0.612710  1.0  -0.1742
  C  C7623  1  0.947900  0.683990  0.630720  1.0  -0.0383
  C  C7624  1  0.960630  0.678590  0.647440  1.0  -0.1309
  C  C7625  1  0.973770  0.661580  0.645850  1.0  0.1584
  C  C7626  1  0.001260  0.619910  0.675040  1.0  0.2893
  C  C7627  1  0.017600  0.582930  0.638640  1.0  0.1504
  C  C7628  1  0.029250  0.565270  0.637860  1.0  -0.1727
  C  C7629  1  0.045190  0.563550  0.622980  1.0  -0.0539
  C  C7630  1  0.048220  0.580110  0.609330  1.0  -0.1849
  C  C7631  1  0.034960  0.597410  0.610770  1.0  0.1794
  C  C7632  1  0.064330  0.579390  0.593040  1.0  0.4129
  C  C7633  1  0.911050  0.600840  0.718780  1.0  0.1981
  C  C7634  1  0.928450  0.596330  0.706840  1.0  -0.1362
  C  C7635  1  0.947330  0.606000  0.711940  1.0  -0.0645
  C  C7636  1  0.947600  0.619440  0.728840  1.0  -0.154
  C  C7637  1  0.929240  0.623100  0.739850  1.0  0.1846
  C  C7638  1  0.843020  0.468790  0.648280  1.0  0.2744
  C  C7639  1  0.858630  0.515340  0.664820  1.0  0.153
  C  C7640  1  0.859440  0.527950  0.682640  1.0  -0.1377
  C  C7641  1  0.875510  0.541770  0.685010  1.0  -0.0055
  C  C7642  1  0.890570  0.543330  0.669060  1.0  -0.169
  C  C7643  1  0.888260  0.530650  0.651690  1.0  0.2026
  C  C7644  1  0.907910  0.558470  0.670380  1.0  0.3947
  C  C7645  1  0.926190  0.582700  0.688230  1.0  0.2624
  C  C7646  1  0.935530  0.574220  0.655700  1.0  0.4022
  C  C7647  1  0.962420  0.595650  0.637250  1.0  0.1928
  C  C7648  1  0.948780  0.578360  0.637290  1.0  -0.1744
  C  C7649  1  0.947900  0.566010  0.619280  1.0  -0.0383
  C  C7650  1  0.960630  0.571410  0.602560  1.0  -0.1298
  C  C7651  1  0.973770  0.588420  0.604150  1.0  0.1588
  C  C7652  1  0.001260  0.630090  0.574960  1.0  0.2894
  C  C7653  1  0.017600  0.667070  0.611360  1.0  0.1505
  C  C7654  1  0.029250  0.684730  0.612140  1.0  -0.1692
  C  C7655  1  0.045190  0.686450  0.627020  1.0  -0.0526
  C  C7656  1  0.048220  0.669890  0.640670  1.0  -0.1851
  C  C7657  1  0.034960  0.652590  0.639230  1.0  0.1801
  C  C7658  1  0.064330  0.670610  0.656960  1.0  0.4128
  C  C7659  1  0.911050  0.100840  0.218780  1.0  0.1981
  C  C7660  1  0.928450  0.096330  0.206840  1.0  -0.1362
  C  C7661  1  0.947330  0.106000  0.211940  1.0  -0.0645
  C  C7662  1  0.947600  0.119440  0.228840  1.0  -0.154
  C  C7663  1  0.929240  0.123100  0.239850  1.0  0.1846
  C  C7664  1  0.843020  0.968790  0.148280  1.0  0.2744
  C  C7665  1  0.858630  0.015340  0.164820  1.0  0.153
  C  C7666  1  0.859440  0.027950  0.182640  1.0  -0.1377
  C  C7667  1  0.875510  0.041770  0.185010  1.0  -0.0055
  C  C7668  1  0.890570  0.043330  0.169060  1.0  -0.169
  C  C7669  1  0.888260  0.030650  0.151690  1.0  0.2026
  C  C7670  1  0.907910  0.058470  0.170380  1.0  0.3947
  C  C7671  1  0.926190  0.082700  0.188230  1.0  0.2643
  C  C7672  1  0.935530  0.074220  0.155700  1.0  0.4022
  C  C7673  1  0.962420  0.095650  0.137250  1.0  0.1928
  C  C7674  1  0.948780  0.078360  0.137290  1.0  -0.1744
  C  C7675  1  0.947900  0.066010  0.119280  1.0  -0.0383
  C  C7676  1  0.960630  0.071410  0.102560  1.0  -0.1298
  C  C7677  1  0.973770  0.088420  0.104150  1.0  0.1588
  C  C7678  1  0.001260  0.130090  0.074960  1.0  0.2894
  C  C7679  1  0.017600  0.167070  0.111360  1.0  0.1505
  C  C7680  1  0.029250  0.184730  0.112140  1.0  -0.1692
  C  C7681  1  0.045190  0.186450  0.127020  1.0  -0.0526
  C  C7682  1  0.048220  0.169890  0.140670  1.0  -0.1851
  C  C7683  1  0.034960  0.152590  0.139230  1.0  0.1801
  C  C7684  1  0.064330  0.170610  0.156960  1.0  0.4128
  C  C7685  1  0.411050  0.600840  0.218780  1.0  0.1981
  C  C7686  1  0.428450  0.596330  0.206840  1.0  -0.1362
  C  C7687  1  0.447330  0.606000  0.211940  1.0  -0.0645
  C  C7688  1  0.447600  0.619440  0.228840  1.0  -0.154
  C  C7689  1  0.429240  0.623100  0.239850  1.0  0.1846
  C  C7690  1  0.343020  0.468790  0.148280  1.0  0.2744
  C  C7691  1  0.358630  0.515340  0.164820  1.0  0.153
  C  C7692  1  0.359440  0.527950  0.182640  1.0  -0.1377
  C  C7693  1  0.375510  0.541770  0.185010  1.0  -0.0055
  C  C7694  1  0.390570  0.543330  0.169060  1.0  -0.169
  C  C7695  1  0.388260  0.530650  0.151690  1.0  0.2026
  C  C7696  1  0.407910  0.558470  0.170380  1.0  0.3947
  C  C7697  1  0.426190  0.582700  0.188230  1.0  0.2624
  C  C7698  1  0.435530  0.574220  0.155700  1.0  0.4022
  C  C7699  1  0.462420  0.595650  0.137250  1.0  0.1928
  C  C7700  1  0.448780  0.578360  0.137290  1.0  -0.1744
  C  C7701  1  0.447900  0.566010  0.119280  1.0  -0.0383
  C  C7702  1  0.460630  0.571410  0.102560  1.0  -0.1298
  C  C7703  1  0.473770  0.588420  0.104150  1.0  0.1588
  C  C7704  1  0.501260  0.630090  0.074960  1.0  0.2894
  C  C7705  1  0.517600  0.667070  0.111360  1.0  0.1505
  C  C7706  1  0.529250  0.684730  0.112140  1.0  -0.1692
  C  C7707  1  0.545190  0.686450  0.127020  1.0  -0.0526
  C  C7708  1  0.548220  0.669890  0.140670  1.0  -0.1851
  C  C7709  1  0.534960  0.652590  0.139230  1.0  0.1801
  C  C7710  1  0.564330  0.670610  0.156960  1.0  0.4128
  C  C7711  1  0.411050  0.100840  0.718780  1.0  0.1981
  C  C7712  1  0.428450  0.096330  0.706840  1.0  -0.1362
  C  C7713  1  0.447330  0.106000  0.711940  1.0  -0.0645
  C  C7714  1  0.447600  0.119440  0.728840  1.0  -0.154
  C  C7715  1  0.429240  0.123100  0.739850  1.0  0.1846
  C  C7716  1  0.343020  0.968790  0.648280  1.0  0.2744
  C  C7717  1  0.358630  0.015340  0.664820  1.0  0.153
  C  C7718  1  0.359440  0.027950  0.682640  1.0  -0.1377
  C  C7719  1  0.375510  0.041770  0.685010  1.0  -0.0055
  C  C7720  1  0.390570  0.043330  0.669060  1.0  -0.169
  C  C7721  1  0.388260  0.030650  0.651690  1.0  0.2026
  C  C7722  1  0.407910  0.058470  0.670380  1.0  0.3947
  C  C7723  1  0.426190  0.082700  0.688230  1.0  0.2643
  C  C7724  1  0.435530  0.074220  0.655700  1.0  0.4022
  C  C7725  1  0.462420  0.095650  0.637250  1.0  0.1928
  C  C7726  1  0.448780  0.078360  0.637290  1.0  -0.1744
  C  C7727  1  0.447900  0.066010  0.619280  1.0  -0.0383
  C  C7728  1  0.460630  0.071410  0.602560  1.0  -0.1298
  C  C7729  1  0.473770  0.088420  0.604150  1.0  0.1588
  C  C7730  1  0.501260  0.130090  0.574960  1.0  0.2894
  C  C7731  1  0.517600  0.167070  0.611360  1.0  0.1505
  C  C7732  1  0.529250  0.184730  0.612140  1.0  -0.1692
  C  C7733  1  0.545190  0.186450  0.627020  1.0  -0.0526
  C  C7734  1  0.548220  0.169890  0.640670  1.0  -0.1851
  C  C7735  1  0.534960  0.152590  0.639230  1.0  0.1801
  C  C7736  1  0.564330  0.170610  0.656960  1.0  0.4128
  C  C7737  1  0.338950  0.100840  0.031220  1.0  0.1973
  C  C7738  1  0.321550  0.096330  0.043160  1.0  -0.1357
  C  C7739  1  0.302670  0.106000  0.038060  1.0  -0.0662
  C  C7740  1  0.302400  0.119440  0.021160  1.0  -0.1559
  C  C7741  1  0.320760  0.123100  0.010150  1.0  0.1833
  C  C7742  1  0.406980  0.968790  0.101720  1.0  0.2733
  C  C7743  1  0.391370  0.015340  0.085180  1.0  0.1544
  C  C7744  1  0.390560  0.027950  0.067360  1.0  -0.1342
  C  C7745  1  0.374490  0.041770  0.064990  1.0  -0.0071
  C  C7746  1  0.359430  0.043330  0.080940  1.0  -0.1685
  C  C7747  1  0.361740  0.030650  0.098310  1.0  0.2037
  C  C7748  1  0.342090  0.058470  0.079620  1.0  0.3948
  C  C7749  1  0.323810  0.082700  0.061770  1.0  0.2649
  C  C7750  1  0.314470  0.074220  0.094300  1.0  0.4019
  C  C7751  1  0.287580  0.095650  0.112750  1.0  0.1933
  C  C7752  1  0.301220  0.078360  0.112710  1.0  -0.1745
  C  C7753  1  0.302100  0.066010  0.130720  1.0  -0.0384
  C  C7754  1  0.289370  0.071410  0.147440  1.0  -0.1302
  C  C7755  1  0.276230  0.088420  0.145850  1.0  0.1581
  C  C7756  1  0.248740  0.130090  0.175040  1.0  0.2906
  C  C7757  1  0.232400  0.167070  0.138640  1.0  0.1499
  C  C7758  1  0.220750  0.184730  0.137860  1.0  -0.1688
  C  C7759  1  0.204810  0.186450  0.122980  1.0  -0.0544
  C  C7760  1  0.201780  0.169890  0.109330  1.0  -0.1861
  C  C7761  1  0.215040  0.152590  0.110770  1.0  0.179
  C  C7762  1  0.185670  0.170610  0.093040  1.0  0.4128
  C  C7763  1  0.338950  0.600840  0.531220  1.0  0.1973
  C  C7764  1  0.321550  0.596330  0.543160  1.0  -0.1357
  C  C7765  1  0.302670  0.606000  0.538060  1.0  -0.0662
  C  C7766  1  0.302400  0.619440  0.521160  1.0  -0.1559
  C  C7767  1  0.320760  0.623100  0.510150  1.0  0.1833
  C  C7768  1  0.406980  0.468790  0.601720  1.0  0.2733
  C  C7769  1  0.391370  0.515340  0.585180  1.0  0.1544
  C  C7770  1  0.390560  0.527950  0.567360  1.0  -0.1342
  C  C7771  1  0.374490  0.541770  0.564990  1.0  -0.0071
  C  C7772  1  0.359430  0.543330  0.580940  1.0  -0.1685
  C  C7773  1  0.361740  0.530650  0.598310  1.0  0.2037
  C  C7774  1  0.342090  0.558470  0.579620  1.0  0.3948
  C  C7775  1  0.323810  0.582700  0.561770  1.0  0.2628
  C  C7776  1  0.314470  0.574220  0.594300  1.0  0.4019
  C  C7777  1  0.287580  0.595650  0.612750  1.0  0.1933
  C  C7778  1  0.301220  0.578360  0.612710  1.0  -0.1745
  C  C7779  1  0.302100  0.566010  0.630720  1.0  -0.0384
  C  C7780  1  0.289370  0.571410  0.647440  1.0  -0.1302
  C  C7781  1  0.276230  0.588420  0.645850  1.0  0.1581
  C  C7782  1  0.248740  0.630090  0.675040  1.0  0.2906
  C  C7783  1  0.232400  0.667070  0.638640  1.0  0.1499
  C  C7784  1  0.220750  0.684730  0.637860  1.0  -0.1688
  C  C7785  1  0.204810  0.686450  0.622980  1.0  -0.0544
  C  C7786  1  0.201780  0.669890  0.609330  1.0  -0.1861
  C  C7787  1  0.215040  0.652590  0.610770  1.0  0.179
  C  C7788  1  0.185670  0.670610  0.593040  1.0  0.4128
  C  C7789  1  0.838950  0.100840  0.531220  1.0  0.1973
  C  C7790  1  0.821550  0.096330  0.543160  1.0  -0.1357
  C  C7791  1  0.802670  0.106000  0.538060  1.0  -0.0662
  C  C7792  1  0.802400  0.119440  0.521160  1.0  -0.1559
  C  C7793  1  0.820760  0.123100  0.510150  1.0  0.1833
  C  C7794  1  0.906980  0.968790  0.601720  1.0  0.2733
  C  C7795  1  0.891370  0.015340  0.585180  1.0  0.1544
  C  C7796  1  0.890560  0.027950  0.567360  1.0  -0.1342
  C  C7797  1  0.874490  0.041770  0.564990  1.0  -0.0071
  C  C7798  1  0.859430  0.043330  0.580940  1.0  -0.1685
  C  C7799  1  0.861740  0.030650  0.598310  1.0  0.2037
  C  C7800  1  0.842090  0.058470  0.579620  1.0  0.3948
  C  C7801  1  0.823810  0.082700  0.561770  1.0  0.2649
  C  C7802  1  0.814470  0.074220  0.594300  1.0  0.4019
  C  C7803  1  0.787580  0.095650  0.612750  1.0  0.1933
  C  C7804  1  0.801220  0.078360  0.612710  1.0  -0.1745
  C  C7805  1  0.802100  0.066010  0.630720  1.0  -0.0384
  C  C7806  1  0.789370  0.071410  0.647440  1.0  -0.1302
  C  C7807  1  0.776230  0.088420  0.645850  1.0  0.1581
  C  C7808  1  0.748740  0.130090  0.675040  1.0  0.2906
  C  C7809  1  0.732400  0.167070  0.638640  1.0  0.1499
  C  C7810  1  0.720750  0.184730  0.637860  1.0  -0.1688
  C  C7811  1  0.704810  0.186450  0.622980  1.0  -0.0544
  C  C7812  1  0.701780  0.169890  0.609330  1.0  -0.1861
  C  C7813  1  0.715040  0.152590  0.610770  1.0  0.179
  C  C7814  1  0.685670  0.170610  0.593040  1.0  0.4128
  C  C7815  1  0.838950  0.600840  0.031220  1.0  0.1973
  C  C7816  1  0.821550  0.596330  0.043160  1.0  -0.1357
  C  C7817  1  0.802670  0.606000  0.038060  1.0  -0.0662
  C  C7818  1  0.802400  0.619440  0.021160  1.0  -0.1559
  C  C7819  1  0.820760  0.623100  0.010150  1.0  0.1833
  C  C7820  1  0.906980  0.468790  0.101720  1.0  0.2733
  C  C7821  1  0.891370  0.515340  0.085180  1.0  0.1544
  C  C7822  1  0.890560  0.527950  0.067360  1.0  -0.1342
  C  C7823  1  0.874490  0.541770  0.064990  1.0  -0.0071
  C  C7824  1  0.859430  0.543330  0.080940  1.0  -0.1685
  C  C7825  1  0.861740  0.530650  0.098310  1.0  0.2037
  C  C7826  1  0.842090  0.558470  0.079620  1.0  0.3948
  C  C7827  1  0.823810  0.582700  0.061770  1.0  0.2628
  C  C7828  1  0.814470  0.574220  0.094300  1.0  0.4019
  C  C7829  1  0.787580  0.595650  0.112750  1.0  0.1933
  C  C7830  1  0.801220  0.578360  0.112710  1.0  -0.1745
  C  C7831  1  0.802100  0.566010  0.130720  1.0  -0.0384
  C  C7832  1  0.789370  0.571410  0.147440  1.0  -0.1302
  C  C7833  1  0.776230  0.588420  0.145850  1.0  0.1581
  C  C7834  1  0.748740  0.630090  0.175040  1.0  0.2906
  C  C7835  1  0.732400  0.667070  0.138640  1.0  0.1499
  C  C7836  1  0.720750  0.684730  0.137860  1.0  -0.1688
  C  C7837  1  0.704810  0.686450  0.122980  1.0  -0.0544
  C  C7838  1  0.701780  0.669890  0.109330  1.0  -0.1861
  C  C7839  1  0.715040  0.652590  0.110770  1.0  0.179
  C  C7840  1  0.685670  0.670610  0.093040  1.0  0.4128
  C  C7841  1  0.149160  0.531220  0.411050  1.0  0.1997
  C  C7842  1  0.153670  0.543160  0.428450  1.0  -0.1348
  C  C7843  1  0.144000  0.538060  0.447330  1.0  -0.0662
  C  C7844  1  0.130560  0.521160  0.447600  1.0  -0.1556
  C  C7845  1  0.126900  0.510150  0.429240  1.0  0.1789
  C  C7846  1  0.281210  0.601720  0.343020  1.0  0.2767
  C  C7847  1  0.234660  0.585180  0.358630  1.0  0.1563
  C  C7848  1  0.222050  0.567360  0.359440  1.0  -0.1382
  C  C7849  1  0.208230  0.564990  0.375510  1.0  -0.0046
  C  C7850  1  0.206670  0.580940  0.390570  1.0  -0.1704
  C  C7851  1  0.219350  0.598310  0.388260  1.0  0.2013
  C  C7852  1  0.191530  0.579620  0.407910  1.0  0.3943
  C  C7853  1  0.167300  0.561770  0.426190  1.0  0.263
  C  C7854  1  0.175780  0.594300  0.435530  1.0  0.4027
  C  C7855  1  0.154350  0.612750  0.462420  1.0  0.1924
  C  C7856  1  0.171640  0.612710  0.448780  1.0  -0.1745
  C  C7857  1  0.183990  0.630720  0.447900  1.0  -0.0396
  C  C7858  1  0.178590  0.647440  0.460630  1.0  -0.1306
  C  C7859  1  0.161580  0.645850  0.473770  1.0  0.1603
  C  C7860  1  0.119910  0.675040  0.501260  1.0  0.2913
  C  C7861  1  0.082930  0.638640  0.517600  1.0  0.1511
  C  C7862  1  0.065270  0.637860  0.529250  1.0  -0.1675
  C  C7863  1  0.063550  0.622980  0.545190  1.0  -0.0543
  C  C7864  1  0.080110  0.609330  0.548220  1.0  -0.1851
  C  C7865  1  0.097410  0.610770  0.534960  1.0  0.1787
  C  C7866  1  0.079390  0.593040  0.564330  1.0  0.4132
  C  C7867  1  0.149160  0.031220  0.911050  1.0  0.1997
  C  C7868  1  0.153670  0.043160  0.928450  1.0  -0.1348
  C  C7869  1  0.144000  0.038060  0.947330  1.0  -0.0662
  C  C7870  1  0.130560  0.021160  0.947600  1.0  -0.1556
  C  C7871  1  0.126900  0.010150  0.929240  1.0  0.1789
  C  C7872  1  0.281210  0.101720  0.843020  1.0  0.2767
  C  C7873  1  0.234660  0.085180  0.858630  1.0  0.1563
  C  C7874  1  0.222050  0.067360  0.859440  1.0  -0.1382
  C  C7875  1  0.208230  0.064990  0.875510  1.0  -0.0046
  C  C7876  1  0.206670  0.080940  0.890570  1.0  -0.1704
  C  C7877  1  0.219350  0.098310  0.888260  1.0  0.2013
  C  C7878  1  0.191530  0.079620  0.907910  1.0  0.3943
  C  C7879  1  0.167300  0.061770  0.926190  1.0  0.263
  C  C7880  1  0.175780  0.094300  0.935530  1.0  0.4027
  C  C7881  1  0.154350  0.112750  0.962420  1.0  0.1924
  C  C7882  1  0.171640  0.112710  0.948780  1.0  -0.1745
  C  C7883  1  0.183990  0.130720  0.947900  1.0  -0.0396
  C  C7884  1  0.178590  0.147440  0.960630  1.0  -0.1306
  C  C7885  1  0.161580  0.145850  0.973770  1.0  0.1603
  C  C7886  1  0.119910  0.175040  0.001260  1.0  0.2913
  C  C7887  1  0.082930  0.138640  0.017600  1.0  0.1511
  C  C7888  1  0.065270  0.137860  0.029250  1.0  -0.1675
  C  C7889  1  0.063550  0.122980  0.045190  1.0  -0.0543
  C  C7890  1  0.080110  0.109330  0.048220  1.0  -0.1851
  C  C7891  1  0.097410  0.110770  0.034960  1.0  0.1787
  C  C7892  1  0.079390  0.093040  0.064330  1.0  0.4132
  C  C7893  1  0.649160  0.531220  0.911050  1.0  0.1997
  C  C7894  1  0.653670  0.543160  0.928450  1.0  -0.1348
  C  C7895  1  0.644000  0.538060  0.947330  1.0  -0.0662
  C  C7896  1  0.630560  0.521160  0.947600  1.0  -0.1556
  C  C7897  1  0.626900  0.510150  0.929240  1.0  0.1789
  C  C7898  1  0.781210  0.601720  0.843020  1.0  0.2767
  C  C7899  1  0.734660  0.585180  0.858630  1.0  0.1563
  C  C7900  1  0.722050  0.567360  0.859440  1.0  -0.1382
  C  C7901  1  0.708230  0.564990  0.875510  1.0  -0.0046
  C  C7902  1  0.706670  0.580940  0.890570  1.0  -0.1704
  C  C7903  1  0.719350  0.598310  0.888260  1.0  0.2013
  C  C7904  1  0.691530  0.579620  0.907910  1.0  0.3943
  C  C7905  1  0.667300  0.561770  0.926190  1.0  0.263
  C  C7906  1  0.675780  0.594300  0.935530  1.0  0.4027
  C  C7907  1  0.654350  0.612750  0.962420  1.0  0.1924
  C  C7908  1  0.671640  0.612710  0.948780  1.0  -0.1745
  C  C7909  1  0.683990  0.630720  0.947900  1.0  -0.0396
  C  C7910  1  0.678590  0.647440  0.960630  1.0  -0.1306
  C  C7911  1  0.661580  0.645850  0.973770  1.0  0.1603
  C  C7912  1  0.619910  0.675040  0.001260  1.0  0.2913
  C  C7913  1  0.582930  0.638640  0.017600  1.0  0.1511
  C  C7914  1  0.565270  0.637860  0.029250  1.0  -0.1675
  C  C7915  1  0.563550  0.622980  0.045190  1.0  -0.0543
  C  C7916  1  0.580110  0.609330  0.048220  1.0  -0.1851
  C  C7917  1  0.597410  0.610770  0.034960  1.0  0.1787
  C  C7918  1  0.579390  0.593040  0.064330  1.0  0.4132
  C  C7919  1  0.649160  0.031220  0.411050  1.0  0.1997
  C  C7920  1  0.653670  0.043160  0.428450  1.0  -0.1348
  C  C7921  1  0.644000  0.038060  0.447330  1.0  -0.0662
  C  C7922  1  0.630560  0.021160  0.447600  1.0  -0.1556
  C  C7923  1  0.626900  0.010150  0.429240  1.0  0.1789
  C  C7924  1  0.781210  0.101720  0.343020  1.0  0.2767
  C  C7925  1  0.734660  0.085180  0.358630  1.0  0.1563
  C  C7926  1  0.722050  0.067360  0.359440  1.0  -0.1382
  C  C7927  1  0.708230  0.064990  0.375510  1.0  -0.0046
  C  C7928  1  0.706670  0.080940  0.390570  1.0  -0.1704
  C  C7929  1  0.719350  0.098310  0.388260  1.0  0.2013
  C  C7930  1  0.691530  0.079620  0.407910  1.0  0.3943
  C  C7931  1  0.667300  0.061770  0.426190  1.0  0.263
  C  C7932  1  0.675780  0.094300  0.435530  1.0  0.4027
  C  C7933  1  0.654350  0.112750  0.462420  1.0  0.1924
  C  C7934  1  0.671640  0.112710  0.448780  1.0  -0.1745
  C  C7935  1  0.683990  0.130720  0.447900  1.0  -0.0396
  C  C7936  1  0.678590  0.147440  0.460630  1.0  -0.1306
  C  C7937  1  0.661580  0.145850  0.473770  1.0  0.1603
  C  C7938  1  0.619910  0.175040  0.501260  1.0  0.2913
  C  C7939  1  0.582930  0.138640  0.517600  1.0  0.1511
  C  C7940  1  0.565270  0.137860  0.529250  1.0  -0.1675
  C  C7941  1  0.563550  0.122980  0.545190  1.0  -0.0543
  C  C7942  1  0.580110  0.109330  0.548220  1.0  -0.1851
  C  C7943  1  0.597410  0.110770  0.534960  1.0  0.1787
  C  C7944  1  0.579390  0.093040  0.564330  1.0  0.4132
  C  C7945  1  0.649160  0.218780  0.838950  1.0  0.1998
  C  C7946  1  0.653670  0.206840  0.821550  1.0  -0.1356
  C  C7947  1  0.644000  0.211940  0.802670  1.0  -0.0673
  C  C7948  1  0.630560  0.228840  0.802400  1.0  -0.1546
  C  C7949  1  0.626900  0.239850  0.820760  1.0  0.1784
  C  C7950  1  0.781210  0.148280  0.906980  1.0  0.276
  C  C7951  1  0.734660  0.164820  0.891370  1.0  0.1548
  C  C7952  1  0.722050  0.182640  0.890560  1.0  -0.1379
  C  C7953  1  0.708230  0.185010  0.874490  1.0  -0.0054
  C  C7954  1  0.706670  0.169060  0.859430  1.0  -0.1702
  C  C7955  1  0.719350  0.151690  0.861740  1.0  0.2007
  C  C7956  1  0.691530  0.170380  0.842090  1.0  0.3944
  C  C7957  1  0.667300  0.188230  0.823810  1.0  0.2634
  C  C7958  1  0.675780  0.155700  0.814470  1.0  0.4027
  C  C7959  1  0.654350  0.137250  0.787580  1.0  0.1916
  C  C7960  1  0.671640  0.137290  0.801220  1.0  -0.1731
  C  C7961  1  0.683990  0.119280  0.802100  1.0  -0.0398
  C  C7962  1  0.678590  0.102560  0.789370  1.0  -0.1316
  C  C7963  1  0.661580  0.104150  0.776230  1.0  0.1611
  C  C7964  1  0.619910  0.074960  0.748740  1.0  0.292
  C  C7965  1  0.582930  0.111360  0.732400  1.0  0.1508
  C  C7966  1  0.565270  0.112140  0.720750  1.0  -0.1696
  C  C7967  1  0.563550  0.127020  0.704810  1.0  -0.0544
  C  C7968  1  0.580110  0.140670  0.701780  1.0  -0.1854
  C  C7969  1  0.597410  0.139230  0.715040  1.0  0.1782
  C  C7970  1  0.579390  0.156960  0.685670  1.0  0.4134
  C  C7971  1  0.649160  0.718780  0.338950  1.0  0.1998
  C  C7972  1  0.653670  0.706840  0.321550  1.0  -0.1356
  C  C7973  1  0.644000  0.711940  0.302670  1.0  -0.0673
  C  C7974  1  0.630560  0.728840  0.302400  1.0  -0.1546
  C  C7975  1  0.626900  0.739850  0.320760  1.0  0.1784
  C  C7976  1  0.781210  0.648280  0.406980  1.0  0.276
  C  C7977  1  0.734660  0.664820  0.391370  1.0  0.1548
  C  C7978  1  0.722050  0.682640  0.390560  1.0  -0.1379
  C  C7979  1  0.708230  0.685010  0.374490  1.0  -0.0054
  C  C7980  1  0.706670  0.669060  0.359430  1.0  -0.1702
  C  C7981  1  0.719350  0.651690  0.361740  1.0  0.2007
  C  C7982  1  0.691530  0.670380  0.342090  1.0  0.3944
  C  C7983  1  0.667300  0.688230  0.323810  1.0  0.2634
  C  C7984  1  0.675780  0.655700  0.314470  1.0  0.4027
  C  C7985  1  0.654350  0.637250  0.287580  1.0  0.1916
  C  C7986  1  0.671640  0.637290  0.301220  1.0  -0.1731
  C  C7987  1  0.683990  0.619280  0.302100  1.0  -0.0398
  C  C7988  1  0.678590  0.602560  0.289370  1.0  -0.1316
  C  C7989  1  0.661580  0.604150  0.276230  1.0  0.1611
  C  C7990  1  0.619910  0.574960  0.248740  1.0  0.292
  C  C7991  1  0.582930  0.611360  0.232400  1.0  0.1508
  C  C7992  1  0.565270  0.612140  0.220750  1.0  -0.1696
  C  C7993  1  0.563550  0.627020  0.204810  1.0  -0.0544
  C  C7994  1  0.580110  0.640670  0.201780  1.0  -0.1854
  C  C7995  1  0.597410  0.639230  0.215040  1.0  0.1782
  C  C7996  1  0.579390  0.656960  0.185670  1.0  0.4134
  C  C7997  1  0.149160  0.218780  0.338950  1.0  0.1998
  C  C7998  1  0.153670  0.206840  0.321550  1.0  -0.1356
  C  C7999  1  0.144000  0.211940  0.302670  1.0  -0.0673
  C  C8000  1  0.130560  0.228840  0.302400  1.0  -0.1546
  C  C8001  1  0.126900  0.239850  0.320760  1.0  0.1784
  C  C8002  1  0.281210  0.148280  0.406980  1.0  0.276
  C  C8003  1  0.234660  0.164820  0.391370  1.0  0.1548
  C  C8004  1  0.222050  0.182640  0.390560  1.0  -0.1379
  C  C8005  1  0.208230  0.185010  0.374490  1.0  -0.0054
  C  C8006  1  0.206670  0.169060  0.359430  1.0  -0.1702
  C  C8007  1  0.219350  0.151690  0.361740  1.0  0.2007
  C  C8008  1  0.191530  0.170380  0.342090  1.0  0.3944
  C  C8009  1  0.167300  0.188230  0.323810  1.0  0.2634
  C  C8010  1  0.175780  0.155700  0.314470  1.0  0.4027
  C  C8011  1  0.154350  0.137250  0.287580  1.0  0.1916
  C  C8012  1  0.171640  0.137290  0.301220  1.0  -0.1731
  C  C8013  1  0.183990  0.119280  0.302100  1.0  -0.0398
  C  C8014  1  0.178590  0.102560  0.289370  1.0  -0.1316
  C  C8015  1  0.161580  0.104150  0.276230  1.0  0.1611
  C  C8016  1  0.119910  0.074960  0.248740  1.0  0.292
  C  C8017  1  0.082930  0.111360  0.232400  1.0  0.1508
  C  C8018  1  0.065270  0.112140  0.220750  1.0  -0.1696
  C  C8019  1  0.063550  0.127020  0.204810  1.0  -0.0544
  C  C8020  1  0.080110  0.140670  0.201780  1.0  -0.1854
  C  C8021  1  0.097410  0.139230  0.215040  1.0  0.1782
  C  C8022  1  0.079390  0.156960  0.185670  1.0  0.4134
  C  C8023  1  0.149160  0.718780  0.838950  1.0  0.1998
  C  C8024  1  0.153670  0.706840  0.821550  1.0  -0.1356
  C  C8025  1  0.144000  0.711940  0.802670  1.0  -0.0673
  C  C8026  1  0.130560  0.728840  0.802400  1.0  -0.1546
  C  C8027  1  0.126900  0.739850  0.820760  1.0  0.1784
  C  C8028  1  0.281210  0.648280  0.906980  1.0  0.276
  C  C8029  1  0.234660  0.664820  0.891370  1.0  0.1548
  C  C8030  1  0.222050  0.682640  0.890560  1.0  -0.1379
  C  C8031  1  0.208230  0.685010  0.874490  1.0  -0.0054
  C  C8032  1  0.206670  0.669060  0.859430  1.0  -0.1702
  C  C8033  1  0.219350  0.651690  0.861740  1.0  0.2007
  C  C8034  1  0.191530  0.670380  0.842090  1.0  0.3944
  C  C8035  1  0.167300  0.688230  0.823810  1.0  0.2634
  C  C8036  1  0.175780  0.655700  0.814470  1.0  0.4027
  C  C8037  1  0.154350  0.637250  0.787580  1.0  0.1916
  C  C8038  1  0.171640  0.637290  0.801220  1.0  -0.1731
  C  C8039  1  0.183990  0.619280  0.802100  1.0  -0.0398
  C  C8040  1  0.178590  0.602560  0.789370  1.0  -0.1316
  C  C8041  1  0.161580  0.604150  0.776230  1.0  0.1611
  C  C8042  1  0.119910  0.574960  0.748740  1.0  0.292
  C  C8043  1  0.082930  0.611360  0.732400  1.0  0.1508
  C  C8044  1  0.065270  0.612140  0.720750  1.0  -0.1696
  C  C8045  1  0.063550  0.627020  0.704810  1.0  -0.0544
  C  C8046  1  0.080110  0.640670  0.701780  1.0  -0.1854
  C  C8047  1  0.097410  0.639230  0.715040  1.0  0.1782
  C  C8048  1  0.079390  0.656960  0.685670  1.0  0.4134
  C  C8049  1  0.100840  0.031220  0.338950  1.0  0.199
  C  C8050  1  0.096330  0.043160  0.321550  1.0  -0.1346
  C  C8051  1  0.106000  0.038060  0.302670  1.0  -0.0666
  C  C8052  1  0.119440  0.021160  0.302400  1.0  -0.1539
  C  C8053  1  0.123100  0.010150  0.320760  1.0  0.1779
  C  C8054  1  0.968790  0.101720  0.406980  1.0  0.278
  C  C8055  1  0.015340  0.085180  0.391370  1.0  0.1571
  C  C8056  1  0.027950  0.067360  0.390560  1.0  -0.1397
  C  C8057  1  0.041770  0.064990  0.374490  1.0  -0.0045
  C  C8058  1  0.043330  0.080940  0.359430  1.0  -0.1711
  C  C8059  1  0.030650  0.098310  0.361740  1.0  0.2012
  C  C8060  1  0.058470  0.079620  0.342090  1.0  0.3945
  C  C8061  1  0.082700  0.061770  0.323810  1.0  0.2641
  C  C8062  1  0.074220  0.094300  0.314470  1.0  0.4021
  C  C8063  1  0.095650  0.112750  0.287580  1.0  0.1918
  C  C8064  1  0.078360  0.112710  0.301220  1.0  -0.1722
  C  C8065  1  0.066010  0.130720  0.302100  1.0  -0.0402
  C  C8066  1  0.071410  0.147440  0.289370  1.0  -0.1322
  C  C8067  1  0.088420  0.145850  0.276230  1.0  0.1613
  C  C8068  1  0.130090  0.175040  0.248740  1.0  0.2917
  C  C8069  1  0.167070  0.138640  0.232400  1.0  0.1516
  C  C8070  1  0.184730  0.137860  0.220750  1.0  -0.1686
  C  C8071  1  0.186450  0.122980  0.204810  1.0  -0.0521
  C  C8072  1  0.169890  0.109330  0.201780  1.0  -0.1859
  C  C8073  1  0.152590  0.110770  0.215040  1.0  0.1793
  C  C8074  1  0.170610  0.093040  0.185670  1.0  0.4136
  C  C8075  1  0.100840  0.531220  0.838950  1.0  0.199
  C  C8076  1  0.096330  0.543160  0.821550  1.0  -0.1346
  C  C8077  1  0.106000  0.538060  0.802670  1.0  -0.0666
  C  C8078  1  0.119440  0.521160  0.802400  1.0  -0.1539
  C  C8079  1  0.123100  0.510150  0.820760  1.0  0.1779
  C  C8080  1  0.968790  0.601720  0.906980  1.0  0.278
  C  C8081  1  0.015340  0.585180  0.891370  1.0  0.1571
  C  C8082  1  0.027950  0.567360  0.890560  1.0  -0.1397
  C  C8083  1  0.041770  0.564990  0.874490  1.0  -0.0045
  C  C8084  1  0.043330  0.580940  0.859430  1.0  -0.1711
  C  C8085  1  0.030650  0.598310  0.861740  1.0  0.2012
  C  C8086  1  0.058470  0.579620  0.842090  1.0  0.3945
  C  C8087  1  0.082700  0.561770  0.823810  1.0  0.2641
  C  C8088  1  0.074220  0.594300  0.814470  1.0  0.4021
  C  C8089  1  0.095650  0.612750  0.787580  1.0  0.1918
  C  C8090  1  0.078360  0.612710  0.801220  1.0  -0.1722
  C  C8091  1  0.066010  0.630720  0.802100  1.0  -0.0402
  C  C8092  1  0.071410  0.647440  0.789370  1.0  -0.1322
  C  C8093  1  0.088420  0.645850  0.776230  1.0  0.1613
  C  C8094  1  0.130090  0.675040  0.748740  1.0  0.2917
  C  C8095  1  0.167070  0.638640  0.732400  1.0  0.1516
  C  C8096  1  0.184730  0.637860  0.720750  1.0  -0.1686
  C  C8097  1  0.186450  0.622980  0.704810  1.0  -0.0521
  C  C8098  1  0.169890  0.609330  0.701780  1.0  -0.1859
  C  C8099  1  0.152590  0.610770  0.715040  1.0  0.1793
  C  C8100  1  0.170610  0.593040  0.685670  1.0  0.4136
  C  C8101  1  0.600840  0.031220  0.838950  1.0  0.199
  C  C8102  1  0.596330  0.043160  0.821550  1.0  -0.1346
  C  C8103  1  0.606000  0.038060  0.802670  1.0  -0.0666
  C  C8104  1  0.619440  0.021160  0.802400  1.0  -0.1539
  C  C8105  1  0.623100  0.010150  0.820760  1.0  0.1779
  C  C8106  1  0.468790  0.101720  0.906980  1.0  0.278
  C  C8107  1  0.515340  0.085180  0.891370  1.0  0.1571
  C  C8108  1  0.527950  0.067360  0.890560  1.0  -0.1397
  C  C8109  1  0.541770  0.064990  0.874490  1.0  -0.0045
  C  C8110  1  0.543330  0.080940  0.859430  1.0  -0.1711
  C  C8111  1  0.530650  0.098310  0.861740  1.0  0.2012
  C  C8112  1  0.558470  0.079620  0.842090  1.0  0.3945
  C  C8113  1  0.582700  0.061770  0.823810  1.0  0.2621
  C  C8114  1  0.574220  0.094300  0.814470  1.0  0.4021
  C  C8115  1  0.595650  0.112750  0.787580  1.0  0.1918
  C  C8116  1  0.578360  0.112710  0.801220  1.0  -0.1722
  C  C8117  1  0.566010  0.130720  0.802100  1.0  -0.0402
  C  C8118  1  0.571410  0.147440  0.789370  1.0  -0.1322
  C  C8119  1  0.588420  0.145850  0.776230  1.0  0.1613
  C  C8120  1  0.630090  0.175040  0.748740  1.0  0.2917
  C  C8121  1  0.667070  0.138640  0.732400  1.0  0.1516
  C  C8122  1  0.684730  0.137860  0.720750  1.0  -0.1686
  C  C8123  1  0.686450  0.122980  0.704810  1.0  -0.0521
  C  C8124  1  0.669890  0.109330  0.701780  1.0  -0.1859
  C  C8125  1  0.652590  0.110770  0.715040  1.0  0.1793
  C  C8126  1  0.670610  0.093040  0.685670  1.0  0.4136
  C  C8127  1  0.600840  0.531220  0.338950  1.0  0.199
  C  C8128  1  0.596330  0.543160  0.321550  1.0  -0.1346
  C  C8129  1  0.606000  0.538060  0.302670  1.0  -0.0666
  C  C8130  1  0.619440  0.521160  0.302400  1.0  -0.1539
  C  C8131  1  0.623100  0.510150  0.320760  1.0  0.1779
  C  C8132  1  0.468790  0.601720  0.406980  1.0  0.278
  C  C8133  1  0.515340  0.585180  0.391370  1.0  0.1571
  C  C8134  1  0.527950  0.567360  0.390560  1.0  -0.1397
  C  C8135  1  0.541770  0.564990  0.374490  1.0  -0.0045
  C  C8136  1  0.543330  0.580940  0.359430  1.0  -0.1711
  C  C8137  1  0.530650  0.598310  0.361740  1.0  0.2012
  C  C8138  1  0.558470  0.579620  0.342090  1.0  0.3945
  C  C8139  1  0.582700  0.561770  0.323810  1.0  0.2621
  C  C8140  1  0.574220  0.594300  0.314470  1.0  0.4021
  C  C8141  1  0.595650  0.612750  0.287580  1.0  0.1918
  C  C8142  1  0.578360  0.612710  0.301220  1.0  -0.1722
  C  C8143  1  0.566010  0.630720  0.302100  1.0  -0.0402
  C  C8144  1  0.571410  0.647440  0.289370  1.0  -0.1322
  C  C8145  1  0.588420  0.645850  0.276230  1.0  0.1613
  C  C8146  1  0.630090  0.675040  0.248740  1.0  0.2917
  C  C8147  1  0.667070  0.638640  0.232400  1.0  0.1516
  C  C8148  1  0.684730  0.637860  0.220750  1.0  -0.1686
  C  C8149  1  0.686450  0.622980  0.204810  1.0  -0.0521
  C  C8150  1  0.669890  0.609330  0.201780  1.0  -0.1859
  C  C8151  1  0.652590  0.610770  0.215040  1.0  0.1793
  C  C8152  1  0.670610  0.593040  0.185670  1.0  0.4136
  C  C8153  1  0.600840  0.718780  0.911050  1.0  0.1996
  C  C8154  1  0.596330  0.706840  0.928450  1.0  -0.1341
  C  C8155  1  0.606000  0.711940  0.947330  1.0  -0.0664
  C  C8156  1  0.619440  0.728840  0.947600  1.0  -0.1548
  C  C8157  1  0.623100  0.739850  0.929240  1.0  0.1784
  C  C8158  1  0.468790  0.648280  0.843020  1.0  0.2774
  C  C8159  1  0.515340  0.664820  0.858630  1.0  0.1556
  C  C8160  1  0.527950  0.682640  0.859440  1.0  -0.139
  C  C8161  1  0.541770  0.685010  0.875510  1.0  -0.0045
  C  C8162  1  0.543330  0.669060  0.890570  1.0  -0.1712
  C  C8163  1  0.530650  0.651690  0.888260  1.0  0.2
  C  C8164  1  0.558470  0.670380  0.907910  1.0  0.3948
  C  C8165  1  0.582700  0.688230  0.926190  1.0  0.2627
  C  C8166  1  0.574220  0.655700  0.935530  1.0  0.402
  C  C8167  1  0.595650  0.637250  0.962420  1.0  0.1925
  C  C8168  1  0.578360  0.637290  0.948780  1.0  -0.1725
  C  C8169  1  0.566010  0.619280  0.947900  1.0  -0.0405
  C  C8170  1  0.571410  0.602560  0.960630  1.0  -0.1324
  C  C8171  1  0.588420  0.604150  0.973770  1.0  0.1618
  C  C8172  1  0.630090  0.574960  0.001260  1.0  0.292
  C  C8173  1  0.667070  0.611360  0.017600  1.0  0.1517
  C  C8174  1  0.684730  0.612140  0.029250  1.0  -0.1694
  C  C8175  1  0.686450  0.627020  0.045190  1.0  -0.0517
  C  C8176  1  0.669890  0.640670  0.048220  1.0  -0.1856
  C  C8177  1  0.652590  0.639230  0.034960  1.0  0.1793
  C  C8178  1  0.670610  0.656960  0.064330  1.0  0.4131
  C  C8179  1  0.600840  0.218780  0.411050  1.0  0.1996
  C  C8180  1  0.596330  0.206840  0.428450  1.0  -0.1341
  C  C8181  1  0.606000  0.211940  0.447330  1.0  -0.0664
  C  C8182  1  0.619440  0.228840  0.447600  1.0  -0.1548
  C  C8183  1  0.623100  0.239850  0.429240  1.0  0.1784
  C  C8184  1  0.468790  0.148280  0.343020  1.0  0.2774
  C  C8185  1  0.515340  0.164820  0.358630  1.0  0.1556
  C  C8186  1  0.527950  0.182640  0.359440  1.0  -0.139
  C  C8187  1  0.541770  0.185010  0.375510  1.0  -0.0045
  C  C8188  1  0.543330  0.169060  0.390570  1.0  -0.1712
  C  C8189  1  0.530650  0.151690  0.388260  1.0  0.2
  C  C8190  1  0.558470  0.170380  0.407910  1.0  0.3948
  C  C8191  1  0.582700  0.188230  0.426190  1.0  0.2627
  C  C8192  1  0.574220  0.155700  0.435530  1.0  0.402
  C  C8193  1  0.595650  0.137250  0.462420  1.0  0.1925
  C  C8194  1  0.578360  0.137290  0.448780  1.0  -0.1725
  C  C8195  1  0.566010  0.119280  0.447900  1.0  -0.0405
  C  C8196  1  0.571410  0.102560  0.460630  1.0  -0.1324
  C  C8197  1  0.588420  0.104150  0.473770  1.0  0.1618
  C  C8198  1  0.630090  0.074960  0.501260  1.0  0.292
  C  C8199  1  0.667070  0.111360  0.517600  1.0  0.1517
  C  C8200  1  0.684730  0.112140  0.529250  1.0  -0.1694
  C  C8201  1  0.686450  0.127020  0.545190  1.0  -0.0517
  C  C8202  1  0.669890  0.140670  0.548220  1.0  -0.1856
  C  C8203  1  0.652590  0.139230  0.534960  1.0  0.1793
  C  C8204  1  0.670610  0.156960  0.564330  1.0  0.4131
  C  C8205  1  0.100840  0.718780  0.411050  1.0  0.1996
  C  C8206  1  0.096330  0.706840  0.428450  1.0  -0.1341
  C  C8207  1  0.106000  0.711940  0.447330  1.0  -0.0664
  C  C8208  1  0.119440  0.728840  0.447600  1.0  -0.1548
  C  C8209  1  0.123100  0.739850  0.429240  1.0  0.1784
  C  C8210  1  0.968790  0.648280  0.343020  1.0  0.2774
  C  C8211  1  0.015340  0.664820  0.358630  1.0  0.1556
  C  C8212  1  0.027950  0.682640  0.359440  1.0  -0.139
  C  C8213  1  0.041770  0.685010  0.375510  1.0  -0.0045
  C  C8214  1  0.043330  0.669060  0.390570  1.0  -0.1712
  C  C8215  1  0.030650  0.651690  0.388260  1.0  0.2
  C  C8216  1  0.058470  0.670380  0.407910  1.0  0.3948
  C  C8217  1  0.082700  0.688230  0.426190  1.0  0.2647
  C  C8218  1  0.074220  0.655700  0.435530  1.0  0.402
  C  C8219  1  0.095650  0.637250  0.462420  1.0  0.1925
  C  C8220  1  0.078360  0.637290  0.448780  1.0  -0.1725
  C  C8221  1  0.066010  0.619280  0.447900  1.0  -0.0405
  C  C8222  1  0.071410  0.602560  0.460630  1.0  -0.1324
  C  C8223  1  0.088420  0.604150  0.473770  1.0  0.1618
  C  C8224  1  0.130090  0.574960  0.501260  1.0  0.292
  C  C8225  1  0.167070  0.611360  0.517600  1.0  0.1517
  C  C8226  1  0.184730  0.612140  0.529250  1.0  -0.1694
  C  C8227  1  0.186450  0.627020  0.545190  1.0  -0.0517
  C  C8228  1  0.169890  0.640670  0.548220  1.0  -0.1856
  C  C8229  1  0.152590  0.639230  0.534960  1.0  0.1793
  C  C8230  1  0.170610  0.656960  0.564330  1.0  0.4131
  C  C8231  1  0.100840  0.218780  0.911050  1.0  0.1996
  C  C8232  1  0.096330  0.206840  0.928450  1.0  -0.1341
  C  C8233  1  0.106000  0.211940  0.947330  1.0  -0.0664
  C  C8234  1  0.119440  0.228840  0.947600  1.0  -0.1548
  C  C8235  1  0.123100  0.239850  0.929240  1.0  0.1784
  C  C8236  1  0.968790  0.148280  0.843020  1.0  0.2774
  C  C8237  1  0.015340  0.164820  0.858630  1.0  0.1556
  C  C8238  1  0.027950  0.182640  0.859440  1.0  -0.139
  C  C8239  1  0.041770  0.185010  0.875510  1.0  -0.0045
  C  C8240  1  0.043330  0.169060  0.890570  1.0  -0.1712
  C  C8241  1  0.030650  0.151690  0.888260  1.0  0.2
  C  C8242  1  0.058470  0.170380  0.907910  1.0  0.3948
  C  C8243  1  0.082700  0.188230  0.926190  1.0  0.2647
  C  C8244  1  0.074220  0.155700  0.935530  1.0  0.402
  C  C8245  1  0.095650  0.137250  0.962420  1.0  0.1925
  C  C8246  1  0.078360  0.137290  0.948780  1.0  -0.1725
  C  C8247  1  0.066010  0.119280  0.947900  1.0  -0.0405
  C  C8248  1  0.071410  0.102560  0.960630  1.0  -0.1324
  C  C8249  1  0.088420  0.104150  0.973770  1.0  0.1618
  C  C8250  1  0.130090  0.074960  0.001260  1.0  0.292
  C  C8251  1  0.167070  0.111360  0.017600  1.0  0.1517
  C  C8252  1  0.184730  0.112140  0.029250  1.0  -0.1694
  C  C8253  1  0.186450  0.127020  0.045190  1.0  -0.0517
  C  C8254  1  0.169890  0.140670  0.048220  1.0  -0.1856
  C  C8255  1  0.152590  0.139230  0.034960  1.0  0.1793
  C  C8256  1  0.170610  0.156960  0.064330  1.0  0.4131
  S  S8257  1  0.326890  0.165250  0.958880  1.0  -0.292
  S  S8258  1  0.504910  0.050160  0.134300  1.0  -0.2167
  S  S8259  1  0.326890  0.665250  0.458880  1.0  -0.292
  S  S8260  1  0.504910  0.550160  0.634300  1.0  -0.2167
  S  S8261  1  0.826890  0.165250  0.458880  1.0  -0.292
  S  S8262  1  0.004910  0.050160  0.634300  1.0  -0.2167
  S  S8263  1  0.826890  0.665250  0.958880  1.0  -0.292
  S  S8264  1  0.004910  0.550160  0.134300  1.0  -0.2167
  S  S8265  1  0.923110  0.584750  0.458880  1.0  -0.2915
  S  S8266  1  0.745090  0.699840  0.634300  1.0  -0.2167
  S  S8267  1  0.923110  0.084750  0.958880  1.0  -0.2915
  S  S8268  1  0.745090  0.199840  0.134300  1.0  -0.2167
  S  S8269  1  0.423110  0.584750  0.958880  1.0  -0.2915
  S  S8270  1  0.245090  0.699840  0.134300  1.0  -0.2167
  S  S8271  1  0.423110  0.084750  0.458880  1.0  -0.2915
  S  S8272  1  0.245090  0.199840  0.634300  1.0  -0.2167
  S  S8273  1  0.423110  0.665250  0.291120  1.0  -0.2919
  S  S8274  1  0.245090  0.550160  0.115700  1.0  -0.2162
  S  S8275  1  0.423110  0.165250  0.791120  1.0  -0.2919
  S  S8276  1  0.245090  0.050160  0.615700  1.0  -0.2162
  S  S8277  1  0.923110  0.665250  0.791120  1.0  -0.2919
  S  S8278  1  0.745090  0.550160  0.615700  1.0  -0.2162
  S  S8279  1  0.923110  0.165250  0.291120  1.0  -0.2919
  S  S8280  1  0.745090  0.050160  0.115700  1.0  -0.2162
  S  S8281  1  0.826890  0.084750  0.791120  1.0  -0.2922
  S  S8282  1  0.004910  0.199840  0.615700  1.0  -0.2175
  S  S8283  1  0.826890  0.584750  0.291120  1.0  -0.2922
  S  S8284  1  0.004910  0.699840  0.115700  1.0  -0.2175
  S  S8285  1  0.326890  0.084750  0.291120  1.0  -0.2922
  S  S8286  1  0.504910  0.199840  0.115700  1.0  -0.2175
  S  S8287  1  0.326890  0.584750  0.791120  1.0  -0.2922
  S  S8288  1  0.504910  0.699840  0.615700  1.0  -0.2175
  S  S8289  1  0.958880  0.326890  0.165250  1.0  -0.292
  S  S8290  1  0.134300  0.504910  0.050160  1.0  -0.2137
  S  S8291  1  0.958880  0.826890  0.665250  1.0  -0.292
  S  S8292  1  0.134300  0.004910  0.550160  1.0  -0.2137
  S  S8293  1  0.458880  0.326890  0.665250  1.0  -0.292
  S  S8294  1  0.634300  0.504910  0.550160  1.0  -0.2137
  S  S8295  1  0.458880  0.826890  0.165250  1.0  -0.292
  S  S8296  1  0.634300  0.004910  0.050160  1.0  -0.2137
  S  S8297  1  0.458880  0.923110  0.584750  1.0  -0.2911
  S  S8298  1  0.634300  0.745090  0.699840  1.0  -0.2156
  S  S8299  1  0.458880  0.423110  0.084750  1.0  -0.2911
  S  S8300  1  0.634300  0.245090  0.199840  1.0  -0.2156
  S  S8301  1  0.958880  0.923110  0.084750  1.0  -0.2911
  S  S8302  1  0.134300  0.745090  0.199840  1.0  -0.2156
  S  S8303  1  0.958880  0.423110  0.584750  1.0  -0.2911
  S  S8304  1  0.134300  0.245090  0.699840  1.0  -0.2156
  S  S8305  1  0.291120  0.423110  0.665250  1.0  -0.2914
  S  S8306  1  0.115700  0.245090  0.550160  1.0  -0.2133
  S  S8307  1  0.291120  0.923110  0.165250  1.0  -0.2914
  S  S8308  1  0.115700  0.745090  0.050160  1.0  -0.2133
  S  S8309  1  0.791120  0.423110  0.165250  1.0  -0.2914
  S  S8310  1  0.615700  0.245090  0.050160  1.0  -0.2133
  S  S8311  1  0.791120  0.923110  0.665250  1.0  -0.2914
  S  S8312  1  0.615700  0.745090  0.550160  1.0  -0.2133
  S  S8313  1  0.791120  0.826890  0.084750  1.0  -0.2912
  S  S8314  1  0.615700  0.004910  0.199840  1.0  -0.2149
  S  S8315  1  0.791120  0.326890  0.584750  1.0  -0.2912
  S  S8316  1  0.615700  0.504910  0.699840  1.0  -0.2149
  S  S8317  1  0.291120  0.826890  0.584750  1.0  -0.2912
  S  S8318  1  0.115700  0.004910  0.699840  1.0  -0.2149
  S  S8319  1  0.291120  0.326890  0.084750  1.0  -0.2912
  S  S8320  1  0.115700  0.504910  0.199840  1.0  -0.2149
  S  S8321  1  0.165250  0.958880  0.326890  1.0  -0.2904
  S  S8322  1  0.050160  0.134300  0.504910  1.0  -0.2144
  S  S8323  1  0.165250  0.458880  0.826890  1.0  -0.2904
  S  S8324  1  0.050160  0.634300  0.004910  1.0  -0.2144
  S  S8325  1  0.665250  0.958880  0.826890  1.0  -0.2904
  S  S8326  1  0.550160  0.134300  0.004910  1.0  -0.2144
  S  S8327  1  0.665250  0.458880  0.326890  1.0  -0.2904
  S  S8328  1  0.550160  0.634300  0.504910  1.0  -0.2144
  S  S8329  1  0.584750  0.458880  0.923110  1.0  -0.2924
  S  S8330  1  0.699840  0.634300  0.745090  1.0  -0.2134
  S  S8331  1  0.584750  0.958880  0.423110  1.0  -0.2924
  S  S8332  1  0.699840  0.134300  0.245090  1.0  -0.2134
  S  S8333  1  0.084750  0.458880  0.423110  1.0  -0.2924
  S  S8334  1  0.199840  0.634300  0.245090  1.0  -0.2134
  S  S8335  1  0.084750  0.958880  0.923110  1.0  -0.2924
  S  S8336  1  0.199840  0.134300  0.745090  1.0  -0.2134
  S  S8337  1  0.665250  0.291120  0.423110  1.0  -0.291
  S  S8338  1  0.550160  0.115700  0.245090  1.0  -0.2147
  S  S8339  1  0.665250  0.791120  0.923110  1.0  -0.291
  S  S8340  1  0.550160  0.615700  0.745090  1.0  -0.2147
  S  S8341  1  0.165250  0.291120  0.923110  1.0  -0.291
  S  S8342  1  0.050160  0.115700  0.745090  1.0  -0.2147
  S  S8343  1  0.165250  0.791120  0.423110  1.0  -0.291
  S  S8344  1  0.050160  0.615700  0.245090  1.0  -0.2147
  S  S8345  1  0.084750  0.791120  0.826890  1.0  -0.2919
  S  S8346  1  0.199840  0.615700  0.004910  1.0  -0.2136
  S  S8347  1  0.084750  0.291120  0.326890  1.0  -0.2919
  S  S8348  1  0.199840  0.115700  0.504910  1.0  -0.2136
  S  S8349  1  0.584750  0.791120  0.326890  1.0  -0.2919
  S  S8350  1  0.699840  0.615700  0.504910  1.0  -0.2136
  S  S8351  1  0.584750  0.291120  0.826890  1.0  -0.2919
  S  S8352  1  0.699840  0.115700  0.004910  1.0  -0.2136
  S  S8353  1  0.915250  0.576890  0.041120  1.0  -0.2911
  S  S8354  1  0.800160  0.754910  0.865700  1.0  -0.2146
  S  S8355  1  0.915250  0.076890  0.541120  1.0  -0.2911
  S  S8356  1  0.800160  0.254910  0.365700  1.0  -0.2146
  S  S8357  1  0.415250  0.576890  0.541120  1.0  -0.2911
  S  S8358  1  0.300160  0.754910  0.365700  1.0  -0.2146
  S  S8359  1  0.415250  0.076890  0.041120  1.0  -0.2911
  S  S8360  1  0.300160  0.254910  0.865700  1.0  -0.2146
  S  S8361  1  0.334750  0.173110  0.541120  1.0  -0.2916
  S  S8362  1  0.449840  0.995090  0.365700  1.0  -0.2139
  S  S8363  1  0.334750  0.673110  0.041120  1.0  -0.2916
  S  S8364  1  0.449840  0.495090  0.865700  1.0  -0.2139
  S  S8365  1  0.834750  0.173110  0.041120  1.0  -0.2916
  S  S8366  1  0.949840  0.995090  0.865700  1.0  -0.2139
  S  S8367  1  0.834750  0.673110  0.541120  1.0  -0.2916
  S  S8368  1  0.949840  0.495090  0.365700  1.0  -0.2139
  S  S8369  1  0.415250  0.673110  0.708880  1.0  -0.2894
  S  S8370  1  0.300160  0.495090  0.884300  1.0  -0.2147
  S  S8371  1  0.415250  0.173110  0.208880  1.0  -0.2894
  S  S8372  1  0.300160  0.995090  0.384300  1.0  -0.2147
  S  S8373  1  0.915250  0.673110  0.208880  1.0  -0.2894
  S  S8374  1  0.800160  0.495090  0.384300  1.0  -0.2147
  S  S8375  1  0.915250  0.173110  0.708880  1.0  -0.2894
  S  S8376  1  0.800160  0.995090  0.884300  1.0  -0.2147
  S  S8377  1  0.834750  0.076890  0.208880  1.0  -0.2916
  S  S8378  1  0.949840  0.254910  0.384300  1.0  -0.2134
  S  S8379  1  0.834750  0.576890  0.708880  1.0  -0.2916
  S  S8380  1  0.949840  0.754910  0.884300  1.0  -0.2134
  S  S8381  1  0.334750  0.076890  0.708880  1.0  -0.2916
  S  S8382  1  0.449840  0.254910  0.884300  1.0  -0.2134
  S  S8383  1  0.334750  0.576890  0.208880  1.0  -0.2916
  S  S8384  1  0.449840  0.754910  0.384300  1.0  -0.2134
  S  S8385  1  0.076890  0.208880  0.834750  1.0  -0.292
  S  S8386  1  0.254910  0.384300  0.949840  1.0  -0.2152
  S  S8387  1  0.076890  0.708880  0.334750  1.0  -0.292
  S  S8388  1  0.254910  0.884300  0.449840  1.0  -0.2152
  S  S8389  1  0.576890  0.208880  0.334750  1.0  -0.292
  S  S8390  1  0.754910  0.384300  0.449840  1.0  -0.2152
  S  S8391  1  0.576890  0.708880  0.834750  1.0  -0.292
  S  S8392  1  0.754910  0.884300  0.949840  1.0  -0.2152
  S  S8393  1  0.673110  0.708880  0.415250  1.0  -0.2933
  S  S8394  1  0.495090  0.884300  0.300160  1.0  -0.2129
  S  S8395  1  0.673110  0.208880  0.915250  1.0  -0.2933
  S  S8396  1  0.495090  0.384300  0.800160  1.0  -0.2129
  S  S8397  1  0.173110  0.708880  0.915250  1.0  -0.2933
  S  S8398  1  0.995090  0.884300  0.800160  1.0  -0.2129
  S  S8399  1  0.173110  0.208880  0.415250  1.0  -0.2933
  S  S8400  1  0.995090  0.384300  0.300160  1.0  -0.2129
  S  S8401  1  0.173110  0.541120  0.334750  1.0  -0.2922
  S  S8402  1  0.995090  0.365700  0.449840  1.0  -0.215
  S  S8403  1  0.173110  0.041120  0.834750  1.0  -0.2922
  S  S8404  1  0.995090  0.865700  0.949840  1.0  -0.215
  S  S8405  1  0.673110  0.541120  0.834750  1.0  -0.2922
  S  S8406  1  0.495090  0.365700  0.949840  1.0  -0.215
  S  S8407  1  0.673110  0.041120  0.334750  1.0  -0.2922
  S  S8408  1  0.495090  0.865700  0.449840  1.0  -0.215
  S  S8409  1  0.576890  0.041120  0.915250  1.0  -0.2929
  S  S8410  1  0.754910  0.865700  0.800160  1.0  -0.2138
  S  S8411  1  0.576890  0.541120  0.415250  1.0  -0.2929
  S  S8412  1  0.754910  0.365700  0.300160  1.0  -0.2138
  S  S8413  1  0.076890  0.041120  0.415250  1.0  -0.2929
  S  S8414  1  0.254910  0.865700  0.300160  1.0  -0.2138
  S  S8415  1  0.076890  0.541120  0.915250  1.0  -0.2929
  S  S8416  1  0.254910  0.365700  0.800160  1.0  -0.2138
  S  S8417  1  0.708880  0.415250  0.673110  1.0  -0.2906
  S  S8418  1  0.884300  0.300160  0.495090  1.0  -0.2167
  S  S8419  1  0.708880  0.915250  0.173110  1.0  -0.2906
  S  S8420  1  0.884300  0.800160  0.995090  1.0  -0.2167
  S  S8421  1  0.208880  0.415250  0.173110  1.0  -0.2906
  S  S8422  1  0.384300  0.300160  0.995090  1.0  -0.2167
  S  S8423  1  0.208880  0.915250  0.673110  1.0  -0.2906
  S  S8424  1  0.384300  0.800160  0.495090  1.0  -0.2167
  S  S8425  1  0.208880  0.834750  0.076890  1.0  -0.2903
  S  S8426  1  0.384300  0.949840  0.254910  1.0  -0.2169
  S  S8427  1  0.208880  0.334750  0.576890  1.0  -0.2903
  S  S8428  1  0.384300  0.449840  0.754910  1.0  -0.2169
  S  S8429  1  0.708880  0.834750  0.576890  1.0  -0.2903
  S  S8430  1  0.884300  0.949840  0.754910  1.0  -0.2169
  S  S8431  1  0.708880  0.334750  0.076890  1.0  -0.2903
  S  S8432  1  0.884300  0.449840  0.254910  1.0  -0.2169
  S  S8433  1  0.041120  0.915250  0.576890  1.0  -0.291
  S  S8434  1  0.865700  0.800160  0.754910  1.0  -0.2161
  S  S8435  1  0.041120  0.415250  0.076890  1.0  -0.291
  S  S8436  1  0.865700  0.300160  0.254910  1.0  -0.2161
  S  S8437  1  0.541120  0.915250  0.076890  1.0  -0.291
  S  S8438  1  0.365700  0.800160  0.254910  1.0  -0.2161
  S  S8439  1  0.541120  0.415250  0.576890  1.0  -0.291
  S  S8440  1  0.365700  0.300160  0.754910  1.0  -0.2161
  S  S8441  1  0.541120  0.334750  0.173110  1.0  -0.2924
  S  S8442  1  0.365700  0.449840  0.995090  1.0  -0.2172
  S  S8443  1  0.541120  0.834750  0.673110  1.0  -0.2924
  S  S8444  1  0.365700  0.949840  0.495090  1.0  -0.2172
  S  S8445  1  0.041120  0.334750  0.673110  1.0  -0.2924
  S  S8446  1  0.865700  0.449840  0.495090  1.0  -0.2172
  S  S8447  1  0.041120  0.834750  0.173110  1.0  -0.2924
  S  S8448  1  0.865700  0.949840  0.995090  1.0  -0.2172
  S  S8449  1  0.673110  0.834750  0.041120  1.0  -0.2925
  S  S8450  1  0.495090  0.949840  0.865700  1.0  -0.2169
  S  S8451  1  0.673110  0.334750  0.541120  1.0  -0.2925
  S  S8452  1  0.495090  0.449840  0.365700  1.0  -0.2169
  S  S8453  1  0.173110  0.834750  0.541120  1.0  -0.2925
  S  S8454  1  0.995090  0.949840  0.365700  1.0  -0.2169
  S  S8455  1  0.173110  0.334750  0.041120  1.0  -0.2925
  S  S8456  1  0.995090  0.449840  0.865700  1.0  -0.2169
  S  S8457  1  0.076890  0.415250  0.541120  1.0  -0.292
  S  S8458  1  0.254910  0.300160  0.365700  1.0  -0.2167
  S  S8459  1  0.076890  0.915250  0.041120  1.0  -0.292
  S  S8460  1  0.254910  0.800160  0.865700  1.0  -0.2167
  S  S8461  1  0.576890  0.415250  0.041120  1.0  -0.292
  S  S8462  1  0.754910  0.300160  0.865700  1.0  -0.2167
  S  S8463  1  0.576890  0.915250  0.541120  1.0  -0.292
  S  S8464  1  0.754910  0.800160  0.365700  1.0  -0.2167
  S  S8465  1  0.576890  0.334750  0.708880  1.0  -0.2914
  S  S8466  1  0.754910  0.449840  0.884300  1.0  -0.2172
  S  S8467  1  0.576890  0.834750  0.208880  1.0  -0.2914
  S  S8468  1  0.754910  0.949840  0.384300  1.0  -0.2172
  S  S8469  1  0.076890  0.334750  0.208880  1.0  -0.2914
  S  S8470  1  0.254910  0.449840  0.384300  1.0  -0.2172
  S  S8471  1  0.076890  0.834750  0.708880  1.0  -0.2914
  S  S8472  1  0.254910  0.949840  0.884300  1.0  -0.2172
  S  S8473  1  0.173110  0.915250  0.208880  1.0  -0.2913
  S  S8474  1  0.995090  0.800160  0.384300  1.0  -0.2162
  S  S8475  1  0.173110  0.415250  0.708880  1.0  -0.2913
  S  S8476  1  0.995090  0.300160  0.884300  1.0  -0.2162
  S  S8477  1  0.673110  0.915250  0.708880  1.0  -0.2913
  S  S8478  1  0.495090  0.800160  0.884300  1.0  -0.2162
  S  S8479  1  0.673110  0.415250  0.208880  1.0  -0.2913
  S  S8480  1  0.495090  0.300160  0.384300  1.0  -0.2162
  S  S8481  1  0.041120  0.673110  0.834750  1.0  -0.2916
  S  S8482  1  0.865700  0.495090  0.949840  1.0  -0.2153
  S  S8483  1  0.041120  0.173110  0.334750  1.0  -0.2916
  S  S8484  1  0.865700  0.995090  0.449840  1.0  -0.2153
  S  S8485  1  0.541120  0.673110  0.334750  1.0  -0.2916
  S  S8486  1  0.365700  0.495090  0.449840  1.0  -0.2153
  S  S8487  1  0.541120  0.173110  0.834750  1.0  -0.2916
  S  S8488  1  0.365700  0.995090  0.949840  1.0  -0.2153
  S  S8489  1  0.541120  0.076890  0.415250  1.0  -0.293
  S  S8490  1  0.365700  0.254910  0.300160  1.0  -0.2131
  S  S8491  1  0.541120  0.576890  0.915250  1.0  -0.293
  S  S8492  1  0.365700  0.754910  0.800160  1.0  -0.2131
  S  S8493  1  0.041120  0.076890  0.915250  1.0  -0.293
  S  S8494  1  0.865700  0.254910  0.800160  1.0  -0.2131
  S  S8495  1  0.041120  0.576890  0.415250  1.0  -0.293
  S  S8496  1  0.865700  0.754910  0.300160  1.0  -0.2131
  S  S8497  1  0.708880  0.576890  0.334750  1.0  -0.2904
  S  S8498  1  0.884300  0.754910  0.449840  1.0  -0.2151
  S  S8499  1  0.708880  0.076890  0.834750  1.0  -0.2904
  S  S8500  1  0.884300  0.254910  0.949840  1.0  -0.2151
  S  S8501  1  0.208880  0.576890  0.834750  1.0  -0.2904
  S  S8502  1  0.384300  0.754910  0.949840  1.0  -0.2151
  S  S8503  1  0.208880  0.076890  0.334750  1.0  -0.2904
  S  S8504  1  0.384300  0.254910  0.449840  1.0  -0.2151
  S  S8505  1  0.208880  0.173110  0.915250  1.0  -0.2909
  S  S8506  1  0.384300  0.995090  0.800160  1.0  -0.2138
  S  S8507  1  0.208880  0.673110  0.415250  1.0  -0.2909
  S  S8508  1  0.384300  0.495090  0.300160  1.0  -0.2138
  S  S8509  1  0.708880  0.173110  0.415250  1.0  -0.2909
  S  S8510  1  0.884300  0.995090  0.300160  1.0  -0.2138
  S  S8511  1  0.708880  0.673110  0.915250  1.0  -0.2909
  S  S8512  1  0.884300  0.495090  0.800160  1.0  -0.2138
  S  S8513  1  0.834750  0.041120  0.673110  1.0  -0.2922
  S  S8514  1  0.949840  0.865700  0.495090  1.0  -0.2139
  S  S8515  1  0.834750  0.541120  0.173110  1.0  -0.2922
  S  S8516  1  0.949840  0.365700  0.995090  1.0  -0.2139
  S  S8517  1  0.334750  0.041120  0.173110  1.0  -0.2922
  S  S8518  1  0.449840  0.865700  0.995090  1.0  -0.2139
  S  S8519  1  0.334750  0.541120  0.673110  1.0  -0.2922
  S  S8520  1  0.449840  0.365700  0.495090  1.0  -0.2139
  S  S8521  1  0.415250  0.541120  0.076890  1.0  -0.2901
  S  S8522  1  0.300160  0.365700  0.254910  1.0  -0.2145
  S  S8523  1  0.415250  0.041120  0.576890  1.0  -0.2901
  S  S8524  1  0.300160  0.865700  0.754910  1.0  -0.2145
  S  S8525  1  0.915250  0.541120  0.576890  1.0  -0.2901
  S  S8526  1  0.800160  0.365700  0.754910  1.0  -0.2145
  S  S8527  1  0.915250  0.041120  0.076890  1.0  -0.2901
  S  S8528  1  0.800160  0.865700  0.254910  1.0  -0.2145
  S  S8529  1  0.334750  0.708880  0.576890  1.0  -0.2919
  S  S8530  1  0.449840  0.884300  0.754910  1.0  -0.2132
  S  S8531  1  0.334750  0.208880  0.076890  1.0  -0.2919
  S  S8532  1  0.449840  0.384300  0.254910  1.0  -0.2132
  S  S8533  1  0.834750  0.708880  0.076890  1.0  -0.2919
  S  S8534  1  0.949840  0.884300  0.254910  1.0  -0.2132
  S  S8535  1  0.834750  0.208880  0.576890  1.0  -0.2919
  S  S8536  1  0.949840  0.384300  0.754910  1.0  -0.2132
  S  S8537  1  0.915250  0.208880  0.173110  1.0  -0.2911
  S  S8538  1  0.800160  0.384300  0.995090  1.0  -0.2146
  S  S8539  1  0.915250  0.708880  0.673110  1.0  -0.2911
  S  S8540  1  0.800160  0.884300  0.495090  1.0  -0.2146
  S  S8541  1  0.415250  0.208880  0.673110  1.0  -0.2911
  S  S8542  1  0.300160  0.384300  0.495090  1.0  -0.2146
  S  S8543  1  0.415250  0.708880  0.173110  1.0  -0.2911
  S  S8544  1  0.300160  0.884300  0.995090  1.0  -0.2146
  S  S8545  1  0.084750  0.423110  0.958880  1.0  -0.2914
  S  S8546  1  0.199840  0.245090  0.134300  1.0  -0.2139
  S  S8547  1  0.084750  0.923110  0.458880  1.0  -0.2914
  S  S8548  1  0.199840  0.745090  0.634300  1.0  -0.2139
  S  S8549  1  0.584750  0.423110  0.458880  1.0  -0.2914
  S  S8550  1  0.699840  0.245090  0.634300  1.0  -0.2139
  S  S8551  1  0.584750  0.923110  0.958880  1.0  -0.2914
  S  S8552  1  0.699840  0.745090  0.134300  1.0  -0.2139
  S  S8553  1  0.665250  0.826890  0.458880  1.0  -0.2902
  S  S8554  1  0.550160  0.004910  0.634300  1.0  -0.2145
  S  S8555  1  0.665250  0.326890  0.958880  1.0  -0.2902
  S  S8556  1  0.550160  0.504910  0.134300  1.0  -0.2145
  S  S8557  1  0.165250  0.826890  0.958880  1.0  -0.2902
  S  S8558  1  0.050160  0.004910  0.134300  1.0  -0.2145
  S  S8559  1  0.165250  0.326890  0.458880  1.0  -0.2902
  S  S8560  1  0.050160  0.504910  0.634300  1.0  -0.2145
  S  S8561  1  0.584750  0.326890  0.291120  1.0  -0.2925
  S  S8562  1  0.699840  0.504910  0.115700  1.0  -0.2133
  S  S8563  1  0.584750  0.826890  0.791120  1.0  -0.2925
  S  S8564  1  0.699840  0.004910  0.615700  1.0  -0.2133
  S  S8565  1  0.084750  0.326890  0.791120  1.0  -0.2925
  S  S8566  1  0.199840  0.504910  0.615700  1.0  -0.2133
  S  S8567  1  0.084750  0.826890  0.291120  1.0  -0.2925
  S  S8568  1  0.199840  0.004910  0.115700  1.0  -0.2133
  S  S8569  1  0.165250  0.923110  0.791120  1.0  -0.2903
  S  S8570  1  0.050160  0.745090  0.615700  1.0  -0.2149
  S  S8571  1  0.165250  0.423110  0.291120  1.0  -0.2903
  S  S8572  1  0.050160  0.245090  0.115700  1.0  -0.2149
  S  S8573  1  0.665250  0.923110  0.291120  1.0  -0.2903
  S  S8574  1  0.550160  0.745090  0.115700  1.0  -0.2149
  S  S8575  1  0.665250  0.423110  0.791120  1.0  -0.2903
  S  S8576  1  0.550160  0.245090  0.615700  1.0  -0.2149
  S  S8577  1  0.923110  0.791120  0.165250  1.0  -0.2928
  S  S8578  1  0.745090  0.615700  0.050160  1.0  -0.213
  S  S8579  1  0.923110  0.291120  0.665250  1.0  -0.2928
  S  S8580  1  0.745090  0.115700  0.550160  1.0  -0.213
  S  S8581  1  0.423110  0.791120  0.665250  1.0  -0.2928
  S  S8582  1  0.245090  0.615700  0.550160  1.0  -0.213
  S  S8583  1  0.423110  0.291120  0.165250  1.0  -0.2928
  S  S8584  1  0.245090  0.115700  0.050160  1.0  -0.213
  S  S8585  1  0.326890  0.291120  0.584750  1.0  -0.2922
  S  S8586  1  0.504910  0.115700  0.699840  1.0  -0.2155
  S  S8587  1  0.326890  0.791120  0.084750  1.0  -0.2922
  S  S8588  1  0.504910  0.615700  0.199840  1.0  -0.2155
  S  S8589  1  0.826890  0.291120  0.084750  1.0  -0.2922
  S  S8590  1  0.004910  0.115700  0.199840  1.0  -0.2155
  S  S8591  1  0.826890  0.791120  0.584750  1.0  -0.2922
  S  S8592  1  0.004910  0.615700  0.699840  1.0  -0.2155
  S  S8593  1  0.826890  0.458880  0.665250  1.0  -0.293
  S  S8594  1  0.004910  0.634300  0.550160  1.0  -0.2138
  S  S8595  1  0.826890  0.958880  0.165250  1.0  -0.293
  S  S8596  1  0.004910  0.134300  0.050160  1.0  -0.2138
  S  S8597  1  0.326890  0.458880  0.165250  1.0  -0.293
  S  S8598  1  0.504910  0.634300  0.050160  1.0  -0.2138
  S  S8599  1  0.326890  0.958880  0.665250  1.0  -0.293
  S  S8600  1  0.504910  0.134300  0.550160  1.0  -0.2138
  S  S8601  1  0.423110  0.958880  0.084750  1.0  -0.2922
  S  S8602  1  0.245090  0.134300  0.199840  1.0  -0.2148
  S  S8603  1  0.423110  0.458880  0.584750  1.0  -0.2922
  S  S8604  1  0.245090  0.634300  0.699840  1.0  -0.2148
  S  S8605  1  0.923110  0.958880  0.584750  1.0  -0.2922
  S  S8606  1  0.745090  0.134300  0.699840  1.0  -0.2148
  S  S8607  1  0.923110  0.458880  0.084750  1.0  -0.2922
  S  S8608  1  0.745090  0.634300  0.199840  1.0  -0.2148
  S  S8609  1  0.291120  0.584750  0.326890  1.0  -0.291
  S  S8610  1  0.115700  0.699840  0.504910  1.0  -0.2167
  S  S8611  1  0.291120  0.084750  0.826890  1.0  -0.291
  S  S8612  1  0.115700  0.199840  0.004910  1.0  -0.2167
  S  S8613  1  0.791120  0.584750  0.826890  1.0  -0.291
  S  S8614  1  0.615700  0.699840  0.004910  1.0  -0.2167
  S  S8615  1  0.791120  0.084750  0.326890  1.0  -0.291
  S  S8616  1  0.615700  0.199840  0.504910  1.0  -0.2167
  S  S8617  1  0.791120  0.165250  0.923110  1.0  -0.2911
  S  S8618  1  0.615700  0.050160  0.745090  1.0  -0.2163
  S  S8619  1  0.791120  0.665250  0.423110  1.0  -0.2911
  S  S8620  1  0.615700  0.550160  0.245090  1.0  -0.2163
  S  S8621  1  0.291120  0.165250  0.423110  1.0  -0.2911
  S  S8622  1  0.115700  0.050160  0.245090  1.0  -0.2163
  S  S8623  1  0.291120  0.665250  0.923110  1.0  -0.2911
  S  S8624  1  0.115700  0.550160  0.745090  1.0  -0.2163
  S  S8625  1  0.958880  0.084750  0.423110  1.0  -0.2913
  S  S8626  1  0.134300  0.199840  0.245090  1.0  -0.2175
  S  S8627  1  0.958880  0.584750  0.923110  1.0  -0.2913
  S  S8628  1  0.134300  0.699840  0.745090  1.0  -0.2175
  S  S8629  1  0.458880  0.084750  0.923110  1.0  -0.2913
  S  S8630  1  0.634300  0.199840  0.745090  1.0  -0.2175
  S  S8631  1  0.458880  0.584750  0.423110  1.0  -0.2913
  S  S8632  1  0.634300  0.699840  0.245090  1.0  -0.2175
  S  S8633  1  0.458880  0.665250  0.826890  1.0  -0.2908
  S  S8634  1  0.634300  0.550160  0.004910  1.0  -0.2165
  S  S8635  1  0.458880  0.165250  0.326890  1.0  -0.2908
  S  S8636  1  0.634300  0.050160  0.504910  1.0  -0.2165
  S  S8637  1  0.958880  0.665250  0.326890  1.0  -0.2908
  S  S8638  1  0.134300  0.550160  0.504910  1.0  -0.2165
  S  S8639  1  0.958880  0.165250  0.826890  1.0  -0.2908
  S  S8640  1  0.134300  0.050160  0.004910  1.0  -0.2165
  N  N8641  1  0.410930  0.234730  0.114130  1.0  -0.321
  N  N8642  1  0.354310  0.136230  0.976460  1.0  -0.4247
  N  N8643  1  0.372730  0.149330  0.016810  1.0  -0.3304
  N  N8644  1  0.420300  0.153640  0.060520  1.0  -0.4439
  N  N8645  1  0.409900  0.188070  0.069610  1.0  -0.4221
  N  N8646  1  0.439700  0.172850  0.085230  1.0  -0.4072
  N  N8647  1  0.474660  0.121390  0.100400  1.0  -0.3009
  N  N8648  1  0.498740  0.092500  0.127220  1.0  -0.3824
  N  N8649  1  0.520010  0.124940  0.151140  1.0  -0.3137
  N  N8650  1  0.563970  0.171370  0.155600  1.0  -0.4463
  N  N8651  1  0.410930  0.734730  0.614130  1.0  -0.321
  N  N8652  1  0.354310  0.636230  0.476460  1.0  -0.4247
  N  N8653  1  0.372730  0.649330  0.516810  1.0  -0.3304
  N  N8654  1  0.420300  0.653640  0.560520  1.0  -0.4439
  N  N8655  1  0.409900  0.688070  0.569610  1.0  -0.4221
  N  N8656  1  0.439700  0.672850  0.585230  1.0  -0.4072
  N  N8657  1  0.474660  0.621390  0.600400  1.0  -0.3009
  N  N8658  1  0.498740  0.592500  0.627220  1.0  -0.3824
  N  N8659  1  0.520010  0.624940  0.651140  1.0  -0.3137
  N  N8660  1  0.563970  0.671370  0.655600  1.0  -0.4463
  N  N8661  1  0.910930  0.234730  0.614130  1.0  -0.321
  N  N8662  1  0.854310  0.136230  0.476460  1.0  -0.4247
  N  N8663  1  0.872730  0.149330  0.516810  1.0  -0.3304
  N  N8664  1  0.920300  0.153640  0.560520  1.0  -0.4439
  N  N8665  1  0.909900  0.188070  0.569610  1.0  -0.4221
  N  N8666  1  0.939700  0.172850  0.585230  1.0  -0.4072
  N  N8667  1  0.974660  0.121390  0.600400  1.0  -0.3009
  N  N8668  1  0.998740  0.092500  0.627220  1.0  -0.3824
  N  N8669  1  0.020010  0.124940  0.651140  1.0  -0.3137
  N  N8670  1  0.063970  0.171370  0.655600  1.0  -0.4463
  N  N8671  1  0.910930  0.734730  0.114130  1.0  -0.321
  N  N8672  1  0.854310  0.636230  0.976460  1.0  -0.4247
  N  N8673  1  0.872730  0.649330  0.016810  1.0  -0.3304
  N  N8674  1  0.920300  0.653640  0.060520  1.0  -0.4439
  N  N8675  1  0.909900  0.688070  0.069610  1.0  -0.4221
  N  N8676  1  0.939700  0.672850  0.085230  1.0  -0.4072
  N  N8677  1  0.974660  0.621390  0.100400  1.0  -0.3009
  N  N8678  1  0.998740  0.592500  0.127220  1.0  -0.3824
  N  N8679  1  0.020010  0.624940  0.151140  1.0  -0.3137
  N  N8680  1  0.063970  0.671370  0.155600  1.0  -0.4463
  N  N8681  1  0.839070  0.515270  0.614130  1.0  -0.3226
  N  N8682  1  0.895690  0.613770  0.476460  1.0  -0.4263
  N  N8683  1  0.877270  0.600670  0.516810  1.0  -0.3306
  N  N8684  1  0.829700  0.596360  0.560520  1.0  -0.4436
  N  N8685  1  0.840100  0.561930  0.569610  1.0  -0.4238
  N  N8686  1  0.810300  0.577150  0.585230  1.0  -0.4082
  N  N8687  1  0.775340  0.628610  0.600400  1.0  -0.3023
  N  N8688  1  0.751260  0.657500  0.627220  1.0  -0.3821
  N  N8689  1  0.729990  0.625060  0.651140  1.0  -0.3129
  N  N8690  1  0.686030  0.578630  0.655600  1.0  -0.4489
  N  N8691  1  0.839070  0.015270  0.114130  1.0  -0.3226
  N  N8692  1  0.895690  0.113770  0.976460  1.0  -0.4263
  N  N8693  1  0.877270  0.100670  0.016810  1.0  -0.3306
  N  N8694  1  0.829700  0.096360  0.060520  1.0  -0.4436
  N  N8695  1  0.840100  0.061930  0.069610  1.0  -0.4238
  N  N8696  1  0.810300  0.077150  0.085230  1.0  -0.4082
  N  N8697  1  0.775340  0.128610  0.100400  1.0  -0.3023
  N  N8698  1  0.751260  0.157500  0.127220  1.0  -0.3821
  N  N8699  1  0.729990  0.125060  0.151140  1.0  -0.3129
  N  N8700  1  0.686030  0.078630  0.155600  1.0  -0.4489
  N  N8701  1  0.339070  0.515270  0.114130  1.0  -0.3226
  N  N8702  1  0.395690  0.613770  0.976460  1.0  -0.4263
  N  N8703  1  0.377270  0.600670  0.016810  1.0  -0.3306
  N  N8704  1  0.329700  0.596360  0.060520  1.0  -0.4436
  N  N8705  1  0.340100  0.561930  0.069610  1.0  -0.4238
  N  N8706  1  0.310300  0.577150  0.085230  1.0  -0.4082
  N  N8707  1  0.275340  0.628610  0.100400  1.0  -0.3023
  N  N8708  1  0.251260  0.657500  0.127220  1.0  -0.3821
  N  N8709  1  0.229990  0.625060  0.151140  1.0  -0.3129
  N  N8710  1  0.186030  0.578630  0.155600  1.0  -0.4489
  N  N8711  1  0.339070  0.015270  0.614130  1.0  -0.3226
  N  N8712  1  0.395690  0.113770  0.476460  1.0  -0.4263
  N  N8713  1  0.377270  0.100670  0.516810  1.0  -0.3306
  N  N8714  1  0.329700  0.096360  0.560520  1.0  -0.4436
  N  N8715  1  0.340100  0.061930  0.569610  1.0  -0.4238
  N  N8716  1  0.310300  0.077150  0.585230  1.0  -0.4082
  N  N8717  1  0.275340  0.128610  0.600400  1.0  -0.3023
  N  N8718  1  0.251260  0.157500  0.627220  1.0  -0.3821
  N  N8719  1  0.229990  0.125060  0.651140  1.0  -0.3129
  N  N8720  1  0.186030  0.078630  0.655600  1.0  -0.4489
  N  N8721  1  0.339070  0.734730  0.135870  1.0  -0.3223
  N  N8722  1  0.395690  0.636230  0.273540  1.0  -0.4283
  N  N8723  1  0.377270  0.649330  0.233190  1.0  -0.3302
  N  N8724  1  0.329700  0.653640  0.189480  1.0  -0.4433
  N  N8725  1  0.340100  0.688070  0.180390  1.0  -0.4233
  N  N8726  1  0.310300  0.672850  0.164770  1.0  -0.408
  N  N8727  1  0.275340  0.621390  0.149600  1.0  -0.3028
  N  N8728  1  0.251260  0.592500  0.122780  1.0  -0.3824
  N  N8729  1  0.229990  0.624940  0.098860  1.0  -0.3121
  N  N8730  1  0.186030  0.671370  0.094400  1.0  -0.448
  N  N8731  1  0.339070  0.234730  0.635870  1.0  -0.3223
  N  N8732  1  0.395690  0.136230  0.773540  1.0  -0.4283
  N  N8733  1  0.377270  0.149330  0.733190  1.0  -0.3302
  N  N8734  1  0.329700  0.153640  0.689480  1.0  -0.4433
  N  N8735  1  0.340100  0.188070  0.680390  1.0  -0.4233
  N  N8736  1  0.310300  0.172850  0.664770  1.0  -0.408
  N  N8737  1  0.275340  0.121390  0.649600  1.0  -0.3028
  N  N8738  1  0.251260  0.092500  0.622780  1.0  -0.3824
  N  N8739  1  0.229990  0.124940  0.598860  1.0  -0.3121
  N  N8740  1  0.186030  0.171370  0.594400  1.0  -0.448
  N  N8741  1  0.839070  0.734730  0.635870  1.0  -0.3223
  N  N8742  1  0.895690  0.636230  0.773540  1.0  -0.4283
  N  N8743  1  0.877270  0.649330  0.733190  1.0  -0.3302
  N  N8744  1  0.829700  0.653640  0.689480  1.0  -0.4433
  N  N8745  1  0.840100  0.688070  0.680390  1.0  -0.4233
  N  N8746  1  0.810300  0.672850  0.664770  1.0  -0.408
  N  N8747  1  0.775340  0.621390  0.649600  1.0  -0.3028
  N  N8748  1  0.751260  0.592500  0.622780  1.0  -0.3824
  N  N8749  1  0.729990  0.624940  0.598860  1.0  -0.3121
  N  N8750  1  0.686030  0.671370  0.594400  1.0  -0.448
  N  N8751  1  0.839070  0.234730  0.135870  1.0  -0.3223
  N  N8752  1  0.895690  0.136230  0.273540  1.0  -0.4283
  N  N8753  1  0.877270  0.149330  0.233190  1.0  -0.3302
  N  N8754  1  0.829700  0.153640  0.189480  1.0  -0.4433
  N  N8755  1  0.840100  0.188070  0.180390  1.0  -0.4233
  N  N8756  1  0.810300  0.172850  0.164770  1.0  -0.408
  N  N8757  1  0.775340  0.121390  0.149600  1.0  -0.3028
  N  N8758  1  0.751260  0.092500  0.122780  1.0  -0.3824
  N  N8759  1  0.729990  0.124940  0.098860  1.0  -0.3121
  N  N8760  1  0.686030  0.171370  0.094400  1.0  -0.448
  N  N8761  1  0.910930  0.015270  0.635870  1.0  -0.3208
  N  N8762  1  0.854310  0.113770  0.773540  1.0  -0.4265
  N  N8763  1  0.872730  0.100670  0.733190  1.0  -0.3299
  N  N8764  1  0.920300  0.096360  0.689480  1.0  -0.4435
  N  N8765  1  0.909900  0.061930  0.680390  1.0  -0.4234
  N  N8766  1  0.939700  0.077150  0.664770  1.0  -0.4078
  N  N8767  1  0.974660  0.128610  0.649600  1.0  -0.3023
  N  N8768  1  0.998740  0.157500  0.622780  1.0  -0.3823
  N  N8769  1  0.020010  0.125060  0.598860  1.0  -0.3131
  N  N8770  1  0.063970  0.078630  0.594400  1.0  -0.4455
  N  N8771  1  0.910930  0.515270  0.135870  1.0  -0.3208
  N  N8772  1  0.854310  0.613770  0.273540  1.0  -0.4265
  N  N8773  1  0.872730  0.600670  0.233190  1.0  -0.3299
  N  N8774  1  0.920300  0.596360  0.189480  1.0  -0.4435
  N  N8775  1  0.909900  0.561930  0.180390  1.0  -0.4234
  N  N8776  1  0.939700  0.577150  0.164770  1.0  -0.4078
  N  N8777  1  0.974660  0.628610  0.149600  1.0  -0.3023
  N  N8778  1  0.998740  0.657500  0.122780  1.0  -0.3823
  N  N8779  1  0.020010  0.625060  0.098860  1.0  -0.3131
  N  N8780  1  0.063970  0.578630  0.094400  1.0  -0.4455
  N  N8781  1  0.410930  0.015270  0.135870  1.0  -0.3208
  N  N8782  1  0.354310  0.113770  0.273540  1.0  -0.4265
  N  N8783  1  0.372730  0.100670  0.233190  1.0  -0.3299
  N  N8784  1  0.420300  0.096360  0.189480  1.0  -0.4435
  N  N8785  1  0.409900  0.061930  0.180390  1.0  -0.4234
  N  N8786  1  0.439700  0.077150  0.164770  1.0  -0.4078
  N  N8787  1  0.474660  0.128610  0.149600  1.0  -0.3023
  N  N8788  1  0.498740  0.157500  0.122780  1.0  -0.3823
  N  N8789  1  0.520010  0.125060  0.098860  1.0  -0.3131
  N  N8790  1  0.563970  0.078630  0.094400  1.0  -0.4455
  N  N8791  1  0.410930  0.515270  0.635870  1.0  -0.3208
  N  N8792  1  0.354310  0.613770  0.773540  1.0  -0.4265
  N  N8793  1  0.372730  0.600670  0.733190  1.0  -0.3299
  N  N8794  1  0.420300  0.596360  0.689480  1.0  -0.4435
  N  N8795  1  0.409900  0.561930  0.680390  1.0  -0.4234
  N  N8796  1  0.439700  0.577150  0.664770  1.0  -0.4078
  N  N8797  1  0.474660  0.628610  0.649600  1.0  -0.3023
  N  N8798  1  0.498740  0.657500  0.622780  1.0  -0.3823
  N  N8799  1  0.520010  0.625060  0.598860  1.0  -0.3131
  N  N8800  1  0.563970  0.578630  0.594400  1.0  -0.4455
  N  N8801  1  0.114130  0.410930  0.234730  1.0  -0.327
  N  N8802  1  0.976460  0.354310  0.136230  1.0  -0.4276
  N  N8803  1  0.016810  0.372730  0.149330  1.0  -0.3295
  N  N8804  1  0.060520  0.420300  0.153640  1.0  -0.4459
  N  N8805  1  0.069610  0.409900  0.188070  1.0  -0.4249
  N  N8806  1  0.085230  0.439700  0.172850  1.0  -0.4065
  N  N8807  1  0.100400  0.474660  0.121390  1.0  -0.3018
  N  N8808  1  0.127220  0.498740  0.092500  1.0  -0.3817
  N  N8809  1  0.151140  0.520010  0.124940  1.0  -0.3125
  N  N8810  1  0.155600  0.563970  0.171370  1.0  -0.4463
  N  N8811  1  0.114130  0.910930  0.734730  1.0  -0.327
  N  N8812  1  0.976460  0.854310  0.636230  1.0  -0.4276
  N  N8813  1  0.016810  0.872730  0.649330  1.0  -0.3295
  N  N8814  1  0.060520  0.920300  0.653640  1.0  -0.4459
  N  N8815  1  0.069610  0.909900  0.688070  1.0  -0.4249
  N  N8816  1  0.085230  0.939700  0.672850  1.0  -0.4065
  N  N8817  1  0.100400  0.974660  0.621390  1.0  -0.3018
  N  N8818  1  0.127220  0.998740  0.592500  1.0  -0.3817
  N  N8819  1  0.151140  0.020010  0.624940  1.0  -0.3125
  N  N8820  1  0.155600  0.063970  0.671370  1.0  -0.4463
  N  N8821  1  0.614130  0.410930  0.734730  1.0  -0.327
  N  N8822  1  0.476460  0.354310  0.636230  1.0  -0.4276
  N  N8823  1  0.516810  0.372730  0.649330  1.0  -0.3295
  N  N8824  1  0.560520  0.420300  0.653640  1.0  -0.4459
  N  N8825  1  0.569610  0.409900  0.688070  1.0  -0.4249
  N  N8826  1  0.585230  0.439700  0.672850  1.0  -0.4065
  N  N8827  1  0.600400  0.474660  0.621390  1.0  -0.3018
  N  N8828  1  0.627220  0.498740  0.592500  1.0  -0.3817
  N  N8829  1  0.651140  0.520010  0.624940  1.0  -0.3125
  N  N8830  1  0.655600  0.563970  0.671370  1.0  -0.4463
  N  N8831  1  0.614130  0.910930  0.234730  1.0  -0.327
  N  N8832  1  0.476460  0.854310  0.136230  1.0  -0.4276
  N  N8833  1  0.516810  0.872730  0.149330  1.0  -0.3295
  N  N8834  1  0.560520  0.920300  0.153640  1.0  -0.4459
  N  N8835  1  0.569610  0.909900  0.188070  1.0  -0.4249
  N  N8836  1  0.585230  0.939700  0.172850  1.0  -0.4065
  N  N8837  1  0.600400  0.974660  0.121390  1.0  -0.3018
  N  N8838  1  0.627220  0.998740  0.092500  1.0  -0.3817
  N  N8839  1  0.651140  0.020010  0.124940  1.0  -0.3125
  N  N8840  1  0.655600  0.063970  0.171370  1.0  -0.4463
  N  N8841  1  0.614130  0.839070  0.515270  1.0  -0.3258
  N  N8842  1  0.476460  0.895690  0.613770  1.0  -0.4276
  N  N8843  1  0.516810  0.877270  0.600670  1.0  -0.329
  N  N8844  1  0.560520  0.829700  0.596360  1.0  -0.4461
  N  N8845  1  0.569610  0.840100  0.561930  1.0  -0.4261
  N  N8846  1  0.585230  0.810300  0.577150  1.0  -0.4057
  N  N8847  1  0.600400  0.775340  0.628610  1.0  -0.3019
  N  N8848  1  0.627220  0.751260  0.657500  1.0  -0.3819
  N  N8849  1  0.651140  0.729990  0.625060  1.0  -0.3126
  N  N8850  1  0.655600  0.686030  0.578630  1.0  -0.4473
  N  N8851  1  0.614130  0.339070  0.015270  1.0  -0.3258
  N  N8852  1  0.476460  0.395690  0.113770  1.0  -0.4276
  N  N8853  1  0.516810  0.377270  0.100670  1.0  -0.329
  N  N8854  1  0.560520  0.329700  0.096360  1.0  -0.4461
  N  N8855  1  0.569610  0.340100  0.061930  1.0  -0.4261
  N  N8856  1  0.585230  0.310300  0.077150  1.0  -0.4057
  N  N8857  1  0.600400  0.275340  0.128610  1.0  -0.3019
  N  N8858  1  0.627220  0.251260  0.157500  1.0  -0.3819
  N  N8859  1  0.651140  0.229990  0.125060  1.0  -0.3126
  N  N8860  1  0.655600  0.186030  0.078630  1.0  -0.4473
  N  N8861  1  0.114130  0.839070  0.015270  1.0  -0.3258
  N  N8862  1  0.976460  0.895690  0.113770  1.0  -0.4276
  N  N8863  1  0.016810  0.877270  0.100670  1.0  -0.329
  N  N8864  1  0.060520  0.829700  0.096360  1.0  -0.4461
  N  N8865  1  0.069610  0.840100  0.061930  1.0  -0.4261
  N  N8866  1  0.085230  0.810300  0.077150  1.0  -0.4057
  N  N8867  1  0.100400  0.775340  0.128610  1.0  -0.3019
  N  N8868  1  0.127220  0.751260  0.157500  1.0  -0.3819
  N  N8869  1  0.151140  0.729990  0.125060  1.0  -0.3126
  N  N8870  1  0.155600  0.686030  0.078630  1.0  -0.4473
  N  N8871  1  0.114130  0.339070  0.515270  1.0  -0.3258
  N  N8872  1  0.976460  0.395690  0.613770  1.0  -0.4276
  N  N8873  1  0.016810  0.377270  0.600670  1.0  -0.329
  N  N8874  1  0.060520  0.329700  0.596360  1.0  -0.4461
  N  N8875  1  0.069610  0.340100  0.561930  1.0  -0.4261
  N  N8876  1  0.085230  0.310300  0.577150  1.0  -0.4057
  N  N8877  1  0.100400  0.275340  0.628610  1.0  -0.3019
  N  N8878  1  0.127220  0.251260  0.657500  1.0  -0.3819
  N  N8879  1  0.151140  0.229990  0.625060  1.0  -0.3126
  N  N8880  1  0.155600  0.186030  0.578630  1.0  -0.4473
  N  N8881  1  0.135870  0.339070  0.734730  1.0  -0.3265
  N  N8882  1  0.273540  0.395690  0.636230  1.0  -0.427
  N  N8883  1  0.233190  0.377270  0.649330  1.0  -0.3295
  N  N8884  1  0.189480  0.329700  0.653640  1.0  -0.4465
  N  N8885  1  0.180390  0.340100  0.688070  1.0  -0.4246
  N  N8886  1  0.164770  0.310300  0.672850  1.0  -0.4065
  N  N8887  1  0.149600  0.275340  0.621390  1.0  -0.3029
  N  N8888  1  0.122780  0.251260  0.592500  1.0  -0.3821
  N  N8889  1  0.098860  0.229990  0.624940  1.0  -0.3119
  N  N8890  1  0.094400  0.186030  0.671370  1.0  -0.4491
  N  N8891  1  0.135870  0.839070  0.234730  1.0  -0.3265
  N  N8892  1  0.273540  0.895690  0.136230  1.0  -0.427
  N  N8893  1  0.233190  0.877270  0.149330  1.0  -0.3295
  N  N8894  1  0.189480  0.829700  0.153640  1.0  -0.4465
  N  N8895  1  0.180390  0.840100  0.188070  1.0  -0.4246
  N  N8896  1  0.164770  0.810300  0.172850  1.0  -0.4065
  N  N8897  1  0.149600  0.775340  0.121390  1.0  -0.3029
  N  N8898  1  0.122780  0.751260  0.092500  1.0  -0.3821
  N  N8899  1  0.098860  0.729990  0.124940  1.0  -0.3119
  N  N8900  1  0.094400  0.686030  0.171370  1.0  -0.4491
  N  N8901  1  0.635870  0.339070  0.234730  1.0  -0.3265
  N  N8902  1  0.773540  0.395690  0.136230  1.0  -0.427
  N  N8903  1  0.733190  0.377270  0.149330  1.0  -0.3295
  N  N8904  1  0.689480  0.329700  0.153640  1.0  -0.4465
  N  N8905  1  0.680390  0.340100  0.188070  1.0  -0.4246
  N  N8906  1  0.664770  0.310300  0.172850  1.0  -0.4065
  N  N8907  1  0.649600  0.275340  0.121390  1.0  -0.3029
  N  N8908  1  0.622780  0.251260  0.092500  1.0  -0.3821
  N  N8909  1  0.598860  0.229990  0.124940  1.0  -0.3119
  N  N8910  1  0.594400  0.186030  0.171370  1.0  -0.4491
  N  N8911  1  0.635870  0.839070  0.734730  1.0  -0.3265
  N  N8912  1  0.773540  0.895690  0.636230  1.0  -0.427
  N  N8913  1  0.733190  0.877270  0.649330  1.0  -0.3295
  N  N8914  1  0.689480  0.829700  0.653640  1.0  -0.4465
  N  N8915  1  0.680390  0.840100  0.688070  1.0  -0.4246
  N  N8916  1  0.664770  0.810300  0.672850  1.0  -0.4065
  N  N8917  1  0.649600  0.775340  0.621390  1.0  -0.3029
  N  N8918  1  0.622780  0.751260  0.592500  1.0  -0.3821
  N  N8919  1  0.598860  0.729990  0.624940  1.0  -0.3119
  N  N8920  1  0.594400  0.686030  0.671370  1.0  -0.4491
  N  N8921  1  0.635870  0.910930  0.015270  1.0  -0.3265
  N  N8922  1  0.773540  0.854310  0.113770  1.0  -0.4279
  N  N8923  1  0.733190  0.872730  0.100670  1.0  -0.3283
  N  N8924  1  0.689480  0.920300  0.096360  1.0  -0.4474
  N  N8925  1  0.680390  0.909900  0.061930  1.0  -0.427
  N  N8926  1  0.664770  0.939700  0.077150  1.0  -0.4073
  N  N8927  1  0.649600  0.974660  0.128610  1.0  -0.3026
  N  N8928  1  0.622780  0.998740  0.157500  1.0  -0.3818
  N  N8929  1  0.598860  0.020010  0.125060  1.0  -0.3124
  N  N8930  1  0.594400  0.063970  0.078630  1.0  -0.4477
  N  N8931  1  0.635870  0.410930  0.515270  1.0  -0.3265
  N  N8932  1  0.773540  0.354310  0.613770  1.0  -0.4279
  N  N8933  1  0.733190  0.372730  0.600670  1.0  -0.3283
  N  N8934  1  0.689480  0.420300  0.596360  1.0  -0.4474
  N  N8935  1  0.680390  0.409900  0.561930  1.0  -0.427
  N  N8936  1  0.664770  0.439700  0.577150  1.0  -0.4073
  N  N8937  1  0.649600  0.474660  0.628610  1.0  -0.3026
  N  N8938  1  0.622780  0.498740  0.657500  1.0  -0.3818
  N  N8939  1  0.598860  0.520010  0.625060  1.0  -0.3124
  N  N8940  1  0.594400  0.563970  0.578630  1.0  -0.4477
  N  N8941  1  0.135870  0.910930  0.515270  1.0  -0.3265
  N  N8942  1  0.273540  0.854310  0.613770  1.0  -0.4279
  N  N8943  1  0.233190  0.872730  0.600670  1.0  -0.3283
  N  N8944  1  0.189480  0.920300  0.596360  1.0  -0.4474
  N  N8945  1  0.180390  0.909900  0.561930  1.0  -0.427
  N  N8946  1  0.164770  0.939700  0.577150  1.0  -0.4073
  N  N8947  1  0.149600  0.974660  0.628610  1.0  -0.3026
  N  N8948  1  0.122780  0.998740  0.657500  1.0  -0.3818
  N  N8949  1  0.098860  0.020010  0.625060  1.0  -0.3124
  N  N8950  1  0.094400  0.063970  0.578630  1.0  -0.4477
  N  N8951  1  0.135870  0.410930  0.015270  1.0  -0.3265
  N  N8952  1  0.273540  0.354310  0.113770  1.0  -0.4279
  N  N8953  1  0.233190  0.372730  0.100670  1.0  -0.3283
  N  N8954  1  0.189480  0.420300  0.096360  1.0  -0.4474
  N  N8955  1  0.180390  0.409900  0.061930  1.0  -0.427
  N  N8956  1  0.164770  0.439700  0.077150  1.0  -0.4073
  N  N8957  1  0.149600  0.474660  0.128610  1.0  -0.3026
  N  N8958  1  0.122780  0.498740  0.157500  1.0  -0.3818
  N  N8959  1  0.098860  0.520010  0.125060  1.0  -0.3124
  N  N8960  1  0.094400  0.563970  0.078630  1.0  -0.4477
  N  N8961  1  0.234730  0.114130  0.410930  1.0  -0.3278
  N  N8962  1  0.136230  0.976460  0.354310  1.0  -0.4308
  N  N8963  1  0.149330  0.016810  0.372730  1.0  -0.3275
  N  N8964  1  0.153640  0.060520  0.420300  1.0  -0.444
  N  N8965  1  0.188070  0.069610  0.409900  1.0  -0.4257
  N  N8966  1  0.172850  0.085230  0.439700  1.0  -0.4098
  N  N8967  1  0.121390  0.100400  0.474660  1.0  -0.3008
  N  N8968  1  0.092500  0.127220  0.498740  1.0  -0.3866
  N  N8969  1  0.124940  0.151140  0.520010  1.0  -0.3137
  N  N8970  1  0.171370  0.155600  0.563970  1.0  -0.4463
  N  N8971  1  0.234730  0.614130  0.910930  1.0  -0.3278
  N  N8972  1  0.136230  0.476460  0.854310  1.0  -0.4308
  N  N8973  1  0.149330  0.516810  0.872730  1.0  -0.3275
  N  N8974  1  0.153640  0.560520  0.920300  1.0  -0.444
  N  N8975  1  0.188070  0.569610  0.909900  1.0  -0.4257
  N  N8976  1  0.172850  0.585230  0.939700  1.0  -0.4098
  N  N8977  1  0.121390  0.600400  0.974660  1.0  -0.3008
  N  N8978  1  0.092500  0.627220  0.998740  1.0  -0.3866
  N  N8979  1  0.124940  0.651140  0.020010  1.0  -0.3137
  N  N8980  1  0.171370  0.655600  0.063970  1.0  -0.4463
  N  N8981  1  0.734730  0.114130  0.910930  1.0  -0.3278
  N  N8982  1  0.636230  0.976460  0.854310  1.0  -0.4308
  N  N8983  1  0.649330  0.016810  0.872730  1.0  -0.3275
  N  N8984  1  0.653640  0.060520  0.920300  1.0  -0.444
  N  N8985  1  0.688070  0.069610  0.909900  1.0  -0.4257
  N  N8986  1  0.672850  0.085230  0.939700  1.0  -0.4098
  N  N8987  1  0.621390  0.100400  0.974660  1.0  -0.3008
  N  N8988  1  0.592500  0.127220  0.998740  1.0  -0.3866
  N  N8989  1  0.624940  0.151140  0.020010  1.0  -0.3137
  N  N8990  1  0.671370  0.155600  0.063970  1.0  -0.4463
  N  N8991  1  0.734730  0.614130  0.410930  1.0  -0.3278
  N  N8992  1  0.636230  0.476460  0.354310  1.0  -0.4308
  N  N8993  1  0.649330  0.516810  0.372730  1.0  -0.3275
  N  N8994  1  0.653640  0.560520  0.420300  1.0  -0.444
  N  N8995  1  0.688070  0.569610  0.409900  1.0  -0.4257
  N  N8996  1  0.672850  0.585230  0.439700  1.0  -0.4098
  N  N8997  1  0.621390  0.600400  0.474660  1.0  -0.3008
  N  N8998  1  0.592500  0.627220  0.498740  1.0  -0.3866
  N  N8999  1  0.624940  0.651140  0.520010  1.0  -0.3137
  N  N9000  1  0.671370  0.655600  0.563970  1.0  -0.4463
  N  N9001  1  0.515270  0.614130  0.839070  1.0  -0.3269
  N  N9002  1  0.613770  0.476460  0.895690  1.0  -0.4279
  N  N9003  1  0.600670  0.516810  0.877270  1.0  -0.3269
  N  N9004  1  0.596360  0.560520  0.829700  1.0  -0.4449
  N  N9005  1  0.561930  0.569610  0.840100  1.0  -0.4247
  N  N9006  1  0.577150  0.585230  0.810300  1.0  -0.4098
  N  N9007  1  0.628610  0.600400  0.775340  1.0  -0.3012
  N  N9008  1  0.657500  0.627220  0.751260  1.0  -0.3881
  N  N9009  1  0.625060  0.651140  0.729990  1.0  -0.3141
  N  N9010  1  0.578630  0.655600  0.686030  1.0  -0.4444
  N  N9011  1  0.515270  0.114130  0.339070  1.0  -0.3269
  N  N9012  1  0.613770  0.976460  0.395690  1.0  -0.4279
  N  N9013  1  0.600670  0.016810  0.377270  1.0  -0.3269
  N  N9014  1  0.596360  0.060520  0.329700  1.0  -0.4449
  N  N9015  1  0.561930  0.069610  0.340100  1.0  -0.4247
  N  N9016  1  0.577150  0.085230  0.310300  1.0  -0.4098
  N  N9017  1  0.628610  0.100400  0.275340  1.0  -0.3012
  N  N9018  1  0.657500  0.127220  0.251260  1.0  -0.3881
  N  N9019  1  0.625060  0.151140  0.229990  1.0  -0.3141
  N  N9020  1  0.578630  0.155600  0.186030  1.0  -0.4444
  N  N9021  1  0.015270  0.614130  0.339070  1.0  -0.3269
  N  N9022  1  0.113770  0.476460  0.395690  1.0  -0.4279
  N  N9023  1  0.100670  0.516810  0.377270  1.0  -0.3269
  N  N9024  1  0.096360  0.560520  0.329700  1.0  -0.4449
  N  N9025  1  0.061930  0.569610  0.340100  1.0  -0.4247
  N  N9026  1  0.077150  0.585230  0.310300  1.0  -0.4098
  N  N9027  1  0.128610  0.600400  0.275340  1.0  -0.3012
  N  N9028  1  0.157500  0.627220  0.251260  1.0  -0.3881
  N  N9029  1  0.125060  0.651140  0.229990  1.0  -0.3141
  N  N9030  1  0.078630  0.655600  0.186030  1.0  -0.4444
  N  N9031  1  0.015270  0.114130  0.839070  1.0  -0.3269
  N  N9032  1  0.113770  0.976460  0.895690  1.0  -0.4279
  N  N9033  1  0.100670  0.016810  0.877270  1.0  -0.3269
  N  N9034  1  0.096360  0.060520  0.829700  1.0  -0.4449
  N  N9035  1  0.061930  0.069610  0.840100  1.0  -0.4247
  N  N9036  1  0.077150  0.085230  0.810300  1.0  -0.4098
  N  N9037  1  0.128610  0.100400  0.775340  1.0  -0.3012
  N  N9038  1  0.157500  0.127220  0.751260  1.0  -0.3881
  N  N9039  1  0.125060  0.151140  0.729990  1.0  -0.3141
  N  N9040  1  0.078630  0.155600  0.686030  1.0  -0.4444
  N  N9041  1  0.734730  0.135870  0.339070  1.0  -0.3266
  N  N9042  1  0.636230  0.273540  0.395690  1.0  -0.4282
  N  N9043  1  0.649330  0.233190  0.377270  1.0  -0.3273
  N  N9044  1  0.653640  0.189480  0.329700  1.0  -0.4435
  N  N9045  1  0.688070  0.180390  0.340100  1.0  -0.4251
  N  N9046  1  0.672850  0.164770  0.310300  1.0  -0.4099
  N  N9047  1  0.621390  0.149600  0.275340  1.0  -0.3035
  N  N9048  1  0.592500  0.122780  0.251260  1.0  -0.3865
  N  N9049  1  0.624940  0.098860  0.229990  1.0  -0.3142
  N  N9050  1  0.671370  0.094400  0.186030  1.0  -0.4456
  N  N9051  1  0.734730  0.635870  0.839070  1.0  -0.3266
  N  N9052  1  0.636230  0.773540  0.895690  1.0  -0.4282
  N  N9053  1  0.649330  0.733190  0.877270  1.0  -0.3273
  N  N9054  1  0.653640  0.689480  0.829700  1.0  -0.4435
  N  N9055  1  0.688070  0.680390  0.840100  1.0  -0.4251
  N  N9056  1  0.672850  0.664770  0.810300  1.0  -0.4099
  N  N9057  1  0.621390  0.649600  0.775340  1.0  -0.3035
  N  N9058  1  0.592500  0.622780  0.751260  1.0  -0.3865
  N  N9059  1  0.624940  0.598860  0.729990  1.0  -0.3142
  N  N9060  1  0.671370  0.594400  0.686030  1.0  -0.4456
  N  N9061  1  0.234730  0.135870  0.839070  1.0  -0.3266
  N  N9062  1  0.136230  0.273540  0.895690  1.0  -0.4282
  N  N9063  1  0.149330  0.233190  0.877270  1.0  -0.3273
  N  N9064  1  0.153640  0.189480  0.829700  1.0  -0.4435
  N  N9065  1  0.188070  0.180390  0.840100  1.0  -0.4251
  N  N9066  1  0.172850  0.164770  0.810300  1.0  -0.4099
  N  N9067  1  0.121390  0.149600  0.775340  1.0  -0.3035
  N  N9068  1  0.092500  0.122780  0.751260  1.0  -0.3865
  N  N9069  1  0.124940  0.098860  0.729990  1.0  -0.3142
  N  N9070  1  0.171370  0.094400  0.686030  1.0  -0.4456
  N  N9071  1  0.234730  0.635870  0.339070  1.0  -0.3266
  N  N9072  1  0.136230  0.773540  0.395690  1.0  -0.4282
  N  N9073  1  0.149330  0.733190  0.377270  1.0  -0.3273
  N  N9074  1  0.153640  0.689480  0.329700  1.0  -0.4435
  N  N9075  1  0.188070  0.680390  0.340100  1.0  -0.4251
  N  N9076  1  0.172850  0.664770  0.310300  1.0  -0.4099
  N  N9077  1  0.121390  0.649600  0.275340  1.0  -0.3035
  N  N9078  1  0.092500  0.622780  0.251260  1.0  -0.3865
  N  N9079  1  0.124940  0.598860  0.229990  1.0  -0.3142
  N  N9080  1  0.171370  0.594400  0.186030  1.0  -0.4456
  N  N9081  1  0.015270  0.635870  0.910930  1.0  -0.3271
  N  N9082  1  0.113770  0.773540  0.854310  1.0  -0.4303
  N  N9083  1  0.100670  0.733190  0.872730  1.0  -0.3277
  N  N9084  1  0.096360  0.689480  0.920300  1.0  -0.4445
  N  N9085  1  0.061930  0.680390  0.909900  1.0  -0.4247
  N  N9086  1  0.077150  0.664770  0.939700  1.0  -0.4114
  N  N9087  1  0.128610  0.649600  0.974660  1.0  -0.3025
  N  N9088  1  0.157500  0.622780  0.998740  1.0  -0.3881
  N  N9089  1  0.125060  0.598860  0.020010  1.0  -0.3134
  N  N9090  1  0.078630  0.594400  0.063970  1.0  -0.4466
  N  N9091  1  0.015270  0.135870  0.410930  1.0  -0.3271
  N  N9092  1  0.113770  0.273540  0.354310  1.0  -0.4303
  N  N9093  1  0.100670  0.233190  0.372730  1.0  -0.3277
  N  N9094  1  0.096360  0.189480  0.420300  1.0  -0.4445
  N  N9095  1  0.061930  0.180390  0.409900  1.0  -0.4247
  N  N9096  1  0.077150  0.164770  0.439700  1.0  -0.4114
  N  N9097  1  0.128610  0.149600  0.474660  1.0  -0.3025
  N  N9098  1  0.157500  0.122780  0.498740  1.0  -0.3881
  N  N9099  1  0.125060  0.098860  0.520010  1.0  -0.3134
  N  N9100  1  0.078630  0.094400  0.563970  1.0  -0.4466
  N  N9101  1  0.515270  0.635870  0.410930  1.0  -0.3271
  N  N9102  1  0.613770  0.773540  0.354310  1.0  -0.4303
  N  N9103  1  0.600670  0.733190  0.372730  1.0  -0.3277
  N  N9104  1  0.596360  0.689480  0.420300  1.0  -0.4445
  N  N9105  1  0.561930  0.680390  0.409900  1.0  -0.4247
  N  N9106  1  0.577150  0.664770  0.439700  1.0  -0.4114
  N  N9107  1  0.628610  0.649600  0.474660  1.0  -0.3025
  N  N9108  1  0.657500  0.622780  0.498740  1.0  -0.3881
  N  N9109  1  0.625060  0.598860  0.520010  1.0  -0.3134
  N  N9110  1  0.578630  0.594400  0.563970  1.0  -0.4466
  N  N9111  1  0.515270  0.135870  0.910930  1.0  -0.3271
  N  N9112  1  0.613770  0.273540  0.854310  1.0  -0.4303
  N  N9113  1  0.600670  0.233190  0.872730  1.0  -0.3277
  N  N9114  1  0.596360  0.189480  0.920300  1.0  -0.4445
  N  N9115  1  0.561930  0.180390  0.909900  1.0  -0.4247
  N  N9116  1  0.577150  0.164770  0.939700  1.0  -0.4114
  N  N9117  1  0.628610  0.149600  0.974660  1.0  -0.3025
  N  N9118  1  0.657500  0.122780  0.998740  1.0  -0.3881
  N  N9119  1  0.625060  0.098860  0.020010  1.0  -0.3134
  N  N9120  1  0.578630  0.094400  0.063970  1.0  -0.4466
  N  N9121  1  0.984730  0.660930  0.885870  1.0  -0.3242
  N  N9122  1  0.886230  0.604310  0.023540  1.0  -0.4269
  N  N9123  1  0.899330  0.622730  0.983190  1.0  -0.3276
  N  N9124  1  0.903640  0.670300  0.939480  1.0  -0.4449
  N  N9125  1  0.938070  0.659900  0.930390  1.0  -0.4253
  N  N9126  1  0.922850  0.689700  0.914770  1.0  -0.4082
  N  N9127  1  0.871390  0.724660  0.899600  1.0  -0.3038
  N  N9128  1  0.842500  0.748740  0.872780  1.0  -0.3861
  N  N9129  1  0.874940  0.770010  0.848860  1.0  -0.3149
  N  N9130  1  0.921370  0.813970  0.844400  1.0  -0.4454
  N  N9131  1  0.984730  0.160930  0.385870  1.0  -0.3242
  N  N9132  1  0.886230  0.104310  0.523540  1.0  -0.4269
  N  N9133  1  0.899330  0.122730  0.483190  1.0  -0.3276
  N  N9134  1  0.903640  0.170300  0.439480  1.0  -0.4449
  N  N9135  1  0.938070  0.159900  0.430390  1.0  -0.4253
  N  N9136  1  0.922850  0.189700  0.414770  1.0  -0.4082
  N  N9137  1  0.871390  0.224660  0.399600  1.0  -0.3038
  N  N9138  1  0.842500  0.248740  0.372780  1.0  -0.3861
  N  N9139  1  0.874940  0.270010  0.348860  1.0  -0.3149
  N  N9140  1  0.921370  0.313970  0.344400  1.0  -0.4454
  N  N9141  1  0.484730  0.660930  0.385870  1.0  -0.3242
  N  N9142  1  0.386230  0.604310  0.523540  1.0  -0.4269
  N  N9143  1  0.399330  0.622730  0.483190  1.0  -0.3276
  N  N9144  1  0.403640  0.670300  0.439480  1.0  -0.4449
  N  N9145  1  0.438070  0.659900  0.430390  1.0  -0.4253
  N  N9146  1  0.422850  0.689700  0.414770  1.0  -0.4082
  N  N9147  1  0.371390  0.724660  0.399600  1.0  -0.3038
  N  N9148  1  0.342500  0.748740  0.372780  1.0  -0.3861
  N  N9149  1  0.374940  0.770010  0.348860  1.0  -0.3149
  N  N9150  1  0.421370  0.813970  0.344400  1.0  -0.4454
  N  N9151  1  0.484730  0.160930  0.885870  1.0  -0.3242
  N  N9152  1  0.386230  0.104310  0.023540  1.0  -0.4269
  N  N9153  1  0.399330  0.122730  0.983190  1.0  -0.3276
  N  N9154  1  0.403640  0.170300  0.939480  1.0  -0.4449
  N  N9155  1  0.438070  0.159900  0.930390  1.0  -0.4253
  N  N9156  1  0.422850  0.189700  0.914770  1.0  -0.4082
  N  N9157  1  0.371390  0.224660  0.899600  1.0  -0.3038
  N  N9158  1  0.342500  0.248740  0.872780  1.0  -0.3861
  N  N9159  1  0.374940  0.270010  0.848860  1.0  -0.3149
  N  N9160  1  0.421370  0.313970  0.844400  1.0  -0.4454
  N  N9161  1  0.265270  0.089070  0.385870  1.0  -0.3237
  N  N9162  1  0.363770  0.145690  0.523540  1.0  -0.4268
  N  N9163  1  0.350670  0.127270  0.483190  1.0  -0.3278
  N  N9164  1  0.346360  0.079700  0.439480  1.0  -0.4456
  N  N9165  1  0.311930  0.090100  0.430390  1.0  -0.425
  N  N9166  1  0.327150  0.060300  0.414770  1.0  -0.4083
  N  N9167  1  0.378610  0.025340  0.399600  1.0  -0.3043
  N  N9168  1  0.407500  0.001260  0.372780  1.0  -0.3879
  N  N9169  1  0.375060  0.979990  0.348860  1.0  -0.3144
  N  N9170  1  0.328630  0.936030  0.344400  1.0  -0.4462
  N  N9171  1  0.265270  0.589070  0.885870  1.0  -0.3237
  N  N9172  1  0.363770  0.645690  0.023540  1.0  -0.4268
  N  N9173  1  0.350670  0.627270  0.983190  1.0  -0.3278
  N  N9174  1  0.346360  0.579700  0.939480  1.0  -0.4456
  N  N9175  1  0.311930  0.590100  0.930390  1.0  -0.425
  N  N9176  1  0.327150  0.560300  0.914770  1.0  -0.4083
  N  N9177  1  0.378610  0.525340  0.899600  1.0  -0.3043
  N  N9178  1  0.407500  0.501260  0.872780  1.0  -0.3879
  N  N9179  1  0.375060  0.479990  0.848860  1.0  -0.3144
  N  N9180  1  0.328630  0.436030  0.844400  1.0  -0.4462
  N  N9181  1  0.765270  0.089070  0.885870  1.0  -0.3237
  N  N9182  1  0.863770  0.145690  0.023540  1.0  -0.4268
  N  N9183  1  0.850670  0.127270  0.983190  1.0  -0.3278
  N  N9184  1  0.846360  0.079700  0.939480  1.0  -0.4456
  N  N9185  1  0.811930  0.090100  0.930390  1.0  -0.425
  N  N9186  1  0.827150  0.060300  0.914770  1.0  -0.4083
  N  N9187  1  0.878610  0.025340  0.899600  1.0  -0.3043
  N  N9188  1  0.907500  0.001260  0.872780  1.0  -0.3879
  N  N9189  1  0.875060  0.979990  0.848860  1.0  -0.3144
  N  N9190  1  0.828630  0.936030  0.844400  1.0  -0.4462
  N  N9191  1  0.765270  0.589070  0.385870  1.0  -0.3237
  N  N9192  1  0.863770  0.645690  0.523540  1.0  -0.4268
  N  N9193  1  0.850670  0.627270  0.483190  1.0  -0.3278
  N  N9194  1  0.846360  0.579700  0.439480  1.0  -0.4456
  N  N9195  1  0.811930  0.590100  0.430390  1.0  -0.425
  N  N9196  1  0.827150  0.560300  0.414770  1.0  -0.4083
  N  N9197  1  0.878610  0.525340  0.399600  1.0  -0.3043
  N  N9198  1  0.907500  0.501260  0.372780  1.0  -0.3879
  N  N9199  1  0.875060  0.479990  0.348860  1.0  -0.3144
  N  N9200  1  0.828630  0.436030  0.344400  1.0  -0.4462
  N  N9201  1  0.484730  0.589070  0.864130  1.0  -0.3241
  N  N9202  1  0.386230  0.645690  0.726460  1.0  -0.4257
  N  N9203  1  0.399330  0.627270  0.766810  1.0  -0.328
  N  N9204  1  0.403640  0.579700  0.810520  1.0  -0.4442
  N  N9205  1  0.438070  0.590100  0.819610  1.0  -0.4254
  N  N9206  1  0.422850  0.560300  0.835230  1.0  -0.4072
  N  N9207  1  0.371390  0.525340  0.850400  1.0  -0.3037
  N  N9208  1  0.342500  0.501260  0.877220  1.0  -0.3862
  N  N9209  1  0.374940  0.479990  0.901140  1.0  -0.315
  N  N9210  1  0.421370  0.436030  0.905600  1.0  -0.4474
  N  N9211  1  0.484730  0.089070  0.364130  1.0  -0.3241
  N  N9212  1  0.386230  0.145690  0.226460  1.0  -0.4257
  N  N9213  1  0.399330  0.127270  0.266810  1.0  -0.328
  N  N9214  1  0.403640  0.079700  0.310520  1.0  -0.4442
  N  N9215  1  0.438070  0.090100  0.319610  1.0  -0.4254
  N  N9216  1  0.422850  0.060300  0.335230  1.0  -0.4072
  N  N9217  1  0.371390  0.025340  0.350400  1.0  -0.3037
  N  N9218  1  0.342500  0.001260  0.377220  1.0  -0.3862
  N  N9219  1  0.374940  0.979990  0.401140  1.0  -0.315
  N  N9220  1  0.421370  0.936030  0.405600  1.0  -0.4474
  N  N9221  1  0.984730  0.589070  0.364130  1.0  -0.3241
  N  N9222  1  0.886230  0.645690  0.226460  1.0  -0.4257
  N  N9223  1  0.899330  0.627270  0.266810  1.0  -0.328
  N  N9224  1  0.903640  0.579700  0.310520  1.0  -0.4442
  N  N9225  1  0.938070  0.590100  0.319610  1.0  -0.4254
  N  N9226  1  0.922850  0.560300  0.335230  1.0  -0.4072
  N  N9227  1  0.871390  0.525340  0.350400  1.0  -0.3037
  N  N9228  1  0.842500  0.501260  0.377220  1.0  -0.3862
  N  N9229  1  0.874940  0.479990  0.401140  1.0  -0.315
  N  N9230  1  0.921370  0.436030  0.405600  1.0  -0.4474
  N  N9231  1  0.984730  0.089070  0.864130  1.0  -0.3241
  N  N9232  1  0.886230  0.145690  0.726460  1.0  -0.4257
  N  N9233  1  0.899330  0.127270  0.766810  1.0  -0.328
  N  N9234  1  0.903640  0.079700  0.810520  1.0  -0.4442
  N  N9235  1  0.938070  0.090100  0.819610  1.0  -0.4254
  N  N9236  1  0.922850  0.060300  0.835230  1.0  -0.4072
  N  N9237  1  0.871390  0.025340  0.850400  1.0  -0.3037
  N  N9238  1  0.842500  0.001260  0.877220  1.0  -0.3862
  N  N9239  1  0.874940  0.979990  0.901140  1.0  -0.315
  N  N9240  1  0.921370  0.936030  0.905600  1.0  -0.4474
  N  N9241  1  0.765270  0.160930  0.364130  1.0  -0.3244
  N  N9242  1  0.863770  0.104310  0.226460  1.0  -0.4242
  N  N9243  1  0.850670  0.122730  0.266810  1.0  -0.328
  N  N9244  1  0.846360  0.170300  0.310520  1.0  -0.4459
  N  N9245  1  0.811930  0.159900  0.319610  1.0  -0.4258
  N  N9246  1  0.827150  0.189700  0.335230  1.0  -0.4096
  N  N9247  1  0.878610  0.224660  0.350400  1.0  -0.303
  N  N9248  1  0.907500  0.248740  0.377220  1.0  -0.3875
  N  N9249  1  0.875060  0.270010  0.401140  1.0  -0.3159
  N  N9250  1  0.828630  0.313970  0.405600  1.0  -0.4468
  N  N9251  1  0.765270  0.660930  0.864130  1.0  -0.3244
  N  N9252  1  0.863770  0.604310  0.726460  1.0  -0.4242
  N  N9253  1  0.850670  0.622730  0.766810  1.0  -0.328
  N  N9254  1  0.846360  0.670300  0.810520  1.0  -0.4459
  N  N9255  1  0.811930  0.659900  0.819610  1.0  -0.4258
  N  N9256  1  0.827150  0.689700  0.835230  1.0  -0.4096
  N  N9257  1  0.878610  0.724660  0.850400  1.0  -0.303
  N  N9258  1  0.907500  0.748740  0.877220  1.0  -0.3875
  N  N9259  1  0.875060  0.770010  0.901140  1.0  -0.3159
  N  N9260  1  0.828630  0.813970  0.905600  1.0  -0.4468
  N  N9261  1  0.265270  0.160930  0.864130  1.0  -0.3244
  N  N9262  1  0.363770  0.104310  0.726460  1.0  -0.4242
  N  N9263  1  0.350670  0.122730  0.766810  1.0  -0.328
  N  N9264  1  0.346360  0.170300  0.810520  1.0  -0.4459
  N  N9265  1  0.311930  0.159900  0.819610  1.0  -0.4258
  N  N9266  1  0.327150  0.189700  0.835230  1.0  -0.4096
  N  N9267  1  0.378610  0.224660  0.850400  1.0  -0.303
  N  N9268  1  0.407500  0.248740  0.877220  1.0  -0.3875
  N  N9269  1  0.375060  0.270010  0.901140  1.0  -0.3159
  N  N9270  1  0.328630  0.313970  0.905600  1.0  -0.4468
  N  N9271  1  0.265270  0.660930  0.364130  1.0  -0.3244
  N  N9272  1  0.363770  0.604310  0.226460  1.0  -0.4242
  N  N9273  1  0.350670  0.622730  0.266810  1.0  -0.328
  N  N9274  1  0.346360  0.670300  0.310520  1.0  -0.4459
  N  N9275  1  0.311930  0.659900  0.319610  1.0  -0.4258
  N  N9276  1  0.327150  0.689700  0.335230  1.0  -0.4096
  N  N9277  1  0.378610  0.724660  0.350400  1.0  -0.303
  N  N9278  1  0.407500  0.748740  0.377220  1.0  -0.3875
  N  N9279  1  0.375060  0.770010  0.401140  1.0  -0.3159
  N  N9280  1  0.328630  0.813970  0.405600  1.0  -0.4468
  N  N9281  1  0.160930  0.364130  0.765270  1.0  -0.3221
  N  N9282  1  0.104310  0.226460  0.863770  1.0  -0.4276
  N  N9283  1  0.122730  0.266810  0.850670  1.0  -0.3303
  N  N9284  1  0.170300  0.310520  0.846360  1.0  -0.4454
  N  N9285  1  0.159900  0.319610  0.811930  1.0  -0.4257
  N  N9286  1  0.189700  0.335230  0.827150  1.0  -0.4066
  N  N9287  1  0.224660  0.350400  0.878610  1.0  -0.3
  N  N9288  1  0.248740  0.377220  0.907500  1.0  -0.3817
  N  N9289  1  0.270010  0.401140  0.875060  1.0  -0.313
  N  N9290  1  0.313970  0.405600  0.828630  1.0  -0.4453
  N  N9291  1  0.160930  0.864130  0.265270  1.0  -0.3221
  N  N9292  1  0.104310  0.726460  0.363770  1.0  -0.4276
  N  N9293  1  0.122730  0.766810  0.350670  1.0  -0.3303
  N  N9294  1  0.170300  0.810520  0.346360  1.0  -0.4454
  N  N9295  1  0.159900  0.819610  0.311930  1.0  -0.4257
  N  N9296  1  0.189700  0.835230  0.327150  1.0  -0.4066
  N  N9297  1  0.224660  0.850400  0.378610  1.0  -0.3
  N  N9298  1  0.248740  0.877220  0.407500  1.0  -0.3817
  N  N9299  1  0.270010  0.901140  0.375060  1.0  -0.313
  N  N9300  1  0.313970  0.905600  0.328630  1.0  -0.4453
  N  N9301  1  0.660930  0.364130  0.265270  1.0  -0.3221
  N  N9302  1  0.604310  0.226460  0.363770  1.0  -0.4276
  N  N9303  1  0.622730  0.266810  0.350670  1.0  -0.3303
  N  N9304  1  0.670300  0.310520  0.346360  1.0  -0.4454
  N  N9305  1  0.659900  0.319610  0.311930  1.0  -0.4257
  N  N9306  1  0.689700  0.335230  0.327150  1.0  -0.4066
  N  N9307  1  0.724660  0.350400  0.378610  1.0  -0.3
  N  N9308  1  0.748740  0.377220  0.407500  1.0  -0.3817
  N  N9309  1  0.770010  0.401140  0.375060  1.0  -0.313
  N  N9310  1  0.813970  0.405600  0.328630  1.0  -0.4453
  N  N9311  1  0.660930  0.864130  0.765270  1.0  -0.3221
  N  N9312  1  0.604310  0.726460  0.863770  1.0  -0.4276
  N  N9313  1  0.622730  0.766810  0.850670  1.0  -0.3303
  N  N9314  1  0.670300  0.810520  0.846360  1.0  -0.4454
  N  N9315  1  0.659900  0.819610  0.811930  1.0  -0.4257
  N  N9316  1  0.689700  0.835230  0.827150  1.0  -0.4066
  N  N9317  1  0.724660  0.850400  0.878610  1.0  -0.3
  N  N9318  1  0.748740  0.877220  0.907500  1.0  -0.3817
  N  N9319  1  0.770010  0.901140  0.875060  1.0  -0.313
  N  N9320  1  0.813970  0.905600  0.828630  1.0  -0.4453
  N  N9321  1  0.589070  0.864130  0.484730  1.0  -0.3236
  N  N9322  1  0.645690  0.726460  0.386230  1.0  -0.4282
  N  N9323  1  0.627270  0.766810  0.399330  1.0  -0.3316
  N  N9324  1  0.579700  0.810520  0.403640  1.0  -0.4451
  N  N9325  1  0.590100  0.819610  0.438070  1.0  -0.4237
  N  N9326  1  0.560300  0.835230  0.422850  1.0  -0.4073
  N  N9327  1  0.525340  0.850400  0.371390  1.0  -0.3008
  N  N9328  1  0.501260  0.877220  0.342500  1.0  -0.3817
  N  N9329  1  0.479990  0.901140  0.374940  1.0  -0.3115
  N  N9330  1  0.436030  0.905600  0.421370  1.0  -0.4472
  N  N9331  1  0.589070  0.364130  0.984730  1.0  -0.3236
  N  N9332  1  0.645690  0.226460  0.886230  1.0  -0.4282
  N  N9333  1  0.627270  0.266810  0.899330  1.0  -0.3316
  N  N9334  1  0.579700  0.310520  0.903640  1.0  -0.4451
  N  N9335  1  0.590100  0.319610  0.938070  1.0  -0.4237
  N  N9336  1  0.560300  0.335230  0.922850  1.0  -0.4073
  N  N9337  1  0.525340  0.350400  0.871390  1.0  -0.3008
  N  N9338  1  0.501260  0.377220  0.842500  1.0  -0.3817
  N  N9339  1  0.479990  0.401140  0.874940  1.0  -0.3115
  N  N9340  1  0.436030  0.405600  0.921370  1.0  -0.4472
  N  N9341  1  0.089070  0.864130  0.984730  1.0  -0.3236
  N  N9342  1  0.145690  0.726460  0.886230  1.0  -0.4282
  N  N9343  1  0.127270  0.766810  0.899330  1.0  -0.3316
  N  N9344  1  0.079700  0.810520  0.903640  1.0  -0.4451
  N  N9345  1  0.090100  0.819610  0.938070  1.0  -0.4237
  N  N9346  1  0.060300  0.835230  0.922850  1.0  -0.4073
  N  N9347  1  0.025340  0.850400  0.871390  1.0  -0.3008
  N  N9348  1  0.001260  0.877220  0.842500  1.0  -0.3817
  N  N9349  1  0.979990  0.901140  0.874940  1.0  -0.3115
  N  N9350  1  0.936030  0.905600  0.921370  1.0  -0.4472
  N  N9351  1  0.089070  0.364130  0.484730  1.0  -0.3236
  N  N9352  1  0.145690  0.226460  0.386230  1.0  -0.4282
  N  N9353  1  0.127270  0.266810  0.399330  1.0  -0.3316
  N  N9354  1  0.079700  0.310520  0.403640  1.0  -0.4451
  N  N9355  1  0.090100  0.319610  0.438070  1.0  -0.4237
  N  N9356  1  0.060300  0.335230  0.422850  1.0  -0.4073
  N  N9357  1  0.025340  0.350400  0.371390  1.0  -0.3008
  N  N9358  1  0.001260  0.377220  0.342500  1.0  -0.3817
  N  N9359  1  0.979990  0.401140  0.374940  1.0  -0.3115
  N  N9360  1  0.936030  0.405600  0.421370  1.0  -0.4472
  N  N9361  1  0.089070  0.385870  0.265270  1.0  -0.3233
  N  N9362  1  0.145690  0.523540  0.363770  1.0  -0.4294
  N  N9363  1  0.127270  0.483190  0.350670  1.0  -0.3306
  N  N9364  1  0.079700  0.439480  0.346360  1.0  -0.4452
  N  N9365  1  0.090100  0.430390  0.311930  1.0  -0.4263
  N  N9366  1  0.060300  0.414770  0.327150  1.0  -0.4081
  N  N9367  1  0.025340  0.399600  0.378610  1.0  -0.3029
  N  N9368  1  0.001260  0.372780  0.407500  1.0  -0.3816
  N  N9369  1  0.979990  0.348860  0.375060  1.0  -0.3119
  N  N9370  1  0.936030  0.344400  0.328630  1.0  -0.4485
  N  N9371  1  0.089070  0.885870  0.765270  1.0  -0.3233
  N  N9372  1  0.145690  0.023540  0.863770  1.0  -0.4294
  N  N9373  1  0.127270  0.983190  0.850670  1.0  -0.3306
  N  N9374  1  0.079700  0.939480  0.846360  1.0  -0.4452
  N  N9375  1  0.090100  0.930390  0.811930  1.0  -0.4263
  N  N9376  1  0.060300  0.914770  0.827150  1.0  -0.4081
  N  N9377  1  0.025340  0.899600  0.878610  1.0  -0.3029
  N  N9378  1  0.001260  0.872780  0.907500  1.0  -0.3816
  N  N9379  1  0.979990  0.848860  0.875060  1.0  -0.3119
  N  N9380  1  0.936030  0.844400  0.828630  1.0  -0.4485
  N  N9381  1  0.589070  0.385870  0.765270  1.0  -0.3233
  N  N9382  1  0.645690  0.523540  0.863770  1.0  -0.4294
  N  N9383  1  0.627270  0.483190  0.850670  1.0  -0.3306
  N  N9384  1  0.579700  0.439480  0.846360  1.0  -0.4452
  N  N9385  1  0.590100  0.430390  0.811930  1.0  -0.4263
  N  N9386  1  0.560300  0.414770  0.827150  1.0  -0.4081
  N  N9387  1  0.525340  0.399600  0.878610  1.0  -0.3029
  N  N9388  1  0.501260  0.372780  0.907500  1.0  -0.3816
  N  N9389  1  0.479990  0.348860  0.875060  1.0  -0.3119
  N  N9390  1  0.436030  0.344400  0.828630  1.0  -0.4485
  N  N9391  1  0.589070  0.885870  0.265270  1.0  -0.3233
  N  N9392  1  0.645690  0.023540  0.363770  1.0  -0.4294
  N  N9393  1  0.627270  0.983190  0.350670  1.0  -0.3306
  N  N9394  1  0.579700  0.939480  0.346360  1.0  -0.4452
  N  N9395  1  0.590100  0.930390  0.311930  1.0  -0.4263
  N  N9396  1  0.560300  0.914770  0.327150  1.0  -0.4081
  N  N9397  1  0.525340  0.899600  0.378610  1.0  -0.3029
  N  N9398  1  0.501260  0.872780  0.407500  1.0  -0.3816
  N  N9399  1  0.479990  0.848860  0.375060  1.0  -0.3119
  N  N9400  1  0.436030  0.844400  0.328630  1.0  -0.4485
  N  N9401  1  0.660930  0.885870  0.984730  1.0  -0.3221
  N  N9402  1  0.604310  0.023540  0.886230  1.0  -0.4279
  N  N9403  1  0.622730  0.983190  0.899330  1.0  -0.3312
  N  N9404  1  0.670300  0.939480  0.903640  1.0  -0.4435
  N  N9405  1  0.659900  0.930390  0.938070  1.0  -0.4237
  N  N9406  1  0.689700  0.914770  0.922850  1.0  -0.4063
  N  N9407  1  0.724660  0.899600  0.871390  1.0  -0.3018
  N  N9408  1  0.748740  0.872780  0.842500  1.0  -0.382
  N  N9409  1  0.770010  0.848860  0.874940  1.0  -0.3125
  N  N9410  1  0.813970  0.844400  0.921370  1.0  -0.4463
  N  N9411  1  0.660930  0.385870  0.484730  1.0  -0.3221
  N  N9412  1  0.604310  0.523540  0.386230  1.0  -0.4279
  N  N9413  1  0.622730  0.483190  0.399330  1.0  -0.3312
  N  N9414  1  0.670300  0.439480  0.403640  1.0  -0.4435
  N  N9415  1  0.659900  0.430390  0.438070  1.0  -0.4237
  N  N9416  1  0.689700  0.414770  0.422850  1.0  -0.4063
  N  N9417  1  0.724660  0.399600  0.371390  1.0  -0.3018
  N  N9418  1  0.748740  0.372780  0.342500  1.0  -0.382
  N  N9419  1  0.770010  0.348860  0.374940  1.0  -0.3125
  N  N9420  1  0.813970  0.344400  0.421370  1.0  -0.4463
  N  N9421  1  0.160930  0.885870  0.484730  1.0  -0.3221
  N  N9422  1  0.104310  0.023540  0.386230  1.0  -0.4279
  N  N9423  1  0.122730  0.983190  0.399330  1.0  -0.3312
  N  N9424  1  0.170300  0.939480  0.403640  1.0  -0.4435
  N  N9425  1  0.159900  0.930390  0.438070  1.0  -0.4237
  N  N9426  1  0.189700  0.914770  0.422850  1.0  -0.4063
  N  N9427  1  0.224660  0.899600  0.371390  1.0  -0.3018
  N  N9428  1  0.248740  0.872780  0.342500  1.0  -0.382
  N  N9429  1  0.270010  0.848860  0.374940  1.0  -0.3125
  N  N9430  1  0.313970  0.844400  0.421370  1.0  -0.4463
  N  N9431  1  0.160930  0.385870  0.984730  1.0  -0.3221
  N  N9432  1  0.104310  0.523540  0.886230  1.0  -0.4279
  N  N9433  1  0.122730  0.483190  0.899330  1.0  -0.3312
  N  N9434  1  0.170300  0.439480  0.903640  1.0  -0.4435
  N  N9435  1  0.159900  0.430390  0.938070  1.0  -0.4237
  N  N9436  1  0.189700  0.414770  0.922850  1.0  -0.4063
  N  N9437  1  0.224660  0.399600  0.871390  1.0  -0.3018
  N  N9438  1  0.248740  0.372780  0.842500  1.0  -0.382
  N  N9439  1  0.270010  0.348860  0.874940  1.0  -0.3125
  N  N9440  1  0.313970  0.344400  0.921370  1.0  -0.4463
  N  N9441  1  0.864130  0.484730  0.589070  1.0  -0.3278
  N  N9442  1  0.726460  0.386230  0.645690  1.0  -0.4282
  N  N9443  1  0.766810  0.399330  0.627270  1.0  -0.3285
  N  N9444  1  0.810520  0.403640  0.579700  1.0  -0.4438
  N  N9445  1  0.819610  0.438070  0.590100  1.0  -0.4233
  N  N9446  1  0.835230  0.422850  0.560300  1.0  -0.4091
  N  N9447  1  0.850400  0.371390  0.525340  1.0  -0.3011
  N  N9448  1  0.877220  0.342500  0.501260  1.0  -0.3825
  N  N9449  1  0.901140  0.374940  0.479990  1.0  -0.3125
  N  N9450  1  0.905600  0.421370  0.436030  1.0  -0.4459
  N  N9451  1  0.864130  0.984730  0.089070  1.0  -0.3278
  N  N9452  1  0.726460  0.886230  0.145690  1.0  -0.4282
  N  N9453  1  0.766810  0.899330  0.127270  1.0  -0.3285
  N  N9454  1  0.810520  0.903640  0.079700  1.0  -0.4438
  N  N9455  1  0.819610  0.938070  0.090100  1.0  -0.4233
  N  N9456  1  0.835230  0.922850  0.060300  1.0  -0.4091
  N  N9457  1  0.850400  0.871390  0.025340  1.0  -0.3011
  N  N9458  1  0.877220  0.842500  0.001260  1.0  -0.3825
  N  N9459  1  0.901140  0.874940  0.979990  1.0  -0.3125
  N  N9460  1  0.905600  0.921370  0.936030  1.0  -0.4459
  N  N9461  1  0.364130  0.484730  0.089070  1.0  -0.3278
  N  N9462  1  0.226460  0.386230  0.145690  1.0  -0.4282
  N  N9463  1  0.266810  0.399330  0.127270  1.0  -0.3285
  N  N9464  1  0.310520  0.403640  0.079700  1.0  -0.4438
  N  N9465  1  0.319610  0.438070  0.090100  1.0  -0.4233
  N  N9466  1  0.335230  0.422850  0.060300  1.0  -0.4091
  N  N9467  1  0.350400  0.371390  0.025340  1.0  -0.3011
  N  N9468  1  0.377220  0.342500  0.001260  1.0  -0.3825
  N  N9469  1  0.401140  0.374940  0.979990  1.0  -0.3125
  N  N9470  1  0.405600  0.421370  0.936030  1.0  -0.4459
  N  N9471  1  0.364130  0.984730  0.589070  1.0  -0.3278
  N  N9472  1  0.226460  0.886230  0.645690  1.0  -0.4282
  N  N9473  1  0.266810  0.899330  0.627270  1.0  -0.3285
  N  N9474  1  0.310520  0.903640  0.579700  1.0  -0.4438
  N  N9475  1  0.319610  0.938070  0.590100  1.0  -0.4233
  N  N9476  1  0.335230  0.922850  0.560300  1.0  -0.4091
  N  N9477  1  0.350400  0.871390  0.525340  1.0  -0.3011
  N  N9478  1  0.377220  0.842500  0.501260  1.0  -0.3825
  N  N9479  1  0.401140  0.874940  0.479990  1.0  -0.3125
  N  N9480  1  0.405600  0.921370  0.436030  1.0  -0.4459
  N  N9481  1  0.364130  0.765270  0.160930  1.0  -0.3294
  N  N9482  1  0.226460  0.863770  0.104310  1.0  -0.429
  N  N9483  1  0.266810  0.850670  0.122730  1.0  -0.3285
  N  N9484  1  0.310520  0.846360  0.170300  1.0  -0.443
  N  N9485  1  0.319610  0.811930  0.159900  1.0  -0.4251
  N  N9486  1  0.335230  0.827150  0.189700  1.0  -0.4092
  N  N9487  1  0.350400  0.878610  0.224660  1.0  -0.3007
  N  N9488  1  0.377220  0.907500  0.248740  1.0  -0.3826
  N  N9489  1  0.401140  0.875060  0.270010  1.0  -0.3119
  N  N9490  1  0.405600  0.828630  0.313970  1.0  -0.4465
  N  N9491  1  0.364130  0.265270  0.660930  1.0  -0.3294
  N  N9492  1  0.226460  0.363770  0.604310  1.0  -0.429
  N  N9493  1  0.266810  0.350670  0.622730  1.0  -0.3285
  N  N9494  1  0.310520  0.346360  0.670300  1.0  -0.443
  N  N9495  1  0.319610  0.311930  0.659900  1.0  -0.4251
  N  N9496  1  0.335230  0.327150  0.689700  1.0  -0.4092
  N  N9497  1  0.350400  0.378610  0.724660  1.0  -0.3007
  N  N9498  1  0.377220  0.407500  0.748740  1.0  -0.3826
  N  N9499  1  0.401140  0.375060  0.770010  1.0  -0.3119
  N  N9500  1  0.405600  0.328630  0.813970  1.0  -0.4465
  N  N9501  1  0.864130  0.765270  0.660930  1.0  -0.3294
  N  N9502  1  0.726460  0.863770  0.604310  1.0  -0.429
  N  N9503  1  0.766810  0.850670  0.622730  1.0  -0.3285
  N  N9504  1  0.810520  0.846360  0.670300  1.0  -0.443
  N  N9505  1  0.819610  0.811930  0.659900  1.0  -0.4251
  N  N9506  1  0.835230  0.827150  0.689700  1.0  -0.4092
  N  N9507  1  0.850400  0.878610  0.724660  1.0  -0.3007
  N  N9508  1  0.877220  0.907500  0.748740  1.0  -0.3826
  N  N9509  1  0.901140  0.875060  0.770010  1.0  -0.3119
  N  N9510  1  0.905600  0.828630  0.813970  1.0  -0.4465
  N  N9511  1  0.864130  0.265270  0.160930  1.0  -0.3294
  N  N9512  1  0.726460  0.363770  0.104310  1.0  -0.429
  N  N9513  1  0.766810  0.350670  0.122730  1.0  -0.3285
  N  N9514  1  0.810520  0.346360  0.170300  1.0  -0.443
  N  N9515  1  0.819610  0.311930  0.159900  1.0  -0.4251
  N  N9516  1  0.835230  0.327150  0.189700  1.0  -0.4092
  N  N9517  1  0.850400  0.378610  0.224660  1.0  -0.3007
  N  N9518  1  0.877220  0.407500  0.248740  1.0  -0.3826
  N  N9519  1  0.901140  0.375060  0.270010  1.0  -0.3119
  N  N9520  1  0.905600  0.328630  0.313970  1.0  -0.4465
  N  N9521  1  0.885870  0.984730  0.660930  1.0  -0.3285
  N  N9522  1  0.023540  0.886230  0.604310  1.0  -0.4296
  N  N9523  1  0.983190  0.899330  0.622730  1.0  -0.3278
  N  N9524  1  0.939480  0.903640  0.670300  1.0  -0.4437
  N  N9525  1  0.930390  0.938070  0.659900  1.0  -0.4235
  N  N9526  1  0.914770  0.922850  0.689700  1.0  -0.4098
  N  N9527  1  0.899600  0.871390  0.724660  1.0  -0.301
  N  N9528  1  0.872780  0.842500  0.748740  1.0  -0.3831
  N  N9529  1  0.848860  0.874940  0.770010  1.0  -0.3117
  N  N9530  1  0.844400  0.921370  0.813970  1.0  -0.4487
  N  N9531  1  0.885870  0.484730  0.160930  1.0  -0.3285
  N  N9532  1  0.023540  0.386230  0.104310  1.0  -0.4296
  N  N9533  1  0.983190  0.399330  0.122730  1.0  -0.3278
  N  N9534  1  0.939480  0.403640  0.170300  1.0  -0.4437
  N  N9535  1  0.930390  0.438070  0.159900  1.0  -0.4235
  N  N9536  1  0.914770  0.422850  0.189700  1.0  -0.4098
  N  N9537  1  0.899600  0.371390  0.224660  1.0  -0.301
  N  N9538  1  0.872780  0.342500  0.248740  1.0  -0.3831
  N  N9539  1  0.848860  0.374940  0.270010  1.0  -0.3117
  N  N9540  1  0.844400  0.421370  0.313970  1.0  -0.4487
  N  N9541  1  0.385870  0.984730  0.160930  1.0  -0.3285
  N  N9542  1  0.523540  0.886230  0.104310  1.0  -0.4296
  N  N9543  1  0.483190  0.899330  0.122730  1.0  -0.3278
  N  N9544  1  0.439480  0.903640  0.170300  1.0  -0.4437
  N  N9545  1  0.430390  0.938070  0.159900  1.0  -0.4235
  N  N9546  1  0.414770  0.922850  0.189700  1.0  -0.4098
  N  N9547  1  0.399600  0.871390  0.224660  1.0  -0.301
  N  N9548  1  0.372780  0.842500  0.248740  1.0  -0.3831
  N  N9549  1  0.348860  0.874940  0.270010  1.0  -0.3117
  N  N9550  1  0.344400  0.921370  0.313970  1.0  -0.4487
  N  N9551  1  0.385870  0.484730  0.660930  1.0  -0.3285
  N  N9552  1  0.523540  0.386230  0.604310  1.0  -0.4296
  N  N9553  1  0.483190  0.399330  0.622730  1.0  -0.3278
  N  N9554  1  0.439480  0.403640  0.670300  1.0  -0.4437
  N  N9555  1  0.430390  0.438070  0.659900  1.0  -0.4235
  N  N9556  1  0.414770  0.422850  0.689700  1.0  -0.4098
  N  N9557  1  0.399600  0.371390  0.724660  1.0  -0.301
  N  N9558  1  0.372780  0.342500  0.748740  1.0  -0.3831
  N  N9559  1  0.348860  0.374940  0.770010  1.0  -0.3117
  N  N9560  1  0.344400  0.421370  0.813970  1.0  -0.4487
  N  N9561  1  0.385870  0.265270  0.089070  1.0  -0.3283
  N  N9562  1  0.523540  0.363770  0.145690  1.0  -0.4275
  N  N9563  1  0.483190  0.350670  0.127270  1.0  -0.328
  N  N9564  1  0.439480  0.346360  0.079700  1.0  -0.4448
  N  N9565  1  0.430390  0.311930  0.090100  1.0  -0.4239
  N  N9566  1  0.414770  0.327150  0.060300  1.0  -0.4097
  N  N9567  1  0.399600  0.378610  0.025340  1.0  -0.3025
  N  N9568  1  0.372780  0.407500  0.001260  1.0  -0.383
  N  N9569  1  0.348860  0.375060  0.979990  1.0  -0.3119
  N  N9570  1  0.344400  0.328630  0.936030  1.0  -0.4478
  N  N9571  1  0.385870  0.765270  0.589070  1.0  -0.3283
  N  N9572  1  0.523540  0.863770  0.645690  1.0  -0.4275
  N  N9573  1  0.483190  0.850670  0.627270  1.0  -0.328
  N  N9574  1  0.439480  0.846360  0.579700  1.0  -0.4448
  N  N9575  1  0.430390  0.811930  0.590100  1.0  -0.4239
  N  N9576  1  0.414770  0.827150  0.560300  1.0  -0.4097
  N  N9577  1  0.399600  0.878610  0.525340  1.0  -0.3025
  N  N9578  1  0.372780  0.907500  0.501260  1.0  -0.383
  N  N9579  1  0.348860  0.875060  0.479990  1.0  -0.3119
  N  N9580  1  0.344400  0.828630  0.436030  1.0  -0.4478
  N  N9581  1  0.885870  0.265270  0.589070  1.0  -0.3283
  N  N9582  1  0.023540  0.363770  0.645690  1.0  -0.4275
  N  N9583  1  0.983190  0.350670  0.627270  1.0  -0.328
  N  N9584  1  0.939480  0.346360  0.579700  1.0  -0.4448
  N  N9585  1  0.930390  0.311930  0.590100  1.0  -0.4239
  N  N9586  1  0.914770  0.327150  0.560300  1.0  -0.4097
  N  N9587  1  0.899600  0.378610  0.525340  1.0  -0.3025
  N  N9588  1  0.872780  0.407500  0.501260  1.0  -0.383
  N  N9589  1  0.848860  0.375060  0.479990  1.0  -0.3119
  N  N9590  1  0.844400  0.328630  0.436030  1.0  -0.4478
  N  N9591  1  0.885870  0.765270  0.089070  1.0  -0.3283
  N  N9592  1  0.023540  0.863770  0.145690  1.0  -0.4275
  N  N9593  1  0.983190  0.850670  0.127270  1.0  -0.328
  N  N9594  1  0.939480  0.846360  0.079700  1.0  -0.4448
  N  N9595  1  0.930390  0.811930  0.090100  1.0  -0.4239
  N  N9596  1  0.914770  0.827150  0.060300  1.0  -0.4097
  N  N9597  1  0.899600  0.878610  0.025340  1.0  -0.3025
  N  N9598  1  0.872780  0.907500  0.001260  1.0  -0.383
  N  N9599  1  0.848860  0.875060  0.979990  1.0  -0.3119
  N  N9600  1  0.844400  0.828630  0.936030  1.0  -0.4478
  N  N9601  1  0.589070  0.765270  0.885870  1.0  -0.3226
  N  N9602  1  0.645690  0.863770  0.023540  1.0  -0.4278
  N  N9603  1  0.627270  0.850670  0.983190  1.0  -0.3302
  N  N9604  1  0.579700  0.846360  0.939480  1.0  -0.4437
  N  N9605  1  0.590100  0.811930  0.930390  1.0  -0.4235
  N  N9606  1  0.560300  0.827150  0.914770  1.0  -0.4084
  N  N9607  1  0.525340  0.878610  0.899600  1.0  -0.303
  N  N9608  1  0.501260  0.907500  0.872780  1.0  -0.3823
  N  N9609  1  0.479990  0.875060  0.848860  1.0  -0.312
  N  N9610  1  0.436030  0.828630  0.844400  1.0  -0.4481
  N  N9611  1  0.589070  0.265270  0.385870  1.0  -0.3226
  N  N9612  1  0.645690  0.363770  0.523540  1.0  -0.4278
  N  N9613  1  0.627270  0.350670  0.483190  1.0  -0.3302
  N  N9614  1  0.579700  0.346360  0.439480  1.0  -0.4437
  N  N9615  1  0.590100  0.311930  0.430390  1.0  -0.4235
  N  N9616  1  0.560300  0.327150  0.414770  1.0  -0.4084
  N  N9617  1  0.525340  0.378610  0.399600  1.0  -0.303
  N  N9618  1  0.501260  0.407500  0.372780  1.0  -0.3823
  N  N9619  1  0.479990  0.375060  0.348860  1.0  -0.312
  N  N9620  1  0.436030  0.328630  0.344400  1.0  -0.4481
  N  N9621  1  0.089070  0.765270  0.385870  1.0  -0.3226
  N  N9622  1  0.145690  0.863770  0.523540  1.0  -0.4278
  N  N9623  1  0.127270  0.850670  0.483190  1.0  -0.3302
  N  N9624  1  0.079700  0.846360  0.439480  1.0  -0.4437
  N  N9625  1  0.090100  0.811930  0.430390  1.0  -0.4235
  N  N9626  1  0.060300  0.827150  0.414770  1.0  -0.4084
  N  N9627  1  0.025340  0.878610  0.399600  1.0  -0.303
  N  N9628  1  0.001260  0.907500  0.372780  1.0  -0.3823
  N  N9629  1  0.979990  0.875060  0.348860  1.0  -0.312
  N  N9630  1  0.936030  0.828630  0.344400  1.0  -0.4481
  N  N9631  1  0.089070  0.265270  0.885870  1.0  -0.3226
  N  N9632  1  0.145690  0.363770  0.023540  1.0  -0.4278
  N  N9633  1  0.127270  0.350670  0.983190  1.0  -0.3302
  N  N9634  1  0.079700  0.346360  0.939480  1.0  -0.4437
  N  N9635  1  0.090100  0.311930  0.930390  1.0  -0.4235
  N  N9636  1  0.060300  0.327150  0.914770  1.0  -0.4084
  N  N9637  1  0.025340  0.378610  0.899600  1.0  -0.303
  N  N9638  1  0.001260  0.407500  0.872780  1.0  -0.3823
  N  N9639  1  0.979990  0.375060  0.848860  1.0  -0.312
  N  N9640  1  0.936030  0.328630  0.844400  1.0  -0.4481
  N  N9641  1  0.160930  0.484730  0.385870  1.0  -0.3208
  N  N9642  1  0.104310  0.386230  0.523540  1.0  -0.4271
  N  N9643  1  0.122730  0.399330  0.483190  1.0  -0.3301
  N  N9644  1  0.170300  0.403640  0.439480  1.0  -0.4432
  N  N9645  1  0.159900  0.438070  0.430390  1.0  -0.4223
  N  N9646  1  0.189700  0.422850  0.414770  1.0  -0.4074
  N  N9647  1  0.224660  0.371390  0.399600  1.0  -0.3019
  N  N9648  1  0.248740  0.342500  0.372780  1.0  -0.3827
  N  N9649  1  0.270010  0.374940  0.348860  1.0  -0.3133
  N  N9650  1  0.313970  0.421370  0.344400  1.0  -0.4455
  N  N9651  1  0.160930  0.984730  0.885870  1.0  -0.3208
  N  N9652  1  0.104310  0.886230  0.023540  1.0  -0.4271
  N  N9653  1  0.122730  0.899330  0.983190  1.0  -0.3301
  N  N9654  1  0.170300  0.903640  0.939480  1.0  -0.4432
  N  N9655  1  0.159900  0.938070  0.930390  1.0  -0.4223
  N  N9656  1  0.189700  0.922850  0.914770  1.0  -0.4074
  N  N9657  1  0.224660  0.871390  0.899600  1.0  -0.3019
  N  N9658  1  0.248740  0.842500  0.872780  1.0  -0.3827
  N  N9659  1  0.270010  0.874940  0.848860  1.0  -0.3133
  N  N9660  1  0.313970  0.921370  0.844400  1.0  -0.4455
  N  N9661  1  0.660930  0.484730  0.885870  1.0  -0.3208
  N  N9662  1  0.604310  0.386230  0.023540  1.0  -0.4271
  N  N9663  1  0.622730  0.399330  0.983190  1.0  -0.3301
  N  N9664  1  0.670300  0.403640  0.939480  1.0  -0.4432
  N  N9665  1  0.659900  0.438070  0.930390  1.0  -0.4223
  N  N9666  1  0.689700  0.422850  0.914770  1.0  -0.4074
  N  N9667  1  0.724660  0.371390  0.899600  1.0  -0.3019
  N  N9668  1  0.748740  0.342500  0.872780  1.0  -0.3827
  N  N9669  1  0.770010  0.374940  0.848860  1.0  -0.3133
  N  N9670  1  0.813970  0.421370  0.844400  1.0  -0.4455
  N  N9671  1  0.660930  0.984730  0.385870  1.0  -0.3208
  N  N9672  1  0.604310  0.886230  0.523540  1.0  -0.4271
  N  N9673  1  0.622730  0.899330  0.483190  1.0  -0.3301
  N  N9674  1  0.670300  0.903640  0.439480  1.0  -0.4432
  N  N9675  1  0.659900  0.938070  0.430390  1.0  -0.4223
  N  N9676  1  0.689700  0.922850  0.414770  1.0  -0.4074
  N  N9677  1  0.724660  0.871390  0.399600  1.0  -0.3019
  N  N9678  1  0.748740  0.842500  0.372780  1.0  -0.3827
  N  N9679  1  0.770010  0.874940  0.348860  1.0  -0.3133
  N  N9680  1  0.813970  0.921370  0.344400  1.0  -0.4455
  N  N9681  1  0.660930  0.265270  0.864130  1.0  -0.3211
  N  N9682  1  0.604310  0.363770  0.726460  1.0  -0.4239
  N  N9683  1  0.622730  0.350670  0.766810  1.0  -0.3303
  N  N9684  1  0.670300  0.346360  0.810520  1.0  -0.4433
  N  N9685  1  0.659900  0.311930  0.819610  1.0  -0.4237
  N  N9686  1  0.689700  0.327150  0.835230  1.0  -0.4072
  N  N9687  1  0.724660  0.378610  0.850400  1.0  -0.3014
  N  N9688  1  0.748740  0.407500  0.877220  1.0  -0.3821
  N  N9689  1  0.770010  0.375060  0.901140  1.0  -0.3137
  N  N9690  1  0.813970  0.328630  0.905600  1.0  -0.4463
  N  N9691  1  0.660930  0.765270  0.364130  1.0  -0.3211
  N  N9692  1  0.604310  0.863770  0.226460  1.0  -0.4239
  N  N9693  1  0.622730  0.850670  0.266810  1.0  -0.3303
  N  N9694  1  0.670300  0.846360  0.310520  1.0  -0.4433
  N  N9695  1  0.659900  0.811930  0.319610  1.0  -0.4237
  N  N9696  1  0.689700  0.827150  0.335230  1.0  -0.4072
  N  N9697  1  0.724660  0.878610  0.350400  1.0  -0.3014
  N  N9698  1  0.748740  0.907500  0.377220  1.0  -0.3821
  N  N9699  1  0.770010  0.875060  0.401140  1.0  -0.3137
  N  N9700  1  0.813970  0.828630  0.405600  1.0  -0.4463
  N  N9701  1  0.160930  0.265270  0.364130  1.0  -0.3211
  N  N9702  1  0.104310  0.363770  0.226460  1.0  -0.4239
  N  N9703  1  0.122730  0.350670  0.266810  1.0  -0.3303
  N  N9704  1  0.170300  0.346360  0.310520  1.0  -0.4433
  N  N9705  1  0.159900  0.311930  0.319610  1.0  -0.4237
  N  N9706  1  0.189700  0.327150  0.335230  1.0  -0.4072
  N  N9707  1  0.224660  0.378610  0.350400  1.0  -0.3014
  N  N9708  1  0.248740  0.407500  0.377220  1.0  -0.3821
  N  N9709  1  0.270010  0.375060  0.401140  1.0  -0.3137
  N  N9710  1  0.313970  0.328630  0.405600  1.0  -0.4463
  N  N9711  1  0.160930  0.765270  0.864130  1.0  -0.3211
  N  N9712  1  0.104310  0.863770  0.726460  1.0  -0.4239
  N  N9713  1  0.122730  0.850670  0.766810  1.0  -0.3303
  N  N9714  1  0.170300  0.846360  0.810520  1.0  -0.4433
  N  N9715  1  0.159900  0.811930  0.819610  1.0  -0.4237
  N  N9716  1  0.189700  0.827150  0.835230  1.0  -0.4072
  N  N9717  1  0.224660  0.878610  0.850400  1.0  -0.3014
  N  N9718  1  0.248740  0.907500  0.877220  1.0  -0.3821
  N  N9719  1  0.270010  0.875060  0.901140  1.0  -0.3137
  N  N9720  1  0.313970  0.828630  0.905600  1.0  -0.4463
  N  N9721  1  0.089070  0.984730  0.364130  1.0  -0.3223
  N  N9722  1  0.145690  0.886230  0.226460  1.0  -0.4267
  N  N9723  1  0.127270  0.899330  0.266810  1.0  -0.3305
  N  N9724  1  0.079700  0.903640  0.310520  1.0  -0.444
  N  N9725  1  0.090100  0.938070  0.319610  1.0  -0.423
  N  N9726  1  0.060300  0.922850  0.335230  1.0  -0.4081
  N  N9727  1  0.025340  0.871390  0.350400  1.0  -0.302
  N  N9728  1  0.001260  0.842500  0.377220  1.0  -0.3821
  N  N9729  1  0.979990  0.874940  0.401140  1.0  -0.3129
  N  N9730  1  0.936030  0.921370  0.405600  1.0  -0.449
  N  N9731  1  0.089070  0.484730  0.864130  1.0  -0.3223
  N  N9732  1  0.145690  0.386230  0.726460  1.0  -0.4267
  N  N9733  1  0.127270  0.399330  0.766810  1.0  -0.3305
  N  N9734  1  0.079700  0.403640  0.810520  1.0  -0.444
  N  N9735  1  0.090100  0.438070  0.819610  1.0  -0.423
  N  N9736  1  0.060300  0.422850  0.835230  1.0  -0.4081
  N  N9737  1  0.025340  0.371390  0.850400  1.0  -0.302
  N  N9738  1  0.001260  0.342500  0.877220  1.0  -0.3821
  N  N9739  1  0.979990  0.374940  0.901140  1.0  -0.3129
  N  N9740  1  0.936030  0.421370  0.905600  1.0  -0.449
  N  N9741  1  0.589070  0.984730  0.864130  1.0  -0.3223
  N  N9742  1  0.645690  0.886230  0.726460  1.0  -0.4267
  N  N9743  1  0.627270  0.899330  0.766810  1.0  -0.3305
  N  N9744  1  0.579700  0.903640  0.810520  1.0  -0.444
  N  N9745  1  0.590100  0.938070  0.819610  1.0  -0.423
  N  N9746  1  0.560300  0.922850  0.835230  1.0  -0.4081
  N  N9747  1  0.525340  0.871390  0.850400  1.0  -0.302
  N  N9748  1  0.501260  0.842500  0.877220  1.0  -0.3821
  N  N9749  1  0.479990  0.874940  0.901140  1.0  -0.3129
  N  N9750  1  0.436030  0.921370  0.905600  1.0  -0.449
  N  N9751  1  0.589070  0.484730  0.364130  1.0  -0.3223
  N  N9752  1  0.645690  0.386230  0.226460  1.0  -0.4267
  N  N9753  1  0.627270  0.399330  0.266810  1.0  -0.3305
  N  N9754  1  0.579700  0.403640  0.310520  1.0  -0.444
  N  N9755  1  0.590100  0.438070  0.319610  1.0  -0.423
  N  N9756  1  0.560300  0.422850  0.335230  1.0  -0.4081
  N  N9757  1  0.525340  0.371390  0.350400  1.0  -0.302
  N  N9758  1  0.501260  0.342500  0.377220  1.0  -0.3821
  N  N9759  1  0.479990  0.374940  0.401140  1.0  -0.3129
  N  N9760  1  0.436030  0.421370  0.405600  1.0  -0.449
  N  N9761  1  0.885870  0.589070  0.765270  1.0  -0.3258
  N  N9762  1  0.023540  0.645690  0.863770  1.0  -0.4281
  N  N9763  1  0.983190  0.627270  0.850670  1.0  -0.3284
  N  N9764  1  0.939480  0.579700  0.846360  1.0  -0.4472
  N  N9765  1  0.930390  0.590100  0.811930  1.0  -0.4261
  N  N9766  1  0.914770  0.560300  0.827150  1.0  -0.407
  N  N9767  1  0.899600  0.525340  0.878610  1.0  -0.3027
  N  N9768  1  0.872780  0.501260  0.907500  1.0  -0.3822
  N  N9769  1  0.848860  0.479990  0.875060  1.0  -0.3122
  N  N9770  1  0.844400  0.436030  0.828630  1.0  -0.4489
  N  N9771  1  0.885870  0.089070  0.265270  1.0  -0.3258
  N  N9772  1  0.023540  0.145690  0.363770  1.0  -0.4281
  N  N9773  1  0.983190  0.127270  0.350670  1.0  -0.3284
  N  N9774  1  0.939480  0.079700  0.346360  1.0  -0.4472
  N  N9775  1  0.930390  0.090100  0.311930  1.0  -0.4261
  N  N9776  1  0.914770  0.060300  0.327150  1.0  -0.407
  N  N9777  1  0.899600  0.025340  0.378610  1.0  -0.3027
  N  N9778  1  0.872780  0.001260  0.407500  1.0  -0.3822
  N  N9779  1  0.848860  0.979990  0.375060  1.0  -0.3122
  N  N9780  1  0.844400  0.936030  0.328630  1.0  -0.4489
  N  N9781  1  0.385870  0.589070  0.265270  1.0  -0.3258
  N  N9782  1  0.523540  0.645690  0.363770  1.0  -0.4281
  N  N9783  1  0.483190  0.627270  0.350670  1.0  -0.3284
  N  N9784  1  0.439480  0.579700  0.346360  1.0  -0.4472
  N  N9785  1  0.430390  0.590100  0.311930  1.0  -0.4261
  N  N9786  1  0.414770  0.560300  0.327150  1.0  -0.407
  N  N9787  1  0.399600  0.525340  0.378610  1.0  -0.3027
  N  N9788  1  0.372780  0.501260  0.407500  1.0  -0.3822
  N  N9789  1  0.348860  0.479990  0.375060  1.0  -0.3122
  N  N9790  1  0.344400  0.436030  0.328630  1.0  -0.4489
  N  N9791  1  0.385870  0.089070  0.765270  1.0  -0.3258
  N  N9792  1  0.523540  0.145690  0.863770  1.0  -0.4281
  N  N9793  1  0.483190  0.127270  0.850670  1.0  -0.3284
  N  N9794  1  0.439480  0.079700  0.846360  1.0  -0.4472
  N  N9795  1  0.430390  0.090100  0.811930  1.0  -0.4261
  N  N9796  1  0.414770  0.060300  0.827150  1.0  -0.407
  N  N9797  1  0.399600  0.025340  0.878610  1.0  -0.3027
  N  N9798  1  0.372780  0.001260  0.907500  1.0  -0.3822
  N  N9799  1  0.348860  0.979990  0.875060  1.0  -0.3122
  N  N9800  1  0.344400  0.936030  0.828630  1.0  -0.4489
  N  N9801  1  0.385870  0.160930  0.484730  1.0  -0.3269
  N  N9802  1  0.523540  0.104310  0.386230  1.0  -0.4266
  N  N9803  1  0.483190  0.122730  0.399330  1.0  -0.3292
  N  N9804  1  0.439480  0.170300  0.403640  1.0  -0.4471
  N  N9805  1  0.430390  0.159900  0.438070  1.0  -0.4248
  N  N9806  1  0.414770  0.189700  0.422850  1.0  -0.4071
  N  N9807  1  0.399600  0.224660  0.371390  1.0  -0.3024
  N  N9808  1  0.372780  0.248740  0.342500  1.0  -0.3822
  N  N9809  1  0.348860  0.270010  0.374940  1.0  -0.3121
  N  N9810  1  0.344400  0.313970  0.421370  1.0  -0.4476
  N  N9811  1  0.385870  0.660930  0.984730  1.0  -0.3269
  N  N9812  1  0.523540  0.604310  0.886230  1.0  -0.4266
  N  N9813  1  0.483190  0.622730  0.899330  1.0  -0.3292
  N  N9814  1  0.439480  0.670300  0.903640  1.0  -0.4471
  N  N9815  1  0.430390  0.659900  0.938070  1.0  -0.4248
  N  N9816  1  0.414770  0.689700  0.922850  1.0  -0.4071
  N  N9817  1  0.399600  0.724660  0.871390  1.0  -0.3024
  N  N9818  1  0.372780  0.748740  0.842500  1.0  -0.3822
  N  N9819  1  0.348860  0.770010  0.874940  1.0  -0.3121
  N  N9820  1  0.344400  0.813970  0.921370  1.0  -0.4476
  N  N9821  1  0.885870  0.160930  0.984730  1.0  -0.3269
  N  N9822  1  0.023540  0.104310  0.886230  1.0  -0.4266
  N  N9823  1  0.983190  0.122730  0.899330  1.0  -0.3292
  N  N9824  1  0.939480  0.170300  0.903640  1.0  -0.4471
  N  N9825  1  0.930390  0.159900  0.938070  1.0  -0.4248
  N  N9826  1  0.914770  0.189700  0.922850  1.0  -0.4071
  N  N9827  1  0.899600  0.224660  0.871390  1.0  -0.3024
  N  N9828  1  0.872780  0.248740  0.842500  1.0  -0.3822
  N  N9829  1  0.848860  0.270010  0.874940  1.0  -0.3121
  N  N9830  1  0.844400  0.313970  0.921370  1.0  -0.4476
  N  N9831  1  0.885870  0.660930  0.484730  1.0  -0.3269
  N  N9832  1  0.023540  0.604310  0.386230  1.0  -0.4266
  N  N9833  1  0.983190  0.622730  0.399330  1.0  -0.3292
  N  N9834  1  0.939480  0.670300  0.403640  1.0  -0.4471
  N  N9835  1  0.930390  0.659900  0.438070  1.0  -0.4248
  N  N9836  1  0.914770  0.689700  0.422850  1.0  -0.4071
  N  N9837  1  0.899600  0.724660  0.371390  1.0  -0.3024
  N  N9838  1  0.872780  0.748740  0.342500  1.0  -0.3822
  N  N9839  1  0.848860  0.770010  0.374940  1.0  -0.3121
  N  N9840  1  0.844400  0.813970  0.421370  1.0  -0.4476
  N  N9841  1  0.864130  0.660930  0.265270  1.0  -0.3265
  N  N9842  1  0.726460  0.604310  0.363770  1.0  -0.4283
  N  N9843  1  0.766810  0.622730  0.350670  1.0  -0.329
  N  N9844  1  0.810520  0.670300  0.346360  1.0  -0.4463
  N  N9845  1  0.819610  0.659900  0.311930  1.0  -0.4273
  N  N9846  1  0.835230  0.689700  0.327150  1.0  -0.4067
  N  N9847  1  0.850400  0.724660  0.378610  1.0  -0.3018
  N  N9848  1  0.877220  0.748740  0.407500  1.0  -0.3816
  N  N9849  1  0.901140  0.770010  0.375060  1.0  -0.3129
  N  N9850  1  0.905600  0.813970  0.328630  1.0  -0.4466
  N  N9851  1  0.864130  0.160930  0.765270  1.0  -0.3265
  N  N9852  1  0.726460  0.104310  0.863770  1.0  -0.4283
  N  N9853  1  0.766810  0.122730  0.850670  1.0  -0.329
  N  N9854  1  0.810520  0.170300  0.846360  1.0  -0.4463
  N  N9855  1  0.819610  0.159900  0.811930  1.0  -0.4273
  N  N9856  1  0.835230  0.189700  0.827150  1.0  -0.4067
  N  N9857  1  0.850400  0.224660  0.878610  1.0  -0.3018
  N  N9858  1  0.877220  0.248740  0.907500  1.0  -0.3816
  N  N9859  1  0.901140  0.270010  0.875060  1.0  -0.3129
  N  N9860  1  0.905600  0.313970  0.828630  1.0  -0.4466
  N  N9861  1  0.364130  0.660930  0.765270  1.0  -0.3265
  N  N9862  1  0.226460  0.604310  0.863770  1.0  -0.4283
  N  N9863  1  0.266810  0.622730  0.850670  1.0  -0.329
  N  N9864  1  0.310520  0.670300  0.846360  1.0  -0.4463
  N  N9865  1  0.319610  0.659900  0.811930  1.0  -0.4273
  N  N9866  1  0.335230  0.689700  0.827150  1.0  -0.4067
  N  N9867  1  0.350400  0.724660  0.878610  1.0  -0.3018
  N  N9868  1  0.377220  0.748740  0.907500  1.0  -0.3816
  N  N9869  1  0.401140  0.770010  0.875060  1.0  -0.3129
  N  N9870  1  0.405600  0.813970  0.828630  1.0  -0.4466
  N  N9871  1  0.364130  0.160930  0.265270  1.0  -0.3265
  N  N9872  1  0.226460  0.104310  0.363770  1.0  -0.4283
  N  N9873  1  0.266810  0.122730  0.350670  1.0  -0.329
  N  N9874  1  0.310520  0.170300  0.346360  1.0  -0.4463
  N  N9875  1  0.319610  0.159900  0.311930  1.0  -0.4273
  N  N9876  1  0.335230  0.189700  0.327150  1.0  -0.4067
  N  N9877  1  0.350400  0.224660  0.378610  1.0  -0.3018
  N  N9878  1  0.377220  0.248740  0.407500  1.0  -0.3816
  N  N9879  1  0.401140  0.270010  0.375060  1.0  -0.3129
  N  N9880  1  0.405600  0.313970  0.328630  1.0  -0.4466
  N  N9881  1  0.364130  0.089070  0.984730  1.0  -0.3265
  N  N9882  1  0.226460  0.145690  0.886230  1.0  -0.4274
  N  N9883  1  0.266810  0.127270  0.899330  1.0  -0.3295
  N  N9884  1  0.310520  0.079700  0.903640  1.0  -0.4453
  N  N9885  1  0.319610  0.090100  0.938070  1.0  -0.4244
  N  N9886  1  0.335230  0.060300  0.922850  1.0  -0.4053
  N  N9887  1  0.350400  0.025340  0.871390  1.0  -0.3021
  N  N9888  1  0.377220  0.001260  0.842500  1.0  -0.3816
  N  N9889  1  0.401140  0.979990  0.874940  1.0  -0.3123
  N  N9890  1  0.405600  0.936030  0.921370  1.0  -0.4474
  N  N9891  1  0.364130  0.589070  0.484730  1.0  -0.3265
  N  N9892  1  0.226460  0.645690  0.386230  1.0  -0.4274
  N  N9893  1  0.266810  0.627270  0.399330  1.0  -0.3295
  N  N9894  1  0.310520  0.579700  0.403640  1.0  -0.4453
  N  N9895  1  0.319610  0.590100  0.438070  1.0  -0.4244
  N  N9896  1  0.335230  0.560300  0.422850  1.0  -0.4053
  N  N9897  1  0.350400  0.525340  0.371390  1.0  -0.3021
  N  N9898  1  0.377220  0.501260  0.342500  1.0  -0.3816
  N  N9899  1  0.401140  0.479990  0.374940  1.0  -0.3123
  N  N9900  1  0.405600  0.436030  0.421370  1.0  -0.4474
  N  N9901  1  0.864130  0.089070  0.484730  1.0  -0.3265
  N  N9902  1  0.726460  0.145690  0.386230  1.0  -0.4274
  N  N9903  1  0.766810  0.127270  0.399330  1.0  -0.3295
  N  N9904  1  0.810520  0.079700  0.403640  1.0  -0.4453
  N  N9905  1  0.819610  0.090100  0.438070  1.0  -0.4244
  N  N9906  1  0.835230  0.060300  0.422850  1.0  -0.4053
  N  N9907  1  0.850400  0.025340  0.371390  1.0  -0.3021
  N  N9908  1  0.877220  0.001260  0.342500  1.0  -0.3816
  N  N9909  1  0.901140  0.979990  0.374940  1.0  -0.3123
  N  N9910  1  0.905600  0.936030  0.421370  1.0  -0.4474
  N  N9911  1  0.864130  0.589070  0.984730  1.0  -0.3265
  N  N9912  1  0.726460  0.645690  0.886230  1.0  -0.4274
  N  N9913  1  0.766810  0.627270  0.899330  1.0  -0.3295
  N  N9914  1  0.810520  0.579700  0.903640  1.0  -0.4453
  N  N9915  1  0.819610  0.590100  0.938070  1.0  -0.4244
  N  N9916  1  0.835230  0.560300  0.922850  1.0  -0.4053
  N  N9917  1  0.850400  0.525340  0.871390  1.0  -0.3021
  N  N9918  1  0.877220  0.501260  0.842500  1.0  -0.3816
  N  N9919  1  0.901140  0.479990  0.874940  1.0  -0.3123
  N  N9920  1  0.905600  0.436030  0.921370  1.0  -0.4474
  N  N9921  1  0.765270  0.885870  0.589070  1.0  -0.3264
  N  N9922  1  0.863770  0.023540  0.645690  1.0  -0.4291
  N  N9923  1  0.850670  0.983190  0.627270  1.0  -0.3276
  N  N9924  1  0.846360  0.939480  0.579700  1.0  -0.4449
  N  N9925  1  0.811930  0.930390  0.590100  1.0  -0.4249
  N  N9926  1  0.827150  0.914770  0.560300  1.0  -0.4107
  N  N9927  1  0.878610  0.899600  0.525340  1.0  -0.3033
  N  N9928  1  0.907500  0.872780  0.501260  1.0  -0.388
  N  N9929  1  0.875060  0.848860  0.479990  1.0  -0.3146
  N  N9930  1  0.828630  0.844400  0.436030  1.0  -0.4457
  N  N9931  1  0.765270  0.385870  0.089070  1.0  -0.3264
  N  N9932  1  0.863770  0.523540  0.145690  1.0  -0.4291
  N  N9933  1  0.850670  0.483190  0.127270  1.0  -0.3276
  N  N9934  1  0.846360  0.439480  0.079700  1.0  -0.4449
  N  N9935  1  0.811930  0.430390  0.090100  1.0  -0.4249
  N  N9936  1  0.827150  0.414770  0.060300  1.0  -0.4107
  N  N9937  1  0.878610  0.399600  0.025340  1.0  -0.3033
  N  N9938  1  0.907500  0.372780  0.001260  1.0  -0.388
  N  N9939  1  0.875060  0.348860  0.979990  1.0  -0.3146
  N  N9940  1  0.828630  0.344400  0.936030  1.0  -0.4457
  N  N9941  1  0.265270  0.885870  0.089070  1.0  -0.3264
  N  N9942  1  0.363770  0.023540  0.145690  1.0  -0.4291
  N  N9943  1  0.350670  0.983190  0.127270  1.0  -0.3276
  N  N9944  1  0.346360  0.939480  0.079700  1.0  -0.4449
  N  N9945  1  0.311930  0.930390  0.090100  1.0  -0.4249
  N  N9946  1  0.327150  0.914770  0.060300  1.0  -0.4107
  N  N9947  1  0.378610  0.899600  0.025340  1.0  -0.3033
  N  N9948  1  0.407500  0.872780  0.001260  1.0  -0.388
  N  N9949  1  0.375060  0.848860  0.979990  1.0  -0.3146
  N  N9950  1  0.328630  0.844400  0.936030  1.0  -0.4457
  N  N9951  1  0.265270  0.385870  0.589070  1.0  -0.3264
  N  N9952  1  0.363770  0.523540  0.645690  1.0  -0.4291
  N  N9953  1  0.350670  0.483190  0.627270  1.0  -0.3276
  N  N9954  1  0.346360  0.439480  0.579700  1.0  -0.4449
  N  N9955  1  0.311930  0.430390  0.590100  1.0  -0.4249
  N  N9956  1  0.327150  0.414770  0.560300  1.0  -0.4107
  N  N9957  1  0.378610  0.399600  0.525340  1.0  -0.3033
  N  N9958  1  0.407500  0.372780  0.501260  1.0  -0.388
  N  N9959  1  0.375060  0.348860  0.479990  1.0  -0.3146
  N  N9960  1  0.328630  0.344400  0.436030  1.0  -0.4457
  N  N9961  1  0.484730  0.385870  0.160930  1.0  -0.328
  N  N9962  1  0.386230  0.523540  0.104310  1.0  -0.4302
  N  N9963  1  0.399330  0.483190  0.122730  1.0  -0.3275
  N  N9964  1  0.403640  0.439480  0.170300  1.0  -0.4429
  N  N9965  1  0.438070  0.430390  0.159900  1.0  -0.4252
  N  N9966  1  0.422850  0.414770  0.189700  1.0  -0.4102
  N  N9967  1  0.371390  0.399600  0.224660  1.0  -0.3025
  N  N9968  1  0.342500  0.372780  0.248740  1.0  -0.3869
  N  N9969  1  0.374940  0.348860  0.270010  1.0  -0.3132
  N  N9970  1  0.421370  0.344400  0.313970  1.0  -0.4467
  N  N9971  1  0.484730  0.885870  0.660930  1.0  -0.328
  N  N9972  1  0.386230  0.023540  0.604310  1.0  -0.4302
  N  N9973  1  0.399330  0.983190  0.622730  1.0  -0.3275
  N  N9974  1  0.403640  0.939480  0.670300  1.0  -0.4429
  N  N9975  1  0.438070  0.930390  0.659900  1.0  -0.4252
  N  N9976  1  0.422850  0.914770  0.689700  1.0  -0.4102
  N  N9977  1  0.371390  0.899600  0.724660  1.0  -0.3025
  N  N9978  1  0.342500  0.872780  0.748740  1.0  -0.3869
  N  N9979  1  0.374940  0.848860  0.770010  1.0  -0.3132
  N  N9980  1  0.421370  0.844400  0.813970  1.0  -0.4467
  N  N9981  1  0.984730  0.385870  0.660930  1.0  -0.328
  N  N9982  1  0.886230  0.523540  0.604310  1.0  -0.4302
  N  N9983  1  0.899330  0.483190  0.622730  1.0  -0.3275
  N  N9984  1  0.903640  0.439480  0.670300  1.0  -0.4429
  N  N9985  1  0.938070  0.430390  0.659900  1.0  -0.4252
  N  N9986  1  0.922850  0.414770  0.689700  1.0  -0.4102
  N  N9987  1  0.871390  0.399600  0.724660  1.0  -0.3025
  N  N9988  1  0.842500  0.372780  0.748740  1.0  -0.3869
  N  N9989  1  0.874940  0.348860  0.770010  1.0  -0.3132
  N  N9990  1  0.921370  0.344400  0.813970  1.0  -0.4467
  N  N9991  1  0.984730  0.885870  0.160930  1.0  -0.328
  N  N9992  1  0.886230  0.023540  0.104310  1.0  -0.4302
  N  N9993  1  0.899330  0.983190  0.122730  1.0  -0.3275
  N  N9994  1  0.903640  0.939480  0.170300  1.0  -0.4429
  N  N9995  1  0.938070  0.930390  0.159900  1.0  -0.4252
  N  N9996  1  0.922850  0.914770  0.189700  1.0  -0.4102
  N  N9997  1  0.871390  0.899600  0.224660  1.0  -0.3025
  N  N9998  1  0.842500  0.872780  0.248740  1.0  -0.3869
  N  N9999  1  0.874940  0.848860  0.270010  1.0  -0.3132
  N  N10000  1  0.921370  0.844400  0.313970  1.0  -0.4467
  N  N10001  1  0.265270  0.864130  0.660930  1.0  -0.3272
  N  N10002  1  0.363770  0.726460  0.604310  1.0  -0.4294
  N  N10003  1  0.350670  0.766810  0.622730  1.0  -0.327
  N  N10004  1  0.346360  0.810520  0.670300  1.0  -0.4445
  N  N10005  1  0.311930  0.819610  0.659900  1.0  -0.4253
  N  N10006  1  0.327150  0.835230  0.689700  1.0  -0.4108
  N  N10007  1  0.378610  0.850400  0.724660  1.0  -0.3009
  N  N10008  1  0.407500  0.877220  0.748740  1.0  -0.3882
  N  N10009  1  0.375060  0.901140  0.770010  1.0  -0.314
  N  N10010  1  0.328630  0.905600  0.813970  1.0  -0.446
  N  N10011  1  0.265270  0.364130  0.160930  1.0  -0.3272
  N  N10012  1  0.363770  0.226460  0.104310  1.0  -0.4294
  N  N10013  1  0.350670  0.266810  0.122730  1.0  -0.327
  N  N10014  1  0.346360  0.310520  0.170300  1.0  -0.4445
  N  N10015  1  0.311930  0.319610  0.159900  1.0  -0.4253
  N  N10016  1  0.327150  0.335230  0.189700  1.0  -0.4108
  N  N10017  1  0.378610  0.350400  0.224660  1.0  -0.3009
  N  N10018  1  0.407500  0.377220  0.248740  1.0  -0.3882
  N  N10019  1  0.375060  0.401140  0.270010  1.0  -0.314
  N  N10020  1  0.328630  0.405600  0.313970  1.0  -0.446
  N  N10021  1  0.765270  0.864130  0.160930  1.0  -0.3272
  N  N10022  1  0.863770  0.726460  0.104310  1.0  -0.4294
  N  N10023  1  0.850670  0.766810  0.122730  1.0  -0.327
  N  N10024  1  0.846360  0.810520  0.170300  1.0  -0.4445
  N  N10025  1  0.811930  0.819610  0.159900  1.0  -0.4253
  N  N10026  1  0.827150  0.835230  0.189700  1.0  -0.4108
  N  N10027  1  0.878610  0.850400  0.224660  1.0  -0.3009
  N  N10028  1  0.907500  0.877220  0.248740  1.0  -0.3882
  N  N10029  1  0.875060  0.901140  0.270010  1.0  -0.314
  N  N10030  1  0.828630  0.905600  0.313970  1.0  -0.446
  N  N10031  1  0.765270  0.364130  0.660930  1.0  -0.3272
  N  N10032  1  0.863770  0.226460  0.604310  1.0  -0.4294
  N  N10033  1  0.850670  0.266810  0.622730  1.0  -0.327
  N  N10034  1  0.846360  0.310520  0.670300  1.0  -0.4445
  N  N10035  1  0.811930  0.319610  0.659900  1.0  -0.4253
  N  N10036  1  0.827150  0.335230  0.689700  1.0  -0.4108
  N  N10037  1  0.878610  0.350400  0.724660  1.0  -0.3009
  N  N10038  1  0.907500  0.377220  0.748740  1.0  -0.3882
  N  N10039  1  0.875060  0.401140  0.770010  1.0  -0.314
  N  N10040  1  0.828630  0.405600  0.813970  1.0  -0.446
  N  N10041  1  0.984730  0.364130  0.089070  1.0  -0.3267
  N  N10042  1  0.886230  0.226460  0.145690  1.0  -0.4283
  N  N10043  1  0.899330  0.266810  0.127270  1.0  -0.3273
  N  N10044  1  0.903640  0.310520  0.079700  1.0  -0.4445
  N  N10045  1  0.938070  0.319610  0.090100  1.0  -0.4246
  N  N10046  1  0.922850  0.335230  0.060300  1.0  -0.4092
  N  N10047  1  0.871390  0.350400  0.025340  1.0  -0.3009
  N  N10048  1  0.842500  0.377220  0.001260  1.0  -0.3861
  N  N10049  1  0.874940  0.401140  0.979990  1.0  -0.3139
  N  N10050  1  0.921370  0.405600  0.936030  1.0  -0.4447
  N  N10051  1  0.984730  0.864130  0.589070  1.0  -0.3267
  N  N10052  1  0.886230  0.726460  0.645690  1.0  -0.4283
  N  N10053  1  0.899330  0.766810  0.627270  1.0  -0.3273
  N  N10054  1  0.903640  0.810520  0.579700  1.0  -0.4445
  N  N10055  1  0.938070  0.819610  0.590100  1.0  -0.4246
  N  N10056  1  0.922850  0.835230  0.560300  1.0  -0.4092
  N  N10057  1  0.871390  0.850400  0.525340  1.0  -0.3009
  N  N10058  1  0.842500  0.877220  0.501260  1.0  -0.3861
  N  N10059  1  0.874940  0.901140  0.479990  1.0  -0.3139
  N  N10060  1  0.921370  0.905600  0.436030  1.0  -0.4447
  N  N10061  1  0.484730  0.364130  0.589070  1.0  -0.3267
  N  N10062  1  0.386230  0.226460  0.645690  1.0  -0.4283
  N  N10063  1  0.399330  0.266810  0.627270  1.0  -0.3273
  N  N10064  1  0.403640  0.310520  0.579700  1.0  -0.4445
  N  N10065  1  0.438070  0.319610  0.590100  1.0  -0.4246
  N  N10066  1  0.422850  0.335230  0.560300  1.0  -0.4092
  N  N10067  1  0.371390  0.350400  0.525340  1.0  -0.3009
  N  N10068  1  0.342500  0.377220  0.501260  1.0  -0.3861
  N  N10069  1  0.374940  0.401140  0.479990  1.0  -0.3139
  N  N10070  1  0.421370  0.405600  0.436030  1.0  -0.4447
  N  N10071  1  0.484730  0.864130  0.089070  1.0  -0.3267
  N  N10072  1  0.386230  0.726460  0.145690  1.0  -0.4283
  N  N10073  1  0.399330  0.766810  0.127270  1.0  -0.3273
  N  N10074  1  0.403640  0.810520  0.079700  1.0  -0.4445
  N  N10075  1  0.438070  0.819610  0.090100  1.0  -0.4246
  N  N10076  1  0.422850  0.835230  0.060300  1.0  -0.4092
  N  N10077  1  0.371390  0.850400  0.025340  1.0  -0.3009
  N  N10078  1  0.342500  0.877220  0.001260  1.0  -0.3861
  N  N10079  1  0.374940  0.901140  0.979990  1.0  -0.3139
  N  N10080  1  0.421370  0.905600  0.936030  1.0  -0.4447
  N  N10081  1  0.015270  0.339070  0.114130  1.0  -0.324
  N  N10082  1  0.113770  0.395690  0.976460  1.0  -0.424
  N  N10083  1  0.100670  0.377270  0.016810  1.0  -0.3282
  N  N10084  1  0.096360  0.329700  0.060520  1.0  -0.4454
  N  N10085  1  0.061930  0.340100  0.069610  1.0  -0.4253
  N  N10086  1  0.077150  0.310300  0.085230  1.0  -0.4081
  N  N10087  1  0.128610  0.275340  0.100400  1.0  -0.3036
  N  N10088  1  0.157500  0.251260  0.127220  1.0  -0.3874
  N  N10089  1  0.125060  0.229990  0.151140  1.0  -0.3152
  N  N10090  1  0.078630  0.186030  0.155600  1.0  -0.4471
  N  N10091  1  0.015270  0.839070  0.614130  1.0  -0.324
  N  N10092  1  0.113770  0.895690  0.476460  1.0  -0.424
  N  N10093  1  0.100670  0.877270  0.516810  1.0  -0.3282
  N  N10094  1  0.096360  0.829700  0.560520  1.0  -0.4454
  N  N10095  1  0.061930  0.840100  0.569610  1.0  -0.4253
  N  N10096  1  0.077150  0.810300  0.585230  1.0  -0.4081
  N  N10097  1  0.128610  0.775340  0.600400  1.0  -0.3036
  N  N10098  1  0.157500  0.751260  0.627220  1.0  -0.3874
  N  N10099  1  0.125060  0.729990  0.651140  1.0  -0.3152
  N  N10100  1  0.078630  0.686030  0.655600  1.0  -0.4471
  N  N10101  1  0.515270  0.339070  0.614130  1.0  -0.324
  N  N10102  1  0.613770  0.395690  0.476460  1.0  -0.424
  N  N10103  1  0.600670  0.377270  0.516810  1.0  -0.3282
  N  N10104  1  0.596360  0.329700  0.560520  1.0  -0.4454
  N  N10105  1  0.561930  0.340100  0.569610  1.0  -0.4253
  N  N10106  1  0.577150  0.310300  0.585230  1.0  -0.4081
  N  N10107  1  0.628610  0.275340  0.600400  1.0  -0.3036
  N  N10108  1  0.657500  0.251260  0.627220  1.0  -0.3874
  N  N10109  1  0.625060  0.229990  0.651140  1.0  -0.3152
  N  N10110  1  0.578630  0.186030  0.655600  1.0  -0.4471
  N  N10111  1  0.515270  0.839070  0.114130  1.0  -0.324
  N  N10112  1  0.613770  0.895690  0.976460  1.0  -0.424
  N  N10113  1  0.600670  0.877270  0.016810  1.0  -0.3282
  N  N10114  1  0.596360  0.829700  0.060520  1.0  -0.4454
  N  N10115  1  0.561930  0.840100  0.069610  1.0  -0.4253
  N  N10116  1  0.577150  0.810300  0.085230  1.0  -0.4081
  N  N10117  1  0.628610  0.775340  0.100400  1.0  -0.3036
  N  N10118  1  0.657500  0.751260  0.127220  1.0  -0.3874
  N  N10119  1  0.625060  0.729990  0.151140  1.0  -0.3152
  N  N10120  1  0.578630  0.686030  0.155600  1.0  -0.4471
  N  N10121  1  0.734730  0.910930  0.614130  1.0  -0.3246
  N  N10122  1  0.636230  0.854310  0.476460  1.0  -0.4258
  N  N10123  1  0.649330  0.872730  0.516810  1.0  -0.3279
  N  N10124  1  0.653640  0.920300  0.560520  1.0  -0.4448
  N  N10125  1  0.688070  0.909900  0.569610  1.0  -0.4256
  N  N10126  1  0.672850  0.939700  0.585230  1.0  -0.4085
  N  N10127  1  0.621390  0.974660  0.600400  1.0  -0.3031
  N  N10128  1  0.592500  0.998740  0.627220  1.0  -0.3859
  N  N10129  1  0.624940  0.020010  0.651140  1.0  -0.3157
  N  N10130  1  0.671370  0.063970  0.655600  1.0  -0.4473
  N  N10131  1  0.734730  0.410930  0.114130  1.0  -0.3246
  N  N10132  1  0.636230  0.354310  0.976460  1.0  -0.4258
  N  N10133  1  0.649330  0.372730  0.016810  1.0  -0.3279
  N  N10134  1  0.653640  0.420300  0.060520  1.0  -0.4448
  N  N10135  1  0.688070  0.409900  0.069610  1.0  -0.4256
  N  N10136  1  0.672850  0.439700  0.085230  1.0  -0.4085
  N  N10137  1  0.621390  0.474660  0.100400  1.0  -0.3031
  N  N10138  1  0.592500  0.498740  0.127220  1.0  -0.3859
  N  N10139  1  0.624940  0.520010  0.151140  1.0  -0.3157
  N  N10140  1  0.671370  0.563970  0.155600  1.0  -0.4473
  N  N10141  1  0.234730  0.910930  0.114130  1.0  -0.3246
  N  N10142  1  0.136230  0.854310  0.976460  1.0  -0.4258
  N  N10143  1  0.149330  0.872730  0.016810  1.0  -0.3279
  N  N10144  1  0.153640  0.920300  0.060520  1.0  -0.4448
  N  N10145  1  0.188070  0.909900  0.069610  1.0  -0.4256
  N  N10146  1  0.172850  0.939700  0.085230  1.0  -0.4085
  N  N10147  1  0.121390  0.974660  0.100400  1.0  -0.3031
  N  N10148  1  0.092500  0.998740  0.127220  1.0  -0.3859
  N  N10149  1  0.124940  0.020010  0.151140  1.0  -0.3157
  N  N10150  1  0.171370  0.063970  0.155600  1.0  -0.4473
  N  N10151  1  0.234730  0.410930  0.614130  1.0  -0.3246
  N  N10152  1  0.136230  0.354310  0.476460  1.0  -0.4258
  N  N10153  1  0.149330  0.372730  0.516810  1.0  -0.3279
  N  N10154  1  0.153640  0.420300  0.560520  1.0  -0.4448
  N  N10155  1  0.188070  0.409900  0.569610  1.0  -0.4256
  N  N10156  1  0.172850  0.439700  0.585230  1.0  -0.4085
  N  N10157  1  0.121390  0.474660  0.600400  1.0  -0.3031
  N  N10158  1  0.092500  0.498740  0.627220  1.0  -0.3859
  N  N10159  1  0.124940  0.520010  0.651140  1.0  -0.3157
  N  N10160  1  0.171370  0.563970  0.655600  1.0  -0.4473
  N  N10161  1  0.515270  0.410930  0.135870  1.0  -0.324
  N  N10162  1  0.613770  0.354310  0.273540  1.0  -0.4268
  N  N10163  1  0.600670  0.372730  0.233190  1.0  -0.3277
  N  N10164  1  0.596360  0.420300  0.189480  1.0  -0.4458
  N  N10165  1  0.561930  0.409900  0.180390  1.0  -0.4256
  N  N10166  1  0.577150  0.439700  0.164770  1.0  -0.4089
  N  N10167  1  0.628610  0.474660  0.149600  1.0  -0.3039
  N  N10168  1  0.657500  0.498740  0.122780  1.0  -0.388
  N  N10169  1  0.625060  0.520010  0.098860  1.0  -0.3148
  N  N10170  1  0.578630  0.563970  0.094400  1.0  -0.4451
  N  N10171  1  0.515270  0.910930  0.635870  1.0  -0.324
  N  N10172  1  0.613770  0.854310  0.773540  1.0  -0.4268
  N  N10173  1  0.600670  0.872730  0.733190  1.0  -0.3277
  N  N10174  1  0.596360  0.920300  0.689480  1.0  -0.4458
  N  N10175  1  0.561930  0.909900  0.680390  1.0  -0.4256
  N  N10176  1  0.577150  0.939700  0.664770  1.0  -0.4089
  N  N10177  1  0.628610  0.974660  0.649600  1.0  -0.3039
  N  N10178  1  0.657500  0.998740  0.622780  1.0  -0.388
  N  N10179  1  0.625060  0.020010  0.598860  1.0  -0.3148
  N  N10180  1  0.578630  0.063970  0.594400  1.0  -0.4451
  N  N10181  1  0.015270  0.410930  0.635870  1.0  -0.324
  N  N10182  1  0.113770  0.354310  0.773540  1.0  -0.4268
  N  N10183  1  0.100670  0.372730  0.733190  1.0  -0.3277
  N  N10184  1  0.096360  0.420300  0.689480  1.0  -0.4458
  N  N10185  1  0.061930  0.409900  0.680390  1.0  -0.4256
  N  N10186  1  0.077150  0.439700  0.664770  1.0  -0.4089
  N  N10187  1  0.128610  0.474660  0.649600  1.0  -0.3039
  N  N10188  1  0.157500  0.498740  0.622780  1.0  -0.388
  N  N10189  1  0.125060  0.520010  0.598860  1.0  -0.3148
  N  N10190  1  0.078630  0.563970  0.594400  1.0  -0.4451
  N  N10191  1  0.015270  0.910930  0.135870  1.0  -0.324
  N  N10192  1  0.113770  0.854310  0.273540  1.0  -0.4268
  N  N10193  1  0.100670  0.872730  0.233190  1.0  -0.3277
  N  N10194  1  0.096360  0.920300  0.189480  1.0  -0.4458
  N  N10195  1  0.061930  0.909900  0.180390  1.0  -0.4256
  N  N10196  1  0.077150  0.939700  0.164770  1.0  -0.4089
  N  N10197  1  0.128610  0.974660  0.149600  1.0  -0.3039
  N  N10198  1  0.157500  0.998740  0.122780  1.0  -0.388
  N  N10199  1  0.125060  0.020010  0.098860  1.0  -0.3148
  N  N10200  1  0.078630  0.063970  0.094400  1.0  -0.4451
  N  N10201  1  0.234730  0.839070  0.635870  1.0  -0.3238
  N  N10202  1  0.136230  0.895690  0.773540  1.0  -0.4267
  N  N10203  1  0.149330  0.877270  0.733190  1.0  -0.3276
  N  N10204  1  0.153640  0.829700  0.689480  1.0  -0.4444
  N  N10205  1  0.188070  0.840100  0.680390  1.0  -0.4253
  N  N10206  1  0.172850  0.810300  0.664770  1.0  -0.4074
  N  N10207  1  0.121390  0.775340  0.649600  1.0  -0.3045
  N  N10208  1  0.092500  0.751260  0.622780  1.0  -0.3864
  N  N10209  1  0.124940  0.729990  0.598860  1.0  -0.3145
  N  N10210  1  0.171370  0.686030  0.594400  1.0  -0.4463
  N  N10211  1  0.234730  0.339070  0.135870  1.0  -0.3238
  N  N10212  1  0.136230  0.395690  0.273540  1.0  -0.4267
  N  N10213  1  0.149330  0.377270  0.233190  1.0  -0.3276
  N  N10214  1  0.153640  0.329700  0.189480  1.0  -0.4444
  N  N10215  1  0.188070  0.340100  0.180390  1.0  -0.4253
  N  N10216  1  0.172850  0.310300  0.164770  1.0  -0.4074
  N  N10217  1  0.121390  0.275340  0.149600  1.0  -0.3045
  N  N10218  1  0.092500  0.251260  0.122780  1.0  -0.3864
  N  N10219  1  0.124940  0.229990  0.098860  1.0  -0.3145
  N  N10220  1  0.171370  0.186030  0.094400  1.0  -0.4463
  N  N10221  1  0.734730  0.839070  0.135870  1.0  -0.3238
  N  N10222  1  0.636230  0.895690  0.273540  1.0  -0.4267
  N  N10223  1  0.649330  0.877270  0.233190  1.0  -0.3276
  N  N10224  1  0.653640  0.829700  0.189480  1.0  -0.4444
  N  N10225  1  0.688070  0.840100  0.180390  1.0  -0.4253
  N  N10226  1  0.672850  0.810300  0.164770  1.0  -0.4074
  N  N10227  1  0.621390  0.775340  0.149600  1.0  -0.3045
  N  N10228  1  0.592500  0.751260  0.122780  1.0  -0.3864
  N  N10229  1  0.624940  0.729990  0.098860  1.0  -0.3145
  N  N10230  1  0.671370  0.686030  0.094400  1.0  -0.4463
  N  N10231  1  0.734730  0.339070  0.635870  1.0  -0.3238
  N  N10232  1  0.636230  0.395690  0.773540  1.0  -0.4267
  N  N10233  1  0.649330  0.377270  0.733190  1.0  -0.3276
  N  N10234  1  0.653640  0.329700  0.689480  1.0  -0.4444
  N  N10235  1  0.688070  0.340100  0.680390  1.0  -0.4253
  N  N10236  1  0.672850  0.310300  0.664770  1.0  -0.4074
  N  N10237  1  0.621390  0.275340  0.649600  1.0  -0.3045
  N  N10238  1  0.592500  0.251260  0.622780  1.0  -0.3864
  N  N10239  1  0.624940  0.229990  0.598860  1.0  -0.3145
  N  N10240  1  0.671370  0.186030  0.594400  1.0  -0.4463
  N  N10241  1  0.839070  0.635870  0.234730  1.0  -0.3235
  N  N10242  1  0.895690  0.773540  0.136230  1.0  -0.4284
  N  N10243  1  0.877270  0.733190  0.149330  1.0  -0.3313
  N  N10244  1  0.829700  0.689480  0.153640  1.0  -0.444
  N  N10245  1  0.840100  0.680390  0.188070  1.0  -0.4242
  N  N10246  1  0.810300  0.664770  0.172850  1.0  -0.4078
  N  N10247  1  0.775340  0.649600  0.121390  1.0  -0.3031
  N  N10248  1  0.751260  0.622780  0.092500  1.0  -0.382
  N  N10249  1  0.729990  0.598860  0.124940  1.0  -0.3115
  N  N10250  1  0.686030  0.594400  0.171370  1.0  -0.4486
  N  N10251  1  0.839070  0.135870  0.734730  1.0  -0.3235
  N  N10252  1  0.895690  0.273540  0.636230  1.0  -0.4284
  N  N10253  1  0.877270  0.233190  0.649330  1.0  -0.3313
  N  N10254  1  0.829700  0.189480  0.653640  1.0  -0.444
  N  N10255  1  0.840100  0.180390  0.688070  1.0  -0.4242
  N  N10256  1  0.810300  0.164770  0.672850  1.0  -0.4078
  N  N10257  1  0.775340  0.149600  0.621390  1.0  -0.3031
  N  N10258  1  0.751260  0.122780  0.592500  1.0  -0.382
  N  N10259  1  0.729990  0.098860  0.624940  1.0  -0.3115
  N  N10260  1  0.686030  0.094400  0.671370  1.0  -0.4486
  N  N10261  1  0.339070  0.635870  0.734730  1.0  -0.3235
  N  N10262  1  0.395690  0.773540  0.636230  1.0  -0.4284
  N  N10263  1  0.377270  0.733190  0.649330  1.0  -0.3313
  N  N10264  1  0.329700  0.689480  0.653640  1.0  -0.444
  N  N10265  1  0.340100  0.680390  0.688070  1.0  -0.4242
  N  N10266  1  0.310300  0.664770  0.672850  1.0  -0.4078
  N  N10267  1  0.275340  0.649600  0.621390  1.0  -0.3031
  N  N10268  1  0.251260  0.622780  0.592500  1.0  -0.382
  N  N10269  1  0.229990  0.598860  0.624940  1.0  -0.3115
  N  N10270  1  0.186030  0.594400  0.671370  1.0  -0.4486
  N  N10271  1  0.339070  0.135870  0.234730  1.0  -0.3235
  N  N10272  1  0.395690  0.273540  0.136230  1.0  -0.4284
  N  N10273  1  0.377270  0.233190  0.149330  1.0  -0.3313
  N  N10274  1  0.329700  0.189480  0.153640  1.0  -0.444
  N  N10275  1  0.340100  0.180390  0.188070  1.0  -0.4242
  N  N10276  1  0.310300  0.164770  0.172850  1.0  -0.4078
  N  N10277  1  0.275340  0.149600  0.121390  1.0  -0.3031
  N  N10278  1  0.251260  0.122780  0.092500  1.0  -0.382
  N  N10279  1  0.229990  0.098860  0.124940  1.0  -0.3115
  N  N10280  1  0.186030  0.094400  0.171370  1.0  -0.4486
  N  N10281  1  0.410930  0.135870  0.515270  1.0  -0.3218
  N  N10282  1  0.354310  0.273540  0.613770  1.0  -0.4284
  N  N10283  1  0.372730  0.233190  0.600670  1.0  -0.3305
  N  N10284  1  0.420300  0.189480  0.596360  1.0  -0.4447
  N  N10285  1  0.409900  0.180390  0.561930  1.0  -0.4249
  N  N10286  1  0.439700  0.164770  0.577150  1.0  -0.4066
  N  N10287  1  0.474660  0.149600  0.628610  1.0  -0.3016
  N  N10288  1  0.498740  0.122780  0.657500  1.0  -0.3816
  N  N10289  1  0.520010  0.098860  0.625060  1.0  -0.3131
  N  N10290  1  0.563970  0.094400  0.578630  1.0  -0.4462
  N  N10291  1  0.410930  0.635870  0.015270  1.0  -0.3218
  N  N10292  1  0.354310  0.773540  0.113770  1.0  -0.4284
  N  N10293  1  0.372730  0.733190  0.100670  1.0  -0.3305
  N  N10294  1  0.420300  0.689480  0.096360  1.0  -0.4447
  N  N10295  1  0.409900  0.680390  0.061930  1.0  -0.4249
  N  N10296  1  0.439700  0.664770  0.077150  1.0  -0.4066
  N  N10297  1  0.474660  0.649600  0.128610  1.0  -0.3016
  N  N10298  1  0.498740  0.622780  0.157500  1.0  -0.3816
  N  N10299  1  0.520010  0.598860  0.125060  1.0  -0.3131
  N  N10300  1  0.563970  0.594400  0.078630  1.0  -0.4462
  N  N10301  1  0.910930  0.135870  0.015270  1.0  -0.3218
  N  N10302  1  0.854310  0.273540  0.113770  1.0  -0.4284
  N  N10303  1  0.872730  0.233190  0.100670  1.0  -0.3305
  N  N10304  1  0.920300  0.189480  0.096360  1.0  -0.4447
  N  N10305  1  0.909900  0.180390  0.061930  1.0  -0.4249
  N  N10306  1  0.939700  0.164770  0.077150  1.0  -0.4066
  N  N10307  1  0.974660  0.149600  0.128610  1.0  -0.3016
  N  N10308  1  0.998740  0.122780  0.157500  1.0  -0.3816
  N  N10309  1  0.020010  0.098860  0.125060  1.0  -0.3131
  N  N10310  1  0.063970  0.094400  0.078630  1.0  -0.4462
  N  N10311  1  0.910930  0.635870  0.515270  1.0  -0.3218
  N  N10312  1  0.854310  0.773540  0.613770  1.0  -0.4284
  N  N10313  1  0.872730  0.733190  0.600670  1.0  -0.3305
  N  N10314  1  0.920300  0.689480  0.596360  1.0  -0.4447
  N  N10315  1  0.909900  0.680390  0.561930  1.0  -0.4249
  N  N10316  1  0.939700  0.664770  0.577150  1.0  -0.4066
  N  N10317  1  0.974660  0.649600  0.628610  1.0  -0.3016
  N  N10318  1  0.998740  0.622780  0.657500  1.0  -0.3816
  N  N10319  1  0.020010  0.598860  0.625060  1.0  -0.3131
  N  N10320  1  0.063970  0.594400  0.578630  1.0  -0.4462
  N  N10321  1  0.910930  0.614130  0.734730  1.0  -0.3225
  N  N10322  1  0.854310  0.476460  0.636230  1.0  -0.4268
  N  N10323  1  0.872730  0.516810  0.649330  1.0  -0.3316
  N  N10324  1  0.920300  0.560520  0.653640  1.0  -0.4448
  N  N10325  1  0.909900  0.569610  0.688070  1.0  -0.4234
  N  N10326  1  0.939700  0.585230  0.672850  1.0  -0.4064
  N  N10327  1  0.974660  0.600400  0.621390  1.0  -0.2999
  N  N10328  1  0.998740  0.627220  0.592500  1.0  -0.3819
  N  N10329  1  0.020010  0.651140  0.624940  1.0  -0.3126
  N  N10330  1  0.063970  0.655600  0.671370  1.0  -0.4452
  N  N10331  1  0.910930  0.114130  0.234730  1.0  -0.3225
  N  N10332  1  0.854310  0.976460  0.136230  1.0  -0.4268
  N  N10333  1  0.872730  0.016810  0.149330  1.0  -0.3316
  N  N10334  1  0.920300  0.060520  0.153640  1.0  -0.4448
  N  N10335  1  0.909900  0.069610  0.188070  1.0  -0.4234
  N  N10336  1  0.939700  0.085230  0.172850  1.0  -0.4064
  N  N10337  1  0.974660  0.100400  0.121390  1.0  -0.2999
  N  N10338  1  0.998740  0.127220  0.092500  1.0  -0.3819
  N  N10339  1  0.020010  0.151140  0.124940  1.0  -0.3126
  N  N10340  1  0.063970  0.155600  0.171370  1.0  -0.4452
  N  N10341  1  0.410930  0.614130  0.234730  1.0  -0.3225
  N  N10342  1  0.354310  0.476460  0.136230  1.0  -0.4268
  N  N10343  1  0.372730  0.516810  0.149330  1.0  -0.3316
  N  N10344  1  0.420300  0.560520  0.153640  1.0  -0.4448
  N  N10345  1  0.409900  0.569610  0.188070  1.0  -0.4234
  N  N10346  1  0.439700  0.585230  0.172850  1.0  -0.4064
  N  N10347  1  0.474660  0.600400  0.121390  1.0  -0.2999
  N  N10348  1  0.498740  0.627220  0.092500  1.0  -0.3819
  N  N10349  1  0.520010  0.651140  0.124940  1.0  -0.3126
  N  N10350  1  0.563970  0.655600  0.171370  1.0  -0.4452
  N  N10351  1  0.410930  0.114130  0.734730  1.0  -0.3225
  N  N10352  1  0.354310  0.976460  0.636230  1.0  -0.4268
  N  N10353  1  0.372730  0.016810  0.649330  1.0  -0.3316
  N  N10354  1  0.420300  0.060520  0.653640  1.0  -0.4448
  N  N10355  1  0.409900  0.069610  0.688070  1.0  -0.4234
  N  N10356  1  0.439700  0.085230  0.672850  1.0  -0.4064
  N  N10357  1  0.474660  0.100400  0.621390  1.0  -0.2999
  N  N10358  1  0.498740  0.127220  0.592500  1.0  -0.3819
  N  N10359  1  0.520010  0.151140  0.624940  1.0  -0.3126
  N  N10360  1  0.563970  0.155600  0.671370  1.0  -0.4452
  N  N10361  1  0.339070  0.114130  0.015270  1.0  -0.3233
  N  N10362  1  0.395690  0.976460  0.113770  1.0  -0.4298
  N  N10363  1  0.377270  0.016810  0.100670  1.0  -0.3305
  N  N10364  1  0.329700  0.060520  0.096360  1.0  -0.4457
  N  N10365  1  0.340100  0.069610  0.061930  1.0  -0.4268
  N  N10366  1  0.310300  0.085230  0.077150  1.0  -0.4074
  N  N10367  1  0.275340  0.100400  0.128610  1.0  -0.3012
  N  N10368  1  0.251260  0.127220  0.157500  1.0  -0.3816
  N  N10369  1  0.229990  0.151140  0.125060  1.0  -0.3118
  N  N10370  1  0.186030  0.155600  0.078630  1.0  -0.4471
  N  N10371  1  0.339070  0.614130  0.515270  1.0  -0.3233
  N  N10372  1  0.395690  0.476460  0.613770  1.0  -0.4298
  N  N10373  1  0.377270  0.516810  0.600670  1.0  -0.3305
  N  N10374  1  0.329700  0.560520  0.596360  1.0  -0.4457
  N  N10375  1  0.340100  0.569610  0.561930  1.0  -0.4268
  N  N10376  1  0.310300  0.585230  0.577150  1.0  -0.4074
  N  N10377  1  0.275340  0.600400  0.628610  1.0  -0.3012
  N  N10378  1  0.251260  0.627220  0.657500  1.0  -0.3816
  N  N10379  1  0.229990  0.651140  0.625060  1.0  -0.3118
  N  N10380  1  0.186030  0.655600  0.578630  1.0  -0.4471
  N  N10381  1  0.839070  0.114130  0.515270  1.0  -0.3233
  N  N10382  1  0.895690  0.976460  0.613770  1.0  -0.4298
  N  N10383  1  0.877270  0.016810  0.600670  1.0  -0.3305
  N  N10384  1  0.829700  0.060520  0.596360  1.0  -0.4457
  N  N10385  1  0.840100  0.069610  0.561930  1.0  -0.4268
  N  N10386  1  0.810300  0.085230  0.577150  1.0  -0.4074
  N  N10387  1  0.775340  0.100400  0.628610  1.0  -0.3012
  N  N10388  1  0.751260  0.127220  0.657500  1.0  -0.3816
  N  N10389  1  0.729990  0.151140  0.625060  1.0  -0.3118
  N  N10390  1  0.686030  0.155600  0.578630  1.0  -0.4471
  N  N10391  1  0.839070  0.614130  0.015270  1.0  -0.3233
  N  N10392  1  0.895690  0.476460  0.113770  1.0  -0.4298
  N  N10393  1  0.877270  0.516810  0.100670  1.0  -0.3305
  N  N10394  1  0.829700  0.560520  0.096360  1.0  -0.4457
  N  N10395  1  0.840100  0.569610  0.061930  1.0  -0.4268
  N  N10396  1  0.810300  0.585230  0.077150  1.0  -0.4074
  N  N10397  1  0.775340  0.600400  0.128610  1.0  -0.3012
  N  N10398  1  0.751260  0.627220  0.157500  1.0  -0.3816
  N  N10399  1  0.729990  0.651140  0.125060  1.0  -0.3118
  N  N10400  1  0.686030  0.655600  0.078630  1.0  -0.4471
  N  N10401  1  0.135870  0.515270  0.410930  1.0  -0.3292
  N  N10402  1  0.273540  0.613770  0.354310  1.0  -0.429
  N  N10403  1  0.233190  0.600670  0.372730  1.0  -0.3282
  N  N10404  1  0.189480  0.596360  0.420300  1.0  -0.4444
  N  N10405  1  0.180390  0.561930  0.409900  1.0  -0.4244
  N  N10406  1  0.164770  0.577150  0.439700  1.0  -0.41
  N  N10407  1  0.149600  0.628610  0.474660  1.0  -0.3013
  N  N10408  1  0.122780  0.657500  0.498740  1.0  -0.3834
  N  N10409  1  0.098860  0.625060  0.520010  1.0  -0.3115
  N  N10410  1  0.094400  0.578630  0.563970  1.0  -0.4485
  N  N10411  1  0.135870  0.015270  0.910930  1.0  -0.3292
  N  N10412  1  0.273540  0.113770  0.854310  1.0  -0.429
  N  N10413  1  0.233190  0.100670  0.872730  1.0  -0.3282
  N  N10414  1  0.189480  0.096360  0.920300  1.0  -0.4444
  N  N10415  1  0.180390  0.061930  0.909900  1.0  -0.4244
  N  N10416  1  0.164770  0.077150  0.939700  1.0  -0.41
  N  N10417  1  0.149600  0.128610  0.974660  1.0  -0.3013
  N  N10418  1  0.122780  0.157500  0.998740  1.0  -0.3834
  N  N10419  1  0.098860  0.125060  0.020010  1.0  -0.3115
  N  N10420  1  0.094400  0.078630  0.063970  1.0  -0.4485
  N  N10421  1  0.635870  0.515270  0.910930  1.0  -0.3292
  N  N10422  1  0.773540  0.613770  0.854310  1.0  -0.429
  N  N10423  1  0.733190  0.600670  0.872730  1.0  -0.3282
  N  N10424  1  0.689480  0.596360  0.920300  1.0  -0.4444
  N  N10425  1  0.680390  0.561930  0.909900  1.0  -0.4244
  N  N10426  1  0.664770  0.577150  0.939700  1.0  -0.41
  N  N10427  1  0.649600  0.628610  0.974660  1.0  -0.3013
  N  N10428  1  0.622780  0.657500  0.998740  1.0  -0.3834
  N  N10429  1  0.598860  0.625060  0.020010  1.0  -0.3115
  N  N10430  1  0.594400  0.578630  0.063970  1.0  -0.4485
  N  N10431  1  0.635870  0.015270  0.410930  1.0  -0.3292
  N  N10432  1  0.773540  0.113770  0.354310  1.0  -0.429
  N  N10433  1  0.733190  0.100670  0.372730  1.0  -0.3282
  N  N10434  1  0.689480  0.096360  0.420300  1.0  -0.4444
  N  N10435  1  0.680390  0.061930  0.409900  1.0  -0.4244
  N  N10436  1  0.664770  0.077150  0.439700  1.0  -0.41
  N  N10437  1  0.649600  0.128610  0.474660  1.0  -0.3013
  N  N10438  1  0.622780  0.157500  0.498740  1.0  -0.3834
  N  N10439  1  0.598860  0.125060  0.520010  1.0  -0.3115
  N  N10440  1  0.594400  0.078630  0.563970  1.0  -0.4485
  N  N10441  1  0.635870  0.234730  0.839070  1.0  -0.3277
  N  N10442  1  0.773540  0.136230  0.895690  1.0  -0.428
  N  N10443  1  0.733190  0.149330  0.877270  1.0  -0.3276
  N  N10444  1  0.689480  0.153640  0.829700  1.0  -0.4438
  N  N10445  1  0.680390  0.188070  0.840100  1.0  -0.4233
  N  N10446  1  0.664770  0.172850  0.810300  1.0  -0.4092
  N  N10447  1  0.649600  0.121390  0.775340  1.0  -0.3022
  N  N10448  1  0.622780  0.092500  0.751260  1.0  -0.3831
  N  N10449  1  0.598860  0.124940  0.729990  1.0  -0.3123
  N  N10450  1  0.594400  0.171370  0.686030  1.0  -0.4479
  N  N10451  1  0.635870  0.734730  0.339070  1.0  -0.3277
  N  N10452  1  0.773540  0.636230  0.395690  1.0  -0.428
  N  N10453  1  0.733190  0.649330  0.377270  1.0  -0.3276
  N  N10454  1  0.689480  0.653640  0.329700  1.0  -0.4438
  N  N10455  1  0.680390  0.688070  0.340100  1.0  -0.4233
  N  N10456  1  0.664770  0.672850  0.310300  1.0  -0.4092
  N  N10457  1  0.649600  0.621390  0.275340  1.0  -0.3022
  N  N10458  1  0.622780  0.592500  0.251260  1.0  -0.3831
  N  N10459  1  0.598860  0.624940  0.229990  1.0  -0.3123
  N  N10460  1  0.594400  0.671370  0.186030  1.0  -0.4479
  N  N10461  1  0.135870  0.234730  0.339070  1.0  -0.3277
  N  N10462  1  0.273540  0.136230  0.395690  1.0  -0.428
  N  N10463  1  0.233190  0.149330  0.377270  1.0  -0.3276
  N  N10464  1  0.189480  0.153640  0.329700  1.0  -0.4438
  N  N10465  1  0.180390  0.188070  0.340100  1.0  -0.4233
  N  N10466  1  0.164770  0.172850  0.310300  1.0  -0.4092
  N  N10467  1  0.149600  0.121390  0.275340  1.0  -0.3022
  N  N10468  1  0.122780  0.092500  0.251260  1.0  -0.3831
  N  N10469  1  0.098860  0.124940  0.229990  1.0  -0.3123
  N  N10470  1  0.094400  0.171370  0.186030  1.0  -0.4479
  N  N10471  1  0.135870  0.734730  0.839070  1.0  -0.3277
  N  N10472  1  0.273540  0.636230  0.895690  1.0  -0.428
  N  N10473  1  0.233190  0.649330  0.877270  1.0  -0.3276
  N  N10474  1  0.189480  0.653640  0.829700  1.0  -0.4438
  N  N10475  1  0.180390  0.688070  0.840100  1.0  -0.4233
  N  N10476  1  0.164770  0.672850  0.810300  1.0  -0.4092
  N  N10477  1  0.149600  0.621390  0.775340  1.0  -0.3022
  N  N10478  1  0.122780  0.592500  0.751260  1.0  -0.3831
  N  N10479  1  0.098860  0.624940  0.729990  1.0  -0.3123
  N  N10480  1  0.094400  0.671370  0.686030  1.0  -0.4479
  N  N10481  1  0.114130  0.015270  0.339070  1.0  -0.3286
  N  N10482  1  0.976460  0.113770  0.395690  1.0  -0.4281
  N  N10483  1  0.016810  0.100670  0.377270  1.0  -0.3283
  N  N10484  1  0.060520  0.096360  0.329700  1.0  -0.4434
  N  N10485  1  0.069610  0.061930  0.340100  1.0  -0.4242
  N  N10486  1  0.085230  0.077150  0.310300  1.0  -0.4096
  N  N10487  1  0.100400  0.128610  0.275340  1.0  -0.3016
  N  N10488  1  0.127220  0.157500  0.251260  1.0  -0.3822
  N  N10489  1  0.151140  0.125060  0.229990  1.0  -0.3122
  N  N10490  1  0.155600  0.078630  0.186030  1.0  -0.4459
  N  N10491  1  0.114130  0.515270  0.839070  1.0  -0.3286
  N  N10492  1  0.976460  0.613770  0.895690  1.0  -0.4281
  N  N10493  1  0.016810  0.600670  0.877270  1.0  -0.3283
  N  N10494  1  0.060520  0.596360  0.829700  1.0  -0.4434
  N  N10495  1  0.069610  0.561930  0.840100  1.0  -0.4242
  N  N10496  1  0.085230  0.577150  0.810300  1.0  -0.4096
  N  N10497  1  0.100400  0.628610  0.775340  1.0  -0.3016
  N  N10498  1  0.127220  0.657500  0.751260  1.0  -0.3822
  N  N10499  1  0.151140  0.625060  0.729990  1.0  -0.3122
  N  N10500  1  0.155600  0.578630  0.686030  1.0  -0.4459
  N  N10501  1  0.614130  0.015270  0.839070  1.0  -0.3286
  N  N10502  1  0.476460  0.113770  0.895690  1.0  -0.4281
  N  N10503  1  0.516810  0.100670  0.877270  1.0  -0.3283
  N  N10504  1  0.560520  0.096360  0.829700  1.0  -0.4434
  N  N10505  1  0.569610  0.061930  0.840100  1.0  -0.4242
  N  N10506  1  0.585230  0.077150  0.810300  1.0  -0.4096
  N  N10507  1  0.600400  0.128610  0.775340  1.0  -0.3016
  N  N10508  1  0.627220  0.157500  0.751260  1.0  -0.3822
  N  N10509  1  0.651140  0.125060  0.729990  1.0  -0.3122
  N  N10510  1  0.655600  0.078630  0.686030  1.0  -0.4459
  N  N10511  1  0.614130  0.515270  0.339070  1.0  -0.3286
  N  N10512  1  0.476460  0.613770  0.395690  1.0  -0.4281
  N  N10513  1  0.516810  0.600670  0.377270  1.0  -0.3283
  N  N10514  1  0.560520  0.596360  0.329700  1.0  -0.4434
  N  N10515  1  0.569610  0.561930  0.340100  1.0  -0.4242
  N  N10516  1  0.585230  0.577150  0.310300  1.0  -0.4096
  N  N10517  1  0.600400  0.628610  0.275340  1.0  -0.3016
  N  N10518  1  0.627220  0.657500  0.251260  1.0  -0.3822
  N  N10519  1  0.651140  0.625060  0.229990  1.0  -0.3122
  N  N10520  1  0.655600  0.578630  0.186030  1.0  -0.4459
  N  N10521  1  0.614130  0.734730  0.910930  1.0  -0.3286
  N  N10522  1  0.476460  0.636230  0.854310  1.0  -0.4294
  N  N10523  1  0.516810  0.649330  0.872730  1.0  -0.3286
  N  N10524  1  0.560520  0.653640  0.920300  1.0  -0.4435
  N  N10525  1  0.569610  0.688070  0.909900  1.0  -0.4237
  N  N10526  1  0.585230  0.672850  0.939700  1.0  -0.4089
  N  N10527  1  0.600400  0.621390  0.974660  1.0  -0.3003
  N  N10528  1  0.627220  0.592500  0.998740  1.0  -0.3825
  N  N10529  1  0.651140  0.624940  0.020010  1.0  -0.3119
  N  N10530  1  0.655600  0.671370  0.063970  1.0  -0.4466
  N  N10531  1  0.614130  0.234730  0.410930  1.0  -0.3286
  N  N10532  1  0.476460  0.136230  0.354310  1.0  -0.4294
  N  N10533  1  0.516810  0.149330  0.372730  1.0  -0.3286
  N  N10534  1  0.560520  0.153640  0.420300  1.0  -0.4435
  N  N10535  1  0.569610  0.188070  0.409900  1.0  -0.4237
  N  N10536  1  0.585230  0.172850  0.439700  1.0  -0.4089
  N  N10537  1  0.600400  0.121390  0.474660  1.0  -0.3003
  N  N10538  1  0.627220  0.092500  0.498740  1.0  -0.3825
  N  N10539  1  0.651140  0.124940  0.520010  1.0  -0.3119
  N  N10540  1  0.655600  0.171370  0.563970  1.0  -0.4466
  N  N10541  1  0.114130  0.734730  0.410930  1.0  -0.3286
  N  N10542  1  0.976460  0.636230  0.354310  1.0  -0.4294
  N  N10543  1  0.016810  0.649330  0.372730  1.0  -0.3286
  N  N10544  1  0.060520  0.653640  0.420300  1.0  -0.4435
  N  N10545  1  0.069610  0.688070  0.409900  1.0  -0.4237
  N  N10546  1  0.085230  0.672850  0.439700  1.0  -0.4089
  N  N10547  1  0.100400  0.621390  0.474660  1.0  -0.3003
  N  N10548  1  0.127220  0.592500  0.498740  1.0  -0.3825
  N  N10549  1  0.151140  0.624940  0.520010  1.0  -0.3119
  N  N10550  1  0.155600  0.671370  0.563970  1.0  -0.4466
  N  N10551  1  0.114130  0.234730  0.910930  1.0  -0.3286
  N  N10552  1  0.976460  0.136230  0.854310  1.0  -0.4294
  N  N10553  1  0.016810  0.149330  0.872730  1.0  -0.3286
  N  N10554  1  0.060520  0.153640  0.920300  1.0  -0.4435
  N  N10555  1  0.069610  0.188070  0.909900  1.0  -0.4237
  N  N10556  1  0.085230  0.172850  0.939700  1.0  -0.4089
  N  N10557  1  0.100400  0.121390  0.974660  1.0  -0.3003
  N  N10558  1  0.127220  0.092500  0.998740  1.0  -0.3825
  N  N10559  1  0.151140  0.124940  0.020010  1.0  -0.3119
  N  N10560  1  0.155600  0.171370  0.063970  1.0  -0.4466
