# generated using pymatgen
data_Cd3H28C46(NO4)3
_symmetry_space_group_name_H-M   'P 1'
_cell_length_a   11.78650000
_cell_length_b   16.71600000
_cell_length_c   52.89200000
_cell_angle_alpha   90.00000000
_cell_angle_beta   90.00000000
_cell_angle_gamma   90.00000000
_symmetry_Int_Tables_number   1
_chemical_formula_structural   Cd3H28C46(NO4)3
_chemical_formula_sum   'Cd24 H224 C368 N24 O96'
_cell_volume   10420.94760353
_cell_formula_units_Z   8
loop_
 _symmetry_equiv_pos_site_id
 _symmetry_equiv_pos_as_xyz
  1  'x, y, z'
loop_
 _atom_site_type_symbol
 _atom_site_label
 _atom_site_symmetry_multiplicity
 _atom_site_fract_x
 _atom_site_fract_y
 _atom_site_fract_z
 _atom_site_occupancy
 _atom_site_charge
  Cd  Cd1  1  0.915350  0.335790  0.822210  1.0  0.9992
  Cd  Cd2  1  0.024900  0.324150  0.885130  1.0  1.1341
  Cd  Cd3  1  0.567160  0.806780  0.950580  1.0  1.0503
  Cd  Cd4  1  0.584650  0.164210  0.322210  1.0  0.9996
  Cd  Cd5  1  0.475100  0.175850  0.385130  1.0  1.1348
  Cd  Cd6  1  0.932840  0.693220  0.450580  1.0  1.0507
  Cd  Cd7  1  0.915350  0.664210  0.322210  1.0  0.9984
  Cd  Cd8  1  0.024900  0.675850  0.385130  1.0  1.1341
  Cd  Cd9  1  0.567160  0.193220  0.450580  1.0  1.0499
  Cd  Cd10  1  0.584650  0.835790  0.822210  1.0  0.9982
  Cd  Cd11  1  0.475100  0.824150  0.885130  1.0  1.1348
  Cd  Cd12  1  0.932840  0.306780  0.950580  1.0  1.0513
  Cd  Cd13  1  0.084650  0.335790  0.677790  1.0  0.9999
  Cd  Cd14  1  0.975100  0.324150  0.614870  1.0  1.1348
  Cd  Cd15  1  0.432840  0.806780  0.549420  1.0  1.0512
  Cd  Cd16  1  0.415350  0.164210  0.177790  1.0  1.0001
  Cd  Cd17  1  0.524900  0.175850  0.114870  1.0  1.1341
  Cd  Cd18  1  0.067160  0.693220  0.049420  1.0  1.0504
  Cd  Cd19  1  0.084650  0.664210  0.177790  1.0  0.9991
  Cd  Cd20  1  0.975100  0.675850  0.114870  1.0  1.1348
  Cd  Cd21  1  0.432840  0.193220  0.049420  1.0  1.0508
  Cd  Cd22  1  0.415350  0.835790  0.677790  1.0  0.9983
  Cd  Cd23  1  0.524900  0.824150  0.614870  1.0  1.1342
  Cd  Cd24  1  0.067160  0.306780  0.549420  1.0  1.0503
  H  H25  1  0.669200  0.553300  0.847400  1.0  0.1087
  H  H26  1  0.609200  0.659200  0.871600  1.0  0.1165
  H  H27  1  0.811000  0.587000  0.927800  1.0  0.1153
  H  H28  1  0.864800  0.476200  0.904400  1.0  0.1274
  H  H29  1  0.099500  0.114700  0.869200  1.0  0.1136
  H  H30  1  0.221100  0.008600  0.874200  1.0  0.1023
  H  H31  1  0.325900  0.032100  0.803000  1.0  0.1109
  H  H32  1  0.199600  0.135100  0.797200  1.0  0.1109
  H  H33  1  0.922700  0.273300  0.766300  1.0  0.0787
  H  H34  1  0.836100  0.279600  0.727500  1.0  0.1235
  H  H35  1  0.664000  0.465800  0.752600  1.0  0.1277
  H  H36  1  0.760400  0.453800  0.789600  1.0  0.0718
  H  H37  1  0.763400  0.295900  0.692300  1.0  0.1179
  H  H38  1  0.665600  0.299500  0.654900  1.0  0.1127
  H  H39  1  0.450600  0.457000  0.685700  1.0  0.1185
  H  H40  1  0.549300  0.451400  0.722800  1.0  0.1168
  H  H41  1  0.334000  0.345400  0.611300  1.0  0.1129
  H  H42  1  0.355200  0.310200  0.570300  1.0  0.1275
  H  H43  1  0.691600  0.329200  0.578000  1.0  0.1124
  H  H44  1  0.670300  0.364700  0.619100  1.0  0.1109
  H  H45  1  0.400700  0.247500  0.492100  1.0  0.0808
  H  H46  1  0.377400  0.297900  0.531700  1.0  0.125
  H  H47  1  0.706300  0.278600  0.540800  1.0  0.1121
  H  H48  1  0.714500  0.224200  0.501600  1.0  0.077
  H  H49  1  0.136700  0.095400  0.958500  1.0  0.116
  H  H50  1  0.254600  0.987100  0.965600  1.0  0.12
  H  H51  1  0.429700  0.044300  0.903900  1.0  0.1056
  H  H52  1  0.317000  0.153800  0.898000  1.0  0.1116
  H  H53  1  0.830800  0.946700  0.347400  1.0  0.1085
  H  H54  1  0.890800  0.840800  0.371600  1.0  0.1164
  H  H55  1  0.689000  0.913000  0.427800  1.0  0.115
  H  H56  1  0.635200  0.023800  0.404400  1.0  0.127
  H  H57  1  0.400500  0.385300  0.369200  1.0  0.1133
  H  H58  1  0.278900  0.491400  0.374200  1.0  0.1021
  H  H59  1  0.174100  0.467900  0.303000  1.0  0.1103
  H  H60  1  0.300400  0.364900  0.297200  1.0  0.1109
  H  H61  1  0.577300  0.226700  0.266300  1.0  0.0785
  H  H62  1  0.663900  0.220400  0.227500  1.0  0.1239
  H  H63  1  0.836000  0.034200  0.252600  1.0  0.1276
  H  H64  1  0.739600  0.046200  0.289600  1.0  0.0714
  H  H65  1  0.736600  0.204100  0.192300  1.0  0.119
  H  H66  1  0.834400  0.200500  0.154900  1.0  0.1126
  H  H67  1  0.049400  0.043000  0.185700  1.0  0.1184
  H  H68  1  0.950700  0.048600  0.222800  1.0  0.1171
  H  H69  1  0.166000  0.154600  0.111300  1.0  0.1131
  H  H70  1  0.144800  0.189800  0.070300  1.0  0.1275
  H  H71  1  0.808400  0.170800  0.078000  1.0  0.1118
  H  H72  1  0.829700  0.135300  0.119100  1.0  0.1107
  H  H73  1  0.099300  0.252500  0.992100  1.0  0.0805
  H  H74  1  0.122600  0.202100  0.031700  1.0  0.1252
  H  H75  1  0.793700  0.221400  0.040800  1.0  0.1119
  H  H76  1  0.785500  0.275800  0.001600  1.0  0.0773
  H  H77  1  0.363300  0.404600  0.458500  1.0  0.1158
  H  H78  1  0.245400  0.512900  0.465600  1.0  0.1199
  H  H79  1  0.070300  0.455700  0.403900  1.0  0.1059
  H  H80  1  0.183000  0.346200  0.398000  1.0  0.1119
  H  H81  1  0.669200  0.446700  0.347400  1.0  0.1084
  H  H82  1  0.609200  0.340800  0.371600  1.0  0.1163
  H  H83  1  0.811000  0.413000  0.427800  1.0  0.1152
  H  H84  1  0.864800  0.523800  0.404400  1.0  0.1271
  H  H85  1  0.099500  0.885300  0.369200  1.0  0.1134
  H  H86  1  0.221100  0.991400  0.374200  1.0  0.1022
  H  H87  1  0.325900  0.967900  0.303000  1.0  0.1115
  H  H88  1  0.199600  0.864900  0.297200  1.0  0.1111
  H  H89  1  0.922700  0.726700  0.266300  1.0  0.078
  H  H90  1  0.836100  0.720400  0.227500  1.0  0.1238
  H  H91  1  0.664000  0.534200  0.252600  1.0  0.1274
  H  H92  1  0.760400  0.546200  0.289600  1.0  0.0712
  H  H93  1  0.763400  0.704100  0.192300  1.0  0.1183
  H  H94  1  0.665600  0.700500  0.154900  1.0  0.1133
  H  H95  1  0.450600  0.543000  0.185700  1.0  0.1185
  H  H96  1  0.549300  0.548600  0.222800  1.0  0.1172
  H  H97  1  0.334000  0.654600  0.111300  1.0  0.1128
  H  H98  1  0.355200  0.689800  0.070300  1.0  0.1273
  H  H99  1  0.691600  0.670800  0.078000  1.0  0.1126
  H  H100  1  0.670300  0.635300  0.119100  1.0  0.1109
  H  H101  1  0.400700  0.752500  0.992100  1.0  0.0809
  H  H102  1  0.377400  0.702100  0.031700  1.0  0.1251
  H  H103  1  0.706300  0.721400  0.040800  1.0  0.1121
  H  H104  1  0.714500  0.775800  0.001600  1.0  0.0775
  H  H105  1  0.136700  0.904600  0.458500  1.0  0.1158
  H  H106  1  0.254600  0.012900  0.465600  1.0  0.12
  H  H107  1  0.429700  0.955700  0.403900  1.0  0.1054
  H  H108  1  0.317000  0.846200  0.398000  1.0  0.1119
  H  H109  1  0.830800  0.053300  0.847400  1.0  0.1086
  H  H110  1  0.890800  0.159200  0.871600  1.0  0.1167
  H  H111  1  0.689000  0.087000  0.927800  1.0  0.1151
  H  H112  1  0.635200  0.976200  0.904400  1.0  0.1272
  H  H113  1  0.400500  0.614700  0.869200  1.0  0.1134
  H  H114  1  0.278900  0.508600  0.874200  1.0  0.1022
  H  H115  1  0.174100  0.532100  0.803000  1.0  0.1103
  H  H116  1  0.300400  0.635100  0.797200  1.0  0.1107
  H  H117  1  0.577300  0.773300  0.766300  1.0  0.0784
  H  H118  1  0.663900  0.779600  0.727500  1.0  0.1233
  H  H119  1  0.836000  0.965800  0.752600  1.0  0.1275
  H  H120  1  0.739600  0.953800  0.789600  1.0  0.0719
  H  H121  1  0.736600  0.795900  0.692300  1.0  0.1183
  H  H122  1  0.834400  0.799500  0.654900  1.0  0.1123
  H  H123  1  0.049400  0.957000  0.685700  1.0  0.118
  H  H124  1  0.950700  0.951400  0.722800  1.0  0.1169
  H  H125  1  0.166000  0.845400  0.611300  1.0  0.1133
  H  H126  1  0.144800  0.810200  0.570300  1.0  0.1276
  H  H127  1  0.808400  0.829200  0.578000  1.0  0.112
  H  H128  1  0.829700  0.864700  0.619100  1.0  0.1108
  H  H129  1  0.099300  0.747500  0.492100  1.0  0.0807
  H  H130  1  0.122600  0.797900  0.531700  1.0  0.1254
  H  H131  1  0.793700  0.778600  0.540800  1.0  0.1119
  H  H132  1  0.785500  0.724200  0.501600  1.0  0.0768
  H  H133  1  0.363300  0.595400  0.958500  1.0  0.1159
  H  H134  1  0.245400  0.487100  0.965600  1.0  0.1199
  H  H135  1  0.070300  0.544300  0.903900  1.0  0.1061
  H  H136  1  0.183000  0.653800  0.898000  1.0  0.1117
  H  H137  1  0.330800  0.553300  0.652600  1.0  0.1088
  H  H138  1  0.390800  0.659200  0.628400  1.0  0.1166
  H  H139  1  0.189000  0.587000  0.572200  1.0  0.1147
  H  H140  1  0.135200  0.476200  0.595600  1.0  0.1271
  H  H141  1  0.900500  0.114700  0.630800  1.0  0.1138
  H  H142  1  0.778900  0.008600  0.625800  1.0  0.1031
  H  H143  1  0.674100  0.032100  0.697000  1.0  0.1114
  H  H144  1  0.800400  0.135100  0.702800  1.0  0.111
  H  H145  1  0.077300  0.273300  0.733700  1.0  0.0785
  H  H146  1  0.163900  0.279600  0.772500  1.0  0.1236
  H  H147  1  0.336000  0.465800  0.747400  1.0  0.1276
  H  H148  1  0.239600  0.453800  0.710400  1.0  0.072
  H  H149  1  0.236600  0.295900  0.807700  1.0  0.1181
  H  H150  1  0.334400  0.299500  0.845100  1.0  0.1117
  H  H151  1  0.549400  0.457000  0.814300  1.0  0.118
  H  H152  1  0.450700  0.451400  0.777200  1.0  0.1172
  H  H153  1  0.666000  0.345400  0.888700  1.0  0.1133
  H  H154  1  0.644800  0.310200  0.929700  1.0  0.1274
  H  H155  1  0.308400  0.329200  0.922000  1.0  0.1117
  H  H156  1  0.329700  0.364700  0.880900  1.0  0.1102
  H  H157  1  0.599300  0.247500  0.007900  1.0  0.0812
  H  H158  1  0.622600  0.297900  0.968300  1.0  0.1254
  H  H159  1  0.293700  0.278600  0.959200  1.0  0.1125
  H  H160  1  0.285500  0.224200  0.998400  1.0  0.0775
  H  H161  1  0.863300  0.095400  0.541500  1.0  0.1155
  H  H162  1  0.745400  0.987100  0.534400  1.0  0.1199
  H  H163  1  0.570300  0.044300  0.596100  1.0  0.1059
  H  H164  1  0.683000  0.153800  0.602000  1.0  0.1107
  H  H165  1  0.169200  0.946700  0.152600  1.0  0.1086
  H  H166  1  0.109200  0.840800  0.128400  1.0  0.1166
  H  H167  1  0.311000  0.913000  0.072200  1.0  0.1148
  H  H168  1  0.364800  0.023800  0.095600  1.0  0.1271
  H  H169  1  0.599500  0.385300  0.130800  1.0  0.1136
  H  H170  1  0.721100  0.491400  0.125800  1.0  0.1029
  H  H171  1  0.825900  0.467900  0.197000  1.0  0.1118
  H  H172  1  0.699600  0.364900  0.202800  1.0  0.1111
  H  H173  1  0.422700  0.226700  0.233700  1.0  0.0782
  H  H174  1  0.336100  0.220400  0.272500  1.0  0.124
  H  H175  1  0.164000  0.034200  0.247400  1.0  0.127
  H  H176  1  0.260400  0.046200  0.210400  1.0  0.0712
  H  H177  1  0.263400  0.204100  0.307700  1.0  0.1183
  H  H178  1  0.165600  0.200500  0.345100  1.0  0.1124
  H  H179  1  0.950600  0.043000  0.314300  1.0  0.1184
  H  H180  1  0.049300  0.048600  0.277200  1.0  0.1175
  H  H181  1  0.834000  0.154600  0.388700  1.0  0.1132
  H  H182  1  0.855200  0.189800  0.429700  1.0  0.1273
  H  H183  1  0.191600  0.170800  0.422000  1.0  0.112
  H  H184  1  0.170300  0.135300  0.380900  1.0  0.1104
  H  H185  1  0.900700  0.252500  0.507900  1.0  0.081
  H  H186  1  0.877400  0.202100  0.468300  1.0  0.1251
  H  H187  1  0.206300  0.221400  0.459200  1.0  0.1125
  H  H188  1  0.214500  0.275800  0.498400  1.0  0.0786
  H  H189  1  0.636700  0.404600  0.041500  1.0  0.1152
  H  H190  1  0.754600  0.512900  0.034400  1.0  0.1191
  H  H191  1  0.929700  0.455700  0.096100  1.0  0.1054
  H  H192  1  0.817000  0.346200  0.102000  1.0  0.1112
  H  H193  1  0.330800  0.446700  0.152600  1.0  0.1089
  H  H194  1  0.390800  0.340800  0.128400  1.0  0.1169
  H  H195  1  0.189000  0.413000  0.072200  1.0  0.1148
  H  H196  1  0.135200  0.523800  0.095600  1.0  0.1273
  H  H197  1  0.900500  0.885300  0.130800  1.0  0.1134
  H  H198  1  0.778900  0.991400  0.125800  1.0  0.1028
  H  H199  1  0.674100  0.967900  0.197000  1.0  0.111
  H  H200  1  0.800400  0.864900  0.202800  1.0  0.1113
  H  H201  1  0.077300  0.726700  0.233700  1.0  0.0788
  H  H202  1  0.163900  0.720400  0.272500  1.0  0.1239
  H  H203  1  0.336000  0.534200  0.247400  1.0  0.1272
  H  H204  1  0.239600  0.546200  0.210400  1.0  0.0712
  H  H205  1  0.236600  0.704100  0.307700  1.0  0.1191
  H  H206  1  0.334400  0.700500  0.345100  1.0  0.1119
  H  H207  1  0.549400  0.543000  0.314300  1.0  0.118
  H  H208  1  0.450700  0.548600  0.277200  1.0  0.1172
  H  H209  1  0.666000  0.654600  0.388700  1.0  0.1134
  H  H210  1  0.644800  0.689800  0.429700  1.0  0.1277
  H  H211  1  0.308400  0.670800  0.422000  1.0  0.1115
  H  H212  1  0.329700  0.635300  0.380900  1.0  0.1101
  H  H213  1  0.599300  0.752500  0.507900  1.0  0.081
  H  H214  1  0.622600  0.702100  0.468300  1.0  0.1251
  H  H215  1  0.293700  0.721400  0.459200  1.0  0.1125
  H  H216  1  0.285500  0.775800  0.498400  1.0  0.0779
  H  H217  1  0.863300  0.904600  0.041500  1.0  0.115
  H  H218  1  0.745400  0.012900  0.034400  1.0  0.1194
  H  H219  1  0.570300  0.955700  0.096100  1.0  0.1058
  H  H220  1  0.683000  0.846200  0.102000  1.0  0.1111
  H  H221  1  0.169200  0.053300  0.652600  1.0  0.1086
  H  H222  1  0.109200  0.159200  0.628400  1.0  0.1163
  H  H223  1  0.311000  0.087000  0.572200  1.0  0.1149
  H  H224  1  0.364800  0.976200  0.595600  1.0  0.1273
  H  H225  1  0.599500  0.614700  0.630800  1.0  0.1141
  H  H226  1  0.721100  0.508600  0.625800  1.0  0.1031
  H  H227  1  0.825900  0.532100  0.697000  1.0  0.1119
  H  H228  1  0.699600  0.635100  0.702800  1.0  0.1109
  H  H229  1  0.422700  0.773300  0.733700  1.0  0.0785
  H  H230  1  0.336100  0.779600  0.772500  1.0  0.1239
  H  H231  1  0.164000  0.965800  0.747400  1.0  0.1275
  H  H232  1  0.260400  0.953800  0.710400  1.0  0.0721
  H  H233  1  0.263400  0.795900  0.807700  1.0  0.1177
  H  H234  1  0.165600  0.799500  0.845100  1.0  0.1122
  H  H235  1  0.950600  0.957000  0.814300  1.0  0.1186
  H  H236  1  0.049300  0.951400  0.777200  1.0  0.1173
  H  H237  1  0.834000  0.845400  0.888700  1.0  0.1129
  H  H238  1  0.855200  0.810200  0.929700  1.0  0.1272
  H  H239  1  0.191600  0.829200  0.922000  1.0  0.112
  H  H240  1  0.170300  0.864700  0.880900  1.0  0.1103
  H  H241  1  0.900700  0.747500  0.007900  1.0  0.0811
  H  H242  1  0.877400  0.797900  0.968300  1.0  0.1252
  H  H243  1  0.206300  0.778600  0.959200  1.0  0.1125
  H  H244  1  0.214500  0.724200  0.998400  1.0  0.0783
  H  H245  1  0.636700  0.595400  0.541500  1.0  0.1157
  H  H246  1  0.754600  0.487100  0.534400  1.0  0.1195
  H  H247  1  0.929700  0.544300  0.596100  1.0  0.1056
  H  H248  1  0.817000  0.653800  0.602000  1.0  0.1108
  C  C249  1  0.812300  0.436700  0.857220  1.0  0.6668
  C  C250  1  0.772000  0.503900  0.873450  1.0  -0.1377
  C  C251  1  0.696700  0.559400  0.863760  1.0  -0.0148
  C  C252  1  0.662200  0.623300  0.878010  1.0  -0.0353
  C  C253  1  0.706900  0.634200  0.902080  1.0  -0.1388
  C  C254  1  0.781700  0.579600  0.911620  1.0  -0.0175
  C  C255  1  0.814800  0.513500  0.897650  1.0  -0.0669
  C  C256  1  0.670700  0.704300  0.917500  1.0  0.6776
  C  C257  1  0.059700  0.207500  0.829650  1.0  0.6915
  C  C258  1  0.139800  0.138500  0.833200  1.0  -0.1231
  C  C259  1  0.145400  0.098900  0.855790  1.0  -0.0692
  C  C260  1  0.219100  0.035400  0.858750  1.0  -0.0216
  C  C261  1  0.289600  0.010600  0.839570  1.0  -0.0984
  C  C262  1  0.280800  0.048800  0.816390  1.0  -0.0305
  C  C263  1  0.206100  0.111100  0.813030  1.0  -0.0338
  C  C264  1  0.372800  0.941400  0.843150  1.0  0.6836
  C  C265  1  0.869400  0.313500  0.763710  1.0  0.2064
  C  C266  1  0.815700  0.315700  0.740120  1.0  -0.1944
  C  C267  1  0.733600  0.370800  0.735700  1.0  0.0898
  C  C268  1  0.715900  0.424300  0.754670  1.0  -0.209
  C  C269  1  0.775800  0.416500  0.776970  1.0  0.1893
  C  C270  1  0.667700  0.373900  0.711850  1.0  0.0279
  C  C271  1  0.699800  0.328600  0.691030  1.0  -0.1027
  C  C272  1  0.641000  0.330300  0.668470  1.0  -0.1969
  C  C273  1  0.545600  0.377600  0.666080  1.0  0.2714
  C  C274  1  0.513600  0.423700  0.686900  1.0  -0.1579
  C  C275  1  0.573600  0.420700  0.709170  1.0  -0.1248
  C  C276  1  0.500000  0.360200  0.619610  1.0  0.2623
  C  C277  1  0.406500  0.342300  0.604470  1.0  -0.1865
  C  C278  1  0.419200  0.320600  0.580000  1.0  -0.1102
  C  C279  1  0.527100  0.313500  0.568970  1.0  0.0595
  C  C280  1  0.618800  0.332000  0.584680  1.0  -0.1101
  C  C281  1  0.606600  0.354000  0.609280  1.0  -0.2166
  C  C282  1  0.464800  0.253000  0.502240  1.0  0.1817
  C  C283  1  0.449000  0.281600  0.526380  1.0  -0.2055
  C  C284  1  0.540500  0.286100  0.542630  1.0  0.0931
  C  C285  1  0.639400  0.270000  0.531930  1.0  -0.2014
  C  C286  1  0.643600  0.240300  0.507360  1.0  0.2011
  C  C287  1  0.138500  0.206600  0.923660  1.0  0.6869
  C  C288  1  0.215100  0.135300  0.927350  1.0  -0.1191
  C  C289  1  0.196600  0.085300  0.947480  1.0  -0.0044
  C  C290  1  0.266100  0.019800  0.951580  1.0  -0.0481
  C  C291  1  0.352700  0.003200  0.934730  1.0  -0.1236
  C  C292  1  0.370500  0.054200  0.915090  1.0  -0.054
  C  C293  1  0.302700  0.119600  0.911510  1.0  -0.0692
  C  C294  1  0.426100  0.932700  0.939310  1.0  0.7119
  C  C295  1  0.687700  0.063300  0.357220  1.0  0.6668
  C  C296  1  0.728000  0.996100  0.373450  1.0  -0.1379
  C  C297  1  0.803300  0.940600  0.363760  1.0  -0.0146
  C  C298  1  0.837800  0.876700  0.378010  1.0  -0.0358
  C  C299  1  0.793100  0.865800  0.402080  1.0  -0.1378
  C  C300  1  0.718300  0.920400  0.411620  1.0  -0.0181
  C  C301  1  0.685200  0.986500  0.397650  1.0  -0.0647
  C  C302  1  0.829300  0.795700  0.417500  1.0  0.6776
  C  C303  1  0.440300  0.292500  0.329650  1.0  0.6899
  C  C304  1  0.360200  0.361500  0.333200  1.0  -0.1241
  C  C305  1  0.354600  0.401100  0.355790  1.0  -0.0705
  C  C306  1  0.280900  0.464600  0.358750  1.0  -0.0212
  C  C307  1  0.210400  0.489400  0.339570  1.0  -0.0969
  C  C308  1  0.219200  0.451200  0.316390  1.0  -0.0315
  C  C309  1  0.293900  0.388900  0.313030  1.0  -0.032
  C  C310  1  0.127200  0.558600  0.343150  1.0  0.6834
  C  C311  1  0.630600  0.186500  0.263710  1.0  0.2048
  C  C312  1  0.684300  0.184300  0.240120  1.0  -0.1964
  C  C313  1  0.766400  0.129200  0.235700  1.0  0.0903
  C  C314  1  0.784100  0.075700  0.254670  1.0  -0.2083
  C  C315  1  0.724200  0.083500  0.276970  1.0  0.1899
  C  C316  1  0.832300  0.126100  0.211850  1.0  0.0265
  C  C317  1  0.800200  0.171400  0.191030  1.0  -0.1003
  C  C318  1  0.859000  0.169700  0.168470  1.0  -0.1955
  C  C319  1  0.954400  0.122400  0.166080  1.0  0.2712
  C  C320  1  0.986400  0.076300  0.186900  1.0  -0.1581
  C  C321  1  0.926400  0.079300  0.209170  1.0  -0.1257
  C  C322  1  0.000000  0.139800  0.119610  1.0  0.2618
  C  C323  1  0.093500  0.157700  0.104470  1.0  -0.1858
  C  C324  1  0.080800  0.179400  0.080000  1.0  -0.1117
  C  C325  1  0.972900  0.186500  0.068970  1.0  0.0603
  C  C326  1  0.881200  0.168000  0.084680  1.0  -0.1086
  C  C327  1  0.893400  0.146000  0.109280  1.0  -0.2157
  C  C328  1  0.035200  0.247000  0.002240  1.0  0.1828
  C  C329  1  0.051000  0.218400  0.026380  1.0  -0.2054
  C  C330  1  0.959500  0.213900  0.042630  1.0  0.0935
  C  C331  1  0.860600  0.230000  0.031930  1.0  -0.2011
  C  C332  1  0.856400  0.259700  0.007360  1.0  0.2011
  C  C333  1  0.361500  0.293400  0.423660  1.0  0.6872
  C  C334  1  0.284900  0.364700  0.427350  1.0  -0.1184
  C  C335  1  0.303400  0.414700  0.447480  1.0  -0.0033
  C  C336  1  0.233900  0.480200  0.451580  1.0  -0.0464
  C  C337  1  0.147300  0.496800  0.434730  1.0  -0.1246
  C  C338  1  0.129500  0.445800  0.415090  1.0  -0.0543
  C  C339  1  0.197300  0.380400  0.411510  1.0  -0.0685
  C  C340  1  0.073900  0.567300  0.439310  1.0  0.7116
  C  C341  1  0.812300  0.563300  0.357220  1.0  0.6665
  C  C342  1  0.772000  0.496100  0.373450  1.0  -0.1375
  C  C343  1  0.696700  0.440600  0.363760  1.0  -0.0147
  C  C344  1  0.662200  0.376700  0.378010  1.0  -0.0361
  C  C345  1  0.706900  0.365800  0.402080  1.0  -0.1382
  C  C346  1  0.781700  0.420400  0.411620  1.0  -0.018
  C  C347  1  0.814800  0.486500  0.397650  1.0  -0.0661
  C  C348  1  0.670700  0.295700  0.417500  1.0  0.6776
  C  C349  1  0.059700  0.792500  0.329650  1.0  0.6912
  C  C350  1  0.139800  0.861500  0.333200  1.0  -0.1236
  C  C351  1  0.145400  0.901100  0.355790  1.0  -0.0687
  C  C352  1  0.219100  0.964600  0.358750  1.0  -0.0214
  C  C353  1  0.289600  0.989400  0.339570  1.0  -0.0983
  C  C354  1  0.280800  0.951200  0.316390  1.0  -0.0311
  C  C355  1  0.206100  0.888900  0.313030  1.0  -0.0326
  C  C356  1  0.372800  0.058600  0.343150  1.0  0.6837
  C  C357  1  0.869400  0.686500  0.263710  1.0  0.2049
  C  C358  1  0.815700  0.684300  0.240120  1.0  -0.1961
  C  C359  1  0.733600  0.629200  0.235700  1.0  0.0903
  C  C360  1  0.715900  0.575700  0.254670  1.0  -0.2082
  C  C361  1  0.775800  0.583500  0.276970  1.0  0.1899
  C  C362  1  0.667700  0.626100  0.211850  1.0  0.0274
  C  C363  1  0.699800  0.671400  0.191030  1.0  -0.1028
  C  C364  1  0.641000  0.669700  0.168470  1.0  -0.1951
  C  C365  1  0.545600  0.622400  0.166080  1.0  0.2718
  C  C366  1  0.513600  0.576300  0.186900  1.0  -0.1577
  C  C367  1  0.573600  0.579300  0.209170  1.0  -0.125
  C  C368  1  0.500000  0.639800  0.119610  1.0  0.2626
  C  C369  1  0.406500  0.657700  0.104470  1.0  -0.1866
  C  C370  1  0.419200  0.679400  0.080000  1.0  -0.1108
  C  C371  1  0.527100  0.686500  0.068970  1.0  0.0593
  C  C372  1  0.618800  0.668000  0.084680  1.0  -0.1101
  C  C373  1  0.606600  0.646000  0.109280  1.0  -0.2164
  C  C374  1  0.464800  0.747000  0.002240  1.0  0.1824
  C  C375  1  0.449000  0.718400  0.026380  1.0  -0.2046
  C  C376  1  0.540500  0.713900  0.042630  1.0  0.0929
  C  C377  1  0.639400  0.730000  0.031930  1.0  -0.2009
  C  C378  1  0.643600  0.759700  0.007360  1.0  0.2012
  C  C379  1  0.138500  0.793400  0.423660  1.0  0.6866
  C  C380  1  0.215100  0.864700  0.427350  1.0  -0.119
  C  C381  1  0.196600  0.914700  0.447480  1.0  -0.0048
  C  C382  1  0.266100  0.980200  0.451580  1.0  -0.0477
  C  C383  1  0.352700  0.996800  0.434730  1.0  -0.1244
  C  C384  1  0.370500  0.945800  0.415090  1.0  -0.0543
  C  C385  1  0.302700  0.880400  0.411510  1.0  -0.0696
  C  C386  1  0.426100  0.067300  0.439310  1.0  0.7123
  C  C387  1  0.687700  0.936700  0.857220  1.0  0.667
  C  C388  1  0.728000  0.003900  0.873450  1.0  -0.1385
  C  C389  1  0.803300  0.059400  0.863760  1.0  -0.0148
  C  C390  1  0.837800  0.123300  0.878010  1.0  -0.0347
  C  C391  1  0.793100  0.134200  0.902080  1.0  -0.1385
  C  C392  1  0.718300  0.079600  0.911620  1.0  -0.0175
  C  C393  1  0.685200  0.013500  0.897650  1.0  -0.0657
  C  C394  1  0.829300  0.204300  0.917500  1.0  0.6774
  C  C395  1  0.440300  0.707500  0.829650  1.0  0.6899
  C  C396  1  0.360200  0.638500  0.833200  1.0  -0.124
  C  C397  1  0.354600  0.598900  0.855790  1.0  -0.0708
  C  C398  1  0.280900  0.535400  0.858750  1.0  -0.0214
  C  C399  1  0.210400  0.510600  0.839570  1.0  -0.0971
  C  C400  1  0.219200  0.548800  0.816390  1.0  -0.0317
  C  C401  1  0.293900  0.611100  0.813030  1.0  -0.0329
  C  C402  1  0.127200  0.441400  0.843150  1.0  0.6828
  C  C403  1  0.630600  0.813500  0.763710  1.0  0.2061
  C  C404  1  0.684300  0.815700  0.740120  1.0  -0.1948
  C  C405  1  0.766400  0.870800  0.735700  1.0  0.0898
  C  C406  1  0.784100  0.924300  0.754670  1.0  -0.2095
  C  C407  1  0.724200  0.916500  0.776970  1.0  0.1893
  C  C408  1  0.832300  0.873900  0.711850  1.0  0.027
  C  C409  1  0.800200  0.828600  0.691030  1.0  -0.0995
  C  C410  1  0.859000  0.830300  0.668470  1.0  -0.1964
  C  C411  1  0.954400  0.877600  0.666080  1.0  0.2709
  C  C412  1  0.986400  0.923700  0.686900  1.0  -0.1581
  C  C413  1  0.926400  0.920700  0.709170  1.0  -0.1256
  C  C414  1  0.000000  0.860200  0.619610  1.0  0.2619
  C  C415  1  0.093500  0.842300  0.604470  1.0  -0.1857
  C  C416  1  0.080800  0.820600  0.580000  1.0  -0.111
  C  C417  1  0.972900  0.813500  0.568970  1.0  0.0605
  C  C418  1  0.881200  0.832000  0.584680  1.0  -0.1092
  C  C419  1  0.893400  0.854000  0.609280  1.0  -0.2161
  C  C420  1  0.035200  0.753000  0.502240  1.0  0.182
  C  C421  1  0.051000  0.781600  0.526380  1.0  -0.2065
  C  C422  1  0.959500  0.786100  0.542630  1.0  0.0934
  C  C423  1  0.860600  0.770000  0.531930  1.0  -0.2017
  C  C424  1  0.856400  0.740300  0.507360  1.0  0.2009
  C  C425  1  0.361500  0.706600  0.923660  1.0  0.6875
  C  C426  1  0.284900  0.635300  0.927350  1.0  -0.1187
  C  C427  1  0.303400  0.585300  0.947480  1.0  -0.0037
  C  C428  1  0.233900  0.519800  0.951580  1.0  -0.047
  C  C429  1  0.147300  0.503200  0.934730  1.0  -0.1235
  C  C430  1  0.129500  0.554200  0.915090  1.0  -0.0545
  C  C431  1  0.197300  0.619600  0.911510  1.0  -0.0685
  C  C432  1  0.073900  0.432700  0.939310  1.0  0.7113
  C  C433  1  0.187700  0.436700  0.642780  1.0  0.6663
  C  C434  1  0.228000  0.503900  0.626550  1.0  -0.1385
  C  C435  1  0.303300  0.559400  0.636240  1.0  -0.0153
  C  C436  1  0.337800  0.623300  0.621990  1.0  -0.0356
  C  C437  1  0.293100  0.634200  0.597920  1.0  -0.1379
  C  C438  1  0.218300  0.579600  0.588380  1.0  -0.0159
  C  C439  1  0.185200  0.513500  0.602350  1.0  -0.0658
  C  C440  1  0.329300  0.704300  0.582500  1.0  0.6776
  C  C441  1  0.940300  0.207500  0.670350  1.0  0.6903
  C  C442  1  0.860200  0.138500  0.666800  1.0  -0.1243
  C  C443  1  0.854600  0.098900  0.644210  1.0  -0.0708
  C  C444  1  0.780900  0.035400  0.641250  1.0  -0.0204
  C  C445  1  0.710400  0.010600  0.660430  1.0  -0.0964
  C  C446  1  0.719200  0.048800  0.683610  1.0  -0.0322
  C  C447  1  0.793900  0.111100  0.686970  1.0  -0.031
  C  C448  1  0.627200  0.941400  0.656850  1.0  0.6828
  C  C449  1  0.130600  0.313500  0.736290  1.0  0.2053
  C  C450  1  0.184300  0.315700  0.759880  1.0  -0.1943
  C  C451  1  0.266400  0.370800  0.764300  1.0  0.0891
  C  C452  1  0.284100  0.424300  0.745330  1.0  -0.2094
  C  C453  1  0.224200  0.416500  0.723030  1.0  0.1888
  C  C454  1  0.332300  0.373900  0.788150  1.0  0.0271
  C  C455  1  0.300200  0.328600  0.808970  1.0  -0.0995
  C  C456  1  0.359000  0.330300  0.831530  1.0  -0.1965
  C  C457  1  0.454400  0.377600  0.833920  1.0  0.2705
  C  C458  1  0.486400  0.423700  0.813100  1.0  -0.1583
  C  C459  1  0.426400  0.420700  0.790830  1.0  -0.1249
  C  C460  1  0.500000  0.360200  0.880390  1.0  0.262
  C  C461  1  0.593500  0.342300  0.895530  1.0  -0.1866
  C  C462  1  0.580800  0.320600  0.920000  1.0  -0.1109
  C  C463  1  0.472900  0.313500  0.931030  1.0  0.0603
  C  C464  1  0.381200  0.332000  0.915320  1.0  -0.1092
  C  C465  1  0.393400  0.354000  0.890720  1.0  -0.2164
  C  C466  1  0.535200  0.253000  0.997760  1.0  0.1828
  C  C467  1  0.551000  0.281600  0.973620  1.0  -0.2065
  C  C468  1  0.459500  0.286100  0.957370  1.0  0.0936
  C  C469  1  0.360600  0.270000  0.968070  1.0  -0.2035
  C  C470  1  0.356400  0.240300  0.992640  1.0  0.1999
  C  C471  1  0.861500  0.206600  0.576340  1.0  0.6877
  C  C472  1  0.784900  0.135300  0.572650  1.0  -0.1184
  C  C473  1  0.803400  0.085300  0.552520  1.0  -0.0047
  C  C474  1  0.733900  0.019800  0.548420  1.0  -0.0459
  C  C475  1  0.647300  0.003200  0.565270  1.0  -0.1249
  C  C476  1  0.629500  0.054200  0.584910  1.0  -0.0537
  C  C477  1  0.697300  0.119600  0.588490  1.0  -0.0686
  C  C478  1  0.573900  0.932700  0.560690  1.0  0.7126
  C  C479  1  0.312300  0.063300  0.142780  1.0  0.6661
  C  C480  1  0.272000  0.996100  0.126550  1.0  -0.1382
  C  C481  1  0.196700  0.940600  0.136240  1.0  -0.0159
  C  C482  1  0.162200  0.876700  0.121990  1.0  -0.0366
  C  C483  1  0.206900  0.865800  0.097920  1.0  -0.1383
  C  C484  1  0.281700  0.920400  0.088380  1.0  -0.0178
  C  C485  1  0.314800  0.986500  0.102350  1.0  -0.0659
  C  C486  1  0.170700  0.795700  0.082500  1.0  0.6781
  C  C487  1  0.559700  0.292500  0.170350  1.0  0.6913
  C  C488  1  0.639800  0.361500  0.166800  1.0  -0.1239
  C  C489  1  0.645400  0.401100  0.144210  1.0  -0.0695
  C  C490  1  0.719100  0.464600  0.141250  1.0  -0.0205
  C  C491  1  0.789600  0.489400  0.160430  1.0  -0.0976
  C  C492  1  0.780800  0.451200  0.183610  1.0  -0.0311
  C  C493  1  0.706100  0.388900  0.186970  1.0  -0.031
  C  C494  1  0.872800  0.558600  0.156850  1.0  0.684
  C  C495  1  0.369400  0.186500  0.236290  1.0  0.2052
  C  C496  1  0.315700  0.184300  0.259880  1.0  -0.1961
  C  C497  1  0.233600  0.129200  0.264300  1.0  0.0895
  C  C498  1  0.215900  0.075700  0.245330  1.0  -0.2082
  C  C499  1  0.275800  0.083500  0.223030  1.0  0.189
  C  C500  1  0.167700  0.126100  0.288150  1.0  0.0279
  C  C501  1  0.199800  0.171400  0.308970  1.0  -0.1023
  C  C502  1  0.141000  0.169700  0.331530  1.0  -0.1953
  C  C503  1  0.045600  0.122400  0.333920  1.0  0.2712
  C  C504  1  0.013600  0.076300  0.313100  1.0  -0.1575
  C  C505  1  0.073600  0.079300  0.290830  1.0  -0.1244
  C  C506  1  0.000000  0.139800  0.380390  1.0  0.2617
  C  C507  1  0.906500  0.157700  0.395530  1.0  -0.1877
  C  C508  1  0.919200  0.179400  0.420000  1.0  -0.111
  C  C509  1  0.027100  0.186500  0.431030  1.0  0.06
  C  C510  1  0.118800  0.168000  0.415320  1.0  -0.1101
  C  C511  1  0.106600  0.146000  0.390720  1.0  -0.2169
  C  C512  1  0.964800  0.247000  0.497760  1.0  0.1824
  C  C513  1  0.949000  0.218400  0.473620  1.0  -0.2046
  C  C514  1  0.040500  0.213900  0.457370  1.0  0.0932
  C  C515  1  0.139400  0.230000  0.468070  1.0  -0.2027
  C  C516  1  0.143600  0.259700  0.492640  1.0  0.2007
  C  C517  1  0.638500  0.293400  0.076340  1.0  0.6868
  C  C518  1  0.715100  0.364700  0.072650  1.0  -0.1193
  C  C519  1  0.696600  0.414700  0.052520  1.0  -0.0047
  C  C520  1  0.766100  0.480200  0.048420  1.0  -0.0455
  C  C521  1  0.852700  0.496800  0.065270  1.0  -0.1238
  C  C522  1  0.870500  0.445800  0.084910  1.0  -0.0536
  C  C523  1  0.802700  0.380400  0.088490  1.0  -0.0696
  C  C524  1  0.926100  0.567300  0.060690  1.0  0.7123
  C  C525  1  0.187700  0.563300  0.142780  1.0  0.6659
  C  C526  1  0.228000  0.496100  0.126550  1.0  -0.1388
  C  C527  1  0.303300  0.440600  0.136240  1.0  -0.0154
  C  C528  1  0.337800  0.376700  0.121990  1.0  -0.0365
  C  C529  1  0.293100  0.365800  0.097920  1.0  -0.1378
  C  C530  1  0.218300  0.420400  0.088380  1.0  -0.0165
  C  C531  1  0.185200  0.486500  0.102350  1.0  -0.0647
  C  C532  1  0.329300  0.295700  0.082500  1.0  0.6776
  C  C533  1  0.940300  0.792500  0.170350  1.0  0.6904
  C  C534  1  0.860200  0.861500  0.166800  1.0  -0.1243
  C  C535  1  0.854600  0.901100  0.144210  1.0  -0.0708
  C  C536  1  0.780900  0.964600  0.141250  1.0  -0.0203
  C  C537  1  0.710400  0.989400  0.160430  1.0  -0.096
  C  C538  1  0.719200  0.951200  0.183610  1.0  -0.0316
  C  C539  1  0.793900  0.888900  0.186970  1.0  -0.0308
  C  C540  1  0.627200  0.058600  0.156850  1.0  0.6836
  C  C541  1  0.130600  0.686500  0.236290  1.0  0.2049
  C  C542  1  0.184300  0.684300  0.259880  1.0  -0.1962
  C  C543  1  0.266400  0.629200  0.264300  1.0  0.0895
  C  C544  1  0.284100  0.575700  0.245330  1.0  -0.2086
  C  C545  1  0.224200  0.583500  0.223030  1.0  0.1887
  C  C546  1  0.332300  0.626100  0.288150  1.0  0.0273
  C  C547  1  0.300200  0.671400  0.308970  1.0  -0.1006
  C  C548  1  0.359000  0.669700  0.331530  1.0  -0.1961
  C  C549  1  0.454400  0.622400  0.333920  1.0  0.2708
  C  C550  1  0.486400  0.576300  0.313100  1.0  -0.1581
  C  C551  1  0.426400  0.579300  0.290830  1.0  -0.1249
  C  C552  1  0.500000  0.639800  0.380390  1.0  0.2616
  C  C553  1  0.593500  0.657700  0.395530  1.0  -0.1866
  C  C554  1  0.580800  0.679400  0.420000  1.0  -0.1117
  C  C555  1  0.472900  0.686500  0.431030  1.0  0.0603
  C  C556  1  0.381200  0.668000  0.415320  1.0  -0.1085
  C  C557  1  0.393400  0.646000  0.390720  1.0  -0.2161
  C  C558  1  0.535200  0.747000  0.497760  1.0  0.1832
  C  C559  1  0.551000  0.718400  0.473620  1.0  -0.2056
  C  C560  1  0.459500  0.713900  0.457370  1.0  0.0937
  C  C561  1  0.360600  0.730000  0.468070  1.0  -0.2029
  C  C562  1  0.356400  0.759700  0.492640  1.0  0.1999
  C  C563  1  0.861500  0.793400  0.076340  1.0  0.6874
  C  C564  1  0.784900  0.864700  0.072650  1.0  -0.1185
  C  C565  1  0.803400  0.914700  0.052520  1.0  -0.0041
  C  C566  1  0.733900  0.980200  0.048420  1.0  -0.0459
  C  C567  1  0.647300  0.996800  0.065270  1.0  -0.1243
  C  C568  1  0.629500  0.945800  0.084910  1.0  -0.0536
  C  C569  1  0.697300  0.880400  0.088490  1.0  -0.0686
  C  C570  1  0.573900  0.067300  0.060690  1.0  0.7123
  C  C571  1  0.312300  0.936700  0.642780  1.0  0.6666
  C  C572  1  0.272000  0.003900  0.626550  1.0  -0.1378
  C  C573  1  0.196700  0.059400  0.636240  1.0  -0.0157
  C  C574  1  0.162200  0.123300  0.621990  1.0  -0.0361
  C  C575  1  0.206900  0.134200  0.597920  1.0  -0.1383
  C  C576  1  0.281700  0.079600  0.588380  1.0  -0.0174
  C  C577  1  0.314800  0.013500  0.602350  1.0  -0.0668
  C  C578  1  0.170700  0.204300  0.582500  1.0  0.6781
  C  C579  1  0.559700  0.707500  0.670350  1.0  0.6916
  C  C580  1  0.639800  0.638500  0.666800  1.0  -0.1235
  C  C581  1  0.645400  0.598900  0.644210  1.0  -0.0696
  C  C582  1  0.719100  0.535400  0.641250  1.0  -0.0206
  C  C583  1  0.789600  0.510600  0.660430  1.0  -0.0978
  C  C584  1  0.780800  0.548800  0.683610  1.0  -0.0311
  C  C585  1  0.706100  0.611100  0.686970  1.0  -0.0309
  C  C586  1  0.872800  0.441400  0.656850  1.0  0.6838
  C  C587  1  0.369400  0.813500  0.736290  1.0  0.206
  C  C588  1  0.315700  0.815700  0.759880  1.0  -0.1939
  C  C589  1  0.233600  0.870800  0.764300  1.0  0.0891
  C  C590  1  0.215900  0.924300  0.745330  1.0  -0.2087
  C  C591  1  0.275800  0.916500  0.723030  1.0  0.189
  C  C592  1  0.167700  0.873900  0.788150  1.0  0.0277
  C  C593  1  0.199800  0.828600  0.808970  1.0  -0.1016
  C  C594  1  0.141000  0.830300  0.831530  1.0  -0.1968
  C  C595  1  0.045600  0.877600  0.833920  1.0  0.2709
  C  C596  1  0.013600  0.923700  0.813100  1.0  -0.1579
  C  C597  1  0.073600  0.920700  0.790830  1.0  -0.1242
  C  C598  1  0.000000  0.860200  0.880390  1.0  0.2619
  C  C599  1  0.906500  0.842300  0.895530  1.0  -0.1877
  C  C600  1  0.919200  0.820600  0.920000  1.0  -0.1103
  C  C601  1  0.027100  0.813500  0.931030  1.0  0.0599
  C  C602  1  0.118800  0.832000  0.915320  1.0  -0.1102
  C  C603  1  0.106600  0.854000  0.890720  1.0  -0.2171
  C  C604  1  0.964800  0.753000  0.997760  1.0  0.1821
  C  C605  1  0.949000  0.781600  0.973620  1.0  -0.2054
  C  C606  1  0.040500  0.786100  0.957370  1.0  0.0934
  C  C607  1  0.139400  0.770000  0.968070  1.0  -0.2032
  C  C608  1  0.143600  0.740300  0.992640  1.0  0.2007
  C  C609  1  0.638500  0.706600  0.576340  1.0  0.6869
  C  C610  1  0.715100  0.635300  0.572650  1.0  -0.1193
  C  C611  1  0.696600  0.585300  0.552520  1.0  -0.0049
  C  C612  1  0.766100  0.519800  0.548420  1.0  -0.0453
  C  C613  1  0.852700  0.503200  0.565270  1.0  -0.1241
  C  C614  1  0.870500  0.554200  0.584910  1.0  -0.0533
  C  C615  1  0.802700  0.619600  0.588490  1.0  -0.0694
  C  C616  1  0.926100  0.432700  0.560690  1.0  0.7123
  N  N617  1  0.851700  0.362200  0.782210  1.0  -0.3179
  N  N618  1  0.563100  0.232600  0.492200  1.0  -0.2382
  N  N619  1  0.476600  0.383600  0.644480  1.0  -0.4515
  N  N620  1  0.648300  0.137800  0.282210  1.0  -0.3186
  N  N621  1  0.936900  0.267400  0.992200  1.0  -0.2364
  N  N622  1  0.023400  0.116400  0.144480  1.0  -0.4519
  N  N623  1  0.851700  0.637800  0.282210  1.0  -0.318
  N  N624  1  0.563100  0.767400  0.992200  1.0  -0.2368
  N  N625  1  0.476600  0.616400  0.144480  1.0  -0.4521
  N  N626  1  0.648300  0.862200  0.782210  1.0  -0.3183
  N  N627  1  0.936900  0.732600  0.492200  1.0  -0.2379
  N  N628  1  0.023400  0.883600  0.644480  1.0  -0.4517
  N  N629  1  0.148300  0.362200  0.717790  1.0  -0.3184
  N  N630  1  0.436900  0.232600  0.007800  1.0  -0.2385
  N  N631  1  0.523400  0.383600  0.855520  1.0  -0.4513
  N  N632  1  0.351700  0.137800  0.217790  1.0  -0.3187
  N  N633  1  0.063100  0.267400  0.507800  1.0  -0.2401
  N  N634  1  0.976600  0.116400  0.355520  1.0  -0.4517
  N  N635  1  0.148300  0.637800  0.217790  1.0  -0.3184
  N  N636  1  0.436900  0.767400  0.507800  1.0  -0.2399
  N  N637  1  0.523400  0.616400  0.355520  1.0  -0.4515
  N  N638  1  0.351700  0.862200  0.717790  1.0  -0.3187
  N  N639  1  0.063100  0.732600  0.007800  1.0  -0.2387
  N  N640  1  0.976600  0.883600  0.855520  1.0  -0.4512
  O  O641  1  0.780500  0.433700  0.834760  1.0  -0.6193
  O  O642  1  0.875400  0.382600  0.866080  1.0  -0.7671
  O  O643  1  0.622100  0.761410  0.906930  1.0  -0.73
  O  O644  1  0.690600  0.704620  0.940700  1.0  -0.593
  O  O645  1  0.017400  0.241220  0.848820  1.0  -0.6788
  O  O646  1  0.035200  0.230200  0.807830  1.0  -0.5946
  O  O647  1  0.366200  0.908060  0.864370  1.0  -0.6064
  O  O648  1  0.440400  0.926760  0.826100  1.0  -0.6409
  O  O649  1  0.484800  0.903760  0.921580  1.0  -0.6877
  O  O650  1  0.430200  0.903300  0.960910  1.0  -0.6112
  O  O651  1  0.077900  0.224000  0.942150  1.0  -0.6185
  O  O652  1  0.142400  0.240510  0.903060  1.0  -0.589
  O  O653  1  0.719500  0.066300  0.334760  1.0  -0.6188
  O  O654  1  0.624600  0.117400  0.366080  1.0  -0.7671
  O  O655  1  0.877900  0.738590  0.406930  1.0  -0.7285
  O  O656  1  0.809400  0.795380  0.440700  1.0  -0.594
  O  O657  1  0.482600  0.258780  0.348820  1.0  -0.6788
  O  O658  1  0.464800  0.269800  0.307830  1.0  -0.5956
  O  O659  1  0.133800  0.591940  0.364370  1.0  -0.6071
  O  O660  1  0.059600  0.573240  0.326100  1.0  -0.6422
  O  O661  1  0.015200  0.596240  0.421580  1.0  -0.6882
  O  O662  1  0.069800  0.596700  0.460910  1.0  -0.6126
  O  O663  1  0.422100  0.276000  0.442150  1.0  -0.6174
  O  O664  1  0.357600  0.259490  0.403060  1.0  -0.5887
  O  O665  1  0.780500  0.566300  0.334760  1.0  -0.6191
  O  O666  1  0.875400  0.617400  0.366080  1.0  -0.7669
  O  O667  1  0.622100  0.238590  0.406930  1.0  -0.7288
  O  O668  1  0.690600  0.295380  0.440700  1.0  -0.5932
  O  O669  1  0.017400  0.758780  0.348820  1.0  -0.6799
  O  O670  1  0.035200  0.769800  0.307830  1.0  -0.5943
  O  O671  1  0.366200  0.091940  0.364370  1.0  -0.6064
  O  O672  1  0.440400  0.073240  0.326100  1.0  -0.6444
  O  O673  1  0.484800  0.096240  0.421580  1.0  -0.6877
  O  O674  1  0.430200  0.096700  0.460910  1.0  -0.6112
  O  O675  1  0.077900  0.776000  0.442150  1.0  -0.6186
  O  O676  1  0.142400  0.759490  0.403060  1.0  -0.5891
  O  O677  1  0.719500  0.933700  0.834760  1.0  -0.619
  O  O678  1  0.624600  0.882600  0.866080  1.0  -0.7675
  O  O679  1  0.877900  0.261410  0.906930  1.0  -0.7294
  O  O680  1  0.809400  0.204620  0.940700  1.0  -0.594
  O  O681  1  0.482600  0.741220  0.848820  1.0  -0.6797
  O  O682  1  0.464800  0.730200  0.807830  1.0  -0.5961
  O  O683  1  0.133800  0.408060  0.864370  1.0  -0.6073
  O  O684  1  0.059600  0.426760  0.826100  1.0  -0.6448
  O  O685  1  0.015200  0.403760  0.921580  1.0  -0.688
  O  O686  1  0.069800  0.403300  0.960910  1.0  -0.6123
  O  O687  1  0.422100  0.724000  0.942150  1.0  -0.6173
  O  O688  1  0.357600  0.740510  0.903060  1.0  -0.5888
  O  O689  1  0.219500  0.433700  0.665240  1.0  -0.6199
  O  O690  1  0.124600  0.382600  0.633920  1.0  -0.7671
  O  O691  1  0.377900  0.761410  0.593070  1.0  -0.7293
  O  O692  1  0.309400  0.704620  0.559300  1.0  -0.5947
  O  O693  1  0.982600  0.241220  0.651180  1.0  -0.6787
  O  O694  1  0.964800  0.230200  0.692170  1.0  -0.5965
  O  O695  1  0.633800  0.908060  0.635630  1.0  -0.6072
  O  O696  1  0.559600  0.926760  0.673900  1.0  -0.644
  O  O697  1  0.515200  0.903760  0.578420  1.0  -0.6879
  O  O698  1  0.569800  0.903300  0.539090  1.0  -0.6108
  O  O699  1  0.922100  0.224000  0.557850  1.0  -0.6183
  O  O700  1  0.857600  0.240510  0.596940  1.0  -0.588
  O  O701  1  0.280500  0.066300  0.165240  1.0  -0.6197
  O  O702  1  0.375400  0.117400  0.133920  1.0  -0.7671
  O  O703  1  0.122100  0.738590  0.093070  1.0  -0.7287
  O  O704  1  0.190600  0.795380  0.059300  1.0  -0.5947
  O  O705  1  0.517400  0.258780  0.151180  1.0  -0.6799
  O  O706  1  0.535200  0.269800  0.192170  1.0  -0.5949
  O  O707  1  0.866200  0.591940  0.135630  1.0  -0.6065
  O  O708  1  0.940400  0.573240  0.173900  1.0  -0.6444
  O  O709  1  0.984800  0.596240  0.078420  1.0  -0.6876
  O  O710  1  0.930200  0.596700  0.039090  1.0  -0.6108
  O  O711  1  0.577900  0.276000  0.057850  1.0  -0.6197
  O  O712  1  0.642400  0.259490  0.096940  1.0  -0.5884
  O  O713  1  0.219500  0.566300  0.165240  1.0  -0.6197
  O  O714  1  0.124600  0.617400  0.133920  1.0  -0.7672
  O  O715  1  0.377900  0.238590  0.093070  1.0  -0.7285
  O  O716  1  0.309400  0.295380  0.059300  1.0  -0.5949
  O  O717  1  0.982600  0.758780  0.151180  1.0  -0.6805
  O  O718  1  0.964800  0.769800  0.192170  1.0  -0.5963
  O  O719  1  0.633800  0.091940  0.135630  1.0  -0.6073
  O  O720  1  0.559600  0.073240  0.173900  1.0  -0.6439
  O  O721  1  0.515200  0.096240  0.078420  1.0  -0.6881
  O  O722  1  0.569800  0.096700  0.039090  1.0  -0.6103
  O  O723  1  0.922100  0.776000  0.057850  1.0  -0.6182
  O  O724  1  0.857600  0.759490  0.096940  1.0  -0.5879
  O  O725  1  0.280500  0.933700  0.665240  1.0  -0.6199
  O  O726  1  0.375400  0.882600  0.633920  1.0  -0.7669
  O  O727  1  0.122100  0.261410  0.593070  1.0  -0.7298
  O  O728  1  0.190600  0.204620  0.559300  1.0  -0.5941
  O  O729  1  0.517400  0.741220  0.651180  1.0  -0.6805
  O  O730  1  0.535200  0.730200  0.692170  1.0  -0.5951
  O  O731  1  0.866200  0.408060  0.635630  1.0  -0.6065
  O  O732  1  0.940400  0.426760  0.673900  1.0  -0.6438
  O  O733  1  0.984800  0.403760  0.578420  1.0  -0.6874
  O  O734  1  0.930200  0.403300  0.539090  1.0  -0.6117
  O  O735  1  0.577900  0.724000  0.557850  1.0  -0.6199
  O  O736  1  0.642400  0.740510  0.596940  1.0  -0.5885
