# generated using pymatgen
data_K2Co4P5H84W30C60(N8O29)3
_symmetry_space_group_name_H-M   'P 1'
_cell_length_a   27.01900000
_cell_length_b   38.42700000
_cell_length_c   38.73800000
_cell_angle_alpha   90.00000000
_cell_angle_beta   90.00000000
_cell_angle_gamma   90.00000000
_symmetry_Int_Tables_number   1
_chemical_formula_structural   K2Co4P5H84W30C60(N8O29)3
_chemical_formula_sum   'K16 Co32 P40 H672 W240 C480 N192 O696'
_cell_volume   40220.08151939
_cell_formula_units_Z   8
loop_
 _symmetry_equiv_pos_site_id
 _symmetry_equiv_pos_as_xyz
  1  'x, y, z'
loop_
 _atom_site_type_symbol
 _atom_site_label
 _atom_site_symmetry_multiplicity
 _atom_site_fract_x
 _atom_site_fract_y
 _atom_site_fract_z
 _atom_site_occupancy
 _atom_site_charge
  K  K1  1  0.758300  0.643930  0.484810  1.0  0.8691
  K  K2  1  0.649700  0.598800  0.482000  1.0  0.9361
  K  K3  1  0.741700  0.856070  0.984810  1.0  0.9177
  K  K4  1  0.850300  0.901200  0.982000  1.0  0.8863
  K  K5  1  0.241700  0.643930  0.015190  1.0  0.916
  K  K6  1  0.350300  0.598800  0.018000  1.0  0.8883
  K  K7  1  0.258300  0.856070  0.515190  1.0  0.8723
  K  K8  1  0.149700  0.901200  0.518000  1.0  0.9336
  K  K9  1  0.241700  0.356070  0.515190  1.0  0.9185
  K  K10  1  0.350300  0.401200  0.518000  1.0  0.8859
  K  K11  1  0.258300  0.143930  0.015190  1.0  0.8696
  K  K12  1  0.149700  0.098800  0.018000  1.0  0.9358
  K  K13  1  0.758300  0.356070  0.984810  1.0  0.8717
  K  K14  1  0.649700  0.401200  0.982000  1.0  0.9338
  K  K15  1  0.741700  0.143930  0.484810  1.0  0.9154
  K  K16  1  0.850300  0.098800  0.482000  1.0  0.8886
  Co  Co17  1  0.458280  0.546280  0.576170  1.0  0.8058
  Co  Co18  1  0.411300  0.762560  0.419290  1.0  0.8801
  Co  Co19  1  0.722810  0.804310  0.306880  1.0  0.8732
  Co  Co20  1  0.921760  0.676440  0.140970  1.0  0.7579
  Co  Co21  1  0.041720  0.953720  0.076170  1.0  0.8047
  Co  Co22  1  0.088700  0.737440  0.919290  1.0  0.8792
  Co  Co23  1  0.777190  0.695690  0.806880  1.0  0.8681
  Co  Co24  1  0.578240  0.823560  0.640970  1.0  0.7585
  Co  Co25  1  0.541720  0.546280  0.923830  1.0  0.8054
  Co  Co26  1  0.588700  0.762560  0.080710  1.0  0.8792
  Co  Co27  1  0.277190  0.804310  0.193120  1.0  0.8725
  Co  Co28  1  0.078240  0.676440  0.359030  1.0  0.7597
  Co  Co29  1  0.958280  0.953720  0.423830  1.0  0.8064
  Co  Co30  1  0.911300  0.737440  0.580710  1.0  0.8781
  Co  Co31  1  0.222810  0.695690  0.693120  1.0  0.8698
  Co  Co32  1  0.421760  0.823560  0.859030  1.0  0.7586
  Co  Co33  1  0.541720  0.453720  0.423830  1.0  0.8049
  Co  Co34  1  0.588700  0.237440  0.580710  1.0  0.8783
  Co  Co35  1  0.277190  0.195690  0.693120  1.0  0.8676
  Co  Co36  1  0.078240  0.323560  0.859030  1.0  0.7592
  Co  Co37  1  0.958280  0.046280  0.923830  1.0  0.8061
  Co  Co38  1  0.911300  0.262560  0.080710  1.0  0.879
  Co  Co39  1  0.222810  0.304310  0.193120  1.0  0.8727
  Co  Co40  1  0.421760  0.176440  0.359030  1.0  0.7585
  Co  Co41  1  0.458280  0.453720  0.076170  1.0  0.8063
  Co  Co42  1  0.411300  0.237440  0.919290  1.0  0.8794
  Co  Co43  1  0.722810  0.195690  0.806880  1.0  0.8699
  Co  Co44  1  0.921760  0.323560  0.640970  1.0  0.7578
  Co  Co45  1  0.041720  0.046280  0.576170  1.0  0.805
  Co  Co46  1  0.088700  0.262560  0.419290  1.0  0.8799
  Co  Co47  1  0.777190  0.304310  0.306880  1.0  0.8734
  Co  Co48  1  0.578240  0.176440  0.140970  1.0  0.7591
  P  P49  1  0.684900  0.644930  0.397200  1.0  1.6812
  P  P50  1  0.759200  0.558780  0.431100  1.0  1.634
  P  P51  1  0.755900  0.558540  0.536400  1.0  1.6515
  P  P52  1  0.680900  0.644420  0.569200  1.0  1.761
  P  P53  1  0.636200  0.698030  0.483000  1.0  1.59
  P  P54  1  0.815100  0.855070  0.897200  1.0  1.6815
  P  P55  1  0.740800  0.941220  0.931100  1.0  1.6349
  P  P56  1  0.744100  0.941460  0.036400  1.0  1.651
  P  P57  1  0.819100  0.855580  0.069200  1.0  1.7608
  P  P58  1  0.863800  0.801970  0.983000  1.0  1.59
  P  P59  1  0.315100  0.644930  0.102800  1.0  1.6816
  P  P60  1  0.240800  0.558780  0.068900  1.0  1.635
  P  P61  1  0.244100  0.558540  0.963600  1.0  1.6525
  P  P62  1  0.319100  0.644420  0.930800  1.0  1.7608
  P  P63  1  0.363800  0.698030  0.017000  1.0  1.5887
  P  P64  1  0.184900  0.855070  0.602800  1.0  1.6815
  P  P65  1  0.259200  0.941220  0.568900  1.0  1.6341
  P  P66  1  0.255900  0.941460  0.463600  1.0  1.6525
  P  P67  1  0.180900  0.855580  0.430800  1.0  1.7611
  P  P68  1  0.136200  0.801970  0.517000  1.0  1.5891
  P  P69  1  0.315100  0.355070  0.602800  1.0  1.6818
  P  P70  1  0.240800  0.441220  0.568900  1.0  1.635
  P  P71  1  0.244100  0.441460  0.463600  1.0  1.6522
  P  P72  1  0.319100  0.355580  0.430800  1.0  1.7609
  P  P73  1  0.363800  0.301970  0.517000  1.0  1.5889
  P  P74  1  0.184900  0.144930  0.102800  1.0  1.6814
  P  P75  1  0.259200  0.058780  0.068900  1.0  1.634
  P  P76  1  0.255900  0.058540  0.963600  1.0  1.653
  P  P77  1  0.180900  0.144420  0.930800  1.0  1.7611
  P  P78  1  0.136200  0.198030  0.017000  1.0  1.5888
  P  P79  1  0.684900  0.355070  0.897200  1.0  1.6813
  P  P80  1  0.759200  0.441220  0.931100  1.0  1.6341
  P  P81  1  0.755900  0.441460  0.036400  1.0  1.6513
  P  P82  1  0.680900  0.355580  0.069200  1.0  1.761
  P  P83  1  0.636200  0.301970  0.983000  1.0  1.5903
  P  P84  1  0.815100  0.144930  0.397200  1.0  1.6814
  P  P85  1  0.740800  0.058780  0.431100  1.0  1.635
  P  P86  1  0.744100  0.058540  0.536400  1.0  1.6512
  P  P87  1  0.819100  0.144420  0.569200  1.0  1.7607
  P  P88  1  0.863800  0.198030  0.483000  1.0  1.5898
  H  H89  1  0.357100  0.550500  0.387300  1.0  0.3014
  H  H90  1  0.330500  0.721800  0.461500  1.0  0.2666
  H  H91  1  0.498500  0.808400  0.445600  1.0  0.2892
  H  H92  1  0.707000  0.729700  0.279000  1.0  0.2877
  H  H93  1  0.869200  0.562700  0.958600  1.0  0.3239
  H  H94  1  0.991000  0.680300  0.079200  1.0  0.2522
  H  H95  1  0.962400  0.741600  0.182500  1.0  0.2947
  H  H96  1  0.805400  0.755800  0.329700  1.0  0.2916
  H  H97  1  0.720900  0.814100  0.385700  1.0  0.3169
  H  H98  1  0.413000  0.562800  0.433900  1.0  0.1304
  H  H99  1  0.398900  0.596100  0.455100  1.0  0.1387
  H  H100  1  0.435400  0.599000  0.423700  1.0  0.1525
  H  H101  1  0.241000  0.644800  0.380500  1.0  0.1503
  H  H102  1  0.255400  0.634000  0.342800  1.0  0.154
  H  H103  1  0.284900  0.663500  0.361700  1.0  0.1494
  H  H104  1  0.257700  0.687900  0.471300  1.0  0.1378
  H  H105  1  0.283900  0.653600  0.483500  1.0  0.123
  H  H106  1  0.253200  0.653900  0.449100  1.0  0.1469
  H  H107  1  0.436400  0.693500  0.371800  1.0  0.1394
  H  H108  1  0.418200  0.654800  0.369900  1.0  0.143
  H  H109  1  0.457700  0.665700  0.397500  1.0  0.1592
  H  H110  1  0.548300  0.879700  0.443900  1.0  0.1305
  H  H111  1  0.577300  0.871200  0.409800  1.0  0.1488
  H  H112  1  0.573300  0.843200  0.439100  1.0  0.137
  H  H113  1  0.407000  0.831500  0.336600  1.0  0.1274
  H  H114  1  0.391200  0.864800  0.357200  1.0  0.1338
  H  H115  1  0.371000  0.828200  0.368100  1.0  0.1183
  H  H116  1  0.441300  0.928900  0.416000  1.0  0.1548
  H  H117  1  0.471000  0.963200  0.408500  1.0  0.1646
  H  H118  1  0.497600  0.931300  0.425600  1.0  0.1506
  H  H119  1  0.516900  0.927000  0.297000  1.0  0.283
  H  H120  1  0.534000  0.839300  0.311500  1.0  0.1442
  H  H121  1  0.521900  0.865000  0.281300  1.0  0.1329
  H  H122  1  0.479200  0.843900  0.299000  1.0  0.131
  H  H123  1  0.518200  0.737900  0.222000  1.0  0.1166
  H  H124  1  0.492200  0.767500  0.200800  1.0  0.1257
  H  H125  1  0.530600  0.777000  0.229600  1.0  0.1106
  H  H126  1  0.520300  0.762600  0.142700  1.0  0.2923
  H  H127  1  0.697500  0.769400  0.160400  1.0  0.1147
  H  H128  1  0.687600  0.748000  0.126700  1.0  0.1165
  H  H129  1  0.693900  0.728800  0.162100  1.0  0.1051
  H  H130  1  0.707400  0.688300  0.224200  1.0  0.1328
  H  H131  1  0.654300  0.686000  0.208100  1.0  0.1449
  H  H132  1  0.662900  0.675400  0.246800  1.0  0.142
  H  H133  1  0.645200  0.837000  0.254400  1.0  0.1493
  H  H134  1  0.593100  0.822500  0.243900  1.0  0.1458
  H  H135  1  0.633000  0.830100  0.215500  1.0  0.144
  H  H136  1  0.019200  0.541500  0.003300  1.0  0.1558
  H  H137  1  0.014300  0.564000  0.036900  1.0  0.1675
  H  H138  1  0.031300  0.581400  0.002300  1.0  0.1519
  H  H139  1  0.843200  0.640300  0.984300  1.0  0.1423
  H  H140  1  0.828900  0.621700  0.018900  1.0  0.1425
  H  H141  1  0.811600  0.606100  0.983500  1.0  0.1367
  H  H142  1  0.886100  0.594200  0.111200  1.0  0.1398
  H  H143  1  0.865500  0.587700  0.074000  1.0  0.1342
  H  H144  1  0.849500  0.621000  0.094500  1.0  0.1498
  H  H145  1  0.021400  0.683000  0.019900  1.0  0.1568
  H  H146  1  0.987600  0.662200  0.994200  1.0  0.1277
  H  H147  1  0.033500  0.644100  0.011100  1.0  0.1474
  H  H148  1  0.815500  0.682600  0.185000  1.0  0.1529
  H  H149  1  0.799000  0.701100  0.219200  1.0  0.1337
  H  H150  1  0.831200  0.667300  0.220900  1.0  0.1533
  H  H151  1  0.970100  0.786300  0.236300  1.0  0.1051
  H  H152  1  0.918600  0.804500  0.240800  1.0  0.1508
  H  H153  1  0.945800  0.805900  0.205100  1.0  0.1478
  H  H154  1  0.747500  0.800400  0.230000  1.0  0.1398
  H  H155  1  0.778000  0.776400  0.205100  1.0  0.1456
  H  H156  1  0.800600  0.811600  0.217900  1.0  0.1457
  H  H157  1  0.909100  0.717100  0.294800  1.0  0.1259
  H  H158  1  0.862900  0.693200  0.301000  1.0  0.1362
  H  H159  1  0.878300  0.720700  0.329000  1.0  0.1331
  H  H160  1  0.870400  0.823500  0.322900  1.0  0.1533
  H  H161  1  0.863400  0.864000  0.322700  1.0  0.1433
  H  H162  1  0.827200  0.840200  0.301600  1.0  0.1485
  H  H163  1  0.735700  0.849800  0.446400  1.0  0.1371
  H  H164  1  0.791700  0.857700  0.453600  1.0  0.1261
  H  H165  1  0.772100  0.819300  0.455400  1.0  0.1471
  H  H166  1  0.918200  0.800100  0.432300  1.0  0.1619
  H  H167  1  0.868800  0.807300  0.452300  1.0  0.151
  H  H168  1  0.919500  0.819700  0.467700  1.0  0.1582
  H  H169  1  0.950000  0.878400  0.453100  1.0  0.3117
  H  H170  1  0.854800  0.947700  0.382500  1.0  0.1528
  H  H171  1  0.819000  0.919100  0.368000  1.0  0.1492
  H  H172  1  0.871000  0.924900  0.350900  1.0  0.1439
  H  H173  1  0.142900  0.949500  0.887300  1.0  0.2995
  H  H174  1  0.169500  0.778200  0.961500  1.0  0.2685
  H  H175  1  0.001500  0.691600  0.945600  1.0  0.2887
  H  H176  1  0.793000  0.770300  0.779000  1.0  0.2867
  H  H177  1  0.630800  0.937300  0.458600  1.0  0.3227
  H  H178  1  0.509000  0.819700  0.579200  1.0  0.2535
  H  H179  1  0.537600  0.758400  0.682500  1.0  0.2943
  H  H180  1  0.694600  0.744200  0.829700  1.0  0.2921
  H  H181  1  0.779100  0.685900  0.885700  1.0  0.3172
  H  H182  1  0.087000  0.937200  0.933900  1.0  0.1327
  H  H183  1  0.101100  0.903900  0.955100  1.0  0.1399
  H  H184  1  0.064600  0.901000  0.923700  1.0  0.153
  H  H185  1  0.259000  0.855200  0.880500  1.0  0.1513
  H  H186  1  0.244600  0.866000  0.842800  1.0  0.1541
  H  H187  1  0.215100  0.836500  0.861700  1.0  0.1488
  H  H188  1  0.242300  0.812100  0.971300  1.0  0.1376
  H  H189  1  0.216100  0.846400  0.983500  1.0  0.123
  H  H190  1  0.246800  0.846100  0.949100  1.0  0.1477
  H  H191  1  0.063600  0.806500  0.871800  1.0  0.138
  H  H192  1  0.081800  0.845200  0.869900  1.0  0.1428
  H  H193  1  0.042300  0.834300  0.897500  1.0  0.158
  H  H194  1  0.951700  0.620300  0.943900  1.0  0.131
  H  H195  1  0.922700  0.628800  0.909800  1.0  0.1477
  H  H196  1  0.926700  0.656800  0.939100  1.0  0.1381
  H  H197  1  0.093000  0.668500  0.836600  1.0  0.1252
  H  H198  1  0.108800  0.635200  0.857200  1.0  0.1334
  H  H199  1  0.129000  0.671800  0.868100  1.0  0.1168
  H  H200  1  0.058700  0.571100  0.916000  1.0  0.1555
  H  H201  1  0.029000  0.536800  0.908500  1.0  0.1636
  H  H202  1  0.002400  0.568700  0.925600  1.0  0.1504
  H  H203  1  0.983100  0.573000  0.797000  1.0  0.2842
  H  H204  1  0.966000  0.660700  0.811500  1.0  0.143
  H  H205  1  0.978100  0.635000  0.781300  1.0  0.1327
  H  H206  1  0.020800  0.656100  0.799000  1.0  0.1333
  H  H207  1  0.981800  0.762100  0.722000  1.0  0.1151
  H  H208  1  0.007800  0.732500  0.700800  1.0  0.1266
  H  H209  1  0.969400  0.723000  0.729600  1.0  0.1108
  H  H210  1  0.979700  0.737400  0.642700  1.0  0.2914
  H  H211  1  0.802500  0.730600  0.660400  1.0  0.1149
  H  H212  1  0.812400  0.752000  0.626700  1.0  0.1177
  H  H213  1  0.806100  0.771200  0.662100  1.0  0.105
  H  H214  1  0.792600  0.811700  0.724200  1.0  0.1328
  H  H215  1  0.845700  0.814000  0.708100  1.0  0.1442
  H  H216  1  0.837100  0.824600  0.746800  1.0  0.1417
  H  H217  1  0.854800  0.663000  0.754400  1.0  0.1486
  H  H218  1  0.906900  0.677500  0.743900  1.0  0.1453
  H  H219  1  0.867000  0.669900  0.715500  1.0  0.1456
  H  H220  1  0.480800  0.958500  0.503300  1.0  0.1576
  H  H221  1  0.485700  0.936000  0.536900  1.0  0.1677
  H  H222  1  0.468700  0.918600  0.502300  1.0  0.1521
  H  H223  1  0.656800  0.859700  0.484300  1.0  0.1418
  H  H224  1  0.671100  0.878300  0.518900  1.0  0.1421
  H  H225  1  0.688400  0.893900  0.483500  1.0  0.1393
  H  H226  1  0.613900  0.905800  0.611200  1.0  0.1399
  H  H227  1  0.634500  0.912300  0.574000  1.0  0.1335
  H  H228  1  0.650500  0.879000  0.594500  1.0  0.1507
  H  H229  1  0.478600  0.817000  0.519900  1.0  0.1561
  H  H230  1  0.512400  0.837800  0.494200  1.0  0.1263
  H  H231  1  0.466500  0.855900  0.511100  1.0  0.1468
  H  H232  1  0.684500  0.817400  0.685000  1.0  0.1507
  H  H233  1  0.701000  0.798900  0.719200  1.0  0.1354
  H  H234  1  0.668800  0.832700  0.720900  1.0  0.1532
  H  H235  1  0.529900  0.713700  0.736300  1.0  0.1093
  H  H236  1  0.581400  0.695500  0.740800  1.0  0.1505
  H  H237  1  0.554200  0.694100  0.705100  1.0  0.147
  H  H238  1  0.752500  0.699600  0.730000  1.0  0.1411
  H  H239  1  0.722000  0.723600  0.705100  1.0  0.1459
  H  H240  1  0.699400  0.688400  0.717900  1.0  0.1462
  H  H241  1  0.590900  0.782900  0.794800  1.0  0.1281
  H  H242  1  0.637100  0.806800  0.801000  1.0  0.1378
  H  H243  1  0.621700  0.779300  0.829000  1.0  0.1353
  H  H244  1  0.629600  0.676500  0.822900  1.0  0.1534
  H  H245  1  0.636600  0.636000  0.822700  1.0  0.1433
  H  H246  1  0.672800  0.659800  0.801600  1.0  0.1492
  H  H247  1  0.764300  0.650200  0.946400  1.0  0.1356
  H  H248  1  0.708300  0.642300  0.953600  1.0  0.1265
  H  H249  1  0.727900  0.680700  0.955400  1.0  0.1462
  H  H250  1  0.581800  0.699900  0.932300  1.0  0.1626
  H  H251  1  0.631200  0.692700  0.952300  1.0  0.1498
  H  H252  1  0.580500  0.680300  0.967700  1.0  0.1577
  H  H253  1  0.550000  0.621600  0.953100  1.0  0.3126
  H  H254  1  0.645200  0.552300  0.882500  1.0  0.1538
  H  H255  1  0.681000  0.580900  0.868000  1.0  0.1494
  H  H256  1  0.629000  0.575100  0.850900  1.0  0.1432
  H  H257  1  0.642900  0.550500  0.112700  1.0  0.3004
  H  H258  1  0.669500  0.721800  0.038500  1.0  0.2666
  H  H259  1  0.501500  0.808400  0.054400  1.0  0.2897
  H  H260  1  0.293000  0.729700  0.221000  1.0  0.2869
  H  H261  1  0.130800  0.562700  0.541400  1.0  0.324
  H  H262  1  0.009000  0.680300  0.420800  1.0  0.2523
  H  H263  1  0.037600  0.741600  0.317500  1.0  0.2948
  H  H264  1  0.194600  0.755800  0.170300  1.0  0.2931
  H  H265  1  0.279100  0.814100  0.114300  1.0  0.3172
  H  H266  1  0.587000  0.562800  0.066100  1.0  0.1301
  H  H267  1  0.601100  0.596100  0.044900  1.0  0.1397
  H  H268  1  0.564600  0.599000  0.076300  1.0  0.1523
  H  H269  1  0.759000  0.644800  0.119500  1.0  0.1509
  H  H270  1  0.744600  0.634000  0.157200  1.0  0.1548
  H  H271  1  0.715100  0.663500  0.138300  1.0  0.1489
  H  H272  1  0.742300  0.687900  0.028700  1.0  0.1376
  H  H273  1  0.716100  0.653600  0.016500  1.0  0.1228
  H  H274  1  0.746800  0.653900  0.050900  1.0  0.1479
  H  H275  1  0.563600  0.693500  0.128200  1.0  0.1401
  H  H276  1  0.581800  0.654800  0.130100  1.0  0.1441
  H  H277  1  0.542300  0.665700  0.102500  1.0  0.1584
  H  H278  1  0.451700  0.879700  0.056100  1.0  0.131
  H  H279  1  0.422700  0.871200  0.090200  1.0  0.148
  H  H280  1  0.426700  0.843200  0.060900  1.0  0.1376
  H  H281  1  0.593000  0.831500  0.163400  1.0  0.1262
  H  H282  1  0.608800  0.864800  0.142800  1.0  0.1335
  H  H283  1  0.629000  0.828200  0.131900  1.0  0.1169
  H  H284  1  0.558700  0.928900  0.084000  1.0  0.1562
  H  H285  1  0.529000  0.963200  0.091500  1.0  0.1643
  H  H286  1  0.502400  0.931300  0.074400  1.0  0.1512
  H  H287  1  0.483100  0.927000  0.203000  1.0  0.2852
  H  H288  1  0.466000  0.839300  0.188500  1.0  0.1444
  H  H289  1  0.478100  0.865000  0.218700  1.0  0.1328
  H  H290  1  0.520800  0.843900  0.201000  1.0  0.1337
  H  H291  1  0.481800  0.737900  0.278000  1.0  0.1167
  H  H292  1  0.507800  0.767500  0.299200  1.0  0.1256
  H  H293  1  0.469400  0.777000  0.270400  1.0  0.1109
  H  H294  1  0.479700  0.762600  0.357300  1.0  0.2914
  H  H295  1  0.302500  0.769400  0.339600  1.0  0.1154
  H  H296  1  0.312400  0.748000  0.373300  1.0  0.1169
  H  H297  1  0.306100  0.728800  0.337900  1.0  0.105
  H  H298  1  0.292600  0.688300  0.275800  1.0  0.1331
  H  H299  1  0.345700  0.686000  0.291900  1.0  0.1447
  H  H300  1  0.337100  0.675400  0.253200  1.0  0.1412
  H  H301  1  0.354800  0.837000  0.245600  1.0  0.1503
  H  H302  1  0.406900  0.822500  0.256100  1.0  0.1449
  H  H303  1  0.367000  0.830100  0.284500  1.0  0.1443
  H  H304  1  0.980800  0.541500  0.496700  1.0  0.1561
  H  H305  1  0.985700  0.564000  0.463100  1.0  0.1665
  H  H306  1  0.968700  0.581400  0.497700  1.0  0.1516
  H  H307  1  0.156800  0.640300  0.515700  1.0  0.1426
  H  H308  1  0.171100  0.621700  0.481100  1.0  0.1423
  H  H309  1  0.188400  0.606100  0.516500  1.0  0.1377
  H  H310  1  0.113900  0.594200  0.388800  1.0  0.1373
  H  H311  1  0.134500  0.587700  0.426000  1.0  0.1317
  H  H312  1  0.150500  0.621000  0.405500  1.0  0.15
  H  H313  1  0.978600  0.683000  0.480100  1.0  0.1564
  H  H314  1  0.012400  0.662200  0.505800  1.0  0.1277
  H  H315  1  0.966500  0.644100  0.488900  1.0  0.1468
  H  H316  1  0.184500  0.682600  0.315000  1.0  0.1544
  H  H317  1  0.201000  0.701100  0.280800  1.0  0.1349
  H  H318  1  0.168800  0.667300  0.279100  1.0  0.1526
  H  H319  1  0.029900  0.786300  0.263700  1.0  0.1085
  H  H320  1  0.081400  0.804500  0.259200  1.0  0.1495
  H  H321  1  0.054200  0.805900  0.294900  1.0  0.147
  H  H322  1  0.252500  0.800400  0.270000  1.0  0.1404
  H  H323  1  0.222000  0.776400  0.294900  1.0  0.1461
  H  H324  1  0.199400  0.811600  0.282100  1.0  0.1459
  H  H325  1  0.090900  0.717100  0.205200  1.0  0.1276
  H  H326  1  0.137100  0.693200  0.199000  1.0  0.1345
  H  H327  1  0.121700  0.720700  0.171000  1.0  0.132
  H  H328  1  0.129600  0.823500  0.177100  1.0  0.1533
  H  H329  1  0.136600  0.864000  0.177300  1.0  0.1428
  H  H330  1  0.172800  0.840200  0.198400  1.0  0.1497
  H  H331  1  0.264300  0.849800  0.053600  1.0  0.1355
  H  H332  1  0.208300  0.857700  0.046400  1.0  0.1264
  H  H333  1  0.227900  0.819300  0.044600  1.0  0.1461
  H  H334  1  0.081800  0.800100  0.067700  1.0  0.1625
  H  H335  1  0.131200  0.807300  0.047700  1.0  0.1501
  H  H336  1  0.080500  0.819700  0.032300  1.0  0.1588
  H  H337  1  0.050000  0.878400  0.046900  1.0  0.3122
  H  H338  1  0.145200  0.947700  0.117500  1.0  0.1534
  H  H339  1  0.181000  0.919100  0.132000  1.0  0.1491
  H  H340  1  0.129000  0.924900  0.149100  1.0  0.1449
  H  H341  1  0.857100  0.949500  0.612700  1.0  0.2991
  H  H342  1  0.830500  0.778200  0.538500  1.0  0.2685
  H  H343  1  0.998500  0.691600  0.554400  1.0  0.2885
  H  H344  1  0.207000  0.770300  0.721000  1.0  0.287
  H  H345  1  0.369200  0.937300  0.041400  1.0  0.3245
  H  H346  1  0.491000  0.819700  0.920800  1.0  0.253
  H  H347  1  0.462400  0.758400  0.817500  1.0  0.2954
  H  H348  1  0.305400  0.744200  0.670300  1.0  0.2927
  H  H349  1  0.220900  0.685900  0.614300  1.0  0.3166
  H  H350  1  0.913000  0.937200  0.566100  1.0  0.1334
  H  H351  1  0.898900  0.903900  0.544900  1.0  0.1405
  H  H352  1  0.935400  0.901000  0.576300  1.0  0.1501
  H  H353  1  0.741000  0.855200  0.619500  1.0  0.1509
  H  H354  1  0.755400  0.866000  0.657200  1.0  0.155
  H  H355  1  0.784900  0.836500  0.638300  1.0  0.1488
  H  H356  1  0.757700  0.812100  0.528700  1.0  0.1377
  H  H357  1  0.783900  0.846400  0.516500  1.0  0.1228
  H  H358  1  0.753200  0.846100  0.550900  1.0  0.1483
  H  H359  1  0.936400  0.806500  0.628200  1.0  0.1387
  H  H360  1  0.918200  0.845200  0.630100  1.0  0.1439
  H  H361  1  0.957700  0.834300  0.602500  1.0  0.1587
  H  H362  1  0.048300  0.620300  0.556100  1.0  0.1299
  H  H363  1  0.077300  0.628800  0.590200  1.0  0.1482
  H  H364  1  0.073300  0.656800  0.560900  1.0  0.1377
  H  H365  1  0.907000  0.668500  0.663400  1.0  0.1269
  H  H366  1  0.891200  0.635200  0.642800  1.0  0.1313
  H  H367  1  0.871000  0.671800  0.631900  1.0  0.1177
  H  H368  1  0.941300  0.571100  0.584000  1.0  0.1546
  H  H369  1  0.971000  0.536800  0.591500  1.0  0.1634
  H  H370  1  0.997600  0.568700  0.574400  1.0  0.1514
  H  H371  1  0.016900  0.573000  0.703000  1.0  0.2836
  H  H372  1  0.034000  0.660700  0.688500  1.0  0.1436
  H  H373  1  0.021900  0.635000  0.718700  1.0  0.1329
  H  H374  1  0.979200  0.656100  0.701000  1.0  0.1322
  H  H375  1  0.018200  0.762100  0.778000  1.0  0.1154
  H  H376  1  0.992200  0.732500  0.799200  1.0  0.1261
  H  H377  1  0.030600  0.723000  0.770400  1.0  0.1115
  H  H378  1  0.020300  0.737400  0.857300  1.0  0.2917
  H  H379  1  0.197500  0.730600  0.839600  1.0  0.1137
  H  H380  1  0.187600  0.752000  0.873300  1.0  0.1173
  H  H381  1  0.193900  0.771200  0.837900  1.0  0.1051
  H  H382  1  0.207400  0.811700  0.775800  1.0  0.133
  H  H383  1  0.154300  0.814000  0.791900  1.0  0.1442
  H  H384  1  0.162900  0.824600  0.753200  1.0  0.1427
  H  H385  1  0.145200  0.663000  0.745600  1.0  0.1473
  H  H386  1  0.093100  0.677500  0.756100  1.0  0.1453
  H  H387  1  0.133000  0.669900  0.784500  1.0  0.1443
  H  H388  1  0.519200  0.958500  0.996700  1.0  0.1579
  H  H389  1  0.514300  0.936000  0.963100  1.0  0.1659
  H  H390  1  0.531300  0.918600  0.997700  1.0  0.1509
  H  H391  1  0.343200  0.859700  0.015700  1.0  0.1423
  H  H392  1  0.328900  0.878300  0.981100  1.0  0.1427
  H  H393  1  0.311600  0.893900  0.016500  1.0  0.1375
  H  H394  1  0.386100  0.905800  0.888800  1.0  0.1386
  H  H395  1  0.365500  0.912300  0.926000  1.0  0.1322
  H  H396  1  0.349500  0.879000  0.905500  1.0  0.1488
  H  H397  1  0.521400  0.817000  0.980100  1.0  0.1594
  H  H398  1  0.487600  0.837800  0.005800  1.0  0.127
  H  H399  1  0.533500  0.855900  0.988900  1.0  0.1472
  H  H400  1  0.315500  0.817400  0.815000  1.0  0.1535
  H  H401  1  0.299000  0.798900  0.780800  1.0  0.1347
  H  H402  1  0.331200  0.832700  0.779100  1.0  0.1543
  H  H403  1  0.470100  0.713700  0.763700  1.0  0.1055
  H  H404  1  0.418600  0.695500  0.759200  1.0  0.1506
  H  H405  1  0.445800  0.694100  0.794900  1.0  0.1471
  H  H406  1  0.247500  0.699600  0.770000  1.0  0.1409
  H  H407  1  0.278000  0.723600  0.794900  1.0  0.1452
  H  H408  1  0.300600  0.688400  0.782100  1.0  0.1467
  H  H409  1  0.409100  0.782900  0.705200  1.0  0.1276
  H  H410  1  0.362900  0.806800  0.699000  1.0  0.1389
  H  H411  1  0.378300  0.779300  0.671000  1.0  0.1323
  H  H412  1  0.370400  0.676500  0.677100  1.0  0.153
  H  H413  1  0.363400  0.636000  0.677300  1.0  0.1432
  H  H414  1  0.327200  0.659800  0.698400  1.0  0.1499
  H  H415  1  0.235700  0.650200  0.553600  1.0  0.1365
  H  H416  1  0.291700  0.642300  0.546400  1.0  0.1261
  H  H417  1  0.272100  0.680700  0.544600  1.0  0.1469
  H  H418  1  0.418200  0.699900  0.567700  1.0  0.163
  H  H419  1  0.368800  0.692700  0.547700  1.0  0.1508
  H  H420  1  0.419500  0.680300  0.532300  1.0  0.159
  H  H421  1  0.450000  0.621600  0.546900  1.0  0.3122
  H  H422  1  0.354800  0.552300  0.617500  1.0  0.1541
  H  H423  1  0.319000  0.580900  0.632000  1.0  0.1502
  H  H424  1  0.371000  0.575100  0.649100  1.0  0.1445
  H  H425  1  0.642900  0.449500  0.612700  1.0  0.2997
  H  H426  1  0.669500  0.278200  0.538500  1.0  0.2688
  H  H427  1  0.501500  0.191600  0.554400  1.0  0.2892
  H  H428  1  0.293000  0.270300  0.721000  1.0  0.2871
  H  H429  1  0.130800  0.437300  0.041400  1.0  0.3237
  H  H430  1  0.009000  0.319700  0.920800  1.0  0.2529
  H  H431  1  0.037600  0.258400  0.817500  1.0  0.2951
  H  H432  1  0.194600  0.244200  0.670300  1.0  0.2932
  H  H433  1  0.279100  0.185900  0.614300  1.0  0.3172
  H  H434  1  0.587000  0.437200  0.566100  1.0  0.1336
  H  H435  1  0.601100  0.403900  0.544900  1.0  0.1407
  H  H436  1  0.564600  0.401000  0.576300  1.0  0.1522
  H  H437  1  0.759000  0.355200  0.619500  1.0  0.151
  H  H438  1  0.744600  0.366000  0.657200  1.0  0.1555
  H  H439  1  0.715100  0.336500  0.638300  1.0  0.1484
  H  H440  1  0.742300  0.312100  0.528700  1.0  0.1375
  H  H441  1  0.716100  0.346400  0.516500  1.0  0.1233
  H  H442  1  0.746800  0.346100  0.550900  1.0  0.1481
  H  H443  1  0.563600  0.306500  0.628200  1.0  0.138
  H  H444  1  0.581800  0.345200  0.630100  1.0  0.1439
  H  H445  1  0.542300  0.334300  0.602500  1.0  0.1581
  H  H446  1  0.451700  0.120300  0.556100  1.0  0.1308
  H  H447  1  0.422700  0.128800  0.590200  1.0  0.1485
  H  H448  1  0.426700  0.156800  0.560900  1.0  0.1385
  H  H449  1  0.593000  0.168500  0.663400  1.0  0.1254
  H  H450  1  0.608800  0.135200  0.642800  1.0  0.1332
  H  H451  1  0.629000  0.171800  0.631900  1.0  0.1165
  H  H452  1  0.558700  0.071100  0.584000  1.0  0.1556
  H  H453  1  0.529000  0.036800  0.591500  1.0  0.1636
  H  H454  1  0.502400  0.068700  0.574400  1.0  0.1511
  H  H455  1  0.483100  0.073000  0.703000  1.0  0.285
  H  H456  1  0.466000  0.160700  0.688500  1.0  0.1436
  H  H457  1  0.478100  0.135000  0.718700  1.0  0.1332
  H  H458  1  0.520800  0.156100  0.701000  1.0  0.1343
  H  H459  1  0.481800  0.262100  0.778000  1.0  0.1156
  H  H460  1  0.507800  0.232500  0.799200  1.0  0.1255
  H  H461  1  0.469400  0.223000  0.770400  1.0  0.1114
  H  H462  1  0.479700  0.237400  0.857300  1.0  0.2908
  H  H463  1  0.302500  0.230600  0.839600  1.0  0.115
  H  H464  1  0.312400  0.252000  0.873300  1.0  0.1169
  H  H465  1  0.306100  0.271200  0.837900  1.0  0.1055
  H  H466  1  0.292600  0.311700  0.775800  1.0  0.1329
  H  H467  1  0.345700  0.314000  0.791900  1.0  0.1444
  H  H468  1  0.337100  0.324600  0.753200  1.0  0.1423
  H  H469  1  0.354800  0.163000  0.745600  1.0  0.1476
  H  H470  1  0.406900  0.177500  0.756100  1.0  0.1447
  H  H471  1  0.367000  0.169900  0.784500  1.0  0.1445
  H  H472  1  0.980800  0.458500  0.996700  1.0  0.1576
  H  H473  1  0.985700  0.436000  0.963100  1.0  0.1658
  H  H474  1  0.968700  0.418600  0.997700  1.0  0.1513
  H  H475  1  0.156800  0.359700  0.015700  1.0  0.1428
  H  H476  1  0.171100  0.378300  0.981100  1.0  0.1423
  H  H477  1  0.188400  0.393900  0.016500  1.0  0.1378
  H  H478  1  0.113900  0.405800  0.888800  1.0  0.1375
  H  H479  1  0.134500  0.412300  0.926000  1.0  0.1323
  H  H480  1  0.150500  0.379000  0.905500  1.0  0.1506
  H  H481  1  0.978600  0.317000  0.980100  1.0  0.1556
  H  H482  1  0.012400  0.337800  0.005800  1.0  0.1281
  H  H483  1  0.966500  0.355900  0.988900  1.0  0.1468
  H  H484  1  0.184500  0.317400  0.815000  1.0  0.1537
  H  H485  1  0.201000  0.298900  0.780800  1.0  0.1355
  H  H486  1  0.168800  0.332700  0.779100  1.0  0.1541
  H  H487  1  0.029900  0.213700  0.763700  1.0  0.1091
  H  H488  1  0.081400  0.195500  0.759200  1.0  0.1496
  H  H489  1  0.054200  0.194100  0.794900  1.0  0.1471
  H  H490  1  0.252500  0.199600  0.770000  1.0  0.1412
  H  H491  1  0.222000  0.223600  0.794900  1.0  0.1455
  H  H492  1  0.199400  0.188400  0.782100  1.0  0.1469
  H  H493  1  0.090900  0.282900  0.705200  1.0  0.127
  H  H494  1  0.137100  0.306800  0.699000  1.0  0.1383
  H  H495  1  0.121700  0.279300  0.671000  1.0  0.1319
  H  H496  1  0.129600  0.176500  0.677100  1.0  0.1531
  H  H497  1  0.136600  0.136000  0.677300  1.0  0.1435
  H  H498  1  0.172800  0.159800  0.698400  1.0  0.15
  H  H499  1  0.264300  0.150200  0.553600  1.0  0.1357
  H  H500  1  0.208300  0.142300  0.546400  1.0  0.126
  H  H501  1  0.227900  0.180700  0.544600  1.0  0.1467
  H  H502  1  0.081800  0.199900  0.567700  1.0  0.1627
  H  H503  1  0.131200  0.192700  0.547700  1.0  0.1499
  H  H504  1  0.080500  0.180300  0.532300  1.0  0.1584
  H  H505  1  0.050000  0.121600  0.546900  1.0  0.3126
  H  H506  1  0.145200  0.052300  0.617500  1.0  0.1542
  H  H507  1  0.181000  0.080900  0.632000  1.0  0.1491
  H  H508  1  0.129000  0.075100  0.649100  1.0  0.1448
  H  H509  1  0.857100  0.050500  0.112700  1.0  0.3003
  H  H510  1  0.830500  0.221800  0.038500  1.0  0.2665
  H  H511  1  0.998500  0.308400  0.054400  1.0  0.2892
  H  H512  1  0.207000  0.229700  0.221000  1.0  0.2873
  H  H513  1  0.369200  0.062700  0.541400  1.0  0.3247
  H  H514  1  0.491000  0.180300  0.420800  1.0  0.2517
  H  H515  1  0.462400  0.241600  0.317500  1.0  0.2959
  H  H516  1  0.305400  0.255800  0.170300  1.0  0.2926
  H  H517  1  0.220900  0.314100  0.114300  1.0  0.3171
  H  H518  1  0.913000  0.062800  0.066100  1.0  0.1314
  H  H519  1  0.898900  0.096100  0.044900  1.0  0.1395
  H  H520  1  0.935400  0.099000  0.076300  1.0  0.1518
  H  H521  1  0.741000  0.144800  0.119500  1.0  0.1504
  H  H522  1  0.755400  0.134000  0.157200  1.0  0.1547
  H  H523  1  0.784900  0.163500  0.138300  1.0  0.1492
  H  H524  1  0.757700  0.187900  0.028700  1.0  0.138
  H  H525  1  0.783900  0.153600  0.016500  1.0  0.1224
  H  H526  1  0.753200  0.153900  0.050900  1.0  0.1481
  H  H527  1  0.936400  0.193500  0.128200  1.0  0.1391
  H  H528  1  0.918200  0.154800  0.130100  1.0  0.1439
  H  H529  1  0.957700  0.165700  0.102500  1.0  0.1588
  H  H530  1  0.048300  0.379700  0.056100  1.0  0.1303
  H  H531  1  0.077300  0.371200  0.090200  1.0  0.148
  H  H532  1  0.073300  0.343200  0.060900  1.0  0.1372
  H  H533  1  0.907000  0.331500  0.163400  1.0  0.1278
  H  H534  1  0.891200  0.364800  0.142800  1.0  0.1337
  H  H535  1  0.871000  0.328200  0.131900  1.0  0.1179
  H  H536  1  0.941300  0.428900  0.084000  1.0  0.155
  H  H537  1  0.971000  0.463200  0.091500  1.0  0.1643
  H  H538  1  0.997600  0.431300  0.074400  1.0  0.151
  H  H539  1  0.016900  0.427000  0.203000  1.0  0.2838
  H  H540  1  0.034000  0.339300  0.188500  1.0  0.1441
  H  H541  1  0.021900  0.365000  0.218700  1.0  0.1327
  H  H542  1  0.979200  0.343900  0.201000  1.0  0.1318
  H  H543  1  0.018200  0.237900  0.278000  1.0  0.1158
  H  H544  1  0.992200  0.267500  0.299200  1.0  0.1259
  H  H545  1  0.030600  0.277000  0.270400  1.0  0.1109
  H  H546  1  0.020300  0.262600  0.357300  1.0  0.2915
  H  H547  1  0.197500  0.269400  0.339600  1.0  0.1143
  H  H548  1  0.187600  0.248000  0.373300  1.0  0.117
  H  H549  1  0.193900  0.228800  0.337900  1.0  0.1051
  H  H550  1  0.207400  0.188300  0.275800  1.0  0.1329
  H  H551  1  0.154300  0.186000  0.291900  1.0  0.1443
  H  H552  1  0.162900  0.175400  0.253200  1.0  0.1409
  H  H553  1  0.145200  0.337000  0.245600  1.0  0.1499
  H  H554  1  0.093100  0.322500  0.256100  1.0  0.1457
  H  H555  1  0.133000  0.330100  0.284500  1.0  0.1447
  H  H556  1  0.519200  0.041500  0.496700  1.0  0.1564
  H  H557  1  0.514300  0.064000  0.463100  1.0  0.1666
  H  H558  1  0.531300  0.081400  0.497700  1.0  0.1512
  H  H559  1  0.343200  0.140300  0.515700  1.0  0.1429
  H  H560  1  0.328900  0.121700  0.481100  1.0  0.143
  H  H561  1  0.311600  0.106100  0.516500  1.0  0.1376
  H  H562  1  0.386100  0.094200  0.388800  1.0  0.1381
  H  H563  1  0.365500  0.087700  0.426000  1.0  0.1312
  H  H564  1  0.349500  0.121000  0.405500  1.0  0.1482
  H  H565  1  0.521400  0.183000  0.480100  1.0  0.1573
  H  H566  1  0.487600  0.162200  0.505800  1.0  0.1265
  H  H567  1  0.533500  0.144100  0.488900  1.0  0.147
  H  H568  1  0.315500  0.182600  0.315000  1.0  0.1542
  H  H569  1  0.299000  0.201100  0.280800  1.0  0.1344
  H  H570  1  0.331200  0.167300  0.279100  1.0  0.1528
  H  H571  1  0.470100  0.286300  0.263700  1.0  0.1048
  H  H572  1  0.418600  0.304500  0.259200  1.0  0.1509
  H  H573  1  0.445800  0.305900  0.294900  1.0  0.1474
  H  H574  1  0.247500  0.300400  0.270000  1.0  0.14
  H  H575  1  0.278000  0.276400  0.294900  1.0  0.1458
  H  H576  1  0.300600  0.311600  0.282100  1.0  0.1452
  H  H577  1  0.409100  0.217100  0.205200  1.0  0.1269
  H  H578  1  0.362900  0.193200  0.199000  1.0  0.1356
  H  H579  1  0.378300  0.220700  0.171000  1.0  0.1321
  H  H580  1  0.370400  0.323500  0.177100  1.0  0.153
  H  H581  1  0.363400  0.364000  0.177300  1.0  0.142
  H  H582  1  0.327200  0.340200  0.198400  1.0  0.1496
  H  H583  1  0.235700  0.349800  0.053600  1.0  0.1369
  H  H584  1  0.291700  0.357700  0.046400  1.0  0.1262
  H  H585  1  0.272100  0.319300  0.044600  1.0  0.1464
  H  H586  1  0.418200  0.300100  0.067700  1.0  0.1631
  H  H587  1  0.368800  0.307300  0.047700  1.0  0.1513
  H  H588  1  0.419500  0.319700  0.032300  1.0  0.1597
  H  H589  1  0.450000  0.378400  0.046900  1.0  0.3114
  H  H590  1  0.354800  0.447700  0.117500  1.0  0.1531
  H  H591  1  0.319000  0.419100  0.132000  1.0  0.1504
  H  H592  1  0.371000  0.424900  0.149100  1.0  0.1441
  H  H593  1  0.357100  0.449500  0.887300  1.0  0.2993
  H  H594  1  0.330500  0.278200  0.961500  1.0  0.2684
  H  H595  1  0.498500  0.191600  0.945600  1.0  0.2886
  H  H596  1  0.707000  0.270300  0.779000  1.0  0.287
  H  H597  1  0.869200  0.437300  0.458600  1.0  0.3242
  H  H598  1  0.991000  0.319700  0.579200  1.0  0.2528
  H  H599  1  0.962400  0.258400  0.682500  1.0  0.2944
  H  H600  1  0.805400  0.244200  0.829700  1.0  0.2915
  H  H601  1  0.720900  0.185900  0.885700  1.0  0.3165
  H  H602  1  0.413000  0.437200  0.933900  1.0  0.1318
  H  H603  1  0.398900  0.403900  0.955100  1.0  0.1393
  H  H604  1  0.435400  0.401000  0.923700  1.0  0.1507
  H  H605  1  0.241000  0.355200  0.880500  1.0  0.1508
  H  H606  1  0.255400  0.366000  0.842800  1.0  0.1534
  H  H607  1  0.284900  0.336500  0.861700  1.0  0.1491
  H  H608  1  0.257700  0.312100  0.971300  1.0  0.1377
  H  H609  1  0.283900  0.346400  0.983500  1.0  0.1228
  H  H610  1  0.253200  0.346100  0.949100  1.0  0.1481
  H  H611  1  0.436400  0.306500  0.871800  1.0  0.1391
  H  H612  1  0.418200  0.345200  0.869900  1.0  0.1435
  H  H613  1  0.457700  0.334300  0.897500  1.0  0.1591
  H  H614  1  0.548300  0.120300  0.943900  1.0  0.1304
  H  H615  1  0.577300  0.128800  0.909800  1.0  0.1487
  H  H616  1  0.573300  0.156800  0.939100  1.0  0.1372
  H  H617  1  0.407000  0.168500  0.836600  1.0  0.1261
  H  H618  1  0.391200  0.135200  0.857200  1.0  0.1314
  H  H619  1  0.371000  0.171800  0.868100  1.0  0.1184
  H  H620  1  0.441300  0.071100  0.916000  1.0  0.154
  H  H621  1  0.471000  0.036800  0.908500  1.0  0.1634
  H  H622  1  0.497600  0.068700  0.925600  1.0  0.1512
  H  H623  1  0.516900  0.073000  0.797000  1.0  0.2832
  H  H624  1  0.534000  0.160700  0.811500  1.0  0.1434
  H  H625  1  0.521900  0.135000  0.781300  1.0  0.1327
  H  H626  1  0.479200  0.156100  0.799000  1.0  0.1314
  H  H627  1  0.518200  0.262100  0.722000  1.0  0.1152
  H  H628  1  0.492200  0.232500  0.700800  1.0  0.1266
  H  H629  1  0.530600  0.223000  0.729600  1.0  0.1111
  H  H630  1  0.520300  0.237400  0.642700  1.0  0.2926
  H  H631  1  0.697500  0.230600  0.660400  1.0  0.1138
  H  H632  1  0.687600  0.252000  0.626700  1.0  0.1166
  H  H633  1  0.693900  0.271200  0.662100  1.0  0.1052
  H  H634  1  0.707400  0.311700  0.724200  1.0  0.1327
  H  H635  1  0.654300  0.314000  0.708100  1.0  0.1443
  H  H636  1  0.662900  0.324600  0.746800  1.0  0.1421
  H  H637  1  0.645200  0.163000  0.754400  1.0  0.1483
  H  H638  1  0.593100  0.177500  0.743900  1.0  0.1455
  H  H639  1  0.633000  0.169900  0.715500  1.0  0.1446
  H  H640  1  0.019200  0.458500  0.503300  1.0  0.1578
  H  H641  1  0.014300  0.436000  0.536900  1.0  0.1669
  H  H642  1  0.031300  0.418600  0.502300  1.0  0.1517
  H  H643  1  0.843200  0.359700  0.484300  1.0  0.1413
  H  H644  1  0.828900  0.378300  0.518900  1.0  0.1422
  H  H645  1  0.811600  0.393900  0.483500  1.0  0.1371
  H  H646  1  0.886100  0.405800  0.611200  1.0  0.1401
  H  H647  1  0.865500  0.412300  0.574000  1.0  0.1342
  H  H648  1  0.849500  0.379000  0.594500  1.0  0.1502
  H  H649  1  0.021400  0.317000  0.519900  1.0  0.1591
  H  H650  1  0.987600  0.337800  0.494200  1.0  0.1277
  H  H651  1  0.033500  0.355900  0.511100  1.0  0.1475
  H  H652  1  0.815500  0.317400  0.685000  1.0  0.1512
  H  H653  1  0.799000  0.298900  0.719200  1.0  0.1339
  H  H654  1  0.831200  0.332700  0.720900  1.0  0.1535
  H  H655  1  0.970100  0.213700  0.736300  1.0  0.1056
  H  H656  1  0.918600  0.195500  0.740800  1.0  0.1509
  H  H657  1  0.945800  0.194100  0.705100  1.0  0.1472
  H  H658  1  0.747500  0.199600  0.730000  1.0  0.1407
  H  H659  1  0.778000  0.223600  0.705100  1.0  0.1452
  H  H660  1  0.800600  0.188400  0.717900  1.0  0.1463
  H  H661  1  0.909100  0.282900  0.794800  1.0  0.1266
  H  H662  1  0.862900  0.306800  0.801000  1.0  0.1384
  H  H663  1  0.878300  0.279300  0.829000  1.0  0.133
  H  H664  1  0.870400  0.176500  0.822900  1.0  0.1534
  H  H665  1  0.863400  0.136000  0.822700  1.0  0.1438
  H  H666  1  0.827200  0.159800  0.801600  1.0  0.1492
  H  H667  1  0.735700  0.150200  0.946400  1.0  0.1365
  H  H668  1  0.791700  0.142300  0.953600  1.0  0.1267
  H  H669  1  0.772100  0.180700  0.955400  1.0  0.1463
  H  H670  1  0.918200  0.199900  0.932300  1.0  0.1626
  H  H671  1  0.868800  0.192700  0.952300  1.0  0.1502
  H  H672  1  0.919500  0.180300  0.967700  1.0  0.1575
  H  H673  1  0.950000  0.121600  0.953100  1.0  0.3128
  H  H674  1  0.854800  0.052300  0.882500  1.0  0.1537
  H  H675  1  0.819000  0.080900  0.868000  1.0  0.1495
  H  H676  1  0.871000  0.075100  0.850900  1.0  0.1443
  H  H677  1  0.142900  0.050500  0.387300  1.0  0.3009
  H  H678  1  0.169500  0.221800  0.461500  1.0  0.2666
  H  H679  1  0.001500  0.308400  0.445600  1.0  0.2894
  H  H680  1  0.793000  0.229700  0.279000  1.0  0.287
  H  H681  1  0.630800  0.062700  0.958600  1.0  0.3227
  H  H682  1  0.509000  0.180300  0.079200  1.0  0.2538
  H  H683  1  0.537600  0.241600  0.182500  1.0  0.2946
  H  H684  1  0.694600  0.255800  0.329700  1.0  0.2923
  H  H685  1  0.779100  0.314100  0.385700  1.0  0.3173
  H  H686  1  0.087000  0.062800  0.433900  1.0  0.1301
  H  H687  1  0.101100  0.096100  0.455100  1.0  0.1395
  H  H688  1  0.064600  0.099000  0.423700  1.0  0.1532
  H  H689  1  0.259000  0.144800  0.380500  1.0  0.1514
  H  H690  1  0.244600  0.134000  0.342800  1.0  0.1545
  H  H691  1  0.215100  0.163500  0.361700  1.0  0.1493
  H  H692  1  0.242300  0.187900  0.471300  1.0  0.1375
  H  H693  1  0.216100  0.153600  0.483500  1.0  0.1232
  H  H694  1  0.246800  0.153900  0.449100  1.0  0.1467
  H  H695  1  0.063600  0.193500  0.371800  1.0  0.1402
  H  H696  1  0.081800  0.154800  0.369900  1.0  0.1427
  H  H697  1  0.042300  0.165700  0.397500  1.0  0.1585
  H  H698  1  0.951700  0.379700  0.443900  1.0  0.1313
  H  H699  1  0.922700  0.371200  0.409800  1.0  0.1475
  H  H700  1  0.926700  0.343200  0.439100  1.0  0.1375
  H  H701  1  0.093000  0.331500  0.336600  1.0  0.1264
  H  H702  1  0.108800  0.364800  0.357200  1.0  0.1342
  H  H703  1  0.129000  0.328200  0.368100  1.0  0.1168
  H  H704  1  0.058700  0.428900  0.416000  1.0  0.1562
  H  H705  1  0.029000  0.463200  0.408500  1.0  0.1647
  H  H706  1  0.002400  0.431300  0.425600  1.0  0.1503
  H  H707  1  0.983100  0.427000  0.297000  1.0  0.2846
  H  H708  1  0.966000  0.339300  0.311500  1.0  0.1444
  H  H709  1  0.978100  0.365000  0.281300  1.0  0.1327
  H  H710  1  0.020800  0.343900  0.299000  1.0  0.1328
  H  H711  1  0.981800  0.237900  0.222000  1.0  0.1174
  H  H712  1  0.007800  0.267500  0.200800  1.0  0.1255
  H  H713  1  0.969400  0.277000  0.229600  1.0  0.1104
  H  H714  1  0.979700  0.262600  0.142700  1.0  0.2918
  H  H715  1  0.802500  0.269400  0.160400  1.0  0.1154
  H  H716  1  0.812400  0.248000  0.126700  1.0  0.1175
  H  H717  1  0.806100  0.228800  0.162100  1.0  0.1048
  H  H718  1  0.792600  0.188300  0.224200  1.0  0.1332
  H  H719  1  0.845700  0.186000  0.208100  1.0  0.1449
  H  H720  1  0.837100  0.175400  0.246800  1.0  0.1421
  H  H721  1  0.854800  0.337000  0.254400  1.0  0.1497
  H  H722  1  0.906900  0.322500  0.243900  1.0  0.1451
  H  H723  1  0.867000  0.330100  0.215500  1.0  0.1445
  H  H724  1  0.480800  0.041500  0.003300  1.0  0.1559
  H  H725  1  0.485700  0.064000  0.036900  1.0  0.1681
  H  H726  1  0.468700  0.081400  0.002300  1.0  0.1524
  H  H727  1  0.656800  0.140300  0.984300  1.0  0.1424
  H  H728  1  0.671100  0.121700  0.018900  1.0  0.1424
  H  H729  1  0.688400  0.106100  0.983500  1.0  0.1389
  H  H730  1  0.613900  0.094200  0.111200  1.0  0.1396
  H  H731  1  0.634500  0.087700  0.074000  1.0  0.1338
  H  H732  1  0.650500  0.121000  0.094500  1.0  0.1499
  H  H733  1  0.478600  0.183000  0.019900  1.0  0.1566
  H  H734  1  0.512400  0.162200  0.994200  1.0  0.1263
  H  H735  1  0.466500  0.144100  0.011100  1.0  0.1473
  H  H736  1  0.684500  0.182600  0.185000  1.0  0.1527
  H  H737  1  0.701000  0.201100  0.219200  1.0  0.1348
  H  H738  1  0.668800  0.167300  0.220900  1.0  0.1528
  H  H739  1  0.529900  0.286300  0.236300  1.0  0.1092
  H  H740  1  0.581400  0.304500  0.240800  1.0  0.1498
  H  H741  1  0.554200  0.305900  0.205100  1.0  0.1471
  H  H742  1  0.752500  0.300400  0.230000  1.0  0.1405
  H  H743  1  0.722000  0.276400  0.205100  1.0  0.1462
  H  H744  1  0.699400  0.311600  0.217900  1.0  0.1461
  H  H745  1  0.590900  0.217100  0.294800  1.0  0.1287
  H  H746  1  0.637100  0.193200  0.301000  1.0  0.134
  H  H747  1  0.621700  0.220700  0.329000  1.0  0.1353
  H  H748  1  0.629600  0.323500  0.322900  1.0  0.1534
  H  H749  1  0.636600  0.364000  0.322700  1.0  0.143
  H  H750  1  0.672800  0.340200  0.301600  1.0  0.1487
  H  H751  1  0.764300  0.349800  0.446400  1.0  0.1357
  H  H752  1  0.708300  0.357700  0.453600  1.0  0.1262
  H  H753  1  0.727900  0.319300  0.455400  1.0  0.1468
  H  H754  1  0.581800  0.300100  0.432300  1.0  0.1614
  H  H755  1  0.631200  0.307300  0.452300  1.0  0.1504
  H  H756  1  0.580500  0.319700  0.467700  1.0  0.1582
  H  H757  1  0.550000  0.378400  0.453100  1.0  0.312
  H  H758  1  0.645200  0.447700  0.382500  1.0  0.153
  H  H759  1  0.681000  0.419100  0.368000  1.0  0.1493
  H  H760  1  0.629000  0.424900  0.350900  1.0  0.1428
  W  W761  1  0.824880  0.568100  0.355240  1.0  1.3769
  W  W762  1  0.727230  0.515280  0.357170  1.0  1.4889
  W  W763  1  0.657490  0.595450  0.325780  1.0  1.3519
  W  W764  1  0.754960  0.648610  0.324680  1.0  1.3924
  W  W765  1  0.687850  0.725900  0.361100  1.0  2.2337
  W  W766  1  0.587930  0.676890  0.350110  1.0  1.4275
  W  W767  1  0.576840  0.599410  0.403470  1.0  1.3864
  W  W768  1  0.795230  0.687330  0.406000  1.0  1.4086
  W  W769  1  0.862190  0.608940  0.438270  1.0  1.4199
  W  W770  1  0.645780  0.519820  0.432080  1.0  2.4892
  W  W771  1  0.762160  0.468830  0.439160  1.0  1.4512
  W  W772  1  0.867110  0.514870  0.431600  1.0  1.5089
  W  W773  1  0.866780  0.513740  0.529910  1.0  1.5088
  W  W774  1  0.762100  0.469070  0.537260  1.0  1.449
  W  W775  1  0.646110  0.516800  0.528780  1.0  1.4199
  W  W776  1  0.859880  0.610100  0.534990  1.0  1.3525
  W  W777  1  0.789340  0.689080  0.562740  1.0  2.4081
  W  W778  1  0.577950  0.595650  0.559380  1.0  2.5479
  W  W779  1  0.533940  0.646410  0.483200  1.0  1.3785
  W  W780  1  0.750470  0.737020  0.483310  1.0  1.4294
  W  W781  1  0.643920  0.775220  0.439900  1.0  1.4022
  W  W782  1  0.543360  0.726090  0.429780  1.0  1.9472
  W  W783  1  0.537620  0.730380  0.526620  1.0  1.4476
  W  W784  1  0.646440  0.770930  0.536090  1.0  1.3484
  W  W785  1  0.685490  0.719400  0.614790  1.0  1.3741
  W  W786  1  0.576010  0.679680  0.606330  1.0  1.3979
  W  W787  1  0.644240  0.602380  0.641120  1.0  1.5377
  W  W788  1  0.755330  0.639580  0.641260  1.0  1.3771
  W  W789  1  0.824930  0.559830  0.610390  1.0  1.3614
  W  W790  1  0.714190  0.522320  0.611690  1.0  1.3865
  W  W791  1  0.675120  0.931900  0.855240  1.0  1.38
  W  W792  1  0.772770  0.984720  0.857170  1.0  1.4898
  W  W793  1  0.842510  0.904550  0.825780  1.0  1.3509
  W  W794  1  0.745040  0.851390  0.824680  1.0  1.3949
  W  W795  1  0.812150  0.774100  0.861100  1.0  2.2321
  W  W796  1  0.912070  0.823110  0.850110  1.0  1.4214
  W  W797  1  0.923160  0.900590  0.903470  1.0  1.3926
  W  W798  1  0.704770  0.812670  0.906000  1.0  1.4067
  W  W799  1  0.637810  0.891060  0.938270  1.0  1.4207
  W  W800  1  0.854220  0.980180  0.932080  1.0  2.4881
  W  W801  1  0.737840  0.031170  0.939160  1.0  1.4535
  W  W802  1  0.632890  0.985130  0.931600  1.0  1.5166
  W  W803  1  0.633220  0.986260  0.029910  1.0  1.5103
  W  W804  1  0.737900  0.030930  0.037260  1.0  1.4511
  W  W805  1  0.853890  0.983200  0.028780  1.0  1.4218
  W  W806  1  0.640120  0.889900  0.034990  1.0  1.3519
  W  W807  1  0.710660  0.810920  0.062740  1.0  2.4084
  W  W808  1  0.922050  0.904350  0.059380  1.0  2.5454
  W  W809  1  0.966060  0.853590  0.983200  1.0  1.3787
  W  W810  1  0.749530  0.762980  0.983310  1.0  1.4282
  W  W811  1  0.856080  0.724780  0.939900  1.0  1.3988
  W  W812  1  0.956640  0.773910  0.929780  1.0  1.9471
  W  W813  1  0.962380  0.769620  0.026620  1.0  1.4453
  W  W814  1  0.853560  0.729070  0.036090  1.0  1.3482
  W  W815  1  0.814510  0.780600  0.114790  1.0  1.3721
  W  W816  1  0.923990  0.820320  0.106330  1.0  1.3984
  W  W817  1  0.855760  0.897620  0.141120  1.0  1.5404
  W  W818  1  0.744670  0.860420  0.141260  1.0  1.3777
  W  W819  1  0.675070  0.940170  0.110390  1.0  1.3619
  W  W820  1  0.785810  0.977680  0.111690  1.0  1.3874
  W  W821  1  0.175120  0.568100  0.144760  1.0  1.3802
  W  W822  1  0.272770  0.515280  0.142830  1.0  1.4873
  W  W823  1  0.342510  0.595450  0.174220  1.0  1.347
  W  W824  1  0.245040  0.648610  0.175320  1.0  1.3861
  W  W825  1  0.312150  0.725900  0.138900  1.0  2.2323
  W  W826  1  0.412070  0.676890  0.149890  1.0  1.4252
  W  W827  1  0.423160  0.599410  0.096530  1.0  1.3863
  W  W828  1  0.204770  0.687330  0.094000  1.0  1.4055
  W  W829  1  0.137810  0.608940  0.061730  1.0  1.4184
  W  W830  1  0.354220  0.519820  0.067920  1.0  2.4884
  W  W831  1  0.237840  0.468830  0.060840  1.0  1.4473
  W  W832  1  0.132890  0.514870  0.068400  1.0  1.5166
  W  W833  1  0.133220  0.513740  0.970090  1.0  1.5114
  W  W834  1  0.237900  0.469070  0.962740  1.0  1.4458
  W  W835  1  0.353890  0.516800  0.971220  1.0  1.4181
  W  W836  1  0.140120  0.610100  0.965010  1.0  1.3506
  W  W837  1  0.210660  0.689080  0.937260  1.0  2.4102
  W  W838  1  0.422050  0.595650  0.940620  1.0  2.5469
  W  W839  1  0.466060  0.646410  0.016800  1.0  1.3775
  W  W840  1  0.249530  0.737020  0.016690  1.0  1.4287
  W  W841  1  0.356080  0.775220  0.060100  1.0  1.3995
  W  W842  1  0.456640  0.726090  0.070220  1.0  1.948
  W  W843  1  0.462380  0.730380  0.973380  1.0  1.4498
  W  W844  1  0.353560  0.770930  0.963910  1.0  1.35
  W  W845  1  0.314510  0.719400  0.885210  1.0  1.374
  W  W846  1  0.423990  0.679680  0.893670  1.0  1.3999
  W  W847  1  0.355760  0.602380  0.858880  1.0  1.5395
  W  W848  1  0.244670  0.639580  0.858740  1.0  1.3813
  W  W849  1  0.175070  0.559830  0.889610  1.0  1.3627
  W  W850  1  0.285810  0.522320  0.888310  1.0  1.3867
  W  W851  1  0.324880  0.931900  0.644760  1.0  1.3803
  W  W852  1  0.227230  0.984720  0.642830  1.0  1.4882
  W  W853  1  0.157490  0.904550  0.674220  1.0  1.3464
  W  W854  1  0.254960  0.851390  0.675320  1.0  1.3871
  W  W855  1  0.187850  0.774100  0.638900  1.0  2.2342
  W  W856  1  0.087930  0.823110  0.649890  1.0  1.4238
  W  W857  1  0.076840  0.900590  0.596530  1.0  1.3884
  W  W858  1  0.295230  0.812670  0.594000  1.0  1.407
  W  W859  1  0.362190  0.891060  0.561730  1.0  1.4181
  W  W860  1  0.145780  0.980180  0.567920  1.0  2.4876
  W  W861  1  0.262160  0.031170  0.560840  1.0  1.4519
  W  W862  1  0.367110  0.985130  0.568400  1.0  1.5173
  W  W863  1  0.366780  0.986260  0.470090  1.0  1.5118
  W  W864  1  0.262100  0.030930  0.462740  1.0  1.4496
  W  W865  1  0.146110  0.983200  0.471220  1.0  1.4219
  W  W866  1  0.359880  0.889900  0.465010  1.0  1.3523
  W  W867  1  0.289340  0.810920  0.437260  1.0  2.4082
  W  W868  1  0.077950  0.904350  0.440620  1.0  2.5453
  W  W869  1  0.033940  0.853590  0.516800  1.0  1.3787
  W  W870  1  0.250470  0.762980  0.516690  1.0  1.4295
  W  W871  1  0.143920  0.724780  0.560100  1.0  1.398
  W  W872  1  0.043360  0.773910  0.570220  1.0  1.948
  W  W873  1  0.037620  0.769620  0.473380  1.0  1.4525
  W  W874  1  0.146440  0.729070  0.463910  1.0  1.3454
  W  W875  1  0.185490  0.780600  0.385210  1.0  1.3714
  W  W876  1  0.076010  0.820320  0.393670  1.0  1.4009
  W  W877  1  0.144240  0.897620  0.358880  1.0  1.5426
  W  W878  1  0.255330  0.860420  0.358740  1.0  1.3796
  W  W879  1  0.324930  0.940170  0.389610  1.0  1.3595
  W  W880  1  0.214190  0.977680  0.388310  1.0  1.3916
  W  W881  1  0.175120  0.431900  0.644760  1.0  1.38
  W  W882  1  0.272770  0.484720  0.642830  1.0  1.4896
  W  W883  1  0.342510  0.404550  0.674220  1.0  1.3496
  W  W884  1  0.245040  0.351390  0.675320  1.0  1.387
  W  W885  1  0.312150  0.274100  0.638900  1.0  2.2322
  W  W886  1  0.412070  0.323110  0.649890  1.0  1.4237
  W  W887  1  0.423160  0.400590  0.596530  1.0  1.3904
  W  W888  1  0.204770  0.312670  0.594000  1.0  1.4063
  W  W889  1  0.137810  0.391060  0.561730  1.0  1.42
  W  W890  1  0.354220  0.480180  0.567920  1.0  2.4874
  W  W891  1  0.237840  0.531170  0.560840  1.0  1.4499
  W  W892  1  0.132890  0.485130  0.568400  1.0  1.5181
  W  W893  1  0.133220  0.486260  0.470090  1.0  1.5123
  W  W894  1  0.237900  0.530930  0.462740  1.0  1.4492
  W  W895  1  0.353890  0.483200  0.471220  1.0  1.4225
  W  W896  1  0.140120  0.389900  0.465010  1.0  1.3501
  W  W897  1  0.210660  0.310920  0.437260  1.0  2.4092
  W  W898  1  0.422050  0.404350  0.440620  1.0  2.5452
  W  W899  1  0.466060  0.353590  0.516800  1.0  1.3787
  W  W900  1  0.249530  0.262980  0.516690  1.0  1.4285
  W  W901  1  0.356080  0.224780  0.560100  1.0  1.3982
  W  W902  1  0.456640  0.273910  0.570220  1.0  1.9479
  W  W903  1  0.462380  0.269620  0.473380  1.0  1.4498
  W  W904  1  0.353560  0.229070  0.463910  1.0  1.3468
  W  W905  1  0.314510  0.280600  0.385210  1.0  1.3712
  W  W906  1  0.423990  0.320320  0.393670  1.0  1.4007
  W  W907  1  0.355760  0.397620  0.358880  1.0  1.5398
  W  W908  1  0.244670  0.360420  0.358740  1.0  1.3803
  W  W909  1  0.175070  0.440170  0.389610  1.0  1.3622
  W  W910  1  0.285810  0.477680  0.388310  1.0  1.3901
  W  W911  1  0.324880  0.068100  0.144760  1.0  1.3792
  W  W912  1  0.227230  0.015280  0.142830  1.0  1.4854
  W  W913  1  0.157490  0.095450  0.174220  1.0  1.3444
  W  W914  1  0.254960  0.148610  0.175320  1.0  1.3863
  W  W915  1  0.187850  0.225900  0.138900  1.0  2.2339
  W  W916  1  0.087930  0.176890  0.149890  1.0  1.4249
  W  W917  1  0.076840  0.099410  0.096530  1.0  1.3872
  W  W918  1  0.295230  0.187330  0.094000  1.0  1.4084
  W  W919  1  0.362190  0.108940  0.061730  1.0  1.4181
  W  W920  1  0.145780  0.019820  0.067920  1.0  2.4887
  W  W921  1  0.262160  0.968830  0.060840  1.0  1.4492
  W  W922  1  0.367110  0.014870  0.068400  1.0  1.5153
  W  W923  1  0.366780  0.013740  0.970090  1.0  1.5107
  W  W924  1  0.262100  0.969070  0.962740  1.0  1.4464
  W  W925  1  0.146110  0.016800  0.971220  1.0  1.4208
  W  W926  1  0.359880  0.110100  0.965010  1.0  1.3525
  W  W927  1  0.289340  0.189080  0.937260  1.0  2.409
  W  W928  1  0.077950  0.095650  0.940620  1.0  2.5468
  W  W929  1  0.033940  0.146410  0.016800  1.0  1.3781
  W  W930  1  0.250470  0.237020  0.016690  1.0  1.4295
  W  W931  1  0.143920  0.275220  0.060100  1.0  1.3996
  W  W932  1  0.043360  0.226090  0.070220  1.0  1.948
  W  W933  1  0.037620  0.230380  0.973380  1.0  1.4526
  W  W934  1  0.146440  0.270930  0.963910  1.0  1.3485
  W  W935  1  0.185490  0.219400  0.885210  1.0  1.3747
  W  W936  1  0.076010  0.179680  0.893670  1.0  1.4007
  W  W937  1  0.144240  0.102380  0.858880  1.0  1.5422
  W  W938  1  0.255330  0.139580  0.858740  1.0  1.3809
  W  W939  1  0.324930  0.059830  0.889610  1.0  1.36
  W  W940  1  0.214190  0.022320  0.888310  1.0  1.3876
  W  W941  1  0.824880  0.431900  0.855240  1.0  1.3779
  W  W942  1  0.727230  0.484720  0.857170  1.0  1.4904
  W  W943  1  0.657490  0.404550  0.825780  1.0  1.3506
  W  W944  1  0.754960  0.351390  0.824680  1.0  1.3926
  W  W945  1  0.687850  0.274100  0.861100  1.0  2.234
  W  W946  1  0.587930  0.323110  0.850110  1.0  1.4257
  W  W947  1  0.576840  0.400590  0.903470  1.0  1.3892
  W  W948  1  0.795230  0.312670  0.906000  1.0  1.4072
  W  W949  1  0.862190  0.391060  0.938270  1.0  1.4196
  W  W950  1  0.645780  0.480180  0.932080  1.0  2.4881
  W  W951  1  0.762160  0.531170  0.939160  1.0  1.4546
  W  W952  1  0.867110  0.485130  0.931600  1.0  1.5111
  W  W953  1  0.866780  0.486260  0.029910  1.0  1.5095
  W  W954  1  0.762100  0.530930  0.037260  1.0  1.4515
  W  W955  1  0.646110  0.483200  0.028780  1.0  1.4213
  W  W956  1  0.859880  0.389900  0.034990  1.0  1.3526
  W  W957  1  0.789340  0.310920  0.062740  1.0  2.4076
  W  W958  1  0.577950  0.404350  0.059380  1.0  2.5463
  W  W959  1  0.533940  0.353590  0.983200  1.0  1.3788
  W  W960  1  0.750470  0.262980  0.983310  1.0  1.4293
  W  W961  1  0.643920  0.224780  0.939900  1.0  1.3986
  W  W962  1  0.543360  0.273910  0.929780  1.0  1.9472
  W  W963  1  0.537620  0.269620  0.026620  1.0  1.4473
  W  W964  1  0.646440  0.229070  0.036090  1.0  1.347
  W  W965  1  0.685490  0.280600  0.114790  1.0  1.3724
  W  W966  1  0.576010  0.320320  0.106330  1.0  1.3978
  W  W967  1  0.644240  0.397620  0.141120  1.0  1.5389
  W  W968  1  0.755330  0.360420  0.141260  1.0  1.3766
  W  W969  1  0.824930  0.440170  0.110390  1.0  1.3624
  W  W970  1  0.714190  0.477680  0.111690  1.0  1.3877
  W  W971  1  0.675120  0.068100  0.355240  1.0  1.3803
  W  W972  1  0.772770  0.015280  0.357170  1.0  1.4887
  W  W973  1  0.842510  0.095450  0.325780  1.0  1.3516
  W  W974  1  0.745040  0.148610  0.324680  1.0  1.3945
  W  W975  1  0.812150  0.225900  0.361100  1.0  2.2321
  W  W976  1  0.912070  0.176890  0.350110  1.0  1.4239
  W  W977  1  0.923160  0.099410  0.403470  1.0  1.386
  W  W978  1  0.704770  0.187330  0.406000  1.0  1.4054
  W  W979  1  0.637810  0.108940  0.438270  1.0  1.4195
  W  W980  1  0.854220  0.019820  0.432080  1.0  2.489
  W  W981  1  0.737840  0.968830  0.439160  1.0  1.4502
  W  W982  1  0.632890  0.014870  0.431600  1.0  1.5147
  W  W983  1  0.633220  0.013740  0.529910  1.0  1.5099
  W  W984  1  0.737900  0.969070  0.537260  1.0  1.4484
  W  W985  1  0.853890  0.016800  0.528780  1.0  1.417
  W  W986  1  0.640120  0.110100  0.534990  1.0  1.3523
  W  W987  1  0.710660  0.189080  0.562740  1.0  2.409
  W  W988  1  0.922050  0.095650  0.559380  1.0  2.5472
  W  W989  1  0.966060  0.146410  0.483200  1.0  1.3775
  W  W990  1  0.749530  0.237020  0.483310  1.0  1.4286
  W  W991  1  0.856080  0.275220  0.439900  1.0  1.402
  W  W992  1  0.956640  0.226090  0.429780  1.0  1.9471
  W  W993  1  0.962380  0.230380  0.526620  1.0  1.4455
  W  W994  1  0.853560  0.270930  0.536090  1.0  1.3496
  W  W995  1  0.814510  0.219400  0.614790  1.0  1.3738
  W  W996  1  0.923990  0.179680  0.606330  1.0  1.3975
  W  W997  1  0.855760  0.102380  0.641120  1.0  1.5388
  W  W998  1  0.744670  0.139580  0.641260  1.0  1.3779
  W  W999  1  0.675070  0.059830  0.610390  1.0  1.3602
  W  W1000  1  0.785810  0.022320  0.611690  1.0  1.3861
  C  C1001  1  0.511100  0.848500  0.412000  1.0  0.1524
  C  C1002  1  0.481700  0.858800  0.383400  1.0  0.0592
  C  C1003  1  0.440300  0.836100  0.381500  1.0  0.2165
  C  C1004  1  0.406600  0.587300  0.432500  1.0  -0.3748
  C  C1005  1  0.369200  0.592900  0.411800  1.0  0.2931
  C  C1006  1  0.341600  0.626500  0.404100  1.0  -0.1044
  C  C1007  1  0.305700  0.613400  0.379600  1.0  0.1795
  C  C1008  1  0.268000  0.641700  0.364700  1.0  -0.3984
  C  C1009  1  0.274700  0.667300  0.463800  1.0  -0.3642
  C  C1010  1  0.321100  0.677600  0.443700  1.0  0.186
  C  C1011  1  0.351000  0.659800  0.420400  1.0  0.0395
  C  C1012  1  0.387800  0.681400  0.410500  1.0  0.26
  C  C1013  1  0.428800  0.673100  0.385100  1.0  -0.4014
  C  C1014  1  0.556400  0.861800  0.427500  1.0  -0.356
  C  C1015  1  0.399000  0.840500  0.359000  1.0  -0.3838
  C  C1016  1  0.472800  0.938200  0.409200  1.0  -0.444
  C  C1017  1  0.502500  0.887000  0.330400  1.0  -0.0663
  C  C1018  1  0.488600  0.889200  0.365700  1.0  0.0111
  C  C1019  1  0.486100  0.925000  0.374800  1.0  0.085
  C  C1020  1  0.510000  0.855600  0.302700  1.0  -0.3234
  C  C1021  1  0.522000  0.760500  0.211900  1.0  -0.3315
  C  C1022  1  0.613100  0.754300  0.190200  1.0  -0.0224
  C  C1023  1  0.633300  0.751700  0.156400  1.0  0.3026
  C  C1024  1  0.561300  0.759400  0.187000  1.0  0.1536
  C  C1025  1  0.681300  0.749300  0.151000  1.0  -0.3845
  C  C1026  1  0.672700  0.691100  0.228700  1.0  -0.4033
  C  C1027  1  0.662200  0.728900  0.240100  1.0  0.2225
  C  C1028  1  0.639000  0.751600  0.223500  1.0  0.0948
  C  C1029  1  0.647100  0.785200  0.242200  1.0  0.0512
  C  C1030  1  0.627800  0.822100  0.238700  1.0  -0.3921
  C  C1031  1  0.010300  0.564000  0.012300  1.0  -0.4043
  C  C1032  1  0.958400  0.571500  0.003600  1.0  0.2413
  C  C1033  1  0.928700  0.599200  0.015200  1.0  -0.1127
  C  C1034  1  0.883500  0.597400  0.993400  1.0  0.1787
  C  C1035  1  0.837800  0.618200  0.995200  1.0  -0.3583
  C  C1036  1  0.876200  0.605100  0.090000  1.0  -0.3878
  C  C1037  1  0.915900  0.623300  0.076200  1.0  0.1842
  C  C1038  1  0.937400  0.624900  0.039700  1.0  -0.1281
  C  C1039  1  0.976300  0.649200  0.043600  1.0  0.2195
  C  C1040  1  0.007400  0.660600  0.014700  1.0  -0.4059
  C  C1041  1  0.825100  0.688300  0.208200  1.0  -0.3896
  C  C1042  1  0.869300  0.709000  0.207500  1.0  0.3113
  C  C1043  1  0.876700  0.738800  0.228900  1.0  0.0027
  C  C1044  1  0.913000  0.757800  0.214000  1.0  0.1627
  C  C1045  1  0.939400  0.791900  0.225100  1.0  -0.3845
  C  C1046  1  0.780100  0.792200  0.224200  1.0  -0.3662
  C  C1047  1  0.802200  0.773900  0.254800  1.0  0.2568
  C  C1048  1  0.841000  0.747900  0.254900  1.0  -0.073
  C  C1049  1  0.847900  0.739400  0.289700  1.0  0.2537
  C  C1050  1  0.876500  0.716000  0.304600  1.0  -0.385
  C  C1051  1  0.846600  0.842000  0.322300  1.0  -0.3986
  C  C1052  1  0.813700  0.839300  0.352800  1.0  0.2409
  C  C1053  1  0.822300  0.847100  0.386200  1.0  -0.0027
  C  C1054  1  0.780700  0.836500  0.404400  1.0  0.063
  C  C1055  1  0.768900  0.841300  0.443800  1.0  -0.3822
  C  C1056  1  0.901100  0.816300  0.446800  1.0  -0.3623
  C  C1057  1  0.874500  0.899500  0.395600  1.0  0.1584
  C  C1058  1  0.895700  0.851500  0.427700  1.0  -0.0094
  C  C1059  1  0.863200  0.864000  0.401700  1.0  -0.0026
  C  C1060  1  0.853000  0.925000  0.372300  1.0  -0.3823
  C  C1061  1  0.988900  0.651500  0.912000  1.0  0.1526
  C  C1062  1  0.018300  0.641200  0.883400  1.0  0.0598
  C  C1063  1  0.059700  0.663900  0.881500  1.0  0.2157
  C  C1064  1  0.093400  0.912700  0.932500  1.0  -0.3762
  C  C1065  1  0.130800  0.907100  0.911800  1.0  0.2967
  C  C1066  1  0.158400  0.873500  0.904100  1.0  -0.1033
  C  C1067  1  0.194300  0.886600  0.879600  1.0  0.1786
  C  C1068  1  0.232000  0.858300  0.864700  1.0  -0.3981
  C  C1069  1  0.225300  0.832700  0.963800  1.0  -0.3657
  C  C1070  1  0.178900  0.822400  0.943700  1.0  0.1854
  C  C1071  1  0.149000  0.840200  0.920400  1.0  0.0413
  C  C1072  1  0.112200  0.818600  0.910500  1.0  0.2597
  C  C1073  1  0.071200  0.826900  0.885100  1.0  -0.4005
  C  C1074  1  0.943600  0.638200  0.927500  1.0  -0.3545
  C  C1075  1  0.101000  0.659500  0.859000  1.0  -0.3841
  C  C1076  1  0.027200  0.561800  0.909200  1.0  -0.4436
  C  C1077  1  0.997500  0.613000  0.830400  1.0  -0.068
  C  C1078  1  0.011400  0.610800  0.865700  1.0  0.0108
  C  C1079  1  0.013900  0.575000  0.874800  1.0  0.0868
  C  C1080  1  0.990000  0.644400  0.802700  1.0  -0.3235
  C  C1081  1  0.978000  0.739500  0.711900  1.0  -0.3313
  C  C1082  1  0.886900  0.745700  0.690200  1.0  -0.0216
  C  C1083  1  0.866700  0.748300  0.656400  1.0  0.3017
  C  C1084  1  0.938700  0.740600  0.687000  1.0  0.1531
  C  C1085  1  0.818700  0.750700  0.651000  1.0  -0.3839
  C  C1086  1  0.827300  0.808900  0.728700  1.0  -0.4033
  C  C1087  1  0.837800  0.771100  0.740100  1.0  0.2233
  C  C1088  1  0.861000  0.748400  0.723500  1.0  0.0944
  C  C1089  1  0.852900  0.714800  0.742200  1.0  0.0507
  C  C1090  1  0.872200  0.677900  0.738700  1.0  -0.393
  C  C1091  1  0.489700  0.936000  0.512300  1.0  -0.4038
  C  C1092  1  0.541600  0.928500  0.503600  1.0  0.2413
  C  C1093  1  0.571300  0.900800  0.515200  1.0  -0.1118
  C  C1094  1  0.616500  0.902600  0.493400  1.0  0.1784
  C  C1095  1  0.662200  0.881800  0.495200  1.0  -0.3574
  C  C1096  1  0.623800  0.894900  0.590000  1.0  -0.3881
  C  C1097  1  0.584100  0.876700  0.576200  1.0  0.183
  C  C1098  1  0.562600  0.875100  0.539700  1.0  -0.1266
  C  C1099  1  0.523700  0.850800  0.543600  1.0  0.2193
  C  C1100  1  0.492600  0.839400  0.514700  1.0  -0.4051
  C  C1101  1  0.674900  0.811700  0.708200  1.0  -0.3902
  C  C1102  1  0.630700  0.791000  0.707500  1.0  0.3138
  C  C1103  1  0.623300  0.761200  0.728900  1.0  0.0013
  C  C1104  1  0.587000  0.742200  0.714000  1.0  0.1634
  C  C1105  1  0.560600  0.708100  0.725100  1.0  -0.385
  C  C1106  1  0.719900  0.707800  0.724200  1.0  -0.3671
  C  C1107  1  0.697800  0.726100  0.754800  1.0  0.2571
  C  C1108  1  0.659000  0.752100  0.754900  1.0  -0.0738
  C  C1109  1  0.652100  0.760600  0.789700  1.0  0.2544
  C  C1110  1  0.623500  0.784000  0.804600  1.0  -0.3863
  C  C1111  1  0.653400  0.658000  0.822300  1.0  -0.3968
  C  C1112  1  0.686300  0.660700  0.852800  1.0  0.2411
  C  C1113  1  0.677700  0.652900  0.886200  1.0  -0.0039
  C  C1114  1  0.719300  0.663500  0.904400  1.0  0.0632
  C  C1115  1  0.731100  0.658700  0.943800  1.0  -0.3825
  C  C1116  1  0.598900  0.683700  0.946800  1.0  -0.3606
  C  C1117  1  0.625500  0.600500  0.895600  1.0  0.1589
  C  C1118  1  0.604300  0.648500  0.927700  1.0  -0.0088
  C  C1119  1  0.636800  0.636000  0.901700  1.0  -0.0025
  C  C1120  1  0.647000  0.575000  0.872300  1.0  -0.3824
  C  C1121  1  0.488900  0.848500  0.088000  1.0  0.1527
  C  C1122  1  0.518300  0.858800  0.116600  1.0  0.0599
  C  C1123  1  0.559700  0.836100  0.118500  1.0  0.2166
  C  C1124  1  0.593400  0.587300  0.067500  1.0  -0.3758
  C  C1125  1  0.630800  0.592900  0.088200  1.0  0.2942
  C  C1126  1  0.658400  0.626500  0.095900  1.0  -0.1047
  C  C1127  1  0.694300  0.613400  0.120400  1.0  0.18
  C  C1128  1  0.732000  0.641700  0.135300  1.0  -0.3997
  C  C1129  1  0.725300  0.667300  0.036200  1.0  -0.3653
  C  C1130  1  0.678900  0.677600  0.056300  1.0  0.1859
  C  C1131  1  0.649000  0.659800  0.079600  1.0  0.039
  C  C1132  1  0.612200  0.681400  0.089500  1.0  0.2599
  C  C1133  1  0.571200  0.673100  0.114900  1.0  -0.4018
  C  C1134  1  0.443600  0.861800  0.072500  1.0  -0.3552
  C  C1135  1  0.601000  0.840500  0.141000  1.0  -0.3832
  C  C1136  1  0.527200  0.938200  0.090800  1.0  -0.4482
  C  C1137  1  0.497500  0.887000  0.169600  1.0  -0.0701
  C  C1138  1  0.511400  0.889200  0.134300  1.0  0.0128
  C  C1139  1  0.513900  0.925000  0.125200  1.0  0.0837
  C  C1140  1  0.490000  0.855600  0.197300  1.0  -0.3244
  C  C1141  1  0.478000  0.760500  0.288100  1.0  -0.3305
  C  C1142  1  0.386900  0.754300  0.309800  1.0  -0.0214
  C  C1143  1  0.366700  0.751700  0.343600  1.0  0.3023
  C  C1144  1  0.438700  0.759400  0.313000  1.0  0.1526
  C  C1145  1  0.318700  0.749300  0.349000  1.0  -0.3841
  C  C1146  1  0.327300  0.691100  0.271300  1.0  -0.404
  C  C1147  1  0.337800  0.728900  0.259900  1.0  0.2224
  C  C1148  1  0.361000  0.751600  0.276500  1.0  0.0955
  C  C1149  1  0.352900  0.785200  0.257800  1.0  0.0505
  C  C1150  1  0.372200  0.822100  0.261300  1.0  -0.3904
  C  C1151  1  0.989700  0.564000  0.487700  1.0  -0.4025
  C  C1152  1  0.041600  0.571500  0.496400  1.0  0.2415
  C  C1153  1  0.071300  0.599200  0.484800  1.0  -0.1076
  C  C1154  1  0.116500  0.597400  0.506600  1.0  0.1788
  C  C1155  1  0.162200  0.618200  0.504800  1.0  -0.3592
  C  C1156  1  0.123800  0.605100  0.410000  1.0  -0.3888
  C  C1157  1  0.084100  0.623300  0.423800  1.0  0.1822
  C  C1158  1  0.062600  0.624900  0.460300  1.0  -0.1275
  C  C1159  1  0.023700  0.649200  0.456400  1.0  0.2199
  C  C1160  1  0.992600  0.660600  0.485300  1.0  -0.4047
  C  C1161  1  0.174900  0.688300  0.291800  1.0  -0.3895
  C  C1162  1  0.130700  0.709000  0.292500  1.0  0.3111
  C  C1163  1  0.123300  0.738800  0.271100  1.0  0.0018
  C  C1164  1  0.087000  0.757800  0.286000  1.0  0.1633
  C  C1165  1  0.060600  0.791900  0.274900  1.0  -0.3843
  C  C1166  1  0.219900  0.792200  0.275800  1.0  -0.3673
  C  C1167  1  0.197800  0.773900  0.245200  1.0  0.2567
  C  C1168  1  0.159000  0.747900  0.245100  1.0  -0.0748
  C  C1169  1  0.152100  0.739400  0.210300  1.0  0.2518
  C  C1170  1  0.123500  0.716000  0.195400  1.0  -0.3852
  C  C1171  1  0.153400  0.842000  0.177700  1.0  -0.3975
  C  C1172  1  0.186300  0.839300  0.147200  1.0  0.24
  C  C1173  1  0.177700  0.847100  0.113800  1.0  -0.0037
  C  C1174  1  0.219300  0.836500  0.095600  1.0  0.0637
  C  C1175  1  0.231100  0.841300  0.056200  1.0  -0.3845
  C  C1176  1  0.098900  0.816300  0.053200  1.0  -0.3622
  C  C1177  1  0.125500  0.899500  0.104400  1.0  0.1584
  C  C1178  1  0.104300  0.851500  0.072300  1.0  -0.0091
  C  C1179  1  0.136800  0.864000  0.098300  1.0  -0.0022
  C  C1180  1  0.147000  0.925000  0.127700  1.0  -0.3832
  C  C1181  1  0.011100  0.651500  0.588000  1.0  0.1519
  C  C1182  1  0.981700  0.641200  0.616600  1.0  0.0597
  C  C1183  1  0.940300  0.663900  0.618500  1.0  0.2169
  C  C1184  1  0.906600  0.912700  0.567500  1.0  -0.3769
  C  C1185  1  0.869200  0.907100  0.588200  1.0  0.2963
  C  C1186  1  0.841600  0.873500  0.595900  1.0  -0.1031
  C  C1187  1  0.805700  0.886600  0.620400  1.0  0.1806
  C  C1188  1  0.768000  0.858300  0.635300  1.0  -0.3997
  C  C1189  1  0.774700  0.832700  0.536200  1.0  -0.3641
  C  C1190  1  0.821100  0.822400  0.556300  1.0  0.1866
  C  C1191  1  0.851000  0.840200  0.579600  1.0  0.0418
  C  C1192  1  0.887800  0.818600  0.589500  1.0  0.2605
  C  C1193  1  0.928800  0.826900  0.614900  1.0  -0.401
  C  C1194  1  0.056400  0.638200  0.572500  1.0  -0.3566
  C  C1195  1  0.899000  0.659500  0.641000  1.0  -0.3817
  C  C1196  1  0.972800  0.561800  0.590800  1.0  -0.4471
  C  C1197  1  0.002500  0.613000  0.669600  1.0  -0.0663
  C  C1198  1  0.988600  0.610800  0.634300  1.0  0.0117
  C  C1199  1  0.986100  0.575000  0.625200  1.0  0.0872
  C  C1200  1  0.010000  0.644400  0.697300  1.0  -0.3243
  C  C1201  1  0.022000  0.739500  0.788100  1.0  -0.3307
  C  C1202  1  0.113100  0.745700  0.809800  1.0  -0.0214
  C  C1203  1  0.133300  0.748300  0.843600  1.0  0.3022
  C  C1204  1  0.061300  0.740600  0.813000  1.0  0.1548
  C  C1205  1  0.181300  0.750700  0.849000  1.0  -0.3851
  C  C1206  1  0.172700  0.808900  0.771300  1.0  -0.4021
  C  C1207  1  0.162200  0.771100  0.759900  1.0  0.2233
  C  C1208  1  0.139000  0.748400  0.776500  1.0  0.0949
  C  C1209  1  0.147100  0.714800  0.757800  1.0  0.0501
  C  C1210  1  0.127800  0.677900  0.761300  1.0  -0.3934
  C  C1211  1  0.510300  0.936000  0.987700  1.0  -0.4042
  C  C1212  1  0.458400  0.928500  0.996400  1.0  0.2407
  C  C1213  1  0.428700  0.900800  0.984800  1.0  -0.1061
  C  C1214  1  0.383500  0.902600  0.006600  1.0  0.1786
  C  C1215  1  0.337800  0.881800  0.004800  1.0  -0.3568
  C  C1216  1  0.376200  0.894900  0.910000  1.0  -0.3886
  C  C1217  1  0.415900  0.876700  0.923800  1.0  0.1823
  C  C1218  1  0.437400  0.875100  0.960300  1.0  -0.1285
  C  C1219  1  0.476300  0.850800  0.956400  1.0  0.2203
  C  C1220  1  0.507400  0.839400  0.985300  1.0  -0.4054
  C  C1221  1  0.325100  0.811700  0.791800  1.0  -0.3916
  C  C1222  1  0.369300  0.791000  0.792500  1.0  0.3104
  C  C1223  1  0.376700  0.761200  0.771100  1.0  0.0035
  C  C1224  1  0.413000  0.742200  0.786000  1.0  0.1639
  C  C1225  1  0.439400  0.708100  0.774900  1.0  -0.3862
  C  C1226  1  0.280100  0.707800  0.775800  1.0  -0.3666
  C  C1227  1  0.302200  0.726100  0.745200  1.0  0.2567
  C  C1228  1  0.341000  0.752100  0.745100  1.0  -0.0745
  C  C1229  1  0.347900  0.760600  0.710300  1.0  0.2519
  C  C1230  1  0.376500  0.784000  0.695400  1.0  -0.3847
  C  C1231  1  0.346600  0.658000  0.677700  1.0  -0.3977
  C  C1232  1  0.313700  0.660700  0.647200  1.0  0.2402
  C  C1233  1  0.322300  0.652900  0.613800  1.0  -0.0028
  C  C1234  1  0.280700  0.663500  0.595600  1.0  0.0638
  C  C1235  1  0.268900  0.658700  0.556200  1.0  -0.3842
  C  C1236  1  0.401100  0.683700  0.553200  1.0  -0.3621
  C  C1237  1  0.374500  0.600500  0.604400  1.0  0.1579
  C  C1238  1  0.395700  0.648500  0.572300  1.0  -0.0105
  C  C1239  1  0.363200  0.636000  0.598300  1.0  -0.0024
  C  C1240  1  0.353000  0.575000  0.627700  1.0  -0.3836
  C  C1241  1  0.488900  0.151500  0.588000  1.0  0.1525
  C  C1242  1  0.518300  0.141200  0.616600  1.0  0.0602
  C  C1243  1  0.559700  0.163900  0.618500  1.0  0.2163
  C  C1244  1  0.593400  0.412700  0.567500  1.0  -0.3761
  C  C1245  1  0.630800  0.407100  0.588200  1.0  0.2968
  C  C1246  1  0.658400  0.373500  0.595900  1.0  -0.1036
  C  C1247  1  0.694300  0.386600  0.620400  1.0  0.1795
  C  C1248  1  0.732000  0.358300  0.635300  1.0  -0.3997
  C  C1249  1  0.725300  0.332700  0.536200  1.0  -0.3658
  C  C1250  1  0.678900  0.322400  0.556300  1.0  0.1861
  C  C1251  1  0.649000  0.340200  0.579600  1.0  0.0414
  C  C1252  1  0.612200  0.318600  0.589500  1.0  0.26
  C  C1253  1  0.571200  0.326900  0.614900  1.0  -0.4014
  C  C1254  1  0.443600  0.138200  0.572500  1.0  -0.3552
  C  C1255  1  0.601000  0.159500  0.641000  1.0  -0.3834
  C  C1256  1  0.527200  0.061800  0.590800  1.0  -0.4468
  C  C1257  1  0.497500  0.113000  0.669600  1.0  -0.0689
  C  C1258  1  0.511400  0.110800  0.634300  1.0  0.0119
  C  C1259  1  0.513900  0.075000  0.625200  1.0  0.0875
  C  C1260  1  0.490000  0.144400  0.697300  1.0  -0.3243
  C  C1261  1  0.478000  0.239500  0.788100  1.0  -0.3308
  C  C1262  1  0.386900  0.245700  0.809800  1.0  -0.0206
  C  C1263  1  0.366700  0.248300  0.843600  1.0  0.3018
  C  C1264  1  0.438700  0.240600  0.813000  1.0  0.1536
  C  C1265  1  0.318700  0.250700  0.849000  1.0  -0.3842
  C  C1266  1  0.327300  0.308900  0.771300  1.0  -0.4035
  C  C1267  1  0.337800  0.271100  0.759900  1.0  0.2237
  C  C1268  1  0.361000  0.248400  0.776500  1.0  0.0953
  C  C1269  1  0.352900  0.214800  0.757800  1.0  0.0502
  C  C1270  1  0.372200  0.177900  0.761300  1.0  -0.393
  C  C1271  1  0.989700  0.436000  0.987700  1.0  -0.4025
  C  C1272  1  0.041600  0.428500  0.996400  1.0  0.2415
  C  C1273  1  0.071300  0.400800  0.984800  1.0  -0.106
  C  C1274  1  0.116500  0.402600  0.006600  1.0  0.1786
  C  C1275  1  0.162200  0.381800  0.004800  1.0  -0.3593
  C  C1276  1  0.123800  0.394900  0.910000  1.0  -0.3887
  C  C1277  1  0.084100  0.376700  0.923800  1.0  0.1823
  C  C1278  1  0.062600  0.375100  0.960300  1.0  -0.1275
  C  C1279  1  0.023700  0.350800  0.956400  1.0  0.2201
  C  C1280  1  0.992600  0.339400  0.985300  1.0  -0.4047
  C  C1281  1  0.174900  0.311700  0.791800  1.0  -0.3901
  C  C1282  1  0.130700  0.291000  0.792500  1.0  0.3113
  C  C1283  1  0.123300  0.261200  0.771100  1.0  0.0022
  C  C1284  1  0.087000  0.242200  0.786000  1.0  0.1635
  C  C1285  1  0.060600  0.208100  0.774900  1.0  -0.3855
  C  C1286  1  0.219900  0.207800  0.775800  1.0  -0.3673
  C  C1287  1  0.197800  0.226100  0.745200  1.0  0.2567
  C  C1288  1  0.159000  0.252100  0.745100  1.0  -0.075
  C  C1289  1  0.152100  0.260600  0.710300  1.0  0.2522
  C  C1290  1  0.123500  0.284000  0.695400  1.0  -0.3847
  C  C1291  1  0.153400  0.158000  0.677700  1.0  -0.3977
  C  C1292  1  0.186300  0.160700  0.647200  1.0  0.2401
  C  C1293  1  0.177700  0.152900  0.613800  1.0  -0.0037
  C  C1294  1  0.219300  0.163500  0.595600  1.0  0.0639
  C  C1295  1  0.231100  0.158700  0.556200  1.0  -0.3845
  C  C1296  1  0.098900  0.183700  0.553200  1.0  -0.3616
  C  C1297  1  0.125500  0.100500  0.604400  1.0  0.1584
  C  C1298  1  0.104300  0.148500  0.572300  1.0  -0.0095
  C  C1299  1  0.136800  0.136000  0.598300  1.0  -0.0022
  C  C1300  1  0.147000  0.075000  0.627700  1.0  -0.3831
  C  C1301  1  0.011100  0.348500  0.088000  1.0  0.1518
  C  C1302  1  0.981700  0.358800  0.116600  1.0  0.0593
  C  C1303  1  0.940300  0.336100  0.118500  1.0  0.2171
  C  C1304  1  0.906600  0.087300  0.067500  1.0  -0.3757
  C  C1305  1  0.869200  0.092900  0.088200  1.0  0.2928
  C  C1306  1  0.841600  0.126500  0.095900  1.0  -0.1044
  C  C1307  1  0.805700  0.113400  0.120400  1.0  0.1809
  C  C1308  1  0.768000  0.141700  0.135300  1.0  -0.3995
  C  C1309  1  0.774700  0.167300  0.036200  1.0  -0.3643
  C  C1310  1  0.821100  0.177600  0.056300  1.0  0.1861
  C  C1311  1  0.851000  0.159800  0.079600  1.0  0.0393
  C  C1312  1  0.887800  0.181400  0.089500  1.0  0.2605
  C  C1313  1  0.928800  0.173100  0.114900  1.0  -0.4013
  C  C1314  1  0.056400  0.361800  0.072500  1.0  -0.3565
  C  C1315  1  0.899000  0.340500  0.141000  1.0  -0.3836
  C  C1316  1  0.972800  0.438200  0.090800  1.0  -0.4486
  C  C1317  1  0.002500  0.387000  0.169600  1.0  -0.0677
  C  C1318  1  0.988600  0.389200  0.134300  1.0  0.0126
  C  C1319  1  0.986100  0.425000  0.125200  1.0  0.0847
  C  C1320  1  0.010000  0.355600  0.197300  1.0  -0.324
  C  C1321  1  0.022000  0.260500  0.288100  1.0  -0.332
  C  C1322  1  0.113100  0.254300  0.309800  1.0  -0.0223
  C  C1323  1  0.133300  0.251700  0.343600  1.0  0.3026
  C  C1324  1  0.061300  0.259400  0.313000  1.0  0.154
  C  C1325  1  0.181300  0.249300  0.349000  1.0  -0.3847
  C  C1326  1  0.172700  0.191100  0.271300  1.0  -0.403
  C  C1327  1  0.162200  0.228900  0.259900  1.0  0.2219
  C  C1328  1  0.139000  0.251600  0.276500  1.0  0.0947
  C  C1329  1  0.147100  0.285200  0.257800  1.0  0.0506
  C  C1330  1  0.127800  0.322100  0.261300  1.0  -0.3904
  C  C1331  1  0.510300  0.064000  0.487700  1.0  -0.4046
  C  C1332  1  0.458400  0.071500  0.496400  1.0  0.2409
  C  C1333  1  0.428700  0.099200  0.484800  1.0  -0.1076
  C  C1334  1  0.383500  0.097400  0.506600  1.0  0.1789
  C  C1335  1  0.337800  0.118200  0.504800  1.0  -0.3564
  C  C1336  1  0.376200  0.105100  0.410000  1.0  -0.3884
  C  C1337  1  0.415900  0.123300  0.423800  1.0  0.1827
  C  C1338  1  0.437400  0.124900  0.460300  1.0  -0.1286
  C  C1339  1  0.476300  0.149200  0.456400  1.0  0.2199
  C  C1340  1  0.507400  0.160600  0.485300  1.0  -0.4057
  C  C1341  1  0.325100  0.188300  0.291800  1.0  -0.3896
  C  C1342  1  0.369300  0.209000  0.292500  1.0  0.3109
  C  C1343  1  0.376700  0.238800  0.271100  1.0  0.0036
  C  C1344  1  0.413000  0.257800  0.286000  1.0  0.1633
  C  C1345  1  0.439400  0.291900  0.274900  1.0  -0.3849
  C  C1346  1  0.280100  0.292200  0.275800  1.0  -0.3665
  C  C1347  1  0.302200  0.273900  0.245200  1.0  0.2565
  C  C1348  1  0.341000  0.247900  0.245100  1.0  -0.0742
  C  C1349  1  0.347900  0.239400  0.210300  1.0  0.2516
  C  C1350  1  0.376500  0.216000  0.195400  1.0  -0.3847
  C  C1351  1  0.346600  0.342000  0.177700  1.0  -0.398
  C  C1352  1  0.313700  0.339300  0.147200  1.0  0.2402
  C  C1353  1  0.322300  0.347100  0.113800  1.0  -0.0027
  C  C1354  1  0.280700  0.336500  0.095600  1.0  0.0637
  C  C1355  1  0.268900  0.341300  0.056200  1.0  -0.3843
  C  C1356  1  0.401100  0.316300  0.053200  1.0  -0.363
  C  C1357  1  0.374500  0.399500  0.104400  1.0  0.1576
  C  C1358  1  0.395700  0.351500  0.072300  1.0  -0.0101
  C  C1359  1  0.363200  0.364000  0.098300  1.0  -0.0023
  C  C1360  1  0.353000  0.425000  0.127700  1.0  -0.3836
  C  C1361  1  0.511100  0.151500  0.912000  1.0  0.1524
  C  C1362  1  0.481700  0.141200  0.883400  1.0  0.0595
  C  C1363  1  0.440300  0.163900  0.881500  1.0  0.2164
  C  C1364  1  0.406600  0.412700  0.932500  1.0  -0.3759
  C  C1365  1  0.369200  0.407100  0.911800  1.0  0.2962
  C  C1366  1  0.341600  0.373500  0.904100  1.0  -0.1028
  C  C1367  1  0.305700  0.386600  0.879600  1.0  0.18
  C  C1368  1  0.268000  0.358300  0.864700  1.0  -0.3975
  C  C1369  1  0.274700  0.332700  0.963800  1.0  -0.3642
  C  C1370  1  0.321100  0.322400  0.943700  1.0  0.1864
  C  C1371  1  0.351000  0.340200  0.920400  1.0  0.0417
  C  C1372  1  0.387800  0.318600  0.910500  1.0  0.2599
  C  C1373  1  0.428800  0.326900  0.885100  1.0  -0.4011
  C  C1374  1  0.556400  0.138200  0.927500  1.0  -0.356
  C  C1375  1  0.399000  0.159500  0.859000  1.0  -0.382
  C  C1376  1  0.472800  0.061800  0.909200  1.0  -0.4432
  C  C1377  1  0.502500  0.113000  0.830400  1.0  -0.0654
  C  C1378  1  0.488600  0.110800  0.865700  1.0  0.0102
  C  C1379  1  0.486100  0.075000  0.874800  1.0  0.0864
  C  C1380  1  0.510000  0.144400  0.802700  1.0  -0.3237
  C  C1381  1  0.522000  0.239500  0.711900  1.0  -0.3308
  C  C1382  1  0.613100  0.245700  0.690200  1.0  -0.022
  C  C1383  1  0.633300  0.248300  0.656400  1.0  0.3021
  C  C1384  1  0.561300  0.240600  0.687000  1.0  0.1544
  C  C1385  1  0.681300  0.250700  0.651000  1.0  -0.385
  C  C1386  1  0.672700  0.308900  0.728700  1.0  -0.4018
  C  C1387  1  0.662200  0.271100  0.740100  1.0  0.2233
  C  C1388  1  0.639000  0.248400  0.723500  1.0  0.0943
  C  C1389  1  0.647100  0.214800  0.742200  1.0  0.0506
  C  C1390  1  0.627800  0.177900  0.738700  1.0  -0.3934
  C  C1391  1  0.010300  0.436000  0.512300  1.0  -0.405
  C  C1392  1  0.958400  0.428500  0.503600  1.0  0.2406
  C  C1393  1  0.928700  0.400800  0.515200  1.0  -0.1117
  C  C1394  1  0.883500  0.402600  0.493400  1.0  0.1784
  C  C1395  1  0.837800  0.381800  0.495200  1.0  -0.3586
  C  C1396  1  0.876200  0.394900  0.590000  1.0  -0.3879
  C  C1397  1  0.915900  0.376700  0.576200  1.0  0.1842
  C  C1398  1  0.937400  0.375100  0.539700  1.0  -0.128
  C  C1399  1  0.976300  0.350800  0.543600  1.0  0.22
  C  C1400  1  0.007400  0.339400  0.514700  1.0  -0.4057
  C  C1401  1  0.825100  0.311700  0.708200  1.0  -0.3917
  C  C1402  1  0.869300  0.291000  0.707500  1.0  0.3127
  C  C1403  1  0.876700  0.261200  0.728900  1.0  0.0026
  C  C1404  1  0.913000  0.242200  0.714000  1.0  0.1637
  C  C1405  1  0.939400  0.208100  0.725100  1.0  -0.3856
  C  C1406  1  0.780100  0.207800  0.724200  1.0  -0.3663
  C  C1407  1  0.802200  0.226100  0.754800  1.0  0.257
  C  C1408  1  0.841000  0.252100  0.754900  1.0  -0.0732
  C  C1409  1  0.847900  0.260600  0.789700  1.0  0.2544
  C  C1410  1  0.876500  0.284000  0.804600  1.0  -0.3855
  C  C1411  1  0.846600  0.158000  0.822300  1.0  -0.3979
  C  C1412  1  0.813700  0.160700  0.852800  1.0  0.241
  C  C1413  1  0.822300  0.152900  0.886200  1.0  -0.0029
  C  C1414  1  0.780700  0.163500  0.904400  1.0  0.0632
  C  C1415  1  0.768900  0.158700  0.943800  1.0  -0.3827
  C  C1416  1  0.901100  0.183700  0.946800  1.0  -0.3616
  C  C1417  1  0.874500  0.100500  0.895600  1.0  0.1586
  C  C1418  1  0.895700  0.148500  0.927700  1.0  -0.0099
  C  C1419  1  0.863200  0.136000  0.901700  1.0  -0.0026
  C  C1420  1  0.853000  0.075000  0.872300  1.0  -0.383
  C  C1421  1  0.988900  0.348500  0.412000  1.0  0.1528
  C  C1422  1  0.018300  0.358800  0.383400  1.0  0.0597
  C  C1423  1  0.059700  0.336100  0.381500  1.0  0.216
  C  C1424  1  0.093400  0.087300  0.432500  1.0  -0.3752
  C  C1425  1  0.130800  0.092900  0.411800  1.0  0.2943
  C  C1426  1  0.158400  0.126500  0.404100  1.0  -0.1048
  C  C1427  1  0.194300  0.113400  0.379600  1.0  0.1785
  C  C1428  1  0.232000  0.141700  0.364700  1.0  -0.3993
  C  C1429  1  0.225300  0.167300  0.463800  1.0  -0.3651
  C  C1430  1  0.178900  0.177600  0.443700  1.0  0.1854
  C  C1431  1  0.149000  0.159800  0.420400  1.0  0.0393
  C  C1432  1  0.112200  0.181400  0.410500  1.0  0.2596
  C  C1433  1  0.071200  0.173100  0.385100  1.0  -0.4006
  C  C1434  1  0.943600  0.361800  0.427500  1.0  -0.3547
  C  C1435  1  0.101000  0.340500  0.359000  1.0  -0.3835
  C  C1436  1  0.027200  0.438200  0.409200  1.0  -0.4442
  C  C1437  1  0.997500  0.387000  0.330400  1.0  -0.0687
  C  C1438  1  0.011400  0.389200  0.365700  1.0  0.0115
  C  C1439  1  0.013900  0.425000  0.374800  1.0  0.0842
  C  C1440  1  0.990000  0.355600  0.302700  1.0  -0.3235
  C  C1441  1  0.978000  0.260500  0.211900  1.0  -0.33
  C  C1442  1  0.886900  0.254300  0.190200  1.0  -0.022
  C  C1443  1  0.866700  0.251700  0.156400  1.0  0.3022
  C  C1444  1  0.938700  0.259400  0.187000  1.0  0.1521
  C  C1445  1  0.818700  0.249300  0.151000  1.0  -0.3837
  C  C1446  1  0.827300  0.191100  0.228700  1.0  -0.4042
  C  C1447  1  0.837800  0.228900  0.240100  1.0  0.2228
  C  C1448  1  0.861000  0.251600  0.223500  1.0  0.0951
  C  C1449  1  0.852900  0.285200  0.242200  1.0  0.0512
  C  C1450  1  0.872200  0.322100  0.238700  1.0  -0.3927
  C  C1451  1  0.489700  0.064000  0.012300  1.0  -0.4027
  C  C1452  1  0.541600  0.071500  0.003600  1.0  0.2419
  C  C1453  1  0.571300  0.099200  0.015200  1.0  -0.1127
  C  C1454  1  0.616500  0.097400  0.993400  1.0  0.1786
  C  C1455  1  0.662200  0.118200  0.995200  1.0  -0.3571
  C  C1456  1  0.623800  0.105100  0.090000  1.0  -0.3884
  C  C1457  1  0.584100  0.123300  0.076200  1.0  0.1826
  C  C1458  1  0.562600  0.124900  0.039700  1.0  -0.1267
  C  C1459  1  0.523700  0.149200  0.043600  1.0  0.2192
  C  C1460  1  0.492600  0.160600  0.014700  1.0  -0.4052
  C  C1461  1  0.674900  0.188300  0.208200  1.0  -0.3896
  C  C1462  1  0.630700  0.209000  0.207500  1.0  0.3118
  C  C1463  1  0.623300  0.238800  0.228900  1.0  0.0011
  C  C1464  1  0.587000  0.257800  0.214000  1.0  0.1627
  C  C1465  1  0.560600  0.291900  0.225100  1.0  -0.3844
  C  C1466  1  0.719900  0.292200  0.224200  1.0  -0.3667
  C  C1467  1  0.697800  0.273900  0.254800  1.0  0.2572
  C  C1468  1  0.659000  0.247900  0.254900  1.0  -0.0738
  C  C1469  1  0.652100  0.239400  0.289700  1.0  0.2537
  C  C1470  1  0.623500  0.216000  0.304600  1.0  -0.3862
  C  C1471  1  0.653400  0.342000  0.322300  1.0  -0.3969
  C  C1472  1  0.686300  0.339300  0.352800  1.0  0.2408
  C  C1473  1  0.677700  0.347100  0.386200  1.0  -0.0039
  C  C1474  1  0.719300  0.336500  0.404400  1.0  0.063
  C  C1475  1  0.731100  0.341300  0.443800  1.0  -0.3829
  C  C1476  1  0.598900  0.316300  0.446800  1.0  -0.3613
  C  C1477  1  0.625500  0.399500  0.395600  1.0  0.159
  C  C1478  1  0.604300  0.351500  0.427700  1.0  -0.0086
  C  C1479  1  0.636800  0.364000  0.401700  1.0  -0.0027
  C  C1480  1  0.647000  0.425000  0.372300  1.0  -0.3816
  N  N1481  1  0.347300  0.569400  0.393000  1.0  -0.288
  N  N1482  1  0.309900  0.582100  0.374200  1.0  -0.1679
  N  N1483  1  0.341300  0.706600  0.447100  1.0  -0.2077
  N  N1484  1  0.382100  0.712900  0.426600  1.0  -0.3332
  N  N1485  1  0.444100  0.811800  0.408900  1.0  -0.2621
  N  N1486  1  0.487900  0.819400  0.427800  1.0  -0.2188
  N  N1487  1  0.687500  0.741600  0.266100  1.0  -0.2034
  N  N1488  1  0.678300  0.776700  0.269700  1.0  -0.3038
  N  N1489  1  0.935000  0.555800  0.978200  1.0  -0.2317
  N  N1490  1  0.890600  0.570300  0.973200  1.0  -0.0984
  N  N1491  1  0.940000  0.649500  0.095900  1.0  -0.3566
  N  N1492  1  0.972800  0.662900  0.073500  1.0  -0.0877
  N  N1493  1  0.934100  0.737400  0.191900  1.0  -0.1935
  N  N1494  1  0.904900  0.706800  0.184900  1.0  -0.3371
  N  N1495  1  0.784600  0.778600  0.284400  1.0  -0.2006
  N  N1496  1  0.811000  0.757400  0.307900  1.0  -0.1709
  N  N1497  1  0.749300  0.822700  0.380400  1.0  -0.096
  N  N1498  1  0.766700  0.823700  0.347900  1.0  -0.3416
  N  N1499  1  0.498400  0.944800  0.345100  1.0  -0.2395
  N  N1500  1  0.508500  0.921400  0.317700  1.0  -0.0736
  N  N1501  1  0.593900  0.755100  0.132400  1.0  -0.172
  N  N1502  1  0.549400  0.759900  0.151300  1.0  -0.2379
  N  N1503  1  0.914000  0.909000  0.417900  1.0  -0.2894
  N  N1504  1  0.927100  0.879400  0.437700  1.0  -0.2364
  N  N1505  1  0.152700  0.930600  0.893000  1.0  -0.2906
  N  N1506  1  0.190100  0.917900  0.874200  1.0  -0.1709
  N  N1507  1  0.158700  0.793400  0.947100  1.0  -0.2069
  N  N1508  1  0.117900  0.787100  0.926600  1.0  -0.3355
  N  N1509  1  0.055900  0.688200  0.908900  1.0  -0.2624
  N  N1510  1  0.012100  0.680600  0.927800  1.0  -0.2173
  N  N1511  1  0.812500  0.758400  0.766100  1.0  -0.2035
  N  N1512  1  0.821700  0.723300  0.769700  1.0  -0.3042
  N  N1513  1  0.565000  0.944200  0.478200  1.0  -0.2341
  N  N1514  1  0.609400  0.929700  0.473200  1.0  -0.0978
  N  N1515  1  0.560000  0.850500  0.595900  1.0  -0.3575
  N  N1516  1  0.527200  0.837100  0.573500  1.0  -0.0878
  N  N1517  1  0.565900  0.762600  0.691900  1.0  -0.1931
  N  N1518  1  0.595100  0.793200  0.684900  1.0  -0.3383
  N  N1519  1  0.715400  0.721400  0.784400  1.0  -0.1978
  N  N1520  1  0.689000  0.742600  0.807900  1.0  -0.1703
  N  N1521  1  0.750700  0.677300  0.880400  1.0  -0.096
  N  N1522  1  0.733300  0.676300  0.847900  1.0  -0.3431
  N  N1523  1  0.001600  0.555200  0.845100  1.0  -0.2381
  N  N1524  1  0.991500  0.578600  0.817700  1.0  -0.0785
  N  N1525  1  0.906100  0.744900  0.632400  1.0  -0.1714
  N  N1526  1  0.950600  0.740100  0.651300  1.0  -0.2383
  N  N1527  1  0.586000  0.591000  0.917900  1.0  -0.2896
  N  N1528  1  0.572900  0.620600  0.937700  1.0  -0.2341
  N  N1529  1  0.652700  0.569400  0.107000  1.0  -0.289
  N  N1530  1  0.690100  0.582100  0.125800  1.0  -0.1683
  N  N1531  1  0.658700  0.706600  0.052900  1.0  -0.2068
  N  N1532  1  0.617900  0.712900  0.073400  1.0  -0.3336
  N  N1533  1  0.555900  0.811800  0.091100  1.0  -0.2619
  N  N1534  1  0.512100  0.819400  0.072200  1.0  -0.2186
  N  N1535  1  0.312500  0.741600  0.233900  1.0  -0.2042
  N  N1536  1  0.321700  0.776700  0.230300  1.0  -0.3035
  N  N1537  1  0.065000  0.555800  0.521800  1.0  -0.2329
  N  N1538  1  0.109400  0.570300  0.526800  1.0  -0.0987
  N  N1539  1  0.060000  0.649500  0.404100  1.0  -0.3582
  N  N1540  1  0.027200  0.662900  0.426500  1.0  -0.0874
  N  N1541  1  0.065900  0.737400  0.308100  1.0  -0.1908
  N  N1542  1  0.095100  0.706800  0.315100  1.0  -0.3386
  N  N1543  1  0.215400  0.778600  0.215600  1.0  -0.1984
  N  N1544  1  0.189000  0.757400  0.192100  1.0  -0.1731
  N  N1545  1  0.250700  0.822700  0.119600  1.0  -0.0969
  N  N1546  1  0.233300  0.823700  0.152100  1.0  -0.343
  N  N1547  1  0.501600  0.944800  0.154900  1.0  -0.2391
  N  N1548  1  0.491500  0.921400  0.182300  1.0  -0.0753
  N  N1549  1  0.406100  0.755100  0.367600  1.0  -0.171
  N  N1550  1  0.450600  0.759900  0.348700  1.0  -0.2384
  N  N1551  1  0.086000  0.909000  0.082100  1.0  -0.2895
  N  N1552  1  0.072900  0.879400  0.062300  1.0  -0.2321
  N  N1553  1  0.847300  0.930600  0.607000  1.0  -0.2902
  N  N1554  1  0.809900  0.917900  0.625800  1.0  -0.1657
  N  N1555  1  0.841300  0.793400  0.552900  1.0  -0.2072
  N  N1556  1  0.882100  0.787100  0.573400  1.0  -0.3346
  N  N1557  1  0.944100  0.688200  0.591100  1.0  -0.2612
  N  N1558  1  0.987900  0.680600  0.572200  1.0  -0.2158
  N  N1559  1  0.187500  0.758400  0.733900  1.0  -0.2047
  N  N1560  1  0.178300  0.723300  0.730300  1.0  -0.3026
  N  N1561  1  0.435000  0.944200  0.021800  1.0  -0.2338
  N  N1562  1  0.390600  0.929700  0.026800  1.0  -0.0977
  N  N1563  1  0.440000  0.850500  0.904100  1.0  -0.3589
  N  N1564  1  0.472800  0.837100  0.926500  1.0  -0.0889
  N  N1565  1  0.434100  0.762600  0.808100  1.0  -0.192
  N  N1566  1  0.404900  0.793200  0.815100  1.0  -0.3379
  N  N1567  1  0.284600  0.721400  0.715600  1.0  -0.199
  N  N1568  1  0.311000  0.742600  0.692100  1.0  -0.1738
  N  N1569  1  0.249300  0.677300  0.619600  1.0  -0.0961
  N  N1570  1  0.266700  0.676300  0.652100  1.0  -0.3419
  N  N1571  1  0.998400  0.555200  0.654900  1.0  -0.2412
  N  N1572  1  0.008500  0.578600  0.682300  1.0  -0.0787
  N  N1573  1  0.093900  0.744900  0.867600  1.0  -0.1723
  N  N1574  1  0.049400  0.740100  0.848700  1.0  -0.2377
  N  N1575  1  0.414000  0.591000  0.582100  1.0  -0.289
  N  N1576  1  0.427100  0.620600  0.562300  1.0  -0.2369
  N  N1577  1  0.652700  0.430600  0.607000  1.0  -0.291
  N  N1578  1  0.690100  0.417900  0.625800  1.0  -0.1671
  N  N1579  1  0.658700  0.293400  0.552900  1.0  -0.2076
  N  N1580  1  0.617900  0.287100  0.573400  1.0  -0.3359
  N  N1581  1  0.555900  0.188200  0.591100  1.0  -0.2623
  N  N1582  1  0.512100  0.180600  0.572200  1.0  -0.2184
  N  N1583  1  0.312500  0.258400  0.733900  1.0  -0.2048
  N  N1584  1  0.321700  0.223300  0.730300  1.0  -0.3029
  N  N1585  1  0.065000  0.444200  0.021800  1.0  -0.2353
  N  N1586  1  0.109400  0.429700  0.026800  1.0  -0.0979
  N  N1587  1  0.060000  0.350500  0.904100  1.0  -0.3586
  N  N1588  1  0.027200  0.337100  0.926500  1.0  -0.0887
  N  N1589  1  0.065900  0.262600  0.808100  1.0  -0.1919
  N  N1590  1  0.095100  0.293200  0.815100  1.0  -0.3375
  N  N1591  1  0.215400  0.221400  0.715600  1.0  -0.1974
  N  N1592  1  0.189000  0.242600  0.692100  1.0  -0.1733
  N  N1593  1  0.250700  0.177300  0.619600  1.0  -0.0966
  N  N1594  1  0.233300  0.176300  0.652100  1.0  -0.343
  N  N1595  1  0.501600  0.055200  0.654900  1.0  -0.241
  N  N1596  1  0.491500  0.078600  0.682300  1.0  -0.079
  N  N1597  1  0.406100  0.244900  0.867600  1.0  -0.1714
  N  N1598  1  0.450600  0.240100  0.848700  1.0  -0.2383
  N  N1599  1  0.086000  0.091000  0.582100  1.0  -0.2896
  N  N1600  1  0.072900  0.120600  0.562300  1.0  -0.2337
  N  N1601  1  0.847300  0.069400  0.107000  1.0  -0.2874
  N  N1602  1  0.809900  0.082100  0.125800  1.0  -0.1684
  N  N1603  1  0.841300  0.206600  0.052900  1.0  -0.2068
  N  N1604  1  0.882100  0.212900  0.073400  1.0  -0.3339
  N  N1605  1  0.944100  0.311800  0.091100  1.0  -0.262
  N  N1606  1  0.987900  0.319400  0.072200  1.0  -0.2163
  N  N1607  1  0.187500  0.241600  0.233900  1.0  -0.2042
  N  N1608  1  0.178300  0.276700  0.230300  1.0  -0.3034
  N  N1609  1  0.435000  0.055800  0.521800  1.0  -0.2315
  N  N1610  1  0.390600  0.070300  0.526800  1.0  -0.0977
  N  N1611  1  0.440000  0.149500  0.404100  1.0  -0.3585
  N  N1612  1  0.472800  0.162900  0.426500  1.0  -0.0882
  N  N1613  1  0.434100  0.237400  0.308100  1.0  -0.1916
  N  N1614  1  0.404900  0.206800  0.315100  1.0  -0.3377
  N  N1615  1  0.284600  0.278600  0.215600  1.0  -0.1994
  N  N1616  1  0.311000  0.257400  0.192100  1.0  -0.1735
  N  N1617  1  0.249300  0.322700  0.119600  1.0  -0.0964
  N  N1618  1  0.266700  0.323700  0.152100  1.0  -0.3419
  N  N1619  1  0.998400  0.444800  0.154900  1.0  -0.2388
  N  N1620  1  0.008500  0.421400  0.182300  1.0  -0.0738
  N  N1621  1  0.093900  0.255100  0.367600  1.0  -0.1717
  N  N1622  1  0.049400  0.259900  0.348700  1.0  -0.2378
  N  N1623  1  0.414000  0.409000  0.082100  1.0  -0.2888
  N  N1624  1  0.427100  0.379400  0.062300  1.0  -0.2351
  N  N1625  1  0.347300  0.430600  0.893000  1.0  -0.2902
  N  N1626  1  0.309900  0.417900  0.874200  1.0  -0.1663
  N  N1627  1  0.341300  0.293400  0.947100  1.0  -0.2071
  N  N1628  1  0.382100  0.287100  0.926600  1.0  -0.3341
  N  N1629  1  0.444100  0.188200  0.908900  1.0  -0.2632
  N  N1630  1  0.487900  0.180600  0.927800  1.0  -0.2187
  N  N1631  1  0.687500  0.258400  0.766100  1.0  -0.204
  N  N1632  1  0.678300  0.223300  0.769700  1.0  -0.3038
  N  N1633  1  0.935000  0.444200  0.478200  1.0  -0.2351
  N  N1634  1  0.890600  0.429700  0.473200  1.0  -0.0969
  N  N1635  1  0.940000  0.350500  0.595900  1.0  -0.3563
  N  N1636  1  0.972800  0.337100  0.573500  1.0  -0.0877
  N  N1637  1  0.934100  0.262600  0.691900  1.0  -0.1932
  N  N1638  1  0.904900  0.293200  0.684900  1.0  -0.3391
  N  N1639  1  0.784600  0.221400  0.784400  1.0  -0.1991
  N  N1640  1  0.811000  0.242600  0.807900  1.0  -0.1711
  N  N1641  1  0.749300  0.177300  0.880400  1.0  -0.0958
  N  N1642  1  0.766700  0.176300  0.847900  1.0  -0.3411
  N  N1643  1  0.498400  0.055200  0.845100  1.0  -0.239
  N  N1644  1  0.508500  0.078600  0.817700  1.0  -0.0788
  N  N1645  1  0.593900  0.244900  0.632400  1.0  -0.1721
  N  N1646  1  0.549400  0.240100  0.651300  1.0  -0.2375
  N  N1647  1  0.914000  0.091000  0.917900  1.0  -0.2889
  N  N1648  1  0.927100  0.120600  0.937700  1.0  -0.2373
  N  N1649  1  0.152700  0.069400  0.393000  1.0  -0.2891
  N  N1650  1  0.190100  0.082100  0.374200  1.0  -0.1711
  N  N1651  1  0.158700  0.206600  0.447100  1.0  -0.2072
  N  N1652  1  0.117900  0.212900  0.426600  1.0  -0.3337
  N  N1653  1  0.055900  0.311800  0.408900  1.0  -0.2611
  N  N1654  1  0.012100  0.319400  0.427800  1.0  -0.217
  N  N1655  1  0.812500  0.241600  0.266100  1.0  -0.2032
  N  N1656  1  0.821700  0.276700  0.269700  1.0  -0.3033
  N  N1657  1  0.565000  0.055800  0.978200  1.0  -0.2319
  N  N1658  1  0.609400  0.070300  0.973200  1.0  -0.0999
  N  N1659  1  0.560000  0.149500  0.095900  1.0  -0.3574
  N  N1660  1  0.527200  0.162900  0.073500  1.0  -0.088
  N  N1661  1  0.565900  0.237400  0.191900  1.0  -0.1934
  N  N1662  1  0.595100  0.206800  0.184900  1.0  -0.3368
  N  N1663  1  0.715400  0.278600  0.284400  1.0  -0.1994
  N  N1664  1  0.689000  0.257400  0.307900  1.0  -0.1701
  N  N1665  1  0.750700  0.322700  0.380400  1.0  -0.0962
  N  N1666  1  0.733300  0.323700  0.347900  1.0  -0.3433
  N  N1667  1  0.001600  0.444800  0.345100  1.0  -0.2392
  N  N1668  1  0.991500  0.421400  0.317700  1.0  -0.0741
  N  N1669  1  0.906100  0.255100  0.132400  1.0  -0.1715
  N  N1670  1  0.950600  0.259900  0.151300  1.0  -0.2386
  N  N1671  1  0.586000  0.409000  0.417900  1.0  -0.2902
  N  N1672  1  0.572900  0.379400  0.437700  1.0  -0.2333
  O  O1673  1  0.707600  0.622000  0.300100  1.0  -0.6833
  O  O1674  1  0.696800  0.556800  0.330700  1.0  -0.7028
  O  O1675  1  0.791300  0.601800  0.332400  1.0  -0.6956
  O  O1676  1  0.786300  0.529700  0.335000  1.0  -0.6593
  O  O1677  1  0.854400  0.527800  0.388600  1.0  -0.7684
  O  O1678  1  0.755100  0.484900  0.387700  1.0  -0.7258
  O  O1679  1  0.670600  0.520600  0.386100  1.0  -0.7353
  O  O1680  1  0.760600  0.558300  0.390500  1.0  -0.8037
  O  O1681  1  0.850600  0.597200  0.389800  1.0  -0.6914
  O  O1682  1  0.793300  0.662500  0.364000  1.0  -0.6349
  O  O1683  1  0.703200  0.625600  0.364700  1.0  -0.7772
  O  O1684  1  0.613200  0.587100  0.360700  1.0  -0.6999
  O  O1685  1  0.621100  0.644200  0.325700  1.0  -0.7538
  O  O1686  1  0.717900  0.688500  0.328100  1.0  -0.6713
  O  O1687  1  0.710900  0.759200  0.335100  1.0  -0.7187
  O  O1688  1  0.627700  0.715800  0.336500  1.0  -0.6741
  O  O1689  1  0.565600  0.643300  0.382700  1.0  -0.6947
  O  O1690  1  0.657600  0.678800  0.384900  1.0  -0.7745
  O  O1691  1  0.744800  0.716400  0.385900  1.0  -0.7076
  O  O1692  1  0.730000  0.655100  0.419400  1.0  -0.8893
  O  O1693  1  0.649500  0.622700  0.419500  1.0  -0.8957
  O  O1694  1  0.609100  0.560500  0.428000  1.0  -0.7995
  O  O1695  1  0.826900  0.652500  0.432300  1.0  -0.7614
  O  O1696  1  0.784700  0.590700  0.445100  1.0  -0.867
  O  O1697  1  0.705400  0.556400  0.443200  1.0  -0.8333
  O  O1698  1  0.600400  0.489100  0.423100  1.0  -0.797
  O  O1699  1  0.697100  0.486300  0.441700  1.0  -0.7092
  O  O1700  1  0.786600  0.524600  0.442000  1.0  -0.7545
  O  O1701  1  0.878100  0.560900  0.444300  1.0  -0.7035
  O  O1702  1  0.833300  0.470300  0.428900  1.0  -0.6804
  O  O1703  1  0.771000  0.465200  0.485900  1.0  -0.6201
  O  O1704  1  0.867900  0.506300  0.483900  1.0  -0.6935
  O  O1705  1  0.857500  0.618400  0.484900  1.0  -0.6925
  O  O1706  1  0.637000  0.522400  0.480400  1.0  -0.8166
  O  O1707  1  0.555400  0.615000  0.447200  1.0  -0.7362
  O  O1708  1  0.777900  0.707300  0.449400  1.0  -0.7619
  O  O1709  1  0.659200  0.751700  0.393400  1.0  -0.7317
  O  O1710  1  0.563200  0.710800  0.387500  1.0  -0.7149
  O  O1711  1  0.484900  0.741700  0.415900  1.0  -0.6726
  O  O1712  1  0.575600  0.771800  0.425000  1.0  -0.6743
  O  O1713  1  0.709300  0.758000  0.449200  1.0  -0.6711
  O  O1714  1  0.618400  0.719600  0.449800  1.0  -0.8059
  O  O1715  1  0.527500  0.681300  0.449500  1.0  -0.6733
  O  O1716  1  0.612900  0.662300  0.482500  1.0  -0.8702
  O  O1717  1  0.694200  0.696000  0.483400  1.0  -0.8725
  O  O1718  1  0.778100  0.706900  0.518000  1.0  -0.7399
  O  O1719  1  0.558400  0.615300  0.516000  1.0  -0.7933
  O  O1720  1  0.520100  0.575500  0.567500  1.0  -0.812
  O  O1721  1  0.647300  0.621600  0.546800  1.0  -0.8584
  O  O1722  1  0.725000  0.656500  0.548400  1.0  -0.8768
  O  O1723  1  0.841400  0.715000  0.572200  1.0  -0.7049
  O  O1724  1  0.823600  0.652600  0.537900  1.0  -0.7418
  O  O1725  1  0.606300  0.560100  0.533400  1.0  -0.7939
  O  O1726  1  0.704100  0.556600  0.521200  1.0  -0.8762
  O  O1727  1  0.781600  0.591500  0.523100  1.0  -0.8918
  O  O1728  1  0.874000  0.562000  0.525700  1.0  -0.7111
  O  O1729  1  0.785100  0.525800  0.524400  1.0  -0.8183
  O  O1730  1  0.695700  0.484000  0.520800  1.0  -0.6968
  O  O1731  1  0.831600  0.470900  0.541500  1.0  -0.6638
  O  O1732  1  0.850300  0.527700  0.579600  1.0  -0.6832
  O  O1733  1  0.747900  0.486900  0.578800  1.0  -0.681
  O  O1734  1  0.664500  0.520200  0.577400  1.0  -0.671
  O  O1735  1  0.753700  0.558200  0.577600  1.0  -0.8403
  O  O1736  1  0.846600  0.596100  0.579900  1.0  -0.7021
  O  O1737  1  0.788200  0.661600  0.604100  1.0  -0.6407
  O  O1738  1  0.696800  0.624900  0.602000  1.0  -0.7625
  O  O1739  1  0.610700  0.584000  0.603200  1.0  -0.7603
  O  O1740  1  0.563700  0.640200  0.578900  1.0  -0.703
  O  O1741  1  0.651700  0.676700  0.580300  1.0  -0.7626
  O  O1742  1  0.740000  0.717300  0.583100  1.0  -0.6887
  O  O1743  1  0.709300  0.758100  0.516300  1.0  -0.6519
  O  O1744  1  0.619400  0.718400  0.514300  1.0  -0.7495
  O  O1745  1  0.525600  0.681500  0.516600  1.0  -0.626
  O  O1746  1  0.534500  0.741200  0.482900  1.0  -0.7352
  O  O1747  1  0.634000  0.783200  0.485600  1.0  -0.652
  O  O1748  1  0.575100  0.770400  0.542500  1.0  -0.6383
  O  O1749  1  0.557200  0.710200  0.573700  1.0  -0.6887
  O  O1750  1  0.656400  0.749400  0.578000  1.0  -0.6935
  O  O1751  1  0.617800  0.712500  0.630800  1.0  -0.7
  O  O1752  1  0.610800  0.642200  0.638300  1.0  -0.7118
  O  O1753  1  0.713700  0.684300  0.641500  1.0  -0.6861
  O  O1754  1  0.699500  0.621300  0.668000  1.0  -0.7388
  O  O1755  1  0.688200  0.559900  0.634700  1.0  -0.7442
  O  O1756  1  0.786600  0.597100  0.635100  1.0  -0.6591
  O  O1757  1  0.777500  0.528200  0.632300  1.0  -0.6598
  O  O1758  1  0.681400  0.610500  0.481400  1.0  -0.5914
  O  O1759  1  0.728000  0.629600  0.486400  1.0  -0.577
  O  O1760  1  0.792400  0.878000  0.800100  1.0  -0.6858
  O  O1761  1  0.803200  0.943200  0.830700  1.0  -0.7062
  O  O1762  1  0.708700  0.898200  0.832400  1.0  -0.698
  O  O1763  1  0.713700  0.970300  0.835000  1.0  -0.6616
  O  O1764  1  0.645600  0.972200  0.888600  1.0  -0.7697
  O  O1765  1  0.744900  0.015100  0.887700  1.0  -0.7276
  O  O1766  1  0.829400  0.979400  0.886100  1.0  -0.7345
  O  O1767  1  0.739400  0.941700  0.890500  1.0  -0.8041
  O  O1768  1  0.649400  0.902800  0.889800  1.0  -0.6949
  O  O1769  1  0.706700  0.837500  0.864000  1.0  -0.6352
  O  O1770  1  0.796800  0.874400  0.864700  1.0  -0.7782
  O  O1771  1  0.886800  0.912900  0.860700  1.0  -0.7019
  O  O1772  1  0.878900  0.855800  0.825700  1.0  -0.7539
  O  O1773  1  0.782100  0.811500  0.828100  1.0  -0.6716
  O  O1774  1  0.789100  0.740800  0.835100  1.0  -0.7177
  O  O1775  1  0.872300  0.784200  0.836500  1.0  -0.6736
  O  O1776  1  0.934400  0.856700  0.882700  1.0  -0.6934
  O  O1777  1  0.842400  0.821200  0.884900  1.0  -0.7746
  O  O1778  1  0.755200  0.783600  0.885900  1.0  -0.7077
  O  O1779  1  0.770000  0.844900  0.919400  1.0  -0.8881
  O  O1780  1  0.850500  0.877300  0.919500  1.0  -0.8961
  O  O1781  1  0.890900  0.939500  0.928000  1.0  -0.8
  O  O1782  1  0.673100  0.847500  0.932300  1.0  -0.7597
  O  O1783  1  0.715300  0.909300  0.945100  1.0  -0.867
  O  O1784  1  0.794600  0.943600  0.943200  1.0  -0.834
  O  O1785  1  0.899600  0.010900  0.923100  1.0  -0.7952
  O  O1786  1  0.802900  0.013700  0.941700  1.0  -0.7098
  O  O1787  1  0.713400  0.975400  0.942000  1.0  -0.7536
  O  O1788  1  0.621900  0.939100  0.944300  1.0  -0.7051
  O  O1789  1  0.666667  0.029700  0.928900  1.0  -0.6799
  O  O1790  1  0.729000  0.034800  0.985900  1.0  -0.6186
  O  O1791  1  0.632100  0.993700  0.983900  1.0  -0.6952
  O  O1792  1  0.642500  0.881600  0.984900  1.0  -0.6933
  O  O1793  1  0.863000  0.977600  0.980400  1.0  -0.8178
  O  O1794  1  0.944600  0.885000  0.947200  1.0  -0.737
  O  O1795  1  0.722100  0.792700  0.949400  1.0  -0.7619
  O  O1796  1  0.840800  0.748300  0.893400  1.0  -0.7285
  O  O1797  1  0.936800  0.789200  0.887500  1.0  -0.7151
  O  O1798  1  0.015100  0.758300  0.915900  1.0  -0.6736
  O  O1799  1  0.924400  0.728200  0.925000  1.0  -0.6729
  O  O1800  1  0.790700  0.742000  0.949200  1.0  -0.6712
  O  O1801  1  0.881600  0.780400  0.949800  1.0  -0.8053
  O  O1802  1  0.972500  0.818700  0.949500  1.0  -0.6724
  O  O1803  1  0.887100  0.837700  0.982500  1.0  -0.8704
  O  O1804  1  0.805800  0.804000  0.983400  1.0  -0.8705
  O  O1805  1  0.721900  0.793100  0.018000  1.0  -0.7415
  O  O1806  1  0.941600  0.884700  0.016000  1.0  -0.7917
  O  O1807  1  0.979900  0.924500  0.067500  1.0  -0.812
  O  O1808  1  0.852700  0.878400  0.046800  1.0  -0.8583
  O  O1809  1  0.775000  0.843500  0.048400  1.0  -0.8772
  O  O1810  1  0.658600  0.785000  0.072200  1.0  -0.7045
  O  O1811  1  0.676400  0.847400  0.037900  1.0  -0.7437
  O  O1812  1  0.893700  0.939900  0.033400  1.0  -0.7968
  O  O1813  1  0.795900  0.943400  0.021200  1.0  -0.8779
  O  O1814  1  0.718400  0.908500  0.023100  1.0  -0.8916
  O  O1815  1  0.626000  0.938000  0.025700  1.0  -0.7121
  O  O1816  1  0.714900  0.974200  0.024400  1.0  -0.8181
  O  O1817  1  0.804300  0.016000  0.020800  1.0  -0.6976
  O  O1818  1  0.668400  0.029100  0.041500  1.0  -0.665
  O  O1819  1  0.649700  0.972300  0.079600  1.0  -0.6835
  O  O1820  1  0.752100  0.013100  0.078800  1.0  -0.6815
  O  O1821  1  0.835500  0.979800  0.077400  1.0  -0.6703
  O  O1822  1  0.746300  0.941800  0.077600  1.0  -0.8409
  O  O1823  1  0.653400  0.903900  0.079900  1.0  -0.7023
  O  O1824  1  0.711800  0.838400  0.104100  1.0  -0.6404
  O  O1825  1  0.803200  0.875100  0.102000  1.0  -0.762
  O  O1826  1  0.889300  0.916000  0.103200  1.0  -0.7613
  O  O1827  1  0.936300  0.859800  0.078900  1.0  -0.7027
  O  O1828  1  0.848300  0.823300  0.080300  1.0  -0.7624
  O  O1829  1  0.760000  0.782700  0.083100  1.0  -0.6857
  O  O1830  1  0.790700  0.741900  0.016300  1.0  -0.6515
  O  O1831  1  0.880600  0.781600  0.014300  1.0  -0.748
  O  O1832  1  0.974400  0.818500  0.016600  1.0  -0.6252
  O  O1833  1  0.965500  0.758800  0.982900  1.0  -0.7345
  O  O1834  1  0.866000  0.716800  0.985600  1.0  -0.6508
  O  O1835  1  0.924900  0.729600  0.042500  1.0  -0.638
  O  O1836  1  0.942800  0.789800  0.073700  1.0  -0.6879
  O  O1837  1  0.843600  0.750600  0.078000  1.0  -0.6921
  O  O1838  1  0.882200  0.787500  0.130800  1.0  -0.6996
  O  O1839  1  0.889200  0.857800  0.138300  1.0  -0.713
  O  O1840  1  0.786300  0.815700  0.141500  1.0  -0.686
  O  O1841  1  0.800500  0.878700  0.168000  1.0  -0.7345
  O  O1842  1  0.811800  0.940100  0.134700  1.0  -0.7425
  O  O1843  1  0.713400  0.902900  0.135100  1.0  -0.659
  O  O1844  1  0.722500  0.971800  0.132300  1.0  -0.6562
  O  O1845  1  0.818600  0.889500  0.981400  1.0  -0.5909
  O  O1846  1  0.772000  0.870400  0.986400  1.0  -0.5785
  O  O1847  1  0.292400  0.622000  0.199900  1.0  -0.6838
  O  O1848  1  0.303200  0.556800  0.169300  1.0  -0.6984
  O  O1849  1  0.208700  0.601800  0.167600  1.0  -0.6987
  O  O1850  1  0.213700  0.529700  0.165000  1.0  -0.6618
  O  O1851  1  0.145600  0.527800  0.111400  1.0  -0.7674
  O  O1852  1  0.244900  0.484900  0.112300  1.0  -0.7272
  O  O1853  1  0.329400  0.520600  0.113900  1.0  -0.7368
  O  O1854  1  0.239400  0.558300  0.109500  1.0  -0.8064
  O  O1855  1  0.149400  0.597200  0.110200  1.0  -0.6932
  O  O1856  1  0.206700  0.662500  0.136000  1.0  -0.6358
  O  O1857  1  0.296800  0.625600  0.135300  1.0  -0.7767
  O  O1858  1  0.386800  0.587100  0.139300  1.0  -0.7014
  O  O1859  1  0.378900  0.644200  0.174300  1.0  -0.7558
  O  O1860  1  0.282100  0.688500  0.171900  1.0  -0.6709
  O  O1861  1  0.289100  0.759200  0.164900  1.0  -0.7179
  O  O1862  1  0.372300  0.715800  0.163500  1.0  -0.6736
  O  O1863  1  0.434400  0.643300  0.117300  1.0  -0.6941
  O  O1864  1  0.342400  0.678800  0.115100  1.0  -0.7743
  O  O1865  1  0.255200  0.716400  0.114100  1.0  -0.7081
  O  O1866  1  0.270000  0.655100  0.080600  1.0  -0.8879
  O  O1867  1  0.350500  0.622700  0.080500  1.0  -0.8957
  O  O1868  1  0.390900  0.560500  0.072000  1.0  -0.7977
  O  O1869  1  0.173100  0.652500  0.067700  1.0  -0.7617
  O  O1870  1  0.215300  0.590700  0.054900  1.0  -0.8672
  O  O1871  1  0.294600  0.556400  0.056800  1.0  -0.8334
  O  O1872  1  0.399600  0.489100  0.076900  1.0  -0.7953
  O  O1873  1  0.302900  0.486300  0.058300  1.0  -0.7085
  O  O1874  1  0.213400  0.524600  0.058000  1.0  -0.7544
  O  O1875  1  0.121900  0.560900  0.055700  1.0  -0.7057
  O  O1876  1  0.166700  0.470300  0.071100  1.0  -0.6774
  O  O1877  1  0.229000  0.465200  0.014100  1.0  -0.6189
  O  O1878  1  0.132100  0.506300  0.016100  1.0  -0.6946
  O  O1879  1  0.142500  0.618400  0.015100  1.0  -0.6941
  O  O1880  1  0.363000  0.522400  0.019600  1.0  -0.8184
  O  O1881  1  0.444600  0.615000  0.052800  1.0  -0.7345
  O  O1882  1  0.222100  0.707300  0.050600  1.0  -0.7629
  O  O1883  1  0.340800  0.751700  0.106600  1.0  -0.7303
  O  O1884  1  0.436800  0.710800  0.112500  1.0  -0.7147
  O  O1885  1  0.515100  0.741700  0.084100  1.0  -0.6723
  O  O1886  1  0.424400  0.771800  0.075000  1.0  -0.6715
  O  O1887  1  0.290700  0.758000  0.050800  1.0  -0.6697
  O  O1888  1  0.381600  0.719600  0.050200  1.0  -0.8033
  O  O1889  1  0.472500  0.681300  0.050500  1.0  -0.6711
  O  O1890  1  0.387100  0.662300  0.017500  1.0  -0.8704
  O  O1891  1  0.305800  0.696000  0.016600  1.0  -0.8708
  O  O1892  1  0.221900  0.706900  0.982000  1.0  -0.7423
  O  O1893  1  0.441600  0.615300  0.984000  1.0  -0.7913
  O  O1894  1  0.479900  0.575500  0.932500  1.0  -0.813
  O  O1895  1  0.352700  0.621600  0.953200  1.0  -0.8592
  O  O1896  1  0.275000  0.656500  0.951600  1.0  -0.8775
  O  O1897  1  0.158600  0.715000  0.927800  1.0  -0.7033
  O  O1898  1  0.176400  0.652600  0.962100  1.0  -0.744
  O  O1899  1  0.393700  0.560100  0.966600  1.0  -0.7949
  O  O1900  1  0.295900  0.556600  0.978800  1.0  -0.8783
  O  O1901  1  0.218400  0.591500  0.976900  1.0  -0.8916
  O  O1902  1  0.126000  0.562000  0.974300  1.0  -0.7118
  O  O1903  1  0.214900  0.525800  0.975600  1.0  -0.8172
  O  O1904  1  0.304300  0.484000  0.979200  1.0  -0.6961
  O  O1905  1  0.168400  0.470900  0.958500  1.0  -0.6639
  O  O1906  1  0.149700  0.527700  0.920400  1.0  -0.6784
  O  O1907  1  0.252100  0.486900  0.921200  1.0  -0.6791
  O  O1908  1  0.335500  0.520200  0.922600  1.0  -0.6697
  O  O1909  1  0.246300  0.558200  0.922400  1.0  -0.8407
  O  O1910  1  0.153400  0.596100  0.920100  1.0  -0.7021
  O  O1911  1  0.211800  0.661600  0.895900  1.0  -0.6404
  O  O1912  1  0.303200  0.624900  0.898000  1.0  -0.7622
  O  O1913  1  0.389300  0.584000  0.896800  1.0  -0.7618
  O  O1914  1  0.436300  0.640200  0.921100  1.0  -0.7048
  O  O1915  1  0.348300  0.676700  0.919700  1.0  -0.7625
  O  O1916  1  0.260000  0.717300  0.916900  1.0  -0.6882
  O  O1917  1  0.290700  0.758100  0.983700  1.0  -0.6524
  O  O1918  1  0.380600  0.718400  0.985700  1.0  -0.7477
  O  O1919  1  0.474400  0.681500  0.983400  1.0  -0.6254
  O  O1920  1  0.465500  0.741200  0.017100  1.0  -0.7346
  O  O1921  1  0.366000  0.783200  0.014400  1.0  -0.6518
  O  O1922  1  0.424900  0.770400  0.957500  1.0  -0.6377
  O  O1923  1  0.442800  0.710200  0.926300  1.0  -0.6894
  O  O1924  1  0.343600  0.749400  0.922000  1.0  -0.692
  O  O1925  1  0.382200  0.712500  0.869200  1.0  -0.7018
  O  O1926  1  0.389200  0.642200  0.861700  1.0  -0.7073
  O  O1927  1  0.286300  0.684300  0.858500  1.0  -0.6883
  O  O1928  1  0.300500  0.621300  0.832000  1.0  -0.7394
  O  O1929  1  0.311800  0.559900  0.865300  1.0  -0.7499
  O  O1930  1  0.213400  0.597100  0.864900  1.0  -0.6572
  O  O1931  1  0.222500  0.528200  0.867700  1.0  -0.658
  O  O1932  1  0.318600  0.610500  0.018600  1.0  -0.5912
  O  O1933  1  0.272000  0.629600  0.013600  1.0  -0.5772
  O  O1934  1  0.207600  0.878000  0.699900  1.0  -0.6814
  O  O1935  1  0.196800  0.943200  0.669300  1.0  -0.6986
  O  O1936  1  0.291300  0.898200  0.667600  1.0  -0.6988
  O  O1937  1  0.286300  0.970300  0.665000  1.0  -0.6594
  O  O1938  1  0.354400  0.972200  0.611400  1.0  -0.7695
  O  O1939  1  0.255100  0.015100  0.612300  1.0  -0.7274
  O  O1940  1  0.170600  0.979400  0.613900  1.0  -0.7389
  O  O1941  1  0.260600  0.941700  0.609500  1.0  -0.8058
  O  O1942  1  0.350600  0.902800  0.610200  1.0  -0.6919
  O  O1943  1  0.293300  0.837500  0.636000  1.0  -0.635
  O  O1944  1  0.203200  0.874400  0.635300  1.0  -0.7765
  O  O1945  1  0.113200  0.912900  0.639300  1.0  -0.7003
  O  O1946  1  0.121100  0.855800  0.674300  1.0  -0.7534
  O  O1947  1  0.217900  0.811500  0.671900  1.0  -0.6714
  O  O1948  1  0.210900  0.740800  0.664900  1.0  -0.7197
  O  O1949  1  0.127700  0.784200  0.663500  1.0  -0.6733
  O  O1950  1  0.065600  0.856700  0.617300  1.0  -0.696
  O  O1951  1  0.157600  0.821200  0.615100  1.0  -0.7752
  O  O1952  1  0.244800  0.783600  0.614100  1.0  -0.7067
  O  O1953  1  0.230000  0.844900  0.580600  1.0  -0.8887
  O  O1954  1  0.149500  0.877300  0.580500  1.0  -0.8953
  O  O1955  1  0.109100  0.939500  0.572000  1.0  -0.802
  O  O1956  1  0.326900  0.847500  0.567700  1.0  -0.7576
  O  O1957  1  0.284700  0.909300  0.554900  1.0  -0.8675
  O  O1958  1  0.205400  0.943600  0.556800  1.0  -0.8329
  O  O1959  1  0.100400  0.010900  0.576900  1.0  -0.7963
  O  O1960  1  0.197100  0.013700  0.558300  1.0  -0.7108
  O  O1961  1  0.286600  0.975400  0.558000  1.0  -0.7541
  O  O1962  1  0.378100  0.939100  0.555700  1.0  -0.705
  O  O1963  1  0.333333  0.029700  0.571100  1.0  -0.6769
  O  O1964  1  0.271000  0.034800  0.514100  1.0  -0.6199
  O  O1965  1  0.367900  0.993700  0.516100  1.0  -0.6925
  O  O1966  1  0.357500  0.881600  0.515100  1.0  -0.691
  O  O1967  1  0.137000  0.977600  0.519600  1.0  -0.8168
  O  O1968  1  0.055400  0.885000  0.552800  1.0  -0.7384
  O  O1969  1  0.277900  0.792700  0.550600  1.0  -0.7613
  O  O1970  1  0.159200  0.748300  0.606600  1.0  -0.7285
  O  O1971  1  0.063200  0.789200  0.612500  1.0  -0.7145
  O  O1972  1  0.984900  0.758300  0.584100  1.0  -0.6722
  O  O1973  1  0.075600  0.728200  0.575000  1.0  -0.6727
  O  O1974  1  0.209300  0.742000  0.550800  1.0  -0.6704
  O  O1975  1  0.118400  0.780400  0.550200  1.0  -0.8038
  O  O1976  1  0.027500  0.818700  0.550500  1.0  -0.6745
  O  O1977  1  0.112900  0.837700  0.517500  1.0  -0.8705
  O  O1978  1  0.194200  0.804000  0.516600  1.0  -0.8719
  O  O1979  1  0.278100  0.793100  0.482000  1.0  -0.7402
  O  O1980  1  0.058400  0.884700  0.484000  1.0  -0.7921
  O  O1981  1  0.020100  0.924500  0.432500  1.0  -0.8122
  O  O1982  1  0.147300  0.878400  0.453200  1.0  -0.8583
  O  O1983  1  0.225000  0.843500  0.451600  1.0  -0.8774
  O  O1984  1  0.341400  0.785000  0.427800  1.0  -0.7032
  O  O1985  1  0.323600  0.847400  0.462100  1.0  -0.7425
  O  O1986  1  0.106300  0.939900  0.466600  1.0  -0.7969
  O  O1987  1  0.204100  0.943400  0.478800  1.0  -0.8765
  O  O1988  1  0.281600  0.908500  0.476900  1.0  -0.8921
  O  O1989  1  0.374000  0.938000  0.474300  1.0  -0.7108
  O  O1990  1  0.285100  0.974200  0.475600  1.0  -0.8165
  O  O1991  1  0.195700  0.016000  0.479200  1.0  -0.6993
  O  O1992  1  0.331600  0.029100  0.458500  1.0  -0.6636
  O  O1993  1  0.350300  0.972300  0.420400  1.0  -0.6818
  O  O1994  1  0.247900  0.013100  0.421200  1.0  -0.6794
  O  O1995  1  0.164500  0.979800  0.422600  1.0  -0.6722
  O  O1996  1  0.253700  0.941800  0.422400  1.0  -0.8404
  O  O1997  1  0.346600  0.903900  0.420100  1.0  -0.7018
  O  O1998  1  0.288200  0.838400  0.395900  1.0  -0.6411
  O  O1999  1  0.196800  0.875100  0.398000  1.0  -0.7627
  O  O2000  1  0.110700  0.916000  0.396800  1.0  -0.7623
  O  O2001  1  0.063700  0.859800  0.421100  1.0  -0.7052
  O  O2002  1  0.151700  0.823300  0.419700  1.0  -0.7628
  O  O2003  1  0.240000  0.782700  0.416900  1.0  -0.6859
  O  O2004  1  0.209300  0.741900  0.483700  1.0  -0.6523
  O  O2005  1  0.119400  0.781600  0.485700  1.0  -0.7485
  O  O2006  1  0.025600  0.818500  0.483400  1.0  -0.6263
  O  O2007  1  0.034500  0.758800  0.517100  1.0  -0.7359
  O  O2008  1  0.134000  0.716800  0.514400  1.0  -0.6516
  O  O2009  1  0.075100  0.729600  0.457500  1.0  -0.6379
  O  O2010  1  0.057200  0.789800  0.426300  1.0  -0.6896
  O  O2011  1  0.156400  0.750600  0.422000  1.0  -0.6909
  O  O2012  1  0.117800  0.787500  0.369200  1.0  -0.7019
  O  O2013  1  0.110800  0.857800  0.361700  1.0  -0.71
  O  O2014  1  0.213700  0.815700  0.358500  1.0  -0.6887
  O  O2015  1  0.199500  0.878700  0.332000  1.0  -0.7406
  O  O2016  1  0.188200  0.940100  0.365300  1.0  -0.7524
  O  O2017  1  0.286600  0.902900  0.364900  1.0  -0.6583
  O  O2018  1  0.277500  0.971800  0.367700  1.0  -0.6641
  O  O2019  1  0.181400  0.889500  0.518600  1.0  -0.5915
  O  O2020  1  0.228000  0.870400  0.513600  1.0  -0.5778
  O  O2021  1  0.292400  0.378000  0.699900  1.0  -0.6814
  O  O2022  1  0.303200  0.443200  0.669300  1.0  -0.6973
  O  O2023  1  0.208700  0.398200  0.667600  1.0  -0.699
  O  O2024  1  0.213700  0.470300  0.665000  1.0  -0.658
  O  O2025  1  0.145600  0.472200  0.611400  1.0  -0.7683
  O  O2026  1  0.244900  0.515100  0.612300  1.0  -0.7282
  O  O2027  1  0.329400  0.479400  0.613900  1.0  -0.7368
  O  O2028  1  0.239400  0.441700  0.609500  1.0  -0.8065
  O  O2029  1  0.149400  0.402800  0.610200  1.0  -0.6932
  O  O2030  1  0.206700  0.337500  0.636000  1.0  -0.6354
  O  O2031  1  0.296800  0.374400  0.635300  1.0  -0.7767
  O  O2032  1  0.386800  0.412900  0.639300  1.0  -0.7009
  O  O2033  1  0.378900  0.355800  0.674300  1.0  -0.7546
  O  O2034  1  0.282100  0.311500  0.671900  1.0  -0.6715
  O  O2035  1  0.289100  0.240800  0.664900  1.0  -0.7184
  O  O2036  1  0.372300  0.284200  0.663500  1.0  -0.673
  O  O2037  1  0.434400  0.356700  0.617300  1.0  -0.6938
  O  O2038  1  0.342400  0.321200  0.615100  1.0  -0.7747
  O  O2039  1  0.255200  0.283600  0.614100  1.0  -0.7078
  O  O2040  1  0.270000  0.344900  0.580600  1.0  -0.8876
  O  O2041  1  0.350500  0.377300  0.580500  1.0  -0.8957
  O  O2042  1  0.390900  0.439500  0.572000  1.0  -0.7997
  O  O2043  1  0.173100  0.347500  0.567700  1.0  -0.7587
  O  O2044  1  0.215300  0.409300  0.554900  1.0  -0.8673
  O  O2045  1  0.294600  0.443600  0.556800  1.0  -0.8337
  O  O2046  1  0.399600  0.510900  0.576900  1.0  -0.795
  O  O2047  1  0.302900  0.513700  0.558300  1.0  -0.7097
  O  O2048  1  0.213400  0.475400  0.558000  1.0  -0.7537
  O  O2049  1  0.121900  0.439100  0.555700  1.0  -0.7056
  O  O2050  1  0.166700  0.529700  0.571100  1.0  -0.6776
  O  O2051  1  0.229000  0.534800  0.514100  1.0  -0.6187
  O  O2052  1  0.132100  0.493700  0.516100  1.0  -0.6944
  O  O2053  1  0.142500  0.381600  0.515100  1.0  -0.6931
  O  O2054  1  0.363000  0.477600  0.519600  1.0  -0.8181
  O  O2055  1  0.444600  0.385000  0.552800  1.0  -0.737
  O  O2056  1  0.222100  0.292700  0.550600  1.0  -0.762
  O  O2057  1  0.340800  0.248300  0.606600  1.0  -0.7284
  O  O2058  1  0.436800  0.289200  0.612500  1.0  -0.7146
  O  O2059  1  0.515100  0.258300  0.584100  1.0  -0.6725
  O  O2060  1  0.424400  0.228200  0.575000  1.0  -0.6717
  O  O2061  1  0.290700  0.242000  0.550800  1.0  -0.6702
  O  O2062  1  0.381600  0.280400  0.550200  1.0  -0.803
  O  O2063  1  0.472500  0.318700  0.550500  1.0  -0.6725
  O  O2064  1  0.387100  0.337700  0.517500  1.0  -0.8706
  O  O2065  1  0.305800  0.304000  0.516600  1.0  -0.8706
  O  O2066  1  0.221900  0.293100  0.482000  1.0  -0.7423
  O  O2067  1  0.441600  0.384700  0.484000  1.0  -0.7913
  O  O2068  1  0.479900  0.424500  0.432500  1.0  -0.8123
  O  O2069  1  0.352700  0.378400  0.453200  1.0  -0.8588
  O  O2070  1  0.275000  0.343500  0.451600  1.0  -0.8776
  O  O2071  1  0.158600  0.285000  0.427800  1.0  -0.7032
  O  O2072  1  0.176400  0.347400  0.462100  1.0  -0.7443
  O  O2073  1  0.393700  0.439900  0.466600  1.0  -0.797
  O  O2074  1  0.295900  0.443400  0.478800  1.0  -0.8781
  O  O2075  1  0.218400  0.408500  0.476900  1.0  -0.8919
  O  O2076  1  0.126000  0.438000  0.474300  1.0  -0.7118
  O  O2077  1  0.214900  0.474200  0.475600  1.0  -0.8169
  O  O2078  1  0.304300  0.516000  0.479200  1.0  -0.6977
  O  O2079  1  0.168400  0.529100  0.458500  1.0  -0.6641
  O  O2080  1  0.149700  0.472300  0.420400  1.0  -0.6806
  O  O2081  1  0.252100  0.513100  0.421200  1.0  -0.6796
  O  O2082  1  0.335500  0.479800  0.422600  1.0  -0.6706
  O  O2083  1  0.246300  0.441800  0.422400  1.0  -0.8408
  O  O2084  1  0.153400  0.403900  0.420100  1.0  -0.702
  O  O2085  1  0.211800  0.338400  0.395900  1.0  -0.6407
  O  O2086  1  0.303200  0.375100  0.398000  1.0  -0.7627
  O  O2087  1  0.389300  0.416000  0.396800  1.0  -0.7623
  O  O2088  1  0.436300  0.359800  0.421100  1.0  -0.7046
  O  O2089  1  0.348300  0.323300  0.419700  1.0  -0.7626
  O  O2090  1  0.260000  0.282700  0.416900  1.0  -0.6858
  O  O2091  1  0.290700  0.241900  0.483700  1.0  -0.6521
  O  O2092  1  0.380600  0.281600  0.485700  1.0  -0.7476
  O  O2093  1  0.474400  0.318500  0.483400  1.0  -0.6254
  O  O2094  1  0.465500  0.258800  0.517100  1.0  -0.7346
  O  O2095  1  0.366000  0.216800  0.514400  1.0  -0.6514
  O  O2096  1  0.424900  0.229600  0.457500  1.0  -0.6382
  O  O2097  1  0.442800  0.289800  0.426300  1.0  -0.6885
  O  O2098  1  0.343600  0.250600  0.422000  1.0  -0.6908
  O  O2099  1  0.382200  0.287500  0.369200  1.0  -0.7009
  O  O2100  1  0.389200  0.357800  0.361700  1.0  -0.7083
  O  O2101  1  0.286300  0.315700  0.358500  1.0  -0.6883
  O  O2102  1  0.300500  0.378700  0.332000  1.0  -0.7409
  O  O2103  1  0.311800  0.440100  0.365300  1.0  -0.7517
  O  O2104  1  0.213400  0.402900  0.364900  1.0  -0.6585
  O  O2105  1  0.222500  0.471800  0.367700  1.0  -0.6627
  O  O2106  1  0.318600  0.389500  0.518600  1.0  -0.5912
  O  O2107  1  0.272000  0.370400  0.513600  1.0  -0.5784
  O  O2108  1  0.207600  0.122000  0.199900  1.0  -0.6836
  O  O2109  1  0.196800  0.056800  0.169300  1.0  -0.6992
  O  O2110  1  0.291300  0.101800  0.167600  1.0  -0.699
  O  O2111  1  0.286300  0.029700  0.165000  1.0  -0.6635
  O  O2112  1  0.354400  0.027800  0.111400  1.0  -0.7695
  O  O2113  1  0.255100  0.984900  0.112300  1.0  -0.727
  O  O2114  1  0.170600  0.020600  0.113900  1.0  -0.7384
  O  O2115  1  0.260600  0.058300  0.109500  1.0  -0.8058
  O  O2116  1  0.350600  0.097200  0.110200  1.0  -0.6916
  O  O2117  1  0.293300  0.162500  0.136000  1.0  -0.6351
  O  O2118  1  0.203200  0.125600  0.135300  1.0  -0.7766
  O  O2119  1  0.113200  0.087100  0.139300  1.0  -0.6999
  O  O2120  1  0.121100  0.144200  0.174300  1.0  -0.7545
  O  O2121  1  0.217900  0.188500  0.171900  1.0  -0.6709
  O  O2122  1  0.210900  0.259200  0.164900  1.0  -0.7192
  O  O2123  1  0.127700  0.215800  0.163500  1.0  -0.6731
  O  O2124  1  0.065600  0.143300  0.117300  1.0  -0.6962
  O  O2125  1  0.157600  0.178800  0.115100  1.0  -0.7745
  O  O2126  1  0.244800  0.216400  0.114100  1.0  -0.7076
  O  O2127  1  0.230000  0.155100  0.080600  1.0  -0.8889
  O  O2128  1  0.149500  0.122700  0.080500  1.0  -0.8955
  O  O2129  1  0.109100  0.060500  0.072000  1.0  -0.7997
  O  O2130  1  0.326900  0.152500  0.067700  1.0  -0.7606
  O  O2131  1  0.284700  0.090700  0.054900  1.0  -0.8672
  O  O2132  1  0.205400  0.056400  0.056800  1.0  -0.8327
  O  O2133  1  0.100400  0.989100  0.076900  1.0  -0.7965
  O  O2134  1  0.197100  0.986300  0.058300  1.0  -0.7095
  O  O2135  1  0.286600  0.024600  0.058000  1.0  -0.7547
  O  O2136  1  0.378100  0.060900  0.055700  1.0  -0.705
  O  O2137  1  0.333333  0.970300  0.071100  1.0  -0.677
  O  O2138  1  0.271000  0.965200  0.014100  1.0  -0.62
  O  O2139  1  0.367900  0.006300  0.016100  1.0  -0.6926
  O  O2140  1  0.357500  0.118400  0.015100  1.0  -0.6924
  O  O2141  1  0.137000  0.022400  0.019600  1.0  -0.817
  O  O2142  1  0.055400  0.115000  0.052800  1.0  -0.7365
  O  O2143  1  0.277900  0.207300  0.050600  1.0  -0.7618
  O  O2144  1  0.159200  0.251700  0.106600  1.0  -0.7306
  O  O2145  1  0.063200  0.210800  0.112500  1.0  -0.7145
  O  O2146  1  0.984900  0.241700  0.084100  1.0  -0.6722
  O  O2147  1  0.075600  0.271800  0.075000  1.0  -0.6726
  O  O2148  1  0.209300  0.258000  0.050800  1.0  -0.6699
  O  O2149  1  0.118400  0.219600  0.050200  1.0  -0.804
  O  O2150  1  0.027500  0.181300  0.050500  1.0  -0.6733
  O  O2151  1  0.112900  0.162300  0.017500  1.0  -0.8704
  O  O2152  1  0.194200  0.196000  0.016600  1.0  -0.8726
  O  O2153  1  0.278100  0.206900  0.982000  1.0  -0.7405
  O  O2154  1  0.058400  0.115300  0.984000  1.0  -0.7929
  O  O2155  1  0.020100  0.075500  0.932500  1.0  -0.8123
  O  O2156  1  0.147300  0.121600  0.953200  1.0  -0.8587
  O  O2157  1  0.225000  0.156500  0.951600  1.0  -0.8773
  O  O2158  1  0.341400  0.215000  0.927800  1.0  -0.7033
  O  O2159  1  0.323600  0.152600  0.962100  1.0  -0.7425
  O  O2160  1  0.106300  0.060100  0.966600  1.0  -0.7941
  O  O2161  1  0.204100  0.056600  0.978800  1.0  -0.8765
  O  O2162  1  0.281600  0.091500  0.976900  1.0  -0.8922
  O  O2163  1  0.374000  0.062000  0.974300  1.0  -0.7108
  O  O2164  1  0.285100  0.025800  0.975600  1.0  -0.8169
  O  O2165  1  0.195700  0.984000  0.979200  1.0  -0.6974
  O  O2166  1  0.331600  0.970900  0.958500  1.0  -0.6635
  O  O2167  1  0.350300  0.027700  0.920400  1.0  -0.6795
  O  O2168  1  0.247900  0.986900  0.921200  1.0  -0.6791
  O  O2169  1  0.164500  0.020200  0.922600  1.0  -0.6714
  O  O2170  1  0.253700  0.058200  0.922400  1.0  -0.8404
  O  O2171  1  0.346600  0.096100  0.920100  1.0  -0.702
  O  O2172  1  0.288200  0.161600  0.895900  1.0  -0.6407
  O  O2173  1  0.196800  0.124900  0.898000  1.0  -0.7621
  O  O2174  1  0.110700  0.084000  0.896800  1.0  -0.7603
  O  O2175  1  0.063700  0.140200  0.921100  1.0  -0.7053
  O  O2176  1  0.151700  0.176700  0.919700  1.0  -0.7628
  O  O2177  1  0.240000  0.217300  0.916900  1.0  -0.6887
  O  O2178  1  0.209300  0.258100  0.983700  1.0  -0.6527
  O  O2179  1  0.119400  0.218400  0.985700  1.0  -0.7483
  O  O2180  1  0.025600  0.181500  0.983400  1.0  -0.6262
  O  O2181  1  0.034500  0.241200  0.017100  1.0  -0.736
  O  O2182  1  0.134000  0.283200  0.014400  1.0  -0.6519
  O  O2183  1  0.075100  0.270400  0.957500  1.0  -0.6375
  O  O2184  1  0.057200  0.210200  0.926300  1.0  -0.6904
  O  O2185  1  0.156400  0.249400  0.922000  1.0  -0.6923
  O  O2186  1  0.117800  0.212500  0.869200  1.0  -0.7021
  O  O2187  1  0.110800  0.142200  0.861700  1.0  -0.7088
  O  O2188  1  0.213700  0.184300  0.858500  1.0  -0.6886
  O  O2189  1  0.199500  0.121300  0.832000  1.0  -0.7391
  O  O2190  1  0.188200  0.059900  0.865300  1.0  -0.7514
  O  O2191  1  0.286600  0.097100  0.864900  1.0  -0.657
  O  O2192  1  0.277500  0.028200  0.867700  1.0  -0.6583
  O  O2193  1  0.181400  0.110500  0.018600  1.0  -0.5915
  O  O2194  1  0.228000  0.129600  0.013600  1.0  -0.577
  O  O2195  1  0.707600  0.378000  0.800100  1.0  -0.6857
  O  O2196  1  0.696800  0.443200  0.830700  1.0  -0.7066
  O  O2197  1  0.791300  0.398200  0.832400  1.0  -0.6961
  O  O2198  1  0.786300  0.470300  0.835000  1.0  -0.6636
  O  O2199  1  0.854400  0.472200  0.888600  1.0  -0.7694
  O  O2200  1  0.755100  0.515100  0.887700  1.0  -0.7277
  O  O2201  1  0.670600  0.479400  0.886100  1.0  -0.7365
  O  O2202  1  0.760600  0.441700  0.890500  1.0  -0.8037
  O  O2203  1  0.850600  0.402800  0.889800  1.0  -0.6916
  O  O2204  1  0.793300  0.337500  0.864000  1.0  -0.6348
  O  O2205  1  0.703200  0.374400  0.864700  1.0  -0.7779
  O  O2206  1  0.613200  0.412900  0.860700  1.0  -0.7019
  O  O2207  1  0.621100  0.355800  0.825700  1.0  -0.7541
  O  O2208  1  0.717900  0.311500  0.828100  1.0  -0.6715
  O  O2209  1  0.710900  0.240800  0.835100  1.0  -0.7191
  O  O2210  1  0.627700  0.284200  0.836500  1.0  -0.6731
  O  O2211  1  0.565600  0.356700  0.882700  1.0  -0.6957
  O  O2212  1  0.657600  0.321200  0.884900  1.0  -0.7749
  O  O2213  1  0.744800  0.283600  0.885900  1.0  -0.7067
  O  O2214  1  0.730000  0.344900  0.919400  1.0  -0.8891
  O  O2215  1  0.649500  0.377300  0.919500  1.0  -0.8957
  O  O2216  1  0.609100  0.439500  0.928000  1.0  -0.8017
  O  O2217  1  0.826900  0.347500  0.932300  1.0  -0.7585
  O  O2218  1  0.784700  0.409300  0.945100  1.0  -0.8672
  O  O2219  1  0.705400  0.443600  0.943200  1.0  -0.8332
  O  O2220  1  0.600400  0.510900  0.923100  1.0  -0.7969
  O  O2221  1  0.697100  0.513700  0.941700  1.0  -0.7109
  O  O2222  1  0.786600  0.475400  0.942000  1.0  -0.754
  O  O2223  1  0.878100  0.439100  0.944300  1.0  -0.7035
  O  O2224  1  0.833300  0.529700  0.928900  1.0  -0.6813
  O  O2225  1  0.771000  0.534800  0.985900  1.0  -0.6197
  O  O2226  1  0.867900  0.493700  0.983900  1.0  -0.6934
  O  O2227  1  0.857500  0.381600  0.984900  1.0  -0.6912
  O  O2228  1  0.637000  0.477600  0.980400  1.0  -0.8164
  O  O2229  1  0.555400  0.385000  0.947200  1.0  -0.7382
  O  O2230  1  0.777900  0.292700  0.949400  1.0  -0.7615
  O  O2231  1  0.659200  0.248300  0.893400  1.0  -0.7291
  O  O2232  1  0.563200  0.289200  0.887500  1.0  -0.715
  O  O2233  1  0.484900  0.258300  0.915900  1.0  -0.6729
  O  O2234  1  0.575600  0.228200  0.925000  1.0  -0.6739
  O  O2235  1  0.709300  0.242000  0.949200  1.0  -0.6715
  O  O2236  1  0.618400  0.280400  0.949800  1.0  -0.806
  O  O2237  1  0.527500  0.318700  0.949500  1.0  -0.6745
  O  O2238  1  0.612900  0.337700  0.982500  1.0  -0.8703
  O  O2239  1  0.694200  0.304000  0.983400  1.0  -0.8718
  O  O2240  1  0.778100  0.293100  0.018000  1.0  -0.7393
  O  O2241  1  0.558400  0.384700  0.016000  1.0  -0.7927
  O  O2242  1  0.520100  0.424500  0.067500  1.0  -0.8116
  O  O2243  1  0.647300  0.378400  0.046800  1.0  -0.8579
  O  O2244  1  0.725000  0.343500  0.048400  1.0  -0.8772
  O  O2245  1  0.841400  0.285000  0.072200  1.0  -0.7045
  O  O2246  1  0.823600  0.347400  0.037900  1.0  -0.7416
  O  O2247  1  0.606300  0.439900  0.033400  1.0  -0.7966
  O  O2248  1  0.704100  0.443400  0.021200  1.0  -0.8763
  O  O2249  1  0.781600  0.408500  0.023100  1.0  -0.8917
  O  O2250  1  0.874000  0.438000  0.025700  1.0  -0.711
  O  O2251  1  0.785100  0.474200  0.024400  1.0  -0.8179
  O  O2252  1  0.695700  0.516000  0.020800  1.0  -0.6994
  O  O2253  1  0.831600  0.529100  0.041500  1.0  -0.6642
  O  O2254  1  0.850300  0.472300  0.079600  1.0  -0.6829
  O  O2255  1  0.747900  0.513100  0.078800  1.0  -0.6809
  O  O2256  1  0.664500  0.479800  0.077400  1.0  -0.6717
  O  O2257  1  0.753700  0.441800  0.077600  1.0  -0.8406
  O  O2258  1  0.846600  0.403900  0.079900  1.0  -0.7021
  O  O2259  1  0.788200  0.338400  0.104100  1.0  -0.6408
  O  O2260  1  0.696800  0.375100  0.102000  1.0  -0.7622
  O  O2261  1  0.610700  0.416000  0.103200  1.0  -0.7611
  O  O2262  1  0.563700  0.359800  0.078900  1.0  -0.7026
  O  O2263  1  0.651700  0.323300  0.080300  1.0  -0.7628
  O  O2264  1  0.740000  0.282700  0.083100  1.0  -0.6859
  O  O2265  1  0.709300  0.241900  0.016300  1.0  -0.6518
  O  O2266  1  0.619400  0.281600  0.014300  1.0  -0.7489
  O  O2267  1  0.525600  0.318500  0.016600  1.0  -0.626
  O  O2268  1  0.534500  0.258800  0.982900  1.0  -0.7355
  O  O2269  1  0.634000  0.216800  0.985600  1.0  -0.651
  O  O2270  1  0.575100  0.229600  0.042500  1.0  -0.6384
  O  O2271  1  0.557200  0.289800  0.073700  1.0  -0.6887
  O  O2272  1  0.656400  0.250600  0.078000  1.0  -0.6918
  O  O2273  1  0.617800  0.287500  0.130800  1.0  -0.7
  O  O2274  1  0.610800  0.357800  0.138300  1.0  -0.7125
  O  O2275  1  0.713700  0.315700  0.141500  1.0  -0.6861
  O  O2276  1  0.699500  0.378700  0.168000  1.0  -0.7357
  O  O2277  1  0.688200  0.440100  0.134700  1.0  -0.7431
  O  O2278  1  0.786600  0.402900  0.135100  1.0  -0.6581
  O  O2279  1  0.777500  0.471800  0.132300  1.0  -0.6573
  O  O2280  1  0.681400  0.389500  0.981400  1.0  -0.5913
  O  O2281  1  0.728000  0.370400  0.986400  1.0  -0.5778
  O  O2282  1  0.792400  0.122000  0.300100  1.0  -0.6835
  O  O2283  1  0.803200  0.056800  0.330700  1.0  -0.7024
  O  O2284  1  0.708700  0.101800  0.332400  1.0  -0.697
  O  O2285  1  0.713700  0.029700  0.335000  1.0  -0.6582
  O  O2286  1  0.645600  0.027800  0.388600  1.0  -0.7684
  O  O2287  1  0.744900  0.984900  0.387700  1.0  -0.7251
  O  O2288  1  0.829400  0.020600  0.386100  1.0  -0.7337
  O  O2289  1  0.739400  0.058300  0.390500  1.0  -0.804
  O  O2290  1  0.649400  0.097200  0.389800  1.0  -0.6945
  O  O2291  1  0.706700  0.162500  0.364000  1.0  -0.6358
  O  O2292  1  0.796800  0.125600  0.364700  1.0  -0.7776
  O  O2293  1  0.886800  0.087100  0.360700  1.0  -0.7014
  O  O2294  1  0.878900  0.144200  0.325700  1.0  -0.7538
  O  O2295  1  0.782100  0.188500  0.328100  1.0  -0.6713
  O  O2296  1  0.789100  0.259200  0.335100  1.0  -0.7172
  O  O2297  1  0.872300  0.215800  0.336500  1.0  -0.675
  O  O2298  1  0.934400  0.143300  0.382700  1.0  -0.6924
  O  O2299  1  0.842400  0.178800  0.384900  1.0  -0.7744
  O  O2300  1  0.755200  0.216400  0.385900  1.0  -0.7079
  O  O2301  1  0.770000  0.155100  0.419400  1.0  -0.8884
  O  O2302  1  0.850500  0.122700  0.419500  1.0  -0.896
  O  O2303  1  0.890900  0.060500  0.428000  1.0  -0.7984
  O  O2304  1  0.673100  0.152500  0.432300  1.0  -0.7628
  O  O2305  1  0.715300  0.090700  0.445100  1.0  -0.867
  O  O2306  1  0.794600  0.056400  0.443200  1.0  -0.8338
  O  O2307  1  0.899600  0.989100  0.423100  1.0  -0.7955
  O  O2308  1  0.802900  0.986300  0.441700  1.0  -0.7084
  O  O2309  1  0.713400  0.024600  0.442000  1.0  -0.7542
  O  O2310  1  0.621900  0.060900  0.444300  1.0  -0.7051
  O  O2311  1  0.666667  0.970300  0.428900  1.0  -0.6792
  O  O2312  1  0.729000  0.965200  0.485900  1.0  -0.619
  O  O2313  1  0.632100  0.006300  0.483900  1.0  -0.6954
  O  O2314  1  0.642500  0.118400  0.484900  1.0  -0.6945
  O  O2315  1  0.863000  0.022400  0.480400  1.0  -0.8183
  O  O2316  1  0.944600  0.115000  0.447200  1.0  -0.7344
  O  O2317  1  0.722100  0.207300  0.449400  1.0  -0.7629
  O  O2318  1  0.840800  0.251700  0.393400  1.0  -0.7308
  O  O2319  1  0.936800  0.210800  0.387500  1.0  -0.7151
  O  O2320  1  0.015100  0.241700  0.415900  1.0  -0.6733
  O  O2321  1  0.924400  0.271800  0.425000  1.0  -0.673
  O  O2322  1  0.790700  0.258000  0.449200  1.0  -0.6708
  O  O2323  1  0.881600  0.219600  0.449800  1.0  -0.8053
  O  O2324  1  0.972500  0.181300  0.449500  1.0  -0.6709
  O  O2325  1  0.887100  0.162300  0.482500  1.0  -0.8703
  O  O2326  1  0.805800  0.196000  0.483400  1.0  -0.8707
  O  O2327  1  0.721900  0.206900  0.518000  1.0  -0.7419
  O  O2328  1  0.941600  0.115300  0.516000  1.0  -0.7916
  O  O2329  1  0.979900  0.075500  0.567500  1.0  -0.8126
  O  O2330  1  0.852700  0.121600  0.546800  1.0  -0.8588
  O  O2331  1  0.775000  0.156500  0.548400  1.0  -0.877
  O  O2332  1  0.658600  0.215000  0.572200  1.0  -0.7048
  O  O2333  1  0.676400  0.152600  0.537900  1.0  -0.7434
  O  O2334  1  0.893700  0.060100  0.533400  1.0  -0.7946
  O  O2335  1  0.795900  0.056600  0.521200  1.0  -0.8778
  O  O2336  1  0.718400  0.091500  0.523100  1.0  -0.8912
  O  O2337  1  0.626000  0.062000  0.525700  1.0  -0.7121
  O  O2338  1  0.714900  0.025800  0.524400  1.0  -0.8186
  O  O2339  1  0.804300  0.984000  0.520800  1.0  -0.6955
  O  O2340  1  0.668400  0.970900  0.541500  1.0  -0.6644
  O  O2341  1  0.649700  0.027700  0.579600  1.0  -0.6829
  O  O2342  1  0.752100  0.986900  0.578800  1.0  -0.6811
  O  O2343  1  0.835500  0.020200  0.577400  1.0  -0.6697
  O  O2344  1  0.746300  0.058200  0.577600  1.0  -0.8406
  O  O2345  1  0.653400  0.096100  0.579900  1.0  -0.7022
  O  O2346  1  0.711800  0.161600  0.604100  1.0  -0.6404
  O  O2347  1  0.803200  0.124900  0.602000  1.0  -0.7621
  O  O2348  1  0.889300  0.084000  0.603200  1.0  -0.7618
  O  O2349  1  0.936300  0.140200  0.578900  1.0  -0.7031
  O  O2350  1  0.848300  0.176700  0.580300  1.0  -0.762
  O  O2351  1  0.760000  0.217300  0.583100  1.0  -0.6882
  O  O2352  1  0.790700  0.258100  0.516300  1.0  -0.6516
  O  O2353  1  0.880600  0.218400  0.514300  1.0  -0.7487
  O  O2354  1  0.974400  0.181500  0.516600  1.0  -0.6253
  O  O2355  1  0.965500  0.241200  0.482900  1.0  -0.7342
  O  O2356  1  0.866000  0.283200  0.485600  1.0  -0.6519
  O  O2357  1  0.924900  0.270400  0.542500  1.0  -0.6376
  O  O2358  1  0.942800  0.210200  0.573700  1.0  -0.6878
  O  O2359  1  0.843600  0.249400  0.578000  1.0  -0.6934
  O  O2360  1  0.882200  0.212500  0.630800  1.0  -0.6999
  O  O2361  1  0.889200  0.142200  0.638300  1.0  -0.7127
  O  O2362  1  0.786300  0.184300  0.641500  1.0  -0.6859
  O  O2363  1  0.800500  0.121300  0.668000  1.0  -0.7377
  O  O2364  1  0.811800  0.059900  0.634700  1.0  -0.7438
  O  O2365  1  0.713400  0.097100  0.635100  1.0  -0.6597
  O  O2366  1  0.722500  0.028200  0.632300  1.0  -0.6585
  O  O2367  1  0.818600  0.110500  0.481400  1.0  -0.591
  O  O2368  1  0.772000  0.129600  0.486400  1.0  -0.5772
