# generated using pymatgen
data_CeMnH12(C4O5)3
_symmetry_space_group_name_H-M   'P 1'
_cell_length_a   26.43910000
_cell_length_b   26.43910000
_cell_length_c   26.43910000
_cell_angle_alpha   90.00000000
_cell_angle_beta   90.00000000
_cell_angle_gamma   90.00000000
_symmetry_Int_Tables_number   1
_chemical_formula_structural   CeMnH12(C4O5)3
_chemical_formula_sum   'Ce32 Mn32 H384 C384 O480'
_cell_volume   18481.61854953
_cell_formula_units_Z   32
loop_
 _symmetry_equiv_pos_site_id
 _symmetry_equiv_pos_as_xyz
  1  'x, y, z'
loop_
 _atom_site_type_symbol
 _atom_site_label
 _atom_site_symmetry_multiplicity
 _atom_site_fract_x
 _atom_site_fract_y
 _atom_site_fract_z
 _atom_site_occupancy
 _atom_site_charge
  Ce  Ce1  1  0.250000  0.000000  0.000000  1.0  2.1878
  Ce  Ce2  1  0.250000  0.500000  0.500000  1.0  2.1878
  Ce  Ce3  1  0.750000  0.500000  0.000000  1.0  2.1878
  Ce  Ce4  1  0.000000  0.750000  0.500000  1.0  2.1878
  Ce  Ce5  1  0.500000  0.750000  0.000000  1.0  2.1878
  Ce  Ce6  1  0.500000  0.500000  0.250000  1.0  2.1878
  Ce  Ce7  1  0.750000  0.250000  0.750000  1.0  2.1878
  Ce  Ce8  1  0.000000  0.250000  0.000000  1.0  2.1878
  Ce  Ce9  1  0.500000  0.250000  0.500000  1.0  2.1878
  Ce  Ce10  1  0.500000  0.000000  0.750000  1.0  2.1878
  Ce  Ce11  1  0.750000  0.000000  0.500000  1.0  2.1878
  Ce  Ce12  1  0.750000  0.750000  0.250000  1.0  2.1878
  Ce  Ce13  1  0.000000  0.000000  0.250000  1.0  2.1878
  Ce  Ce14  1  0.000000  0.500000  0.750000  1.0  2.1878
  Ce  Ce15  1  0.250000  0.750000  0.750000  1.0  2.1878
  Ce  Ce16  1  0.250000  0.250000  0.250000  1.0  2.1878
  Ce  Ce17  1  0.750000  0.000000  0.000000  1.0  2.1878
  Ce  Ce18  1  0.000000  0.250000  0.500000  1.0  2.1878
  Ce  Ce19  1  0.500000  0.500000  0.750000  1.0  2.1878
  Ce  Ce20  1  0.250000  0.750000  0.250000  1.0  2.1878
  Ce  Ce21  1  0.750000  0.750000  0.750000  1.0  2.1878
  Ce  Ce22  1  0.000000  0.750000  0.000000  1.0  2.1878
  Ce  Ce23  1  0.500000  0.000000  0.250000  1.0  2.1878
  Ce  Ce24  1  0.750000  0.500000  0.500000  1.0  2.1878
  Ce  Ce25  1  0.250000  0.250000  0.750000  1.0  2.1878
  Ce  Ce26  1  0.000000  0.000000  0.750000  1.0  2.1878
  Ce  Ce27  1  0.000000  0.500000  0.250000  1.0  2.1878
  Ce  Ce28  1  0.250000  0.500000  0.000000  1.0  2.1878
  Ce  Ce29  1  0.250000  0.000000  0.500000  1.0  2.1878
  Ce  Ce30  1  0.500000  0.750000  0.500000  1.0  2.1878
  Ce  Ce31  1  0.500000  0.250000  0.000000  1.0  2.1878
  Ce  Ce32  1  0.750000  0.250000  0.250000  1.0  2.1878
  Mn  Mn33  1  0.500000  0.000000  0.000000  1.0  0.9898
  Mn  Mn34  1  0.500000  0.500000  0.500000  1.0  0.9898
  Mn  Mn35  1  0.750000  0.750000  0.500000  1.0  0.9898
  Mn  Mn36  1  0.250000  0.750000  0.000000  1.0  0.9898
  Mn  Mn37  1  0.250000  0.500000  0.250000  1.0  0.9898
  Mn  Mn38  1  0.750000  0.000000  0.250000  1.0  0.9898
  Mn  Mn39  1  0.000000  0.250000  0.750000  1.0  0.9898
  Mn  Mn40  1  0.000000  0.500000  0.000000  1.0  0.9898
  Mn  Mn41  1  0.500000  0.750000  0.750000  1.0  0.9898
  Mn  Mn42  1  0.250000  0.250000  0.500000  1.0  0.9898
  Mn  Mn43  1  0.000000  0.000000  0.500000  1.0  0.9898
  Mn  Mn44  1  0.750000  0.500000  0.750000  1.0  0.9898
  Mn  Mn45  1  0.500000  0.250000  0.250000  1.0  0.9898
  Mn  Mn46  1  0.750000  0.750000  0.000000  1.0  0.9898
  Mn  Mn47  1  0.500000  0.000000  0.500000  1.0  0.9898
  Mn  Mn48  1  0.250000  0.500000  0.750000  1.0  0.9898
  Mn  Mn49  1  0.250000  0.000000  0.250000  1.0  0.9898
  Mn  Mn50  1  0.750000  0.000000  0.750000  1.0  0.9898
  Mn  Mn51  1  0.000000  0.250000  0.250000  1.0  0.9898
  Mn  Mn52  1  0.250000  0.250000  0.000000  1.0  0.9898
  Mn  Mn53  1  0.500000  0.750000  0.250000  1.0  0.9898
  Mn  Mn54  1  0.000000  0.750000  0.750000  1.0  0.9898
  Mn  Mn55  1  0.000000  0.500000  0.500000  1.0  0.9898
  Mn  Mn56  1  0.000000  0.000000  0.000000  1.0  0.9898
  Mn  Mn57  1  0.750000  0.250000  0.500000  1.0  0.9898
  Mn  Mn58  1  0.500000  0.500000  0.000000  1.0  0.9898
  Mn  Mn59  1  0.000000  0.750000  0.250000  1.0  0.9898
  Mn  Mn60  1  0.250000  0.000000  0.750000  1.0  0.9898
  Mn  Mn61  1  0.750000  0.250000  0.000000  1.0  0.9898
  Mn  Mn62  1  0.250000  0.750000  0.500000  1.0  0.9898
  Mn  Mn63  1  0.750000  0.500000  0.250000  1.0  0.9898
  Mn  Mn64  1  0.500000  0.250000  0.750000  1.0  0.9898
  H  H65  1  0.384400  0.073000  0.032900  1.0  0.1092
  H  H66  1  0.387400  0.069500  0.973600  1.0  0.1073
  H  H67  1  0.384400  0.573000  0.532900  1.0  0.1092
  H  H68  1  0.387400  0.569500  0.473600  1.0  0.1073
  H  H69  1  0.884400  0.073000  0.532900  1.0  0.1092
  H  H70  1  0.887400  0.069500  0.473600  1.0  0.1073
  H  H71  1  0.884400  0.573000  0.032900  1.0  0.1092
  H  H72  1  0.887400  0.569500  0.973600  1.0  0.1073
  H  H73  1  0.865600  0.677000  0.532900  1.0  0.1095
  H  H74  1  0.862600  0.680500  0.473600  1.0  0.1078
  H  H75  1  0.865600  0.177000  0.032900  1.0  0.1095
  H  H76  1  0.862600  0.180500  0.973600  1.0  0.1078
  H  H77  1  0.365600  0.677000  0.032900  1.0  0.1095
  H  H78  1  0.362600  0.680500  0.973600  1.0  0.1078
  H  H79  1  0.365600  0.177000  0.532900  1.0  0.1095
  H  H80  1  0.362600  0.180500  0.473600  1.0  0.1078
  H  H81  1  0.365600  0.573000  0.217100  1.0  0.1091
  H  H82  1  0.362600  0.569500  0.276400  1.0  0.1078
  H  H83  1  0.365600  0.073000  0.717100  1.0  0.1091
  H  H84  1  0.362600  0.069500  0.776400  1.0  0.1078
  H  H85  1  0.865600  0.573000  0.717100  1.0  0.1091
  H  H86  1  0.862600  0.569500  0.776400  1.0  0.1078
  H  H87  1  0.865600  0.073000  0.217100  1.0  0.1091
  H  H88  1  0.862600  0.069500  0.276400  1.0  0.1078
  H  H89  1  0.884400  0.177000  0.717100  1.0  0.1089
  H  H90  1  0.887400  0.180500  0.776400  1.0  0.1081
  H  H91  1  0.884400  0.677000  0.217100  1.0  0.1089
  H  H92  1  0.887400  0.680500  0.276400  1.0  0.1081
  H  H93  1  0.384400  0.177000  0.217100  1.0  0.1089
  H  H94  1  0.387400  0.180500  0.276400  1.0  0.1081
  H  H95  1  0.384400  0.677000  0.717100  1.0  0.1089
  H  H96  1  0.387400  0.680500  0.776400  1.0  0.1081
  H  H97  1  0.032900  0.384400  0.073000  1.0  0.1091
  H  H98  1  0.973600  0.387400  0.069500  1.0  0.1097
  H  H99  1  0.032900  0.884400  0.573000  1.0  0.1091
  H  H100  1  0.973600  0.887400  0.569500  1.0  0.1097
  H  H101  1  0.532900  0.384400  0.573000  1.0  0.1091
  H  H102  1  0.473600  0.387400  0.569500  1.0  0.1097
  H  H103  1  0.532900  0.884400  0.073000  1.0  0.1091
  H  H104  1  0.473600  0.887400  0.069500  1.0  0.1097
  H  H105  1  0.532900  0.865600  0.677000  1.0  0.1088
  H  H106  1  0.473600  0.862600  0.680500  1.0  0.11
  H  H107  1  0.532900  0.365600  0.177000  1.0  0.1088
  H  H108  1  0.473600  0.362600  0.180500  1.0  0.11
  H  H109  1  0.032900  0.865600  0.177000  1.0  0.1088
  H  H110  1  0.973600  0.862600  0.180500  1.0  0.11
  H  H111  1  0.032900  0.365600  0.677000  1.0  0.1088
  H  H112  1  0.973600  0.362600  0.680500  1.0  0.11
  H  H113  1  0.217100  0.365600  0.573000  1.0  0.1104
  H  H114  1  0.276400  0.362600  0.569500  1.0  0.1065
  H  H115  1  0.217100  0.865600  0.073000  1.0  0.1104
  H  H116  1  0.276400  0.862600  0.069500  1.0  0.1065
  H  H117  1  0.717100  0.365600  0.073000  1.0  0.1104
  H  H118  1  0.776400  0.362600  0.069500  1.0  0.1065
  H  H119  1  0.717100  0.865600  0.573000  1.0  0.1104
  H  H120  1  0.776400  0.862600  0.569500  1.0  0.1065
  H  H121  1  0.717100  0.884400  0.177000  1.0  0.1106
  H  H122  1  0.776400  0.887400  0.180500  1.0  0.1064
  H  H123  1  0.717100  0.384400  0.677000  1.0  0.1106
  H  H124  1  0.776400  0.387400  0.680500  1.0  0.1064
  H  H125  1  0.217100  0.884400  0.677000  1.0  0.1106
  H  H126  1  0.276400  0.887400  0.680500  1.0  0.1064
  H  H127  1  0.217100  0.384400  0.177000  1.0  0.1106
  H  H128  1  0.276400  0.387400  0.180500  1.0  0.1064
  H  H129  1  0.073000  0.032900  0.384400  1.0  0.1094
  H  H130  1  0.069500  0.973600  0.387400  1.0  0.109
  H  H131  1  0.073000  0.532900  0.884400  1.0  0.1094
  H  H132  1  0.069500  0.473600  0.887400  1.0  0.109
  H  H133  1  0.573000  0.032900  0.884400  1.0  0.1094
  H  H134  1  0.569500  0.973600  0.887400  1.0  0.109
  H  H135  1  0.573000  0.532900  0.384400  1.0  0.1094
  H  H136  1  0.569500  0.473600  0.387400  1.0  0.109
  H  H137  1  0.677000  0.532900  0.865600  1.0  0.1095
  H  H138  1  0.680500  0.473600  0.862600  1.0  0.1086
  H  H139  1  0.677000  0.032900  0.365600  1.0  0.1095
  H  H140  1  0.680500  0.973600  0.362600  1.0  0.1086
  H  H141  1  0.177000  0.532900  0.365600  1.0  0.1095
  H  H142  1  0.180500  0.473600  0.362600  1.0  0.1086
  H  H143  1  0.177000  0.032900  0.865600  1.0  0.1095
  H  H144  1  0.180500  0.973600  0.862600  1.0  0.1086
  H  H145  1  0.573000  0.217100  0.365600  1.0  0.1099
  H  H146  1  0.569500  0.276400  0.362600  1.0  0.1091
  H  H147  1  0.573000  0.717100  0.865600  1.0  0.1099
  H  H148  1  0.569500  0.776400  0.862600  1.0  0.1091
  H  H149  1  0.073000  0.217100  0.865600  1.0  0.1099
  H  H150  1  0.069500  0.276400  0.862600  1.0  0.1091
  H  H151  1  0.073000  0.717100  0.365600  1.0  0.1099
  H  H152  1  0.069500  0.776400  0.362600  1.0  0.1091
  H  H153  1  0.177000  0.717100  0.884400  1.0  0.1103
  H  H154  1  0.180500  0.776400  0.887400  1.0  0.1086
  H  H155  1  0.177000  0.217100  0.384400  1.0  0.1103
  H  H156  1  0.180500  0.276400  0.387400  1.0  0.1086
  H  H157  1  0.677000  0.717100  0.384400  1.0  0.1103
  H  H158  1  0.680500  0.776400  0.387400  1.0  0.1086
  H  H159  1  0.677000  0.217100  0.884400  1.0  0.1103
  H  H160  1  0.680500  0.276400  0.887400  1.0  0.1086
  H  H161  1  0.823000  0.634400  0.967100  1.0  0.1094
  H  H162  1  0.819500  0.637400  0.026400  1.0  0.1084
  H  H163  1  0.823000  0.134400  0.467100  1.0  0.1094
  H  H164  1  0.819500  0.137400  0.526400  1.0  0.1084
  H  H165  1  0.323000  0.634400  0.467100  1.0  0.1094
  H  H166  1  0.319500  0.637400  0.526400  1.0  0.1084
  H  H167  1  0.323000  0.134400  0.967100  1.0  0.1094
  H  H168  1  0.319500  0.137400  0.026400  1.0  0.1084
  H  H169  1  0.427000  0.115600  0.467100  1.0  0.1093
  H  H170  1  0.430500  0.112600  0.526400  1.0  0.1084
  H  H171  1  0.427000  0.615600  0.967100  1.0  0.1093
  H  H172  1  0.430500  0.612600  0.026400  1.0  0.1084
  H  H173  1  0.927000  0.115600  0.967100  1.0  0.1093
  H  H174  1  0.930500  0.112600  0.026400  1.0  0.1084
  H  H175  1  0.927000  0.615600  0.467100  1.0  0.1093
  H  H176  1  0.930500  0.612600  0.526400  1.0  0.1084
  H  H177  1  0.323000  0.615600  0.782900  1.0  0.1097
  H  H178  1  0.319500  0.612600  0.723600  1.0  0.1081
  H  H179  1  0.323000  0.115600  0.282900  1.0  0.1097
  H  H180  1  0.319500  0.112600  0.223600  1.0  0.1081
  H  H181  1  0.823000  0.615600  0.282900  1.0  0.1097
  H  H182  1  0.819500  0.612600  0.223600  1.0  0.1081
  H  H183  1  0.823000  0.115600  0.782900  1.0  0.1097
  H  H184  1  0.819500  0.112600  0.723600  1.0  0.1081
  H  H185  1  0.927000  0.134400  0.282900  1.0  0.1095
  H  H186  1  0.930500  0.137400  0.223600  1.0  0.108
  H  H187  1  0.927000  0.634400  0.782900  1.0  0.1095
  H  H188  1  0.930500  0.637400  0.723600  1.0  0.108
  H  H189  1  0.427000  0.134400  0.782900  1.0  0.1095
  H  H190  1  0.430500  0.137400  0.723600  1.0  0.108
  H  H191  1  0.427000  0.634400  0.282900  1.0  0.1095
  H  H192  1  0.430500  0.637400  0.223600  1.0  0.108
  H  H193  1  0.134400  0.282900  0.927000  1.0  0.109
  H  H194  1  0.137400  0.223600  0.930500  1.0  0.1092
  H  H195  1  0.134400  0.782900  0.427000  1.0  0.109
  H  H196  1  0.137400  0.723600  0.430500  1.0  0.1092
  H  H197  1  0.634400  0.282900  0.427000  1.0  0.109
  H  H198  1  0.637400  0.223600  0.430500  1.0  0.1092
  H  H199  1  0.634400  0.782900  0.927000  1.0  0.109
  H  H200  1  0.637400  0.723600  0.930500  1.0  0.1092
  H  H201  1  0.615600  0.782900  0.323000  1.0  0.1089
  H  H202  1  0.612600  0.723600  0.319500  1.0  0.1093
  H  H203  1  0.615600  0.282900  0.823000  1.0  0.1089
  H  H204  1  0.612600  0.223600  0.819500  1.0  0.1093
  H  H205  1  0.115600  0.782900  0.823000  1.0  0.1089
  H  H206  1  0.112600  0.723600  0.819500  1.0  0.1093
  H  H207  1  0.115600  0.282900  0.323000  1.0  0.1089
  H  H208  1  0.112600  0.223600  0.319500  1.0  0.1093
  H  H209  1  0.115600  0.467100  0.427000  1.0  0.1096
  H  H210  1  0.112600  0.526400  0.430500  1.0  0.1098
  H  H211  1  0.115600  0.967100  0.927000  1.0  0.1096
  H  H212  1  0.112600  0.026400  0.930500  1.0  0.1098
  H  H213  1  0.615600  0.467100  0.927000  1.0  0.1096
  H  H214  1  0.612600  0.526400  0.930500  1.0  0.1098
  H  H215  1  0.615600  0.967100  0.427000  1.0  0.1096
  H  H216  1  0.612600  0.026400  0.430500  1.0  0.1098
  H  H217  1  0.634400  0.967100  0.823000  1.0  0.1097
  H  H218  1  0.637400  0.026400  0.819500  1.0  0.1089
  H  H219  1  0.634400  0.467100  0.323000  1.0  0.1097
  H  H220  1  0.637400  0.526400  0.319500  1.0  0.1089
  H  H221  1  0.134400  0.967100  0.323000  1.0  0.1097
  H  H222  1  0.137400  0.026400  0.319500  1.0  0.1089
  H  H223  1  0.134400  0.467100  0.823000  1.0  0.1097
  H  H224  1  0.137400  0.526400  0.819500  1.0  0.1089
  H  H225  1  0.782900  0.323000  0.615600  1.0  0.109
  H  H226  1  0.723600  0.319500  0.612600  1.0  0.1092
  H  H227  1  0.782900  0.823000  0.115600  1.0  0.109
  H  H228  1  0.723600  0.819500  0.112600  1.0  0.1092
  H  H229  1  0.282900  0.323000  0.115600  1.0  0.109
  H  H230  1  0.223600  0.319500  0.112600  1.0  0.1092
  H  H231  1  0.282900  0.823000  0.615600  1.0  0.109
  H  H232  1  0.223600  0.819500  0.612600  1.0  0.1092
  H  H233  1  0.282900  0.927000  0.134400  1.0  0.1093
  H  H234  1  0.223600  0.930500  0.137400  1.0  0.1091
  H  H235  1  0.282900  0.427000  0.634400  1.0  0.1093
  H  H236  1  0.223600  0.430500  0.637400  1.0  0.1091
  H  H237  1  0.782900  0.927000  0.634400  1.0  0.1093
  H  H238  1  0.723600  0.930500  0.637400  1.0  0.1091
  H  H239  1  0.782900  0.427000  0.134400  1.0  0.1093
  H  H240  1  0.723600  0.430500  0.137400  1.0  0.1091
  H  H241  1  0.967100  0.823000  0.634400  1.0  0.1105
  H  H242  1  0.026400  0.819500  0.637400  1.0  0.1054
  H  H243  1  0.967100  0.323000  0.134400  1.0  0.1105
  H  H244  1  0.026400  0.319500  0.137400  1.0  0.1054
  H  H245  1  0.467100  0.823000  0.134400  1.0  0.1105
  H  H246  1  0.526400  0.819500  0.137400  1.0  0.1054
  H  H247  1  0.467100  0.323000  0.634400  1.0  0.1105
  H  H248  1  0.526400  0.319500  0.637400  1.0  0.1054
  H  H249  1  0.467100  0.427000  0.115600  1.0  0.1103
  H  H250  1  0.526400  0.430500  0.112600  1.0  0.1057
  H  H251  1  0.467100  0.927000  0.615600  1.0  0.1103
  H  H252  1  0.526400  0.930500  0.612600  1.0  0.1057
  H  H253  1  0.967100  0.427000  0.615600  1.0  0.1103
  H  H254  1  0.026400  0.430500  0.612600  1.0  0.1057
  H  H255  1  0.967100  0.927000  0.115600  1.0  0.1103
  H  H256  1  0.026400  0.930500  0.112600  1.0  0.1057
  H  H257  1  0.615600  0.927000  0.967100  1.0  0.1092
  H  H258  1  0.612600  0.930500  0.026400  1.0  0.1079
  H  H259  1  0.615600  0.427000  0.467100  1.0  0.1092
  H  H260  1  0.612600  0.430500  0.526400  1.0  0.1079
  H  H261  1  0.115600  0.927000  0.467100  1.0  0.1092
  H  H262  1  0.112600  0.930500  0.526400  1.0  0.1079
  H  H263  1  0.115600  0.427000  0.967100  1.0  0.1092
  H  H264  1  0.112600  0.430500  0.026400  1.0  0.1079
  H  H265  1  0.134400  0.323000  0.467100  1.0  0.1088
  H  H266  1  0.137400  0.319500  0.526400  1.0  0.108
  H  H267  1  0.134400  0.823000  0.967100  1.0  0.1088
  H  H268  1  0.137400  0.819500  0.026400  1.0  0.108
  H  H269  1  0.634400  0.323000  0.967100  1.0  0.1088
  H  H270  1  0.637400  0.319500  0.026400  1.0  0.108
  H  H271  1  0.634400  0.823000  0.467100  1.0  0.1088
  H  H272  1  0.637400  0.819500  0.526400  1.0  0.108
  H  H273  1  0.634400  0.427000  0.782900  1.0  0.1094
  H  H274  1  0.637400  0.430500  0.723600  1.0  0.1075
  H  H275  1  0.634400  0.927000  0.282900  1.0  0.1094
  H  H276  1  0.637400  0.930500  0.223600  1.0  0.1075
  H  H277  1  0.134400  0.427000  0.282900  1.0  0.1094
  H  H278  1  0.137400  0.430500  0.223600  1.0  0.1075
  H  H279  1  0.134400  0.927000  0.782900  1.0  0.1094
  H  H280  1  0.137400  0.930500  0.723600  1.0  0.1075
  H  H281  1  0.115600  0.823000  0.282900  1.0  0.1091
  H  H282  1  0.112600  0.819500  0.223600  1.0  0.1077
  H  H283  1  0.115600  0.323000  0.782900  1.0  0.1091
  H  H284  1  0.112600  0.319500  0.723600  1.0  0.1077
  H  H285  1  0.615600  0.823000  0.782900  1.0  0.1091
  H  H286  1  0.612600  0.819500  0.723600  1.0  0.1077
  H  H287  1  0.615600  0.323000  0.282900  1.0  0.1091
  H  H288  1  0.612600  0.319500  0.223600  1.0  0.1077
  H  H289  1  0.967100  0.615600  0.927000  1.0  0.1101
  H  H290  1  0.026400  0.612600  0.930500  1.0  0.1065
  H  H291  1  0.967100  0.115600  0.427000  1.0  0.1101
  H  H292  1  0.026400  0.112600  0.430500  1.0  0.1065
  H  H293  1  0.467100  0.615600  0.427000  1.0  0.1101
  H  H294  1  0.526400  0.612600  0.430500  1.0  0.1065
  H  H295  1  0.467100  0.115600  0.927000  1.0  0.1101
  H  H296  1  0.526400  0.112600  0.930500  1.0  0.1065
  H  H297  1  0.467100  0.134400  0.323000  1.0  0.1105
  H  H298  1  0.526400  0.137400  0.319500  1.0  0.1063
  H  H299  1  0.467100  0.634400  0.823000  1.0  0.1105
  H  H300  1  0.526400  0.637400  0.819500  1.0  0.1063
  H  H301  1  0.967100  0.134400  0.823000  1.0  0.1105
  H  H302  1  0.026400  0.137400  0.819500  1.0  0.1063
  H  H303  1  0.967100  0.634400  0.323000  1.0  0.1105
  H  H304  1  0.026400  0.637400  0.319500  1.0  0.1063
  H  H305  1  0.782900  0.634400  0.427000  1.0  0.109
  H  H306  1  0.723600  0.637400  0.430500  1.0  0.1101
  H  H307  1  0.782900  0.134400  0.927000  1.0  0.109
  H  H308  1  0.723600  0.137400  0.930500  1.0  0.1101
  H  H309  1  0.282900  0.634400  0.927000  1.0  0.109
  H  H310  1  0.223600  0.637400  0.930500  1.0  0.1101
  H  H311  1  0.282900  0.134400  0.427000  1.0  0.109
  H  H312  1  0.223600  0.137400  0.430500  1.0  0.1101
  H  H313  1  0.282900  0.115600  0.823000  1.0  0.109
  H  H314  1  0.223600  0.112600  0.819500  1.0  0.1099
  H  H315  1  0.282900  0.615600  0.323000  1.0  0.109
  H  H316  1  0.223600  0.612600  0.319500  1.0  0.1099
  H  H317  1  0.782900  0.115600  0.323000  1.0  0.109
  H  H318  1  0.723600  0.112600  0.319500  1.0  0.1099
  H  H319  1  0.782900  0.615600  0.823000  1.0  0.109
  H  H320  1  0.723600  0.612600  0.819500  1.0  0.1099
  H  H321  1  0.927000  0.967100  0.615600  1.0  0.11
  H  H322  1  0.930500  0.026400  0.612600  1.0  0.1091
  H  H323  1  0.927000  0.467100  0.115600  1.0  0.11
  H  H324  1  0.930500  0.526400  0.112600  1.0  0.1091
  H  H325  1  0.427000  0.967100  0.115600  1.0  0.11
  H  H326  1  0.430500  0.026400  0.112600  1.0  0.1091
  H  H327  1  0.427000  0.467100  0.615600  1.0  0.11
  H  H328  1  0.430500  0.526400  0.612600  1.0  0.1091
  H  H329  1  0.323000  0.467100  0.134400  1.0  0.1102
  H  H330  1  0.319500  0.526400  0.137400  1.0  0.1087
  H  H331  1  0.323000  0.967100  0.634400  1.0  0.1102
  H  H332  1  0.319500  0.026400  0.637400  1.0  0.1087
  H  H333  1  0.823000  0.467100  0.634400  1.0  0.1102
  H  H334  1  0.819500  0.526400  0.637400  1.0  0.1087
  H  H335  1  0.823000  0.967100  0.134400  1.0  0.1102
  H  H336  1  0.819500  0.026400  0.137400  1.0  0.1087
  H  H337  1  0.427000  0.782900  0.634400  1.0  0.1093
  H  H338  1  0.430500  0.723600  0.637400  1.0  0.1088
  H  H339  1  0.427000  0.282900  0.134400  1.0  0.1093
  H  H340  1  0.430500  0.223600  0.137400  1.0  0.1088
  H  H341  1  0.927000  0.782900  0.134400  1.0  0.1093
  H  H342  1  0.930500  0.723600  0.137400  1.0  0.1088
  H  H343  1  0.927000  0.282900  0.634400  1.0  0.1093
  H  H344  1  0.930500  0.223600  0.637400  1.0  0.1088
  H  H345  1  0.823000  0.282900  0.115600  1.0  0.1095
  H  H346  1  0.819500  0.223600  0.112600  1.0  0.1088
  H  H347  1  0.823000  0.782900  0.615600  1.0  0.1095
  H  H348  1  0.819500  0.723600  0.612600  1.0  0.1088
  H  H349  1  0.323000  0.282900  0.615600  1.0  0.1095
  H  H350  1  0.319500  0.223600  0.612600  1.0  0.1088
  H  H351  1  0.323000  0.782900  0.115600  1.0  0.1095
  H  H352  1  0.319500  0.723600  0.112600  1.0  0.1088
  H  H353  1  0.177000  0.365600  0.032900  1.0  0.1095
  H  H354  1  0.180500  0.362600  0.973600  1.0  0.1081
  H  H355  1  0.177000  0.865600  0.532900  1.0  0.1095
  H  H356  1  0.180500  0.862600  0.473600  1.0  0.1081
  H  H357  1  0.677000  0.365600  0.532900  1.0  0.1095
  H  H358  1  0.680500  0.362600  0.473600  1.0  0.1081
  H  H359  1  0.677000  0.865600  0.032900  1.0  0.1095
  H  H360  1  0.680500  0.862600  0.973600  1.0  0.1081
  H  H361  1  0.573000  0.884400  0.532900  1.0  0.1099
  H  H362  1  0.569500  0.887400  0.473600  1.0  0.1079
  H  H363  1  0.573000  0.384400  0.032900  1.0  0.1099
  H  H364  1  0.569500  0.387400  0.973600  1.0  0.1079
  H  H365  1  0.073000  0.884400  0.032900  1.0  0.1099
  H  H366  1  0.069500  0.887400  0.973600  1.0  0.1079
  H  H367  1  0.073000  0.384400  0.532900  1.0  0.1099
  H  H368  1  0.069500  0.387400  0.473600  1.0  0.1079
  H  H369  1  0.677000  0.384400  0.217100  1.0  0.1093
  H  H370  1  0.680500  0.387400  0.276400  1.0  0.1083
  H  H371  1  0.677000  0.884400  0.717100  1.0  0.1093
  H  H372  1  0.680500  0.887400  0.776400  1.0  0.1083
  H  H373  1  0.177000  0.384400  0.717100  1.0  0.1093
  H  H374  1  0.180500  0.387400  0.776400  1.0  0.1083
  H  H375  1  0.177000  0.884400  0.217100  1.0  0.1093
  H  H376  1  0.180500  0.887400  0.276400  1.0  0.1083
  H  H377  1  0.073000  0.865600  0.717100  1.0  0.1093
  H  H378  1  0.069500  0.862600  0.776400  1.0  0.1086
  H  H379  1  0.073000  0.365600  0.217100  1.0  0.1093
  H  H380  1  0.069500  0.362600  0.276400  1.0  0.1086
  H  H381  1  0.573000  0.865600  0.217100  1.0  0.1093
  H  H382  1  0.569500  0.862600  0.276400  1.0  0.1086
  H  H383  1  0.573000  0.365600  0.717100  1.0  0.1093
  H  H384  1  0.569500  0.362600  0.776400  1.0  0.1086
  H  H385  1  0.865600  0.717100  0.073000  1.0  0.11
  H  H386  1  0.862600  0.776400  0.069500  1.0  0.1092
  H  H387  1  0.865600  0.217100  0.573000  1.0  0.11
  H  H388  1  0.862600  0.276400  0.569500  1.0  0.1092
  H  H389  1  0.365600  0.717100  0.573000  1.0  0.11
  H  H390  1  0.362600  0.776400  0.569500  1.0  0.1092
  H  H391  1  0.365600  0.217100  0.073000  1.0  0.11
  H  H392  1  0.362600  0.276400  0.069500  1.0  0.1092
  H  H393  1  0.384400  0.217100  0.677000  1.0  0.1092
  H  H394  1  0.387400  0.276400  0.680500  1.0  0.1096
  H  H395  1  0.384400  0.717100  0.177000  1.0  0.1092
  H  H396  1  0.387400  0.776400  0.180500  1.0  0.1096
  H  H397  1  0.884400  0.217100  0.177000  1.0  0.1092
  H  H398  1  0.887400  0.276400  0.180500  1.0  0.1096
  H  H399  1  0.884400  0.717100  0.677000  1.0  0.1092
  H  H400  1  0.887400  0.776400  0.680500  1.0  0.1096
  H  H401  1  0.884400  0.532900  0.573000  1.0  0.1088
  H  H402  1  0.887400  0.473600  0.569500  1.0  0.1093
  H  H403  1  0.884400  0.032900  0.073000  1.0  0.1088
  H  H404  1  0.887400  0.973600  0.069500  1.0  0.1093
  H  H405  1  0.384400  0.532900  0.073000  1.0  0.1088
  H  H406  1  0.387400  0.473600  0.069500  1.0  0.1093
  H  H407  1  0.384400  0.032900  0.573000  1.0  0.1088
  H  H408  1  0.387400  0.973600  0.569500  1.0  0.1093
  H  H409  1  0.365600  0.032900  0.177000  1.0  0.1091
  H  H410  1  0.362600  0.973600  0.180500  1.0  0.1092
  H  H411  1  0.365600  0.532900  0.677000  1.0  0.1091
  H  H412  1  0.362600  0.473600  0.680500  1.0  0.1092
  H  H413  1  0.865600  0.032900  0.677000  1.0  0.1091
  H  H414  1  0.862600  0.973600  0.680500  1.0  0.1092
  H  H415  1  0.865600  0.532900  0.177000  1.0  0.1091
  H  H416  1  0.862600  0.473600  0.180500  1.0  0.1092
  H  H417  1  0.217100  0.677000  0.384400  1.0  0.1106
  H  H418  1  0.276400  0.680500  0.387400  1.0  0.1056
  H  H419  1  0.217100  0.177000  0.884400  1.0  0.1106
  H  H420  1  0.276400  0.180500  0.887400  1.0  0.1056
  H  H421  1  0.717100  0.677000  0.884400  1.0  0.1106
  H  H422  1  0.776400  0.680500  0.887400  1.0  0.1056
  H  H423  1  0.717100  0.177000  0.384400  1.0  0.1106
  H  H424  1  0.776400  0.180500  0.387400  1.0  0.1056
  H  H425  1  0.717100  0.073000  0.865600  1.0  0.1106
  H  H426  1  0.776400  0.069500  0.862600  1.0  0.1054
  H  H427  1  0.717100  0.573000  0.365600  1.0  0.1106
  H  H428  1  0.776400  0.569500  0.362600  1.0  0.1054
  H  H429  1  0.217100  0.073000  0.365600  1.0  0.1106
  H  H430  1  0.276400  0.069500  0.362600  1.0  0.1054
  H  H431  1  0.217100  0.573000  0.865600  1.0  0.1106
  H  H432  1  0.276400  0.569500  0.862600  1.0  0.1054
  H  H433  1  0.032900  0.177000  0.365600  1.0  0.1089
  H  H434  1  0.973600  0.180500  0.362600  1.0  0.1093
  H  H435  1  0.032900  0.677000  0.865600  1.0  0.1089
  H  H436  1  0.973600  0.680500  0.862600  1.0  0.1093
  H  H437  1  0.532900  0.177000  0.865600  1.0  0.1089
  H  H438  1  0.473600  0.180500  0.862600  1.0  0.1093
  H  H439  1  0.532900  0.677000  0.365600  1.0  0.1089
  H  H440  1  0.473600  0.680500  0.362600  1.0  0.1093
  H  H441  1  0.532900  0.573000  0.884400  1.0  0.109
  H  H442  1  0.473600  0.569500  0.887400  1.0  0.109
  H  H443  1  0.532900  0.073000  0.384400  1.0  0.109
  H  H444  1  0.473600  0.069500  0.387400  1.0  0.109
  H  H445  1  0.032900  0.573000  0.384400  1.0  0.109
  H  H446  1  0.973600  0.569500  0.387400  1.0  0.109
  H  H447  1  0.032900  0.073000  0.884400  1.0  0.109
  H  H448  1  0.973600  0.069500  0.887400  1.0  0.109
  C  C449  1  0.377100  0.000400  0.007000  1.0  0.7783
  C  C450  1  0.370100  0.056700  0.003300  1.0  -0.0582
  C  C451  1  0.377100  0.500400  0.507000  1.0  0.7783
  C  C452  1  0.370100  0.556700  0.503300  1.0  -0.0582
  C  C453  1  0.877100  0.000400  0.507000  1.0  0.7783
  C  C454  1  0.870100  0.056700  0.503300  1.0  -0.0582
  C  C455  1  0.877100  0.500400  0.007000  1.0  0.7783
  C  C456  1  0.870100  0.556700  0.003300  1.0  -0.0582
  C  C457  1  0.872900  0.749600  0.507000  1.0  0.7794
  C  C458  1  0.879900  0.693300  0.503300  1.0  -0.0588
  C  C459  1  0.872900  0.249600  0.007000  1.0  0.7794
  C  C460  1  0.879900  0.193300  0.003300  1.0  -0.0588
  C  C461  1  0.372900  0.749600  0.007000  1.0  0.7794
  C  C462  1  0.379900  0.693300  0.003300  1.0  -0.0588
  C  C463  1  0.372900  0.249600  0.507000  1.0  0.7794
  C  C464  1  0.379900  0.193300  0.503300  1.0  -0.0588
  C  C465  1  0.372900  0.500400  0.243000  1.0  0.7781
  C  C466  1  0.379900  0.556700  0.246700  1.0  -0.0586
  C  C467  1  0.372900  0.000400  0.743000  1.0  0.7781
  C  C468  1  0.379900  0.056700  0.746700  1.0  -0.0586
  C  C469  1  0.872900  0.500400  0.743000  1.0  0.7781
  C  C470  1  0.879900  0.556700  0.746700  1.0  -0.0586
  C  C471  1  0.872900  0.000400  0.243000  1.0  0.7781
  C  C472  1  0.879900  0.056700  0.246700  1.0  -0.0586
  C  C473  1  0.877100  0.249600  0.743000  1.0  0.7786
  C  C474  1  0.870100  0.193300  0.746700  1.0  -0.0584
  C  C475  1  0.877100  0.749600  0.243000  1.0  0.7786
  C  C476  1  0.870100  0.693300  0.246700  1.0  -0.0584
  C  C477  1  0.377100  0.249600  0.243000  1.0  0.7786
  C  C478  1  0.370100  0.193300  0.246700  1.0  -0.0584
  C  C479  1  0.377100  0.749600  0.743000  1.0  0.7786
  C  C480  1  0.370100  0.693300  0.746700  1.0  -0.0584
  C  C481  1  0.007000  0.377100  0.000400  1.0  0.7883
  C  C482  1  0.003300  0.370100  0.056700  1.0  -0.0576
  C  C483  1  0.007000  0.877100  0.500400  1.0  0.7883
  C  C484  1  0.003300  0.870100  0.556700  1.0  -0.0576
  C  C485  1  0.507000  0.377100  0.500400  1.0  0.7883
  C  C486  1  0.503300  0.370100  0.556700  1.0  -0.0576
  C  C487  1  0.507000  0.877100  0.000400  1.0  0.7883
  C  C488  1  0.503300  0.870100  0.056700  1.0  -0.0576
  C  C489  1  0.507000  0.872900  0.749600  1.0  0.7893
  C  C490  1  0.503300  0.879900  0.693300  1.0  -0.0591
  C  C491  1  0.507000  0.372900  0.249600  1.0  0.7893
  C  C492  1  0.503300  0.379900  0.193300  1.0  -0.0591
  C  C493  1  0.007000  0.872900  0.249600  1.0  0.7893
  C  C494  1  0.003300  0.879900  0.193300  1.0  -0.0591
  C  C495  1  0.007000  0.372900  0.749600  1.0  0.7893
  C  C496  1  0.003300  0.379900  0.693300  1.0  -0.0591
  C  C497  1  0.243000  0.372900  0.500400  1.0  0.7893
  C  C498  1  0.246700  0.379900  0.556700  1.0  -0.0576
  C  C499  1  0.243000  0.872900  0.000400  1.0  0.7893
  C  C500  1  0.246700  0.879900  0.056700  1.0  -0.0576
  C  C501  1  0.743000  0.372900  0.000400  1.0  0.7893
  C  C502  1  0.746700  0.379900  0.056700  1.0  -0.0576
  C  C503  1  0.743000  0.872900  0.500400  1.0  0.7893
  C  C504  1  0.746700  0.879900  0.556700  1.0  -0.0576
  C  C505  1  0.743000  0.877100  0.249600  1.0  0.7898
  C  C506  1  0.746700  0.870100  0.193300  1.0  -0.0593
  C  C507  1  0.743000  0.377100  0.749600  1.0  0.7898
  C  C508  1  0.746700  0.370100  0.693300  1.0  -0.0593
  C  C509  1  0.243000  0.877100  0.749600  1.0  0.7898
  C  C510  1  0.246700  0.870100  0.693300  1.0  -0.0593
  C  C511  1  0.243000  0.377100  0.249600  1.0  0.7898
  C  C512  1  0.246700  0.370100  0.193300  1.0  -0.0593
  C  C513  1  0.000400  0.007000  0.377100  1.0  0.7789
  C  C514  1  0.056700  0.003300  0.370100  1.0  -0.0575
  C  C515  1  0.000400  0.507000  0.877100  1.0  0.7789
  C  C516  1  0.056700  0.503300  0.870100  1.0  -0.0575
  C  C517  1  0.500400  0.007000  0.877100  1.0  0.7789
  C  C518  1  0.556700  0.003300  0.870100  1.0  -0.0575
  C  C519  1  0.500400  0.507000  0.377100  1.0  0.7789
  C  C520  1  0.556700  0.503300  0.370100  1.0  -0.0575
  C  C521  1  0.749600  0.507000  0.872900  1.0  0.7769
  C  C522  1  0.693300  0.503300  0.879900  1.0  -0.0583
  C  C523  1  0.749600  0.007000  0.372900  1.0  0.7769
  C  C524  1  0.693300  0.003300  0.379900  1.0  -0.0583
  C  C525  1  0.249600  0.507000  0.372900  1.0  0.7769
  C  C526  1  0.193300  0.503300  0.379900  1.0  -0.0583
  C  C527  1  0.249600  0.007000  0.872900  1.0  0.7769
  C  C528  1  0.193300  0.003300  0.879900  1.0  -0.0583
  C  C529  1  0.500400  0.243000  0.372900  1.0  0.7786
  C  C530  1  0.556700  0.246700  0.379900  1.0  -0.058
  C  C531  1  0.500400  0.743000  0.872900  1.0  0.7786
  C  C532  1  0.556700  0.746700  0.879900  1.0  -0.058
  C  C533  1  0.000400  0.243000  0.872900  1.0  0.7786
  C  C534  1  0.056700  0.246700  0.879900  1.0  -0.058
  C  C535  1  0.000400  0.743000  0.372900  1.0  0.7786
  C  C536  1  0.056700  0.746700  0.379900  1.0  -0.058
  C  C537  1  0.249600  0.743000  0.877100  1.0  0.777
  C  C538  1  0.193300  0.746700  0.870100  1.0  -0.0582
  C  C539  1  0.249600  0.243000  0.377100  1.0  0.777
  C  C540  1  0.193300  0.246700  0.370100  1.0  -0.0582
  C  C541  1  0.749600  0.743000  0.377100  1.0  0.777
  C  C542  1  0.693300  0.746700  0.370100  1.0  -0.0582
  C  C543  1  0.749600  0.243000  0.877100  1.0  0.777
  C  C544  1  0.693300  0.246700  0.870100  1.0  -0.0582
  C  C545  1  0.750400  0.627100  0.993000  1.0  0.7791
  C  C546  1  0.806700  0.620100  0.996700  1.0  -0.059
  C  C547  1  0.750400  0.127100  0.493000  1.0  0.7791
  C  C548  1  0.806700  0.120100  0.496700  1.0  -0.059
  C  C549  1  0.250400  0.627100  0.493000  1.0  0.7791
  C  C550  1  0.306700  0.620100  0.496700  1.0  -0.059
  C  C551  1  0.250400  0.127100  0.993000  1.0  0.7791
  C  C552  1  0.306700  0.120100  0.996700  1.0  -0.059
  C  C553  1  0.499600  0.122900  0.493000  1.0  0.7773
  C  C554  1  0.443300  0.129900  0.496700  1.0  -0.0597
  C  C555  1  0.499600  0.622900  0.993000  1.0  0.7773
  C  C556  1  0.443300  0.629900  0.996700  1.0  -0.0597
  C  C557  1  0.999600  0.122900  0.993000  1.0  0.7773
  C  C558  1  0.943300  0.129900  0.996700  1.0  -0.0597
  C  C559  1  0.999600  0.622900  0.493000  1.0  0.7773
  C  C560  1  0.943300  0.629900  0.496700  1.0  -0.0597
  C  C561  1  0.250400  0.622900  0.757000  1.0  0.7795
  C  C562  1  0.306700  0.629900  0.753300  1.0  -0.0586
  C  C563  1  0.250400  0.122900  0.257000  1.0  0.7795
  C  C564  1  0.306700  0.129900  0.253300  1.0  -0.0586
  C  C565  1  0.750400  0.622900  0.257000  1.0  0.7795
  C  C566  1  0.806700  0.629900  0.253300  1.0  -0.0586
  C  C567  1  0.750400  0.122900  0.757000  1.0  0.7795
  C  C568  1  0.806700  0.129900  0.753300  1.0  -0.0586
  C  C569  1  0.999600  0.127100  0.257000  1.0  0.7776
  C  C570  1  0.943300  0.120100  0.253300  1.0  -0.0592
  C  C571  1  0.999600  0.627100  0.757000  1.0  0.7776
  C  C572  1  0.943300  0.620100  0.753300  1.0  -0.0592
  C  C573  1  0.499600  0.127100  0.757000  1.0  0.7776
  C  C574  1  0.443300  0.120100  0.753300  1.0  -0.0592
  C  C575  1  0.499600  0.627100  0.257000  1.0  0.7776
  C  C576  1  0.443300  0.620100  0.253300  1.0  -0.0592
  C  C577  1  0.127100  0.257000  0.999600  1.0  0.7889
  C  C578  1  0.120100  0.253300  0.943300  1.0  -0.0601
  C  C579  1  0.127100  0.757000  0.499600  1.0  0.7889
  C  C580  1  0.120100  0.753300  0.443300  1.0  -0.0601
  C  C581  1  0.627100  0.257000  0.499600  1.0  0.7889
  C  C582  1  0.620100  0.253300  0.443300  1.0  -0.0601
  C  C583  1  0.627100  0.757000  0.999600  1.0  0.7889
  C  C584  1  0.620100  0.753300  0.943300  1.0  -0.0601
  C  C585  1  0.622900  0.757000  0.250400  1.0  0.7887
  C  C586  1  0.629900  0.753300  0.306700  1.0  -0.0586
  C  C587  1  0.622900  0.257000  0.750400  1.0  0.7887
  C  C588  1  0.629900  0.253300  0.806700  1.0  -0.0586
  C  C589  1  0.122900  0.757000  0.750400  1.0  0.7887
  C  C590  1  0.129900  0.753300  0.806700  1.0  -0.0586
  C  C591  1  0.122900  0.257000  0.250400  1.0  0.7887
  C  C592  1  0.129900  0.253300  0.306700  1.0  -0.0586
  C  C593  1  0.122900  0.493000  0.499600  1.0  0.7899
  C  C594  1  0.129900  0.496700  0.443300  1.0  -0.0611
  C  C595  1  0.122900  0.993000  0.999600  1.0  0.7899
  C  C596  1  0.129900  0.996700  0.943300  1.0  -0.0611
  C  C597  1  0.622900  0.493000  0.999600  1.0  0.7899
  C  C598  1  0.629900  0.496700  0.943300  1.0  -0.0611
  C  C599  1  0.622900  0.993000  0.499600  1.0  0.7899
  C  C600  1  0.629900  0.996700  0.443300  1.0  -0.0611
  C  C601  1  0.627100  0.993000  0.750400  1.0  0.7882
  C  C602  1  0.620100  0.996700  0.806700  1.0  -0.0589
  C  C603  1  0.627100  0.493000  0.250400  1.0  0.7882
  C  C604  1  0.620100  0.496700  0.306700  1.0  -0.0589
  C  C605  1  0.127100  0.993000  0.250400  1.0  0.7882
  C  C606  1  0.120100  0.996700  0.306700  1.0  -0.0589
  C  C607  1  0.127100  0.493000  0.750400  1.0  0.7882
  C  C608  1  0.120100  0.496700  0.806700  1.0  -0.0589
  C  C609  1  0.757000  0.250400  0.622900  1.0  0.778
  C  C610  1  0.753300  0.306700  0.629900  1.0  -0.056
  C  C611  1  0.757000  0.750400  0.122900  1.0  0.778
  C  C612  1  0.753300  0.806700  0.129900  1.0  -0.056
  C  C613  1  0.257000  0.250400  0.122900  1.0  0.778
  C  C614  1  0.253300  0.306700  0.129900  1.0  -0.056
  C  C615  1  0.257000  0.750400  0.622900  1.0  0.778
  C  C616  1  0.253300  0.806700  0.629900  1.0  -0.056
  C  C617  1  0.257000  0.999600  0.127100  1.0  0.7792
  C  C618  1  0.253300  0.943300  0.120100  1.0  -0.0562
  C  C619  1  0.257000  0.499600  0.627100  1.0  0.7792
  C  C620  1  0.253300  0.443300  0.620100  1.0  -0.0562
  C  C621  1  0.757000  0.999600  0.627100  1.0  0.7792
  C  C622  1  0.753300  0.943300  0.620100  1.0  -0.0562
  C  C623  1  0.757000  0.499600  0.127100  1.0  0.7792
  C  C624  1  0.753300  0.443300  0.120100  1.0  -0.0562
  C  C625  1  0.993000  0.750400  0.627100  1.0  0.7784
  C  C626  1  0.996700  0.806700  0.620100  1.0  -0.0556
  C  C627  1  0.993000  0.250400  0.127100  1.0  0.7784
  C  C628  1  0.996700  0.306700  0.120100  1.0  -0.0556
  C  C629  1  0.493000  0.750400  0.127100  1.0  0.7784
  C  C630  1  0.496700  0.806700  0.120100  1.0  -0.0556
  C  C631  1  0.493000  0.250400  0.627100  1.0  0.7784
  C  C632  1  0.496700  0.306700  0.620100  1.0  -0.0556
  C  C633  1  0.493000  0.499600  0.122900  1.0  0.7789
  C  C634  1  0.496700  0.443300  0.129900  1.0  -0.0564
  C  C635  1  0.493000  0.999600  0.622900  1.0  0.7789
  C  C636  1  0.496700  0.943300  0.629900  1.0  -0.0564
  C  C637  1  0.993000  0.499600  0.622900  1.0  0.7789
  C  C638  1  0.996700  0.443300  0.629900  1.0  -0.0564
  C  C639  1  0.993000  0.999600  0.122900  1.0  0.7789
  C  C640  1  0.996700  0.943300  0.129900  1.0  -0.0564
  C  C641  1  0.622900  0.999600  0.993000  1.0  0.7788
  C  C642  1  0.629900  0.943300  0.996700  1.0  -0.0593
  C  C643  1  0.622900  0.499600  0.493000  1.0  0.7788
  C  C644  1  0.629900  0.443300  0.496700  1.0  -0.0593
  C  C645  1  0.122900  0.999600  0.493000  1.0  0.7788
  C  C646  1  0.129900  0.943300  0.496700  1.0  -0.0593
  C  C647  1  0.122900  0.499600  0.993000  1.0  0.7788
  C  C648  1  0.129900  0.443300  0.996700  1.0  -0.0593
  C  C649  1  0.127100  0.250400  0.493000  1.0  0.778
  C  C650  1  0.120100  0.306700  0.496700  1.0  -0.0584
  C  C651  1  0.127100  0.750400  0.993000  1.0  0.778
  C  C652  1  0.120100  0.806700  0.996700  1.0  -0.0584
  C  C653  1  0.627100  0.250400  0.993000  1.0  0.778
  C  C654  1  0.620100  0.306700  0.996700  1.0  -0.0584
  C  C655  1  0.627100  0.750400  0.493000  1.0  0.778
  C  C656  1  0.620100  0.806700  0.496700  1.0  -0.0584
  C  C657  1  0.627100  0.499600  0.757000  1.0  0.7793
  C  C658  1  0.620100  0.443300  0.753300  1.0  -0.0581
  C  C659  1  0.627100  0.999600  0.257000  1.0  0.7793
  C  C660  1  0.620100  0.943300  0.253300  1.0  -0.0581
  C  C661  1  0.127100  0.499600  0.257000  1.0  0.7793
  C  C662  1  0.120100  0.443300  0.253300  1.0  -0.0581
  C  C663  1  0.127100  0.999600  0.757000  1.0  0.7793
  C  C664  1  0.120100  0.943300  0.753300  1.0  -0.0581
  C  C665  1  0.122900  0.750400  0.257000  1.0  0.7784
  C  C666  1  0.129900  0.806700  0.253300  1.0  -0.0584
  C  C667  1  0.122900  0.250400  0.757000  1.0  0.7784
  C  C668  1  0.129900  0.306700  0.753300  1.0  -0.0584
  C  C669  1  0.622900  0.750400  0.757000  1.0  0.7784
  C  C670  1  0.629900  0.806700  0.753300  1.0  -0.0584
  C  C671  1  0.622900  0.250400  0.257000  1.0  0.7784
  C  C672  1  0.629900  0.306700  0.253300  1.0  -0.0584
  C  C673  1  0.993000  0.622900  0.999600  1.0  0.7898
  C  C674  1  0.996700  0.629900  0.943300  1.0  -0.0592
  C  C675  1  0.993000  0.122900  0.499600  1.0  0.7898
  C  C676  1  0.996700  0.129900  0.443300  1.0  -0.0592
  C  C677  1  0.493000  0.622900  0.499600  1.0  0.7898
  C  C678  1  0.496700  0.629900  0.443300  1.0  -0.0592
  C  C679  1  0.493000  0.122900  0.999600  1.0  0.7898
  C  C680  1  0.496700  0.129900  0.943300  1.0  -0.0592
  C  C681  1  0.493000  0.127100  0.250400  1.0  0.7892
  C  C682  1  0.496700  0.120100  0.306700  1.0  -0.0575
  C  C683  1  0.493000  0.627100  0.750400  1.0  0.7892
  C  C684  1  0.496700  0.620100  0.806700  1.0  -0.0575
  C  C685  1  0.993000  0.127100  0.750400  1.0  0.7892
  C  C686  1  0.996700  0.120100  0.806700  1.0  -0.0575
  C  C687  1  0.993000  0.627100  0.250400  1.0  0.7892
  C  C688  1  0.996700  0.620100  0.306700  1.0  -0.0575
  C  C689  1  0.757000  0.627100  0.499600  1.0  0.7892
  C  C690  1  0.753300  0.620100  0.443300  1.0  -0.0591
  C  C691  1  0.757000  0.127100  0.999600  1.0  0.7892
  C  C692  1  0.753300  0.120100  0.943300  1.0  -0.0591
  C  C693  1  0.257000  0.627100  0.999600  1.0  0.7892
  C  C694  1  0.253300  0.620100  0.943300  1.0  -0.0591
  C  C695  1  0.257000  0.127100  0.499600  1.0  0.7892
  C  C696  1  0.253300  0.120100  0.443300  1.0  -0.0591
  C  C697  1  0.257000  0.122900  0.750400  1.0  0.7884
  C  C698  1  0.253300  0.129900  0.806700  1.0  -0.0577
  C  C699  1  0.257000  0.622900  0.250400  1.0  0.7884
  C  C700  1  0.253300  0.629900  0.306700  1.0  -0.0577
  C  C701  1  0.757000  0.122900  0.250400  1.0  0.7884
  C  C702  1  0.753300  0.129900  0.306700  1.0  -0.0577
  C  C703  1  0.757000  0.622900  0.750400  1.0  0.7884
  C  C704  1  0.753300  0.629900  0.806700  1.0  -0.0577
  C  C705  1  0.999600  0.993000  0.622900  1.0  0.7768
  C  C706  1  0.943300  0.996700  0.629900  1.0  -0.0588
  C  C707  1  0.999600  0.493000  0.122900  1.0  0.7768
  C  C708  1  0.943300  0.496700  0.129900  1.0  -0.0588
  C  C709  1  0.499600  0.993000  0.122900  1.0  0.7768
  C  C710  1  0.443300  0.996700  0.129900  1.0  -0.0588
  C  C711  1  0.499600  0.493000  0.622900  1.0  0.7768
  C  C712  1  0.443300  0.496700  0.629900  1.0  -0.0588
  C  C713  1  0.250400  0.493000  0.127100  1.0  0.7789
  C  C714  1  0.306700  0.496700  0.120100  1.0  -0.0576
  C  C715  1  0.250400  0.993000  0.627100  1.0  0.7789
  C  C716  1  0.306700  0.996700  0.620100  1.0  -0.0576
  C  C717  1  0.750400  0.493000  0.627100  1.0  0.7789
  C  C718  1  0.806700  0.496700  0.620100  1.0  -0.0576
  C  C719  1  0.750400  0.993000  0.127100  1.0  0.7789
  C  C720  1  0.806700  0.996700  0.120100  1.0  -0.0576
  C  C721  1  0.499600  0.757000  0.627100  1.0  0.7771
  C  C722  1  0.443300  0.753300  0.620100  1.0  -0.0579
  C  C723  1  0.499600  0.257000  0.127100  1.0  0.7771
  C  C724  1  0.443300  0.253300  0.120100  1.0  -0.0579
  C  C725  1  0.999600  0.757000  0.127100  1.0  0.7771
  C  C726  1  0.943300  0.753300  0.120100  1.0  -0.0579
  C  C727  1  0.999600  0.257000  0.627100  1.0  0.7771
  C  C728  1  0.943300  0.253300  0.620100  1.0  -0.0579
  C  C729  1  0.750400  0.257000  0.122900  1.0  0.7785
  C  C730  1  0.806700  0.253300  0.129900  1.0  -0.0579
  C  C731  1  0.750400  0.757000  0.622900  1.0  0.7785
  C  C732  1  0.806700  0.753300  0.629900  1.0  -0.0579
  C  C733  1  0.250400  0.257000  0.622900  1.0  0.7785
  C  C734  1  0.306700  0.253300  0.629900  1.0  -0.0579
  C  C735  1  0.250400  0.757000  0.122900  1.0  0.7785
  C  C736  1  0.306700  0.753300  0.129900  1.0  -0.0579
  C  C737  1  0.249600  0.372900  0.007000  1.0  0.7778
  C  C738  1  0.193300  0.379900  0.003300  1.0  -0.0593
  C  C739  1  0.249600  0.872900  0.507000  1.0  0.7778
  C  C740  1  0.193300  0.879900  0.503300  1.0  -0.0593
  C  C741  1  0.749600  0.372900  0.507000  1.0  0.7778
  C  C742  1  0.693300  0.379900  0.503300  1.0  -0.0593
  C  C743  1  0.749600  0.872900  0.007000  1.0  0.7778
  C  C744  1  0.693300  0.879900  0.003300  1.0  -0.0593
  C  C745  1  0.500400  0.877100  0.507000  1.0  0.7797
  C  C746  1  0.556700  0.870100  0.503300  1.0  -0.0586
  C  C747  1  0.500400  0.377100  0.007000  1.0  0.7797
  C  C748  1  0.556700  0.370100  0.003300  1.0  -0.0586
  C  C749  1  0.000400  0.877100  0.007000  1.0  0.7797
  C  C750  1  0.056700  0.870100  0.003300  1.0  -0.0586
  C  C751  1  0.000400  0.377100  0.507000  1.0  0.7797
  C  C752  1  0.056700  0.370100  0.503300  1.0  -0.0586
  C  C753  1  0.749600  0.377100  0.243000  1.0  0.7773
  C  C754  1  0.693300  0.370100  0.246700  1.0  -0.0594
  C  C755  1  0.749600  0.877100  0.743000  1.0  0.7773
  C  C756  1  0.693300  0.870100  0.746700  1.0  -0.0594
  C  C757  1  0.249600  0.377100  0.743000  1.0  0.7773
  C  C758  1  0.193300  0.370100  0.746700  1.0  -0.0594
  C  C759  1  0.249600  0.877100  0.243000  1.0  0.7773
  C  C760  1  0.193300  0.870100  0.246700  1.0  -0.0594
  C  C761  1  0.000400  0.872900  0.743000  1.0  0.7789
  C  C762  1  0.056700  0.879900  0.746700  1.0  -0.0592
  C  C763  1  0.000400  0.372900  0.243000  1.0  0.7789
  C  C764  1  0.056700  0.379900  0.246700  1.0  -0.0592
  C  C765  1  0.500400  0.872900  0.243000  1.0  0.7789
  C  C766  1  0.556700  0.879900  0.246700  1.0  -0.0592
  C  C767  1  0.500400  0.372900  0.743000  1.0  0.7789
  C  C768  1  0.556700  0.379900  0.746700  1.0  -0.0592
  C  C769  1  0.872900  0.743000  0.000400  1.0  0.7883
  C  C770  1  0.879900  0.746700  0.056700  1.0  -0.0591
  C  C771  1  0.872900  0.243000  0.500400  1.0  0.7883
  C  C772  1  0.879900  0.246700  0.556700  1.0  -0.0591
  C  C773  1  0.372900  0.743000  0.500400  1.0  0.7883
  C  C774  1  0.379900  0.746700  0.556700  1.0  -0.0591
  C  C775  1  0.372900  0.243000  0.000400  1.0  0.7883
  C  C776  1  0.379900  0.246700  0.056700  1.0  -0.0591
  C  C777  1  0.377100  0.243000  0.749600  1.0  0.7896
  C  C778  1  0.370100  0.246700  0.693300  1.0  -0.0605
  C  C779  1  0.377100  0.743000  0.249600  1.0  0.7896
  C  C780  1  0.370100  0.746700  0.193300  1.0  -0.0605
  C  C781  1  0.877100  0.243000  0.249600  1.0  0.7896
  C  C782  1  0.870100  0.246700  0.193300  1.0  -0.0605
  C  C783  1  0.877100  0.743000  0.749600  1.0  0.7896
  C  C784  1  0.870100  0.746700  0.693300  1.0  -0.0605
  C  C785  1  0.877100  0.507000  0.500400  1.0  0.7885
  C  C786  1  0.870100  0.503300  0.556700  1.0  -0.0585
  C  C787  1  0.877100  0.007000  0.000400  1.0  0.7885
  C  C788  1  0.870100  0.003300  0.056700  1.0  -0.0585
  C  C789  1  0.377100  0.507000  0.000400  1.0  0.7885
  C  C790  1  0.370100  0.503300  0.056700  1.0  -0.0585
  C  C791  1  0.377100  0.007000  0.500400  1.0  0.7885
  C  C792  1  0.370100  0.003300  0.556700  1.0  -0.0585
  C  C793  1  0.372900  0.007000  0.249600  1.0  0.7892
  C  C794  1  0.379900  0.003300  0.193300  1.0  -0.0606
  C  C795  1  0.372900  0.507000  0.749600  1.0  0.7892
  C  C796  1  0.379900  0.503300  0.693300  1.0  -0.0606
  C  C797  1  0.872900  0.007000  0.749600  1.0  0.7892
  C  C798  1  0.879900  0.003300  0.693300  1.0  -0.0606
  C  C799  1  0.872900  0.507000  0.249600  1.0  0.7892
  C  C800  1  0.879900  0.503300  0.193300  1.0  -0.0606
  C  C801  1  0.243000  0.749600  0.377100  1.0  0.7794
  C  C802  1  0.246700  0.693300  0.370100  1.0  -0.056
  C  C803  1  0.243000  0.249600  0.877100  1.0  0.7794
  C  C804  1  0.246700  0.193300  0.870100  1.0  -0.056
  C  C805  1  0.743000  0.749600  0.877100  1.0  0.7794
  C  C806  1  0.746700  0.693300  0.870100  1.0  -0.056
  C  C807  1  0.743000  0.249600  0.377100  1.0  0.7794
  C  C808  1  0.746700  0.193300  0.370100  1.0  -0.056
  C  C809  1  0.743000  0.000400  0.872900  1.0  0.778
  C  C810  1  0.746700  0.056700  0.879900  1.0  -0.0562
  C  C811  1  0.743000  0.500400  0.372900  1.0  0.778
  C  C812  1  0.746700  0.556700  0.379900  1.0  -0.0562
  C  C813  1  0.243000  0.000400  0.372900  1.0  0.778
  C  C814  1  0.246700  0.056700  0.379900  1.0  -0.0562
  C  C815  1  0.243000  0.500400  0.872900  1.0  0.778
  C  C816  1  0.246700  0.556700  0.879900  1.0  -0.0562
  C  C817  1  0.007000  0.249600  0.372900  1.0  0.779
  C  C818  1  0.003300  0.193300  0.379900  1.0  -0.0564
  C  C819  1  0.007000  0.749600  0.872900  1.0  0.779
  C  C820  1  0.003300  0.693300  0.879900  1.0  -0.0564
  C  C821  1  0.507000  0.249600  0.872900  1.0  0.779
  C  C822  1  0.503300  0.193300  0.879900  1.0  -0.0564
  C  C823  1  0.507000  0.749600  0.372900  1.0  0.779
  C  C824  1  0.503300  0.693300  0.379900  1.0  -0.0564
  C  C825  1  0.507000  0.500400  0.877100  1.0  0.7783
  C  C826  1  0.503300  0.556700  0.870100  1.0  -0.0556
  C  C827  1  0.507000  0.000400  0.377100  1.0  0.7783
  C  C828  1  0.503300  0.056700  0.370100  1.0  -0.0556
  C  C829  1  0.007000  0.500400  0.377100  1.0  0.7783
  C  C830  1  0.003300  0.556700  0.370100  1.0  -0.0556
  C  C831  1  0.007000  0.000400  0.877100  1.0  0.7783
  C  C832  1  0.003300  0.056700  0.870100  1.0  -0.0556
  O  O833  1  0.338900  0.972000  0.007500  1.0  -0.6435
  O  O834  1  0.421200  0.982600  0.011800  1.0  -0.6598
  O  O835  1  0.338900  0.472000  0.507500  1.0  -0.6435
  O  O836  1  0.421200  0.482600  0.511800  1.0  -0.6598
  O  O837  1  0.838900  0.972000  0.507500  1.0  -0.6435
  O  O838  1  0.921200  0.982600  0.511800  1.0  -0.6598
  O  O839  1  0.838900  0.472000  0.007500  1.0  -0.6435
  O  O840  1  0.921200  0.482600  0.011800  1.0  -0.6598
  O  O841  1  0.911100  0.778000  0.507500  1.0  -0.6436
  O  O842  1  0.828800  0.767400  0.511800  1.0  -0.6598
  O  O843  1  0.911100  0.278000  0.007500  1.0  -0.6436
  O  O844  1  0.828800  0.267400  0.011800  1.0  -0.6598
  O  O845  1  0.411100  0.778000  0.007500  1.0  -0.6436
  O  O846  1  0.328800  0.767400  0.011800  1.0  -0.6598
  O  O847  1  0.411100  0.278000  0.507500  1.0  -0.6436
  O  O848  1  0.328800  0.267400  0.511800  1.0  -0.6598
  O  O849  1  0.411100  0.472000  0.242500  1.0  -0.6424
  O  O850  1  0.328800  0.482600  0.238200  1.0  -0.66
  O  O851  1  0.411100  0.972000  0.742500  1.0  -0.6424
  O  O852  1  0.328800  0.982600  0.738200  1.0  -0.66
  O  O853  1  0.911100  0.472000  0.742500  1.0  -0.6424
  O  O854  1  0.828800  0.482600  0.738200  1.0  -0.66
  O  O855  1  0.911100  0.972000  0.242500  1.0  -0.6424
  O  O856  1  0.828800  0.982600  0.238200  1.0  -0.66
  O  O857  1  0.838900  0.278000  0.742500  1.0  -0.6426
  O  O858  1  0.921200  0.267400  0.738200  1.0  -0.6613
  O  O859  1  0.838900  0.778000  0.242500  1.0  -0.6426
  O  O860  1  0.921200  0.767400  0.238200  1.0  -0.6613
  O  O861  1  0.338900  0.278000  0.242500  1.0  -0.6426
  O  O862  1  0.421200  0.267400  0.238200  1.0  -0.6613
  O  O863  1  0.338900  0.778000  0.742500  1.0  -0.6426
  O  O864  1  0.421200  0.767400  0.738200  1.0  -0.6613
  O  O865  1  0.007500  0.338900  0.972000  1.0  -0.6503
  O  O866  1  0.011800  0.421200  0.982600  1.0  -0.6634
  O  O867  1  0.007500  0.838900  0.472000  1.0  -0.6503
  O  O868  1  0.011800  0.921200  0.482600  1.0  -0.6634
  O  O869  1  0.507500  0.338900  0.472000  1.0  -0.6503
  O  O870  1  0.511800  0.421200  0.482600  1.0  -0.6634
  O  O871  1  0.507500  0.838900  0.972000  1.0  -0.6503
  O  O872  1  0.511800  0.921200  0.982600  1.0  -0.6634
  O  O873  1  0.507500  0.911100  0.778000  1.0  -0.6491
  O  O874  1  0.511800  0.828800  0.767400  1.0  -0.6652
  O  O875  1  0.507500  0.411100  0.278000  1.0  -0.6491
  O  O876  1  0.511800  0.328800  0.267400  1.0  -0.6652
  O  O877  1  0.007500  0.911100  0.278000  1.0  -0.6491
  O  O878  1  0.011800  0.828800  0.267400  1.0  -0.6652
  O  O879  1  0.007500  0.411100  0.778000  1.0  -0.6491
  O  O880  1  0.011800  0.328800  0.767400  1.0  -0.6652
  O  O881  1  0.242500  0.411100  0.472000  1.0  -0.6485
  O  O882  1  0.238200  0.328800  0.482600  1.0  -0.6628
  O  O883  1  0.242500  0.911100  0.972000  1.0  -0.6485
  O  O884  1  0.238200  0.828800  0.982600  1.0  -0.6628
  O  O885  1  0.742500  0.411100  0.972000  1.0  -0.6485
  O  O886  1  0.738200  0.328800  0.982600  1.0  -0.6628
  O  O887  1  0.742500  0.911100  0.472000  1.0  -0.6485
  O  O888  1  0.738200  0.828800  0.482600  1.0  -0.6628
  O  O889  1  0.742500  0.838900  0.278000  1.0  -0.648
  O  O890  1  0.738200  0.921200  0.267400  1.0  -0.6633
  O  O891  1  0.742500  0.338900  0.778000  1.0  -0.648
  O  O892  1  0.738200  0.421200  0.767400  1.0  -0.6633
  O  O893  1  0.242500  0.838900  0.778000  1.0  -0.648
  O  O894  1  0.238200  0.921200  0.767400  1.0  -0.6633
  O  O895  1  0.242500  0.338900  0.278000  1.0  -0.648
  O  O896  1  0.238200  0.421200  0.267400  1.0  -0.6633
  O  O897  1  0.972000  0.007500  0.338900  1.0  -0.6436
  O  O898  1  0.982600  0.011800  0.421200  1.0  -0.6601
  O  O899  1  0.972000  0.507500  0.838900  1.0  -0.6436
  O  O900  1  0.982600  0.511800  0.921200  1.0  -0.6601
  O  O901  1  0.472000  0.007500  0.838900  1.0  -0.6436
  O  O902  1  0.482600  0.011800  0.921200  1.0  -0.6601
  O  O903  1  0.472000  0.507500  0.338900  1.0  -0.6436
  O  O904  1  0.482600  0.511800  0.421200  1.0  -0.6601
  O  O905  1  0.778000  0.507500  0.911100  1.0  -0.6463
  O  O906  1  0.767400  0.511800  0.828800  1.0  -0.661
  O  O907  1  0.778000  0.007500  0.411100  1.0  -0.6463
  O  O908  1  0.767400  0.011800  0.328800  1.0  -0.661
  O  O909  1  0.278000  0.507500  0.411100  1.0  -0.6463
  O  O910  1  0.267400  0.511800  0.328800  1.0  -0.661
  O  O911  1  0.278000  0.007500  0.911100  1.0  -0.6463
  O  O912  1  0.267400  0.011800  0.828800  1.0  -0.661
  O  O913  1  0.472000  0.242500  0.411100  1.0  -0.6445
  O  O914  1  0.482600  0.238200  0.328800  1.0  -0.6599
  O  O915  1  0.472000  0.742500  0.911100  1.0  -0.6445
  O  O916  1  0.482600  0.738200  0.828800  1.0  -0.6599
  O  O917  1  0.972000  0.242500  0.911100  1.0  -0.6445
  O  O918  1  0.982600  0.238200  0.828800  1.0  -0.6599
  O  O919  1  0.972000  0.742500  0.411100  1.0  -0.6445
  O  O920  1  0.982600  0.738200  0.328800  1.0  -0.6599
  O  O921  1  0.278000  0.742500  0.838900  1.0  -0.6453
  O  O922  1  0.267400  0.738200  0.921200  1.0  -0.6601
  O  O923  1  0.278000  0.242500  0.338900  1.0  -0.6453
  O  O924  1  0.267400  0.238200  0.421200  1.0  -0.6601
  O  O925  1  0.778000  0.742500  0.338900  1.0  -0.6453
  O  O926  1  0.767400  0.738200  0.421200  1.0  -0.6601
  O  O927  1  0.778000  0.242500  0.838900  1.0  -0.6453
  O  O928  1  0.767400  0.238200  0.921200  1.0  -0.6601
  O  O929  1  0.722000  0.588900  0.992500  1.0  -0.6438
  O  O930  1  0.732600  0.671200  0.988200  1.0  -0.6602
  O  O931  1  0.722000  0.088900  0.492500  1.0  -0.6438
  O  O932  1  0.732600  0.171200  0.488200  1.0  -0.6602
  O  O933  1  0.222000  0.588900  0.492500  1.0  -0.6438
  O  O934  1  0.232600  0.671200  0.488200  1.0  -0.6602
  O  O935  1  0.222000  0.088900  0.992500  1.0  -0.6438
  O  O936  1  0.232600  0.171200  0.988200  1.0  -0.6602
  O  O937  1  0.528000  0.161100  0.492500  1.0  -0.6454
  O  O938  1  0.517400  0.078800  0.488200  1.0  -0.6601
  O  O939  1  0.528000  0.661100  0.992500  1.0  -0.6454
  O  O940  1  0.517400  0.578800  0.988200  1.0  -0.6601
  O  O941  1  0.028000  0.161100  0.992500  1.0  -0.6454
  O  O942  1  0.017400  0.078800  0.988200  1.0  -0.6601
  O  O943  1  0.028000  0.661100  0.492500  1.0  -0.6454
  O  O944  1  0.017400  0.578800  0.488200  1.0  -0.6601
  O  O945  1  0.222000  0.661100  0.757500  1.0  -0.6429
  O  O946  1  0.232600  0.578800  0.761800  1.0  -0.6592
  O  O947  1  0.222000  0.161100  0.257500  1.0  -0.6429
  O  O948  1  0.232600  0.078800  0.261800  1.0  -0.6592
  O  O949  1  0.722000  0.661100  0.257500  1.0  -0.6429
  O  O950  1  0.732600  0.578800  0.261800  1.0  -0.6592
  O  O951  1  0.722000  0.161100  0.757500  1.0  -0.6429
  O  O952  1  0.732600  0.078800  0.761800  1.0  -0.6592
  O  O953  1  0.028000  0.088900  0.257500  1.0  -0.6461
  O  O954  1  0.017400  0.171200  0.261800  1.0  -0.6599
  O  O955  1  0.028000  0.588900  0.757500  1.0  -0.6461
  O  O956  1  0.017400  0.671200  0.761800  1.0  -0.6599
  O  O957  1  0.528000  0.088900  0.757500  1.0  -0.6461
  O  O958  1  0.517400  0.171200  0.761800  1.0  -0.6599
  O  O959  1  0.528000  0.588900  0.257500  1.0  -0.6461
  O  O960  1  0.517400  0.671200  0.261800  1.0  -0.6599
  O  O961  1  0.088900  0.257500  0.028000  1.0  -0.6472
  O  O962  1  0.171200  0.261800  0.017400  1.0  -0.6628
  O  O963  1  0.088900  0.757500  0.528000  1.0  -0.6472
  O  O964  1  0.171200  0.761800  0.517400  1.0  -0.6628
  O  O965  1  0.588900  0.257500  0.528000  1.0  -0.6472
  O  O966  1  0.671200  0.261800  0.517400  1.0  -0.6628
  O  O967  1  0.588900  0.757500  0.028000  1.0  -0.6472
  O  O968  1  0.671200  0.761800  0.017400  1.0  -0.6628
  O  O969  1  0.661100  0.757500  0.222000  1.0  -0.6475
  O  O970  1  0.578800  0.761800  0.232600  1.0  -0.6612
  O  O971  1  0.661100  0.257500  0.722000  1.0  -0.6475
  O  O972  1  0.578800  0.261800  0.732600  1.0  -0.6612
  O  O973  1  0.161100  0.757500  0.722000  1.0  -0.6475
  O  O974  1  0.078800  0.761800  0.732600  1.0  -0.6612
  O  O975  1  0.161100  0.257500  0.222000  1.0  -0.6475
  O  O976  1  0.078800  0.261800  0.232600  1.0  -0.6612
  O  O977  1  0.161100  0.492500  0.528000  1.0  -0.6477
  O  O978  1  0.078800  0.488200  0.517400  1.0  -0.6621
  O  O979  1  0.161100  0.992500  0.028000  1.0  -0.6477
  O  O980  1  0.078800  0.988200  0.017400  1.0  -0.6621
  O  O981  1  0.661100  0.492500  0.028000  1.0  -0.6477
  O  O982  1  0.578800  0.488200  0.017400  1.0  -0.6621
  O  O983  1  0.661100  0.992500  0.528000  1.0  -0.6477
  O  O984  1  0.578800  0.988200  0.517400  1.0  -0.6621
  O  O985  1  0.588900  0.992500  0.722000  1.0  -0.6488
  O  O986  1  0.671200  0.988200  0.732600  1.0  -0.6615
  O  O987  1  0.588900  0.492500  0.222000  1.0  -0.6488
  O  O988  1  0.671200  0.488200  0.232600  1.0  -0.6615
  O  O989  1  0.088900  0.992500  0.222000  1.0  -0.6488
  O  O990  1  0.171200  0.988200  0.232600  1.0  -0.6615
  O  O991  1  0.088900  0.492500  0.722000  1.0  -0.6488
  O  O992  1  0.171200  0.488200  0.732600  1.0  -0.6615
  O  O993  1  0.757500  0.222000  0.661100  1.0  -0.6444
  O  O994  1  0.761800  0.232600  0.578800  1.0  -0.6616
  O  O995  1  0.757500  0.722000  0.161100  1.0  -0.6444
  O  O996  1  0.761800  0.732600  0.078800  1.0  -0.6616
  O  O997  1  0.257500  0.222000  0.161100  1.0  -0.6444
  O  O998  1  0.261800  0.232600  0.078800  1.0  -0.6616
  O  O999  1  0.257500  0.722000  0.661100  1.0  -0.6444
  O  O1000  1  0.261800  0.732600  0.578800  1.0  -0.6616
  O  O1001  1  0.257500  0.028000  0.088900  1.0  -0.6451
  O  O1002  1  0.261800  0.017400  0.171200  1.0  -0.6621
  O  O1003  1  0.257500  0.528000  0.588900  1.0  -0.6451
  O  O1004  1  0.261800  0.517400  0.671200  1.0  -0.6621
  O  O1005  1  0.757500  0.028000  0.588900  1.0  -0.6451
  O  O1006  1  0.761800  0.017400  0.671200  1.0  -0.6621
  O  O1007  1  0.757500  0.528000  0.088900  1.0  -0.6451
  O  O1008  1  0.761800  0.517400  0.171200  1.0  -0.6621
  O  O1009  1  0.992500  0.722000  0.588900  1.0  -0.6437
  O  O1010  1  0.988200  0.732600  0.671200  1.0  -0.6613
  O  O1011  1  0.992500  0.222000  0.088900  1.0  -0.6437
  O  O1012  1  0.988200  0.232600  0.171200  1.0  -0.6613
  O  O1013  1  0.492500  0.722000  0.088900  1.0  -0.6437
  O  O1014  1  0.488200  0.732600  0.171200  1.0  -0.6613
  O  O1015  1  0.492500  0.222000  0.588900  1.0  -0.6437
  O  O1016  1  0.488200  0.232600  0.671200  1.0  -0.6613
  O  O1017  1  0.492500  0.528000  0.161100  1.0  -0.6447
  O  O1018  1  0.488200  0.517400  0.078800  1.0  -0.662
  O  O1019  1  0.492500  0.028000  0.661100  1.0  -0.6447
  O  O1020  1  0.488200  0.017400  0.578800  1.0  -0.662
  O  O1021  1  0.992500  0.528000  0.661100  1.0  -0.6447
  O  O1022  1  0.988200  0.517400  0.578800  1.0  -0.662
  O  O1023  1  0.992500  0.028000  0.161100  1.0  -0.6447
  O  O1024  1  0.988200  0.017400  0.078800  1.0  -0.662
  O  O1025  1  0.661100  0.028000  0.992500  1.0  -0.6432
  O  O1026  1  0.578800  0.017400  0.988200  1.0  -0.6603
  O  O1027  1  0.661100  0.528000  0.492500  1.0  -0.6432
  O  O1028  1  0.578800  0.517400  0.488200  1.0  -0.6603
  O  O1029  1  0.161100  0.028000  0.492500  1.0  -0.6432
  O  O1030  1  0.078800  0.017400  0.488200  1.0  -0.6603
  O  O1031  1  0.161100  0.528000  0.992500  1.0  -0.6432
  O  O1032  1  0.078800  0.517400  0.988200  1.0  -0.6603
  O  O1033  1  0.088900  0.222000  0.492500  1.0  -0.6433
  O  O1034  1  0.171200  0.232600  0.488200  1.0  -0.66
  O  O1035  1  0.088900  0.722000  0.992500  1.0  -0.6433
  O  O1036  1  0.171200  0.732600  0.988200  1.0  -0.66
  O  O1037  1  0.588900  0.222000  0.992500  1.0  -0.6433
  O  O1038  1  0.671200  0.232600  0.988200  1.0  -0.66
  O  O1039  1  0.588900  0.722000  0.492500  1.0  -0.6433
  O  O1040  1  0.671200  0.732600  0.488200  1.0  -0.66
  O  O1041  1  0.588900  0.528000  0.757500  1.0  -0.6434
  O  O1042  1  0.671200  0.517400  0.761800  1.0  -0.661
  O  O1043  1  0.588900  0.028000  0.257500  1.0  -0.6434
  O  O1044  1  0.671200  0.017400  0.261800  1.0  -0.661
  O  O1045  1  0.088900  0.528000  0.257500  1.0  -0.6434
  O  O1046  1  0.171200  0.517400  0.261800  1.0  -0.661
  O  O1047  1  0.088900  0.028000  0.757500  1.0  -0.6434
  O  O1048  1  0.171200  0.017400  0.761800  1.0  -0.661
  O  O1049  1  0.161100  0.722000  0.257500  1.0  -0.6421
  O  O1050  1  0.078800  0.732600  0.261800  1.0  -0.6601
  O  O1051  1  0.161100  0.222000  0.757500  1.0  -0.6421
  O  O1052  1  0.078800  0.232600  0.761800  1.0  -0.6601
  O  O1053  1  0.661100  0.722000  0.757500  1.0  -0.6421
  O  O1054  1  0.578800  0.732600  0.761800  1.0  -0.6601
  O  O1055  1  0.661100  0.222000  0.257500  1.0  -0.6421
  O  O1056  1  0.578800  0.232600  0.261800  1.0  -0.6601
  O  O1057  1  0.992500  0.661100  0.028000  1.0  -0.6482
  O  O1058  1  0.988200  0.578800  0.017400  1.0  -0.6645
  O  O1059  1  0.992500  0.161100  0.528000  1.0  -0.6482
  O  O1060  1  0.988200  0.078800  0.517400  1.0  -0.6645
  O  O1061  1  0.492500  0.661100  0.528000  1.0  -0.6482
  O  O1062  1  0.488200  0.578800  0.517400  1.0  -0.6645
  O  O1063  1  0.492500  0.161100  0.028000  1.0  -0.6482
  O  O1064  1  0.488200  0.078800  0.017400  1.0  -0.6645
  O  O1065  1  0.492500  0.088900  0.222000  1.0  -0.6498
  O  O1066  1  0.488200  0.171200  0.232600  1.0  -0.663
  O  O1067  1  0.492500  0.588900  0.722000  1.0  -0.6498
  O  O1068  1  0.488200  0.671200  0.732600  1.0  -0.663
  O  O1069  1  0.992500  0.088900  0.722000  1.0  -0.6498
  O  O1070  1  0.988200  0.171200  0.732600  1.0  -0.663
  O  O1071  1  0.992500  0.588900  0.222000  1.0  -0.6498
  O  O1072  1  0.988200  0.671200  0.232600  1.0  -0.663
  O  O1073  1  0.757500  0.588900  0.528000  1.0  -0.6484
  O  O1074  1  0.761800  0.671200  0.517400  1.0  -0.6646
  O  O1075  1  0.757500  0.088900  0.028000  1.0  -0.6484
  O  O1076  1  0.761800  0.171200  0.017400  1.0  -0.6646
  O  O1077  1  0.257500  0.588900  0.028000  1.0  -0.6484
  O  O1078  1  0.261800  0.671200  0.017400  1.0  -0.6646
  O  O1079  1  0.257500  0.088900  0.528000  1.0  -0.6484
  O  O1080  1  0.261800  0.171200  0.517400  1.0  -0.6646
  O  O1081  1  0.257500  0.161100  0.722000  1.0  -0.6491
  O  O1082  1  0.261800  0.078800  0.732600  1.0  -0.6631
  O  O1083  1  0.257500  0.661100  0.222000  1.0  -0.6491
  O  O1084  1  0.261800  0.578800  0.232600  1.0  -0.6631
  O  O1085  1  0.757500  0.161100  0.222000  1.0  -0.6491
  O  O1086  1  0.761800  0.078800  0.232600  1.0  -0.6631
  O  O1087  1  0.757500  0.661100  0.722000  1.0  -0.6491
  O  O1088  1  0.761800  0.578800  0.732600  1.0  -0.6631
  O  O1089  1  0.028000  0.992500  0.661100  1.0  -0.6466
  O  O1090  1  0.017400  0.988200  0.578800  1.0  -0.6606
  O  O1091  1  0.028000  0.492500  0.161100  1.0  -0.6466
  O  O1092  1  0.017400  0.488200  0.078800  1.0  -0.6606
  O  O1093  1  0.528000  0.992500  0.161100  1.0  -0.6466
  O  O1094  1  0.517400  0.988200  0.078800  1.0  -0.6606
  O  O1095  1  0.528000  0.492500  0.661100  1.0  -0.6466
  O  O1096  1  0.517400  0.488200  0.578800  1.0  -0.6606
  O  O1097  1  0.222000  0.492500  0.088900  1.0  -0.6439
  O  O1098  1  0.232600  0.488200  0.171200  1.0  -0.6599
  O  O1099  1  0.222000  0.992500  0.588900  1.0  -0.6439
  O  O1100  1  0.232600  0.988200  0.671200  1.0  -0.6599
  O  O1101  1  0.722000  0.492500  0.588900  1.0  -0.6439
  O  O1102  1  0.732600  0.488200  0.671200  1.0  -0.6599
  O  O1103  1  0.722000  0.992500  0.088900  1.0  -0.6439
  O  O1104  1  0.732600  0.988200  0.171200  1.0  -0.6599
  O  O1105  1  0.528000  0.757500  0.588900  1.0  -0.6454
  O  O1106  1  0.517400  0.761800  0.671200  1.0  -0.6608
  O  O1107  1  0.528000  0.257500  0.088900  1.0  -0.6454
  O  O1108  1  0.517400  0.261800  0.171200  1.0  -0.6608
  O  O1109  1  0.028000  0.757500  0.088900  1.0  -0.6454
  O  O1110  1  0.017400  0.761800  0.171200  1.0  -0.6608
  O  O1111  1  0.028000  0.257500  0.588900  1.0  -0.6454
  O  O1112  1  0.017400  0.261800  0.671200  1.0  -0.6608
  O  O1113  1  0.722000  0.257500  0.161100  1.0  -0.6439
  O  O1114  1  0.732600  0.261800  0.078800  1.0  -0.6599
  O  O1115  1  0.722000  0.757500  0.661100  1.0  -0.6439
  O  O1116  1  0.732600  0.761800  0.578800  1.0  -0.6599
  O  O1117  1  0.222000  0.257500  0.661100  1.0  -0.6439
  O  O1118  1  0.232600  0.261800  0.578800  1.0  -0.6599
  O  O1119  1  0.222000  0.757500  0.161100  1.0  -0.6439
  O  O1120  1  0.232600  0.761800  0.078800  1.0  -0.6599
  O  O1121  1  0.278000  0.411100  0.007500  1.0  -0.6459
  O  O1122  1  0.267400  0.328800  0.011800  1.0  -0.6598
  O  O1123  1  0.278000  0.911100  0.507500  1.0  -0.6459
  O  O1124  1  0.267400  0.828800  0.511800  1.0  -0.6598
  O  O1125  1  0.778000  0.411100  0.507500  1.0  -0.6459
  O  O1126  1  0.767400  0.328800  0.511800  1.0  -0.6598
  O  O1127  1  0.778000  0.911100  0.007500  1.0  -0.6459
  O  O1128  1  0.767400  0.828800  0.011800  1.0  -0.6598
  O  O1129  1  0.472000  0.838900  0.507500  1.0  -0.6439
  O  O1130  1  0.482600  0.921200  0.511800  1.0  -0.6597
  O  O1131  1  0.472000  0.338900  0.007500  1.0  -0.6439
  O  O1132  1  0.482600  0.421200  0.011800  1.0  -0.6597
  O  O1133  1  0.972000  0.838900  0.007500  1.0  -0.6439
  O  O1134  1  0.982600  0.921200  0.011800  1.0  -0.6597
  O  O1135  1  0.972000  0.338900  0.507500  1.0  -0.6439
  O  O1136  1  0.982600  0.421200  0.511800  1.0  -0.6597
  O  O1137  1  0.778000  0.338900  0.242500  1.0  -0.6452
  O  O1138  1  0.767400  0.421200  0.238200  1.0  -0.6602
  O  O1139  1  0.778000  0.838900  0.742500  1.0  -0.6452
  O  O1140  1  0.767400  0.921200  0.738200  1.0  -0.6602
  O  O1141  1  0.278000  0.338900  0.742500  1.0  -0.6452
  O  O1142  1  0.267400  0.421200  0.738200  1.0  -0.6602
  O  O1143  1  0.278000  0.838900  0.242500  1.0  -0.6452
  O  O1144  1  0.267400  0.921200  0.238200  1.0  -0.6602
  O  O1145  1  0.972000  0.911100  0.742500  1.0  -0.6435
  O  O1146  1  0.982600  0.828800  0.738200  1.0  -0.6601
  O  O1147  1  0.972000  0.411100  0.242500  1.0  -0.6435
  O  O1148  1  0.982600  0.328800  0.238200  1.0  -0.6601
  O  O1149  1  0.472000  0.911100  0.242500  1.0  -0.6435
  O  O1150  1  0.482600  0.828800  0.238200  1.0  -0.6601
  O  O1151  1  0.472000  0.411100  0.742500  1.0  -0.6435
  O  O1152  1  0.482600  0.328800  0.738200  1.0  -0.6601
  O  O1153  1  0.911100  0.742500  0.972000  1.0  -0.6486
  O  O1154  1  0.828800  0.738200  0.982600  1.0  -0.6609
  O  O1155  1  0.911100  0.242500  0.472000  1.0  -0.6486
  O  O1156  1  0.828800  0.238200  0.482600  1.0  -0.6609
  O  O1157  1  0.411100  0.742500  0.472000  1.0  -0.6486
  O  O1158  1  0.328800  0.738200  0.482600  1.0  -0.6609
  O  O1159  1  0.411100  0.242500  0.972000  1.0  -0.6486
  O  O1160  1  0.328800  0.238200  0.982600  1.0  -0.6609
  O  O1161  1  0.338900  0.242500  0.778000  1.0  -0.6476
  O  O1162  1  0.421200  0.238200  0.767400  1.0  -0.6629
  O  O1163  1  0.338900  0.742500  0.278000  1.0  -0.6476
  O  O1164  1  0.421200  0.738200  0.267400  1.0  -0.6629
  O  O1165  1  0.838900  0.242500  0.278000  1.0  -0.6476
  O  O1166  1  0.921200  0.238200  0.267400  1.0  -0.6629
  O  O1167  1  0.838900  0.742500  0.778000  1.0  -0.6476
  O  O1168  1  0.921200  0.738200  0.767400  1.0  -0.6629
  O  O1169  1  0.838900  0.507500  0.472000  1.0  -0.6481
  O  O1170  1  0.921200  0.511800  0.482600  1.0  -0.6614
  O  O1171  1  0.838900  0.007500  0.972000  1.0  -0.6481
  O  O1172  1  0.921200  0.011800  0.982600  1.0  -0.6614
  O  O1173  1  0.338900  0.507500  0.972000  1.0  -0.6481
  O  O1174  1  0.421200  0.511800  0.982600  1.0  -0.6614
  O  O1175  1  0.338900  0.007500  0.472000  1.0  -0.6481
  O  O1176  1  0.421200  0.011800  0.482600  1.0  -0.6614
  O  O1177  1  0.411100  0.007500  0.278000  1.0  -0.6471
  O  O1178  1  0.328800  0.011800  0.267400  1.0  -0.6624
  O  O1179  1  0.411100  0.507500  0.778000  1.0  -0.6471
  O  O1180  1  0.328800  0.511800  0.767400  1.0  -0.6624
  O  O1181  1  0.911100  0.007500  0.778000  1.0  -0.6471
  O  O1182  1  0.828800  0.011800  0.767400  1.0  -0.6624
  O  O1183  1  0.911100  0.507500  0.278000  1.0  -0.6471
  O  O1184  1  0.828800  0.511800  0.267400  1.0  -0.6624
  O  O1185  1  0.242500  0.778000  0.338900  1.0  -0.6433
  O  O1186  1  0.238200  0.767400  0.421200  1.0  -0.6618
  O  O1187  1  0.242500  0.278000  0.838900  1.0  -0.6433
  O  O1188  1  0.238200  0.267400  0.921200  1.0  -0.6618
  O  O1189  1  0.742500  0.778000  0.838900  1.0  -0.6433
  O  O1190  1  0.738200  0.767400  0.921200  1.0  -0.6618
  O  O1191  1  0.742500  0.278000  0.338900  1.0  -0.6433
  O  O1192  1  0.738200  0.267400  0.421200  1.0  -0.6618
  O  O1193  1  0.742500  0.972000  0.911100  1.0  -0.6445
  O  O1194  1  0.738200  0.982600  0.828800  1.0  -0.6613
  O  O1195  1  0.742500  0.472000  0.411100  1.0  -0.6445
  O  O1196  1  0.738200  0.482600  0.328800  1.0  -0.6613
  O  O1197  1  0.242500  0.972000  0.411100  1.0  -0.6445
  O  O1198  1  0.238200  0.982600  0.328800  1.0  -0.6613
  O  O1199  1  0.242500  0.472000  0.911100  1.0  -0.6445
  O  O1200  1  0.238200  0.482600  0.828800  1.0  -0.6613
  O  O1201  1  0.007500  0.278000  0.411100  1.0  -0.646
  O  O1202  1  0.011800  0.267400  0.328800  1.0  -0.6627
  O  O1203  1  0.007500  0.778000  0.911100  1.0  -0.646
  O  O1204  1  0.011800  0.767400  0.828800  1.0  -0.6627
  O  O1205  1  0.507500  0.278000  0.911100  1.0  -0.646
  O  O1206  1  0.511800  0.267400  0.828800  1.0  -0.6627
  O  O1207  1  0.507500  0.778000  0.411100  1.0  -0.646
  O  O1208  1  0.511800  0.767400  0.328800  1.0  -0.6627
  O  O1209  1  0.507500  0.472000  0.838900  1.0  -0.6439
  O  O1210  1  0.511800  0.482600  0.921200  1.0  -0.6616
  O  O1211  1  0.507500  0.972000  0.338900  1.0  -0.6439
  O  O1212  1  0.511800  0.982600  0.421200  1.0  -0.6616
  O  O1213  1  0.007500  0.472000  0.338900  1.0  -0.6439
  O  O1214  1  0.011800  0.482600  0.421200  1.0  -0.6616
  O  O1215  1  0.007500  0.972000  0.838900  1.0  -0.6439
  O  O1216  1  0.011800  0.982600  0.921200  1.0  -0.6616
  O  O1217  1  0.317800  0.067800  0.000000  1.0  -0.3291
  O  O1218  1  0.317800  0.567800  0.500000  1.0  -0.3291
  O  O1219  1  0.817800  0.567800  0.000000  1.0  -0.3291
  O  O1220  1  0.932200  0.682200  0.500000  1.0  -0.3277
  O  O1221  1  0.932200  0.182200  0.000000  1.0  -0.3277
  O  O1222  1  0.432200  0.682200  0.000000  1.0  -0.3277
  O  O1223  1  0.432200  0.567800  0.250000  1.0  -0.3278
  O  O1224  1  0.432200  0.067800  0.750000  1.0  -0.3278
  O  O1225  1  0.817800  0.182200  0.750000  1.0  -0.329
  O  O1226  1  0.817800  0.682200  0.250000  1.0  -0.329
  O  O1227  1  0.000000  0.317800  0.067800  1.0  -0.3281
  O  O1228  1  0.000000  0.817800  0.567800  1.0  -0.3281
  O  O1229  1  0.500000  0.317800  0.567800  1.0  -0.3281
  O  O1230  1  0.500000  0.932200  0.682200  1.0  -0.3284
  O  O1231  1  0.000000  0.932200  0.182200  1.0  -0.3284
  O  O1232  1  0.000000  0.432200  0.682200  1.0  -0.3284
  O  O1233  1  0.250000  0.432200  0.567800  1.0  -0.3278
  O  O1234  1  0.750000  0.432200  0.067800  1.0  -0.3278
  O  O1235  1  0.750000  0.817800  0.182200  1.0  -0.3283
  O  O1236  1  0.250000  0.817800  0.682200  1.0  -0.3283
  O  O1237  1  0.067800  0.000000  0.317800  1.0  -0.3284
  O  O1238  1  0.067800  0.500000  0.817800  1.0  -0.3284
  O  O1239  1  0.567800  0.000000  0.817800  1.0  -0.3284
  O  O1240  1  0.682200  0.500000  0.932200  1.0  -0.3275
  O  O1241  1  0.682200  0.000000  0.432200  1.0  -0.3275
  O  O1242  1  0.567800  0.250000  0.432200  1.0  -0.3293
  O  O1243  1  0.567800  0.750000  0.932200  1.0  -0.3293
  O  O1244  1  0.067800  0.750000  0.432200  1.0  -0.3293
  O  O1245  1  0.182200  0.750000  0.817800  1.0  -0.3269
  O  O1246  1  0.182200  0.250000  0.317800  1.0  -0.3269
  O  O1247  1  0.817800  0.067800  0.500000  1.0  -0.3291
  O  O1248  1  0.432200  0.182200  0.500000  1.0  -0.3277
  O  O1249  1  0.317800  0.682200  0.750000  1.0  -0.329
  O  O1250  1  0.317800  0.182200  0.250000  1.0  -0.329
  O  O1251  1  0.932200  0.067800  0.250000  1.0  -0.3278
  O  O1252  1  0.932200  0.567800  0.750000  1.0  -0.3278
  O  O1253  1  0.067800  0.250000  0.932200  1.0  -0.3293
  O  O1254  1  0.682200  0.750000  0.317800  1.0  -0.3269
  O  O1255  1  0.682200  0.250000  0.817800  1.0  -0.3269
  O  O1256  1  0.182200  0.500000  0.432200  1.0  -0.3275
  O  O1257  1  0.182200  0.000000  0.932200  1.0  -0.3275
  O  O1258  1  0.567800  0.500000  0.317800  1.0  -0.3284
  O  O1259  1  0.750000  0.317800  0.682200  1.0  -0.3283
  O  O1260  1  0.250000  0.317800  0.182200  1.0  -0.3283
  O  O1261  1  0.250000  0.932200  0.067800  1.0  -0.3278
  O  O1262  1  0.750000  0.932200  0.567800  1.0  -0.3278
  O  O1263  1  0.500000  0.817800  0.067800  1.0  -0.3281
  O  O1264  1  0.500000  0.432200  0.182200  1.0  -0.3284
  O  O1265  1  0.682200  0.932200  0.000000  1.0  -0.3277
  O  O1266  1  0.682200  0.432200  0.500000  1.0  -0.3277
  O  O1267  1  0.182200  0.432200  0.000000  1.0  -0.3277
  O  O1268  1  0.067800  0.317800  0.500000  1.0  -0.3291
  O  O1269  1  0.067800  0.817800  0.000000  1.0  -0.3291
  O  O1270  1  0.567800  0.432200  0.750000  1.0  -0.329
  O  O1271  1  0.567800  0.932200  0.250000  1.0  -0.329
  O  O1272  1  0.182200  0.817800  0.250000  1.0  -0.3278
  O  O1273  1  0.182200  0.317800  0.750000  1.0  -0.3278
  O  O1274  1  0.682200  0.817800  0.750000  1.0  -0.3278
  O  O1275  1  0.000000  0.682200  0.932200  1.0  -0.3284
  O  O1276  1  0.000000  0.182200  0.432200  1.0  -0.3284
  O  O1277  1  0.500000  0.682200  0.432200  1.0  -0.3284
  O  O1278  1  0.500000  0.067800  0.317800  1.0  -0.3281
  O  O1279  1  0.000000  0.067800  0.817800  1.0  -0.3281
  O  O1280  1  0.750000  0.567800  0.432200  1.0  -0.3283
  O  O1281  1  0.250000  0.567800  0.932200  1.0  -0.3283
  O  O1282  1  0.250000  0.182200  0.817800  1.0  -0.3278
  O  O1283  1  0.750000  0.182200  0.317800  1.0  -0.3278
  O  O1284  1  0.750000  0.682200  0.817800  1.0  -0.3278
  O  O1285  1  0.932200  0.000000  0.682200  1.0  -0.3275
  O  O1286  1  0.932200  0.500000  0.182200  1.0  -0.3275
  O  O1287  1  0.432200  0.000000  0.182200  1.0  -0.3275
  O  O1288  1  0.317800  0.500000  0.067800  1.0  -0.3284
  O  O1289  1  0.317800  0.000000  0.567800  1.0  -0.3284
  O  O1290  1  0.817800  0.000000  0.067800  1.0  -0.3284
  O  O1291  1  0.432200  0.750000  0.567800  1.0  -0.3269
  O  O1292  1  0.432200  0.250000  0.067800  1.0  -0.3269
  O  O1293  1  0.817800  0.250000  0.182200  1.0  -0.3293
  O  O1294  1  0.817800  0.750000  0.682200  1.0  -0.3293
  O  O1295  1  0.182200  0.932200  0.500000  1.0  -0.3277
  O  O1296  1  0.567800  0.817800  0.500000  1.0  -0.3291
  O  O1297  1  0.567800  0.317800  0.000000  1.0  -0.3291
  O  O1298  1  0.682200  0.317800  0.250000  1.0  -0.3278
  O  O1299  1  0.067800  0.932200  0.750000  1.0  -0.329
  O  O1300  1  0.067800  0.432200  0.250000  1.0  -0.329
  O  O1301  1  0.932200  0.750000  0.067800  1.0  -0.3269
  O  O1302  1  0.932200  0.250000  0.567800  1.0  -0.3269
  O  O1303  1  0.317800  0.250000  0.682200  1.0  -0.3293
  O  O1304  1  0.317800  0.750000  0.182200  1.0  -0.3293
  O  O1305  1  0.817800  0.500000  0.567800  1.0  -0.3284
  O  O1306  1  0.432200  0.500000  0.682200  1.0  -0.3275
  O  O1307  1  0.250000  0.682200  0.317800  1.0  -0.3278
  O  O1308  1  0.750000  0.067800  0.932200  1.0  -0.3283
  O  O1309  1  0.250000  0.067800  0.432200  1.0  -0.3283
  O  O1310  1  0.500000  0.182200  0.932200  1.0  -0.3284
  O  O1311  1  0.500000  0.567800  0.817800  1.0  -0.3281
  O  O1312  1  0.000000  0.567800  0.317800  1.0  -0.3281
