# generated using pymatgen
data_CdH46(C21O4)2
_symmetry_space_group_name_H-M   'P 1'
_cell_length_a   15.55000000
_cell_length_b   24.92100000
_cell_length_c   25.28200000
_cell_angle_alpha   90.00000000
_cell_angle_beta   90.00500000
_cell_angle_gamma   90.00000000
_symmetry_Int_Tables_number   1
_chemical_formula_structural   CdH46(C21O4)2
_chemical_formula_sum   'Cd8 H368 C336 O64'
_cell_volume   9797.31978979
_cell_formula_units_Z   8
loop_
 _symmetry_equiv_pos_site_id
 _symmetry_equiv_pos_as_xyz
  1  'x, y, z'
loop_
 _atom_site_type_symbol
 _atom_site_label
 _atom_site_symmetry_multiplicity
 _atom_site_fract_x
 _atom_site_fract_y
 _atom_site_fract_z
 _atom_site_occupancy
 _atom_site_charge
  Cd  Cd1  1  0.068430  0.947420  0.084140  1.0  1.0824
  Cd  Cd2  1  0.153180  0.007520  0.957330  1.0  1.1172
  Cd  Cd3  1  0.931570  0.447420  0.415860  1.0  1.0799
  Cd  Cd4  1  0.846820  0.507520  0.542670  1.0  1.1161
  Cd  Cd5  1  0.931570  0.052580  0.915860  1.0  1.0801
  Cd  Cd6  1  0.846820  0.992480  0.042670  1.0  1.1167
  Cd  Cd7  1  0.068430  0.552580  0.584140  1.0  1.0802
  Cd  Cd8  1  0.153180  0.492480  0.457330  1.0  1.1171
  H  H9  1  0.198500  0.894300  0.911200  1.0  0.0998
  H  H10  1  0.287700  0.742000  0.835400  1.0  0.081
  H  H11  1  0.377100  0.712500  0.823200  1.0  0.0897
  H  H12  1  0.356900  0.656000  0.898500  1.0  0.08
  H  H13  1  0.268200  0.685800  0.911400  1.0  0.0772
  H  H14  1  0.240200  0.602800  0.868800  1.0  0.1081
  H  H15  1  0.207300  0.650900  0.832000  1.0  0.1012
  H  H16  1  0.296100  0.621300  0.818900  1.0  0.1161
  H  H17  1  0.265500  0.806900  0.039400  1.0  0.1138
  H  H18  1  0.395700  0.712200  0.975500  1.0  0.1004
  H  H19  1  0.358800  0.729700  0.032200  1.0  0.1034
  H  H20  1  0.424500  0.818500  0.069100  1.0  0.096
  H  H21  1  0.553500  0.862000  0.088700  1.0  0.1148
  H  H22  1  0.672700  0.846800  0.035500  1.0  0.0931
  H  H23  1  0.630200  0.669600  0.990900  1.0  0.077
  H  H24  1  0.531800  0.657400  0.005800  1.0  0.0772
  H  H25  1  0.512200  0.617700  0.921300  1.0  0.0741
  H  H26  1  0.611700  0.627800  0.908600  1.0  0.08
  H  H27  1  0.544500  0.555100  0.984200  1.0  0.102
  H  H28  1  0.603300  0.540700  0.934200  1.0  0.1002
  H  H29  1  0.644100  0.571300  0.983900  1.0  0.1122
  H  H30  1  0.691200  0.749000  0.931500  1.0  0.0936
  H  H31  1  0.751000  0.778100  0.974500  1.0  0.1096
  H  H32  1  0.789400  0.873200  0.962100  1.0  0.0971
  H  H33  1  0.716100  0.951500  0.830700  1.0  0.1011
  H  H34  1  0.666667  0.770800  0.790700  1.0  0.0595
  H  H35  1  0.694900  0.735700  0.841000  1.0  0.0705
  H  H36  1  0.525600  0.728000  0.794200  1.0  0.084
  H  H37  1  0.560800  0.689900  0.840600  1.0  0.0781
  H  H38  1  0.661900  0.650900  0.784000  1.0  0.1182
  H  H39  1  0.572100  0.649200  0.753100  1.0  0.1247
  H  H40  1  0.642000  0.694000  0.738600  1.0  0.1208
  H  H41  1  0.634900  0.905800  0.762100  1.0  0.1005
  H  H42  1  0.601900  0.845600  0.772000  1.0  0.0883
  H  H43  1  0.557100  0.978600  0.817700  1.0  0.1002
  H  H44  1  0.426100  0.011000  0.848100  1.0  0.1155
  H  H45  1  0.311500  0.950100  0.863000  1.0  0.1111
  H  H46  1  0.486300  0.814100  0.705000  1.0  0.0881
  H  H47  1  0.421100  0.862100  0.716300  1.0  0.0739
  H  H48  1  0.375700  0.759100  0.718100  1.0  0.0572
  H  H49  1  0.316300  0.811500  0.716400  1.0  0.0738
  H  H50  1  0.420900  0.817400  0.631500  1.0  0.0958
  H  H51  1  0.382000  0.758000  0.632400  1.0  0.0863
  H  H52  1  0.319000  0.808700  0.630600  1.0  0.1018
  H  H53  1  0.301500  0.815500  0.815600  1.0  0.0969
  H  H54  1  0.239900  0.866400  0.823600  1.0  0.1129
  H  H55  1  0.069600  0.029200  0.181000  1.0  0.1011
  H  H56  1  0.986800  0.028500  0.422700  1.0  0.0962
  H  H57  1  0.941900  0.997600  0.374200  1.0  0.0889
  H  H58  1  0.120400  0.992500  0.403600  1.0  0.0923
  H  H59  1  0.091200  0.974500  0.345700  1.0  0.0823
  H  H60  1  0.003600  0.905300  0.385900  1.0  0.0967
  H  H61  1  0.104200  0.897000  0.396200  1.0  0.103
  H  H62  1  0.044400  0.921200  0.441900  1.0  0.1051
  H  H63  1  0.820300  0.048300  0.223900  1.0  0.1095
  H  H64  1  0.780500  0.072000  0.312300  1.0  0.1109
  H  H65  1  0.845600  0.055800  0.358700  1.0  0.0898
  H  H66  1  0.837300  0.162200  0.264100  1.0  0.0925
  H  H67  1  0.864500  0.252800  0.280400  1.0  0.1078
  H  H68  1  0.902300  0.280700  0.364400  1.0  0.1217
  H  H69  1  0.813700  0.140300  0.495900  1.0  0.0769
  H  H70  1  0.753700  0.140400  0.444600  1.0  0.0715
  H  H71  1  0.760900  0.040400  0.449000  1.0  0.0875
  H  H72  1  0.797100  0.048900  0.508200  1.0  0.0862
  H  H73  1  0.642400  0.044700  0.510200  1.0  0.092
  H  H74  1  0.673700  0.102800  0.529000  1.0  0.101
  H  H75  1  0.637800  0.094500  0.470300  1.0  0.106
  H  H76  1  0.933600  0.194100  0.477300  1.0  0.0999
  H  H77  1  0.891800  0.252200  0.468200  1.0  0.1031
  H  H78  1  0.984200  0.326900  0.456300  1.0  0.1063
  H  H79  1  0.229400  0.310300  0.404400  1.0  0.1192
  H  H80  1  0.045100  0.162500  0.511200  1.0  0.0876
  H  H81  1  0.046500  0.103000  0.486700  1.0  0.092
  H  H82  1  0.201600  0.107000  0.483200  1.0  0.0711
  H  H83  1  0.198400  0.165300  0.510300  1.0  0.0715
  H  H84  1  0.132100  0.069800  0.560000  1.0  0.0979
  H  H85  1  0.221600  0.097100  0.576100  1.0  0.1053
  H  H86  1  0.133000  0.127900  0.587100  1.0  0.102
  H  H87  1  0.251900  0.172500  0.416400  1.0  0.1
  H  H88  1  0.294000  0.224600  0.389700  1.0  0.1182
  H  H89  1  0.199000  0.257700  0.304700  1.0  0.1284
  H  H90  1  0.151500  0.226500  0.223500  1.0  0.1008
  H  H91  1  0.128200  0.136600  0.208800  1.0  0.1215
  H  H92  1  0.318800  0.060900  0.319300  1.0  0.0809
  H  H93  1  0.356200  0.101100  0.363500  1.0  0.0783
  H  H94  1  0.281300  0.997900  0.388300  1.0  0.0808
  H  H95  1  0.321800  0.037500  0.431400  1.0  0.085
  H  H96  1  0.460300  0.022600  0.400000  1.0  0.1059
  H  H97  1  0.417500  0.964400  0.405100  1.0  0.1009
  H  H98  1  0.425100  0.992600  0.348400  1.0  0.1138
  H  H99  1  0.183800  0.038300  0.242000  1.0  0.0944
  H  H100  1  0.163100  0.031000  0.303700  1.0  0.0974
  H  H101  1  0.801500  0.394300  0.588800  1.0  0.0993
  H  H102  1  0.712300  0.242000  0.664600  1.0  0.0833
  H  H103  1  0.622900  0.212500  0.676800  1.0  0.0887
  H  H104  1  0.643100  0.156000  0.601500  1.0  0.0792
  H  H105  1  0.731800  0.185800  0.588600  1.0  0.0776
  H  H106  1  0.759800  0.102800  0.631200  1.0  0.1098
  H  H107  1  0.792700  0.150900  0.668000  1.0  0.101
  H  H108  1  0.703900  0.121300  0.681100  1.0  0.1186
  H  H109  1  0.734500  0.306900  0.460600  1.0  0.1144
  H  H110  1  0.604300  0.212200  0.524500  1.0  0.1002
  H  H111  1  0.641200  0.229700  0.467800  1.0  0.1039
  H  H112  1  0.575500  0.318500  0.430900  1.0  0.0955
  H  H113  1  0.446500  0.362000  0.411300  1.0  0.1149
  H  H114  1  0.327300  0.346800  0.464500  1.0  0.0943
  H  H115  1  0.369800  0.169600  0.509100  1.0  0.0754
  H  H116  1  0.468200  0.157400  0.494200  1.0  0.0778
  H  H117  1  0.487800  0.117700  0.578700  1.0  0.0743
  H  H118  1  0.388300  0.127800  0.591400  1.0  0.0803
  H  H119  1  0.455500  0.055100  0.515800  1.0  0.1019
  H  H120  1  0.396700  0.040700  0.565800  1.0  0.1011
  H  H121  1  0.355900  0.071300  0.516100  1.0  0.1094
  H  H122  1  0.308800  0.249000  0.568500  1.0  0.0946
  H  H123  1  0.249000  0.278100  0.525500  1.0  0.1089
  H  H124  1  0.210600  0.373200  0.537900  1.0  0.0972
  H  H125  1  0.283900  0.451500  0.669300  1.0  0.1015
  H  H126  1  0.333333  0.270800  0.709300  1.0  0.0598
  H  H127  1  0.305100  0.235700  0.659000  1.0  0.0716
  H  H128  1  0.474400  0.228000  0.705800  1.0  0.0847
  H  H129  1  0.439200  0.189900  0.659400  1.0  0.0772
  H  H130  1  0.338100  0.150900  0.716000  1.0  0.1182
  H  H131  1  0.427900  0.149200  0.746900  1.0  0.124
  H  H132  1  0.358000  0.194000  0.761400  1.0  0.1214
  H  H133  1  0.365100  0.405800  0.737900  1.0  0.1006
  H  H134  1  0.398100  0.345600  0.728000  1.0  0.0882
  H  H135  1  0.442900  0.478600  0.682300  1.0  0.1009
  H  H136  1  0.573900  0.511000  0.651900  1.0  0.1151
  H  H137  1  0.688500  0.450100  0.637000  1.0  0.1104
  H  H138  1  0.513700  0.314100  0.795000  1.0  0.0878
  H  H139  1  0.578900  0.362100  0.783700  1.0  0.0731
  H  H140  1  0.624300  0.259100  0.781900  1.0  0.0555
  H  H141  1  0.683700  0.311500  0.783600  1.0  0.0768
  H  H142  1  0.579100  0.317400  0.868500  1.0  0.0952
  H  H143  1  0.618000  0.258000  0.867600  1.0  0.0861
  H  H144  1  0.681000  0.308700  0.869400  1.0  0.1032
  H  H145  1  0.698500  0.315500  0.684400  1.0  0.0969
  H  H146  1  0.760100  0.366400  0.676400  1.0  0.1123
  H  H147  1  0.930400  0.529200  0.319000  1.0  0.1009
  H  H148  1  0.013200  0.528500  0.077300  1.0  0.0971
  H  H149  1  0.058100  0.497600  0.125800  1.0  0.089
  H  H150  1  0.879600  0.492500  0.096400  1.0  0.0931
  H  H151  1  0.908800  0.474500  0.154300  1.0  0.0829
  H  H152  1  0.996400  0.405300  0.114100  1.0  0.0969
  H  H153  1  0.895800  0.397000  0.103800  1.0  0.1044
  H  H154  1  0.955600  0.421200  0.058100  1.0  0.105
  H  H155  1  0.179700  0.548300  0.276100  1.0  0.109
  H  H156  1  0.219500  0.572000  0.187700  1.0  0.1106
  H  H157  1  0.154400  0.555800  0.141300  1.0  0.0894
  H  H158  1  0.162700  0.662200  0.235900  1.0  0.0905
  H  H159  1  0.135500  0.752800  0.219600  1.0  0.1068
  H  H160  1  0.097700  0.780700  0.135600  1.0  0.1222
  H  H161  1  0.186300  0.640300  0.004100  1.0  0.0788
  H  H162  1  0.246300  0.640400  0.055400  1.0  0.0714
  H  H163  1  0.239100  0.540400  0.051000  1.0  0.0888
  H  H164  1  0.202900  0.548900  0.991800  1.0  0.0857
  H  H165  1  0.357600  0.544700  0.989800  1.0  0.0929
  H  H166  1  0.326300  0.602800  0.971000  1.0  0.1009
  H  H167  1  0.362200  0.594500  0.029700  1.0  0.1068
  H  H168  1  0.066400  0.694100  0.022700  1.0  0.1008
  H  H169  1  0.108200  0.752200  0.031800  1.0  0.1039
  H  H170  1  0.015800  0.826900  0.043700  1.0  0.1066
  H  H171  1  0.770600  0.810300  0.095600  1.0  0.1198
  H  H172  1  0.954900  0.662500  0.988800  1.0  0.0881
  H  H173  1  0.953500  0.603000  0.013300  1.0  0.0919
  H  H174  1  0.798400  0.607000  0.016800  1.0  0.0727
  H  H175  1  0.801600  0.665300  0.989700  1.0  0.0734
  H  H176  1  0.867900  0.569800  0.940000  1.0  0.0971
  H  H177  1  0.778400  0.597100  0.923900  1.0  0.1033
  H  H178  1  0.867000  0.627900  0.912900  1.0  0.1016
  H  H179  1  0.748100  0.672500  0.083600  1.0  0.0999
  H  H180  1  0.706000  0.724600  0.110300  1.0  0.1182
  H  H181  1  0.801000  0.757700  0.195300  1.0  0.1279
  H  H182  1  0.848500  0.726500  0.276500  1.0  0.0998
  H  H183  1  0.871800  0.636600  0.291200  1.0  0.1206
  H  H184  1  0.681200  0.560900  0.180700  1.0  0.0809
  H  H185  1  0.643800  0.601100  0.136500  1.0  0.079
  H  H186  1  0.718700  0.497900  0.111700  1.0  0.0799
  H  H187  1  0.678200  0.537500  0.068600  1.0  0.0854
  H  H188  1  0.539700  0.522600  0.100000  1.0  0.1058
  H  H189  1  0.582500  0.464400  0.094900  1.0  0.1018
  H  H190  1  0.574900  0.492600  0.151600  1.0  0.1134
  H  H191  1  0.816200  0.538300  0.258000  1.0  0.097
  H  H192  1  0.836900  0.531000  0.196300  1.0  0.098
  H  H193  1  0.801500  0.105700  0.088800  1.0  0.0995
  H  H194  1  0.712300  0.258000  0.164600  1.0  0.083
  H  H195  1  0.622900  0.287500  0.176800  1.0  0.0874
  H  H196  1  0.643100  0.344000  0.101500  1.0  0.0798
  H  H197  1  0.731800  0.314200  0.088600  1.0  0.0774
  H  H198  1  0.759800  0.397200  0.131200  1.0  0.1096
  H  H199  1  0.792700  0.349100  0.168000  1.0  0.1006
  H  H200  1  0.703900  0.378700  0.181100  1.0  0.119
  H  H201  1  0.734500  0.193100  0.960600  1.0  0.1151
  H  H202  1  0.604300  0.287800  0.024500  1.0  0.1002
  H  H203  1  0.641200  0.270300  0.967800  1.0  0.1034
  H  H204  1  0.575500  0.181500  0.930900  1.0  0.0956
  H  H205  1  0.446500  0.138000  0.911300  1.0  0.1143
  H  H206  1  0.327300  0.153200  0.964500  1.0  0.0936
  H  H207  1  0.369800  0.330400  0.009100  1.0  0.075
  H  H208  1  0.468200  0.342600  0.994200  1.0  0.0778
  H  H209  1  0.487800  0.382300  0.078700  1.0  0.0736
  H  H210  1  0.388300  0.372200  0.091400  1.0  0.0803
  H  H211  1  0.455500  0.444900  0.015800  1.0  0.1018
  H  H212  1  0.396700  0.459300  0.065800  1.0  0.0992
  H  H213  1  0.355900  0.428700  0.016100  1.0  0.1095
  H  H214  1  0.308800  0.251000  0.068500  1.0  0.0938
  H  H215  1  0.249000  0.221900  0.025500  1.0  0.1085
  H  H216  1  0.210600  0.126800  0.037900  1.0  0.0967
  H  H217  1  0.283900  0.048500  0.169300  1.0  0.1017
  H  H218  1  0.333333  0.229200  0.209300  1.0  0.0596
  H  H219  1  0.305100  0.264300  0.159000  1.0  0.0716
  H  H220  1  0.474400  0.272000  0.205800  1.0  0.0847
  H  H221  1  0.439200  0.310100  0.159400  1.0  0.0778
  H  H222  1  0.338100  0.349100  0.216000  1.0  0.1181
  H  H223  1  0.427900  0.350800  0.246900  1.0  0.1233
  H  H224  1  0.358000  0.306000  0.261400  1.0  0.1208
  H  H225  1  0.365100  0.094200  0.237900  1.0  0.1014
  H  H226  1  0.398100  0.154400  0.228000  1.0  0.0881
  H  H227  1  0.442900  0.021400  0.182300  1.0  0.0998
  H  H228  1  0.573900  0.989000  0.151900  1.0  0.1149
  H  H229  1  0.688500  0.049900  0.137000  1.0  0.11
  H  H230  1  0.513700  0.185900  0.295000  1.0  0.0878
  H  H231  1  0.578900  0.137900  0.283700  1.0  0.0706
  H  H232  1  0.624300  0.240900  0.281900  1.0  0.0569
  H  H233  1  0.683700  0.188500  0.283600  1.0  0.0776
  H  H234  1  0.579100  0.182600  0.368500  1.0  0.0952
  H  H235  1  0.618000  0.242000  0.367600  1.0  0.0897
  H  H236  1  0.681000  0.191300  0.369400  1.0  0.103
  H  H237  1  0.698500  0.184500  0.184400  1.0  0.0961
  H  H238  1  0.760100  0.133600  0.176400  1.0  0.1127
  H  H239  1  0.930400  0.970800  0.819000  1.0  0.1012
  H  H240  1  0.013200  0.971500  0.577300  1.0  0.0977
  H  H241  1  0.058100  0.002400  0.625800  1.0  0.0885
  H  H242  1  0.879600  0.007500  0.596400  1.0  0.0929
  H  H243  1  0.908800  0.025500  0.654300  1.0  0.0816
  H  H244  1  0.996400  0.094700  0.614100  1.0  0.0962
  H  H245  1  0.895800  0.103000  0.603800  1.0  0.1032
  H  H246  1  0.955600  0.078800  0.558100  1.0  0.1051
  H  H247  1  0.179700  0.951700  0.776100  1.0  0.1097
  H  H248  1  0.219500  0.928000  0.687700  1.0  0.1108
  H  H249  1  0.154400  0.944200  0.641300  1.0  0.0895
  H  H250  1  0.162700  0.837800  0.735900  1.0  0.0906
  H  H251  1  0.135500  0.747200  0.719600  1.0  0.1077
  H  H252  1  0.097700  0.719300  0.635600  1.0  0.1223
  H  H253  1  0.186300  0.859700  0.504100  1.0  0.078
  H  H254  1  0.246300  0.859600  0.555400  1.0  0.0715
  H  H255  1  0.239100  0.959600  0.551000  1.0  0.0886
  H  H256  1  0.202900  0.951100  0.491800  1.0  0.0848
  H  H257  1  0.357600  0.955300  0.489800  1.0  0.0924
  H  H258  1  0.326300  0.897200  0.471000  1.0  0.1011
  H  H259  1  0.362200  0.905500  0.529700  1.0  0.1072
  H  H260  1  0.066400  0.805900  0.522700  1.0  0.1005
  H  H261  1  0.108200  0.747800  0.531800  1.0  0.1036
  H  H262  1  0.015800  0.673100  0.543700  1.0  0.1064
  H  H263  1  0.770600  0.689700  0.595600  1.0  0.1204
  H  H264  1  0.954900  0.837500  0.488800  1.0  0.0868
  H  H265  1  0.953500  0.897000  0.513300  1.0  0.0901
  H  H266  1  0.798400  0.893000  0.516800  1.0  0.0726
  H  H267  1  0.801600  0.834700  0.489700  1.0  0.0721
  H  H268  1  0.867900  0.930200  0.440000  1.0  0.0988
  H  H269  1  0.778400  0.902900  0.423900  1.0  0.1038
  H  H270  1  0.867000  0.872100  0.412900  1.0  0.1009
  H  H271  1  0.748100  0.827500  0.583600  1.0  0.0986
  H  H272  1  0.706000  0.775400  0.610300  1.0  0.1185
  H  H273  1  0.801000  0.742300  0.695300  1.0  0.128
  H  H274  1  0.848500  0.773500  0.776500  1.0  0.0998
  H  H275  1  0.871800  0.863400  0.791200  1.0  0.12
  H  H276  1  0.681200  0.939100  0.680700  1.0  0.0811
  H  H277  1  0.643800  0.898900  0.636500  1.0  0.0796
  H  H278  1  0.718700  0.002100  0.611700  1.0  0.0788
  H  H279  1  0.678200  0.962500  0.568600  1.0  0.0855
  H  H280  1  0.539700  0.977400  0.600000  1.0  0.1058
  H  H281  1  0.582500  0.035600  0.594900  1.0  0.1014
  H  H282  1  0.574900  0.007400  0.651600  1.0  0.1131
  H  H283  1  0.816200  0.961700  0.758000  1.0  0.0956
  H  H284  1  0.836900  0.969000  0.696300  1.0  0.0966
  H  H285  1  0.198500  0.605700  0.411200  1.0  0.0998
  H  H286  1  0.287700  0.758000  0.335400  1.0  0.0814
  H  H287  1  0.377100  0.787500  0.323200  1.0  0.0892
  H  H288  1  0.356900  0.844000  0.398500  1.0  0.0799
  H  H289  1  0.268200  0.814200  0.411400  1.0  0.0777
  H  H290  1  0.240200  0.897200  0.368800  1.0  0.1087
  H  H291  1  0.207300  0.849100  0.332000  1.0  0.1007
  H  H292  1  0.296100  0.878700  0.318900  1.0  0.1169
  H  H293  1  0.265500  0.693100  0.539400  1.0  0.1147
  H  H294  1  0.395700  0.787800  0.475500  1.0  0.1002
  H  H295  1  0.358800  0.770300  0.532200  1.0  0.1031
  H  H296  1  0.424500  0.681500  0.569100  1.0  0.0966
  H  H297  1  0.553500  0.638000  0.588700  1.0  0.1147
  H  H298  1  0.672700  0.653200  0.535500  1.0  0.0931
  H  H299  1  0.630200  0.830400  0.490900  1.0  0.0775
  H  H300  1  0.531800  0.842600  0.505800  1.0  0.0774
  H  H301  1  0.512200  0.882300  0.421300  1.0  0.0749
  H  H302  1  0.611700  0.872200  0.408600  1.0  0.0807
  H  H303  1  0.544500  0.944900  0.484200  1.0  0.1013
  H  H304  1  0.603300  0.959300  0.434200  1.0  0.1007
  H  H305  1  0.644100  0.928700  0.483900  1.0  0.1116
  H  H306  1  0.691200  0.751000  0.431500  1.0  0.093
  H  H307  1  0.751000  0.721900  0.474500  1.0  0.1093
  H  H308  1  0.789400  0.626800  0.462100  1.0  0.0973
  H  H309  1  0.716100  0.548500  0.330700  1.0  0.1012
  H  H310  1  0.666667  0.729200  0.290700  1.0  0.0591
  H  H311  1  0.694900  0.764300  0.341000  1.0  0.0706
  H  H312  1  0.525600  0.772000  0.294200  1.0  0.0847
  H  H313  1  0.560800  0.810100  0.340600  1.0  0.0789
  H  H314  1  0.661900  0.849100  0.284000  1.0  0.118
  H  H315  1  0.572100  0.850800  0.253100  1.0  0.1265
  H  H316  1  0.642000  0.806000  0.238600  1.0  0.1207
  H  H317  1  0.634900  0.594200  0.262100  1.0  0.1012
  H  H318  1  0.601900  0.654400  0.272000  1.0  0.0885
  H  H319  1  0.557100  0.521400  0.317700  1.0  0.0998
  H  H320  1  0.426100  0.489000  0.348100  1.0  0.1152
  H  H321  1  0.311500  0.549900  0.363000  1.0  0.1102
  H  H322  1  0.486300  0.685900  0.205000  1.0  0.0884
  H  H323  1  0.421100  0.637900  0.216300  1.0  0.0713
  H  H324  1  0.375700  0.740900  0.218100  1.0  0.0571
  H  H325  1  0.316300  0.688500  0.216400  1.0  0.0743
  H  H326  1  0.420900  0.682600  0.131500  1.0  0.0954
  H  H327  1  0.382000  0.742000  0.132400  1.0  0.0898
  H  H328  1  0.319000  0.691300  0.130600  1.0  0.1015
  H  H329  1  0.301500  0.684500  0.315600  1.0  0.0971
  H  H330  1  0.239900  0.633600  0.323600  1.0  0.1128
  H  H331  1  0.069600  0.470800  0.681000  1.0  0.1012
  H  H332  1  0.986800  0.471500  0.922700  1.0  0.0968
  H  H333  1  0.941900  0.502400  0.874200  1.0  0.0887
  H  H334  1  0.120400  0.507500  0.903600  1.0  0.0924
  H  H335  1  0.091200  0.525500  0.845700  1.0  0.0824
  H  H336  1  0.003600  0.594700  0.885900  1.0  0.097
  H  H337  1  0.104200  0.603000  0.896200  1.0  0.1026
  H  H338  1  0.044400  0.578800  0.941900  1.0  0.1045
  H  H339  1  0.820300  0.451700  0.723900  1.0  0.1099
  H  H340  1  0.780500  0.428000  0.812300  1.0  0.111
  H  H341  1  0.845600  0.444200  0.858700  1.0  0.0887
  H  H342  1  0.837300  0.337800  0.764100  1.0  0.092
  H  H343  1  0.864500  0.247200  0.780400  1.0  0.1074
  H  H344  1  0.902300  0.219300  0.864400  1.0  0.1219
  H  H345  1  0.813700  0.359700  0.995900  1.0  0.0768
  H  H346  1  0.753700  0.359600  0.944600  1.0  0.0711
  H  H347  1  0.760900  0.459600  0.949000  1.0  0.0884
  H  H348  1  0.797100  0.451100  0.008200  1.0  0.0846
  H  H349  1  0.642400  0.455300  0.010200  1.0  0.0918
  H  H350  1  0.673700  0.397200  0.029000  1.0  0.1014
  H  H351  1  0.637800  0.405500  0.970300  1.0  0.106
  H  H352  1  0.933600  0.305900  0.977300  1.0  0.0999
  H  H353  1  0.891800  0.247800  0.968200  1.0  0.103
  H  H354  1  0.984200  0.173100  0.956300  1.0  0.1066
  H  H355  1  0.229400  0.189700  0.904400  1.0  0.1184
  H  H356  1  0.045100  0.337500  0.011200  1.0  0.0877
  H  H357  1  0.046500  0.397000  0.986700  1.0  0.0909
  H  H358  1  0.201600  0.393000  0.983200  1.0  0.0716
  H  H359  1  0.198400  0.334700  0.010300  1.0  0.0716
  H  H360  1  0.132100  0.430200  0.060000  1.0  0.0989
  H  H361  1  0.221600  0.402900  0.076100  1.0  0.104
  H  H362  1  0.133000  0.372100  0.087100  1.0  0.103
  H  H363  1  0.251900  0.327500  0.916400  1.0  0.0988
  H  H364  1  0.294000  0.275400  0.889700  1.0  0.118
  H  H365  1  0.199000  0.242300  0.804700  1.0  0.1284
  H  H366  1  0.151500  0.273500  0.723500  1.0  0.1003
  H  H367  1  0.128200  0.363400  0.708800  1.0  0.1208
  H  H368  1  0.318800  0.439100  0.819300  1.0  0.0819
  H  H369  1  0.356200  0.398900  0.863500  1.0  0.0791
  H  H370  1  0.281300  0.502100  0.888300  1.0  0.0805
  H  H371  1  0.321800  0.462500  0.931400  1.0  0.085
  H  H372  1  0.460300  0.477400  0.900000  1.0  0.1056
  H  H373  1  0.417500  0.535600  0.905100  1.0  0.0991
  H  H374  1  0.425100  0.507400  0.848400  1.0  0.1139
  H  H375  1  0.183800  0.461700  0.742000  1.0  0.094
  H  H376  1  0.163100  0.469000  0.803700  1.0  0.0959
  C  C377  1  0.163800  0.887900  0.014400  1.0  0.6816
  C  C378  1  0.222000  0.855160  0.980760  1.0  -0.1576
  C  C379  1  0.229900  0.865500  0.926450  1.0  -0.0796
  C  C380  1  0.282500  0.834300  0.894700  1.0  0.0212
  C  C381  1  0.328700  0.791900  0.918000  1.0  0.1948
  C  C382  1  0.337600  0.723800  0.851800  1.0  0.0442
  C  C383  1  0.306600  0.674100  0.882400  1.0  -0.0681
  C  C384  1  0.258000  0.633600  0.847300  1.0  -0.3117
  C  C385  1  0.325200  0.783250  0.972400  1.0  -0.0226
  C  C386  1  0.270300  0.814050  0.002600  1.0  -0.0974
  C  C387  1  0.385600  0.743200  0.999300  1.0  -0.2195
  C  C388  1  0.470900  0.770110  0.012200  1.0  -0.01
  C  C389  1  0.475000  0.809600  0.049800  1.0  -0.0763
  C  C390  1  0.550700  0.836900  0.060500  1.0  -0.1344
  C  C391  1  0.621600  0.826800  0.029700  1.0  -0.0635
  C  C392  1  0.620600  0.787900  0.989900  1.0  0.0286
  C  C393  1  0.545600  0.757400  0.983900  1.0  0.1674
  C  C394  1  0.571500  0.665300  0.976200  1.0  0.0763
  C  C395  1  0.570200  0.620100  0.937300  1.0  -0.0859
  C  C396  1  0.592500  0.567200  0.962000  1.0  -0.3321
  C  C397  1  0.697900  0.781900  0.953100  1.0  -0.2404
  C  C398  1  0.706100  0.829700  0.917400  1.0  0.0661
  C  C399  1  0.757000  0.873900  0.930200  1.0  -0.0964
  C  C400  1  0.761800  0.918700  0.898240  1.0  -0.146
  C  C401  1  0.817800  0.965400  0.912900  1.0  0.6718
  C  C402  1  0.713800  0.920300  0.852300  1.0  -0.1178
  C  C403  1  0.662600  0.878100  0.836800  1.0  0.0078
  C  C404  1  0.659400  0.832500  0.869600  1.0  0.1765
  C  C405  1  0.645500  0.752800  0.823000  1.0  0.0609
  C  C406  1  0.577600  0.710400  0.808700  1.0  -0.0902
  C  C407  1  0.617000  0.672700  0.767400  1.0  -0.3541
  C  C408  1  0.607500  0.881600  0.788200  1.0  -0.2488
  C  C409  1  0.517600  0.903300  0.803000  1.0  0.0147
  C  C410  1  0.509000  0.955100  0.819600  1.0  -0.061
  C  C411  1  0.432200  0.974200  0.839300  1.0  -0.1214
  C  C412  1  0.362800  0.938400  0.846100  1.0  -0.1177
  C  C413  1  0.369800  0.886300  0.828000  1.0  0.0028
  C  C414  1  0.445600  0.869100  0.804220  1.0  0.1664
  C  C415  1  0.432900  0.823900  0.724000  1.0  0.0049
  C  C416  1  0.371900  0.796300  0.704500  1.0  -0.1145
  C  C417  1  0.373600  0.795000  0.644400  1.0  -0.3093
  C  C418  1  0.293000  0.848700  0.836400  1.0  -0.2475
  C  C419  1  0.913900  0.021400  0.140100  1.0  0.6998
  C  C420  1  0.941300  0.034700  0.194300  1.0  -0.1337
  C  C421  1  0.027700  0.035700  0.207600  1.0  -0.1162
  C  C422  1  0.053900  0.045900  0.259000  1.0  0.0409
  C  C423  1  0.990600  0.054600  0.297800  1.0  0.1853
  C  C424  1  0.995200  0.015800  0.386000  1.0  -0.0526
  C  C425  1  0.072300  0.977000  0.383000  1.0  -0.0659
  C  C426  1  0.055000  0.919900  0.403600  1.0  -0.3053
  C  C427  1  0.904000  0.057600  0.285200  1.0  0.0882
  C  C428  1  0.879500  0.047100  0.233200  1.0  -0.0807
  C  C429  1  0.839500  0.077200  0.326000  1.0  -0.2579
  C  C430  1  0.853500  0.136200  0.338500  1.0  0.0229
  C  C431  1  0.851100  0.173400  0.299000  1.0  -0.1178
  C  C432  1  0.868300  0.227500  0.308400  1.0  -0.1067
  C  C433  1  0.890500  0.243900  0.357900  1.0  -0.0444
  C  C434  1  0.896000  0.206600  0.399600  1.0  0.0039
  C  C435  1  0.873200  0.153800  0.389700  1.0  0.1589
  C  C436  1  0.798900  0.120000  0.463500  1.0  0.029
  C  C437  1  0.762300  0.065200  0.479600  1.0  -0.0759
  C  C438  1  0.670700  0.078000  0.499000  1.0  -0.3451
  C  C439  1  0.930900  0.225000  0.452700  1.0  -0.2617
  C  C440  1  0.019200  0.248700  0.446000  1.0  0.0425
  C  C441  1  0.030800  0.304200  0.446900  1.0  -0.1067
  C  C442  1  0.110200  0.326600  0.434300  1.0  -0.1302
  C  C443  1  0.123700  0.385600  0.439200  1.0  0.6941
  C  C444  1  0.177300  0.294400  0.416300  1.0  -0.0963
  C  C445  1  0.167700  0.238400  0.415700  1.0  0.0005
  C  C446  1  0.090600  0.216300  0.432900  1.0  0.2245
  C  C447  1  0.077000  0.137900  0.487600  1.0  0.0046
  C  C448  1  0.168800  0.130200  0.507800  1.0  -0.076
  C  C449  1  0.163400  0.103900  0.562800  1.0  -0.3202
  C  C450  1  0.240500  0.203300  0.392600  1.0  -0.2279
  C  C451  1  0.214500  0.183200  0.339100  1.0  0.0442
  C  C452  1  0.193000  0.220300  0.298800  1.0  -0.1274
  C  C453  1  0.163300  0.201500  0.251000  1.0  -0.1083
  C  C454  1  0.150300  0.148100  0.242000  1.0  -0.1654
  C  C455  1  0.169400  0.110300  0.281000  1.0  0.0562
  C  C456  1  0.205000  0.128700  0.328100  1.0  0.1977
  C  C457  1  0.313300  0.072600  0.356500  1.0  0.0745
  C  C458  1  0.326800  0.024900  0.394400  1.0  -0.0897
  C  C459  1  0.415500  0.998700  0.386200  1.0  -0.3206
  C  C460  1  0.148800  0.052100  0.271700  1.0  -0.2744
  C  C461  1  0.836200  0.387900  0.485600  1.0  0.6827
  C  C462  1  0.778000  0.355160  0.519240  1.0  -0.1574
  C  C463  1  0.770100  0.365500  0.573550  1.0  -0.0823
  C  C464  1  0.717500  0.334300  0.605300  1.0  0.0238
  C  C465  1  0.671300  0.291900  0.582000  1.0  0.1953
  C  C466  1  0.662400  0.223800  0.648200  1.0  0.0468
  C  C467  1  0.693400  0.174100  0.617600  1.0  -0.069
  C  C468  1  0.742000  0.133600  0.652700  1.0  -0.3115
  C  C469  1  0.674800  0.283250  0.527600  1.0  -0.0233
  C  C470  1  0.729700  0.314050  0.497400  1.0  -0.0968
  C  C471  1  0.614400  0.243200  0.500700  1.0  -0.22
  C  C472  1  0.529100  0.270110  0.487800  1.0  -0.0104
  C  C473  1  0.525000  0.309600  0.450200  1.0  -0.0751
  C  C474  1  0.449300  0.336900  0.439500  1.0  -0.1333
  C  C475  1  0.378400  0.326800  0.470300  1.0  -0.063
  C  C476  1  0.379400  0.287900  0.510100  1.0  0.0268
  C  C477  1  0.454400  0.257400  0.516100  1.0  0.1663
  C  C478  1  0.428500  0.165300  0.523800  1.0  0.0761
  C  C479  1  0.429800  0.120100  0.562700  1.0  -0.0869
  C  C480  1  0.407500  0.067200  0.538000  1.0  -0.3318
  C  C481  1  0.302100  0.281900  0.546900  1.0  -0.2413
  C  C482  1  0.293900  0.329700  0.582600  1.0  0.0657
  C  C483  1  0.243000  0.373900  0.569800  1.0  -0.0962
  C  C484  1  0.238200  0.418700  0.601760  1.0  -0.1455
  C  C485  1  0.182200  0.465400  0.587100  1.0  0.6732
  C  C486  1  0.286200  0.420300  0.647700  1.0  -0.1176
  C  C487  1  0.337400  0.378100  0.663200  1.0  0.0074
  C  C488  1  0.340600  0.332500  0.630400  1.0  0.1758
  C  C489  1  0.354500  0.252800  0.677000  1.0  0.0597
  C  C490  1  0.422400  0.210400  0.691300  1.0  -0.0934
  C  C491  1  0.383000  0.172700  0.732600  1.0  -0.3532
  C  C492  1  0.392500  0.381600  0.711800  1.0  -0.2502
  C  C493  1  0.482400  0.403300  0.697000  1.0  0.0157
  C  C494  1  0.491000  0.455100  0.680400  1.0  -0.0622
  C  C495  1  0.567800  0.474200  0.660700  1.0  -0.12
  C  C496  1  0.637200  0.438400  0.653900  1.0  -0.115
  C  C497  1  0.630200  0.386300  0.672000  1.0  0.0018
  C  C498  1  0.554400  0.369100  0.695780  1.0  0.1663
  C  C499  1  0.567100  0.323900  0.776000  1.0  0.0021
  C  C500  1  0.628100  0.296300  0.795500  1.0  -0.1136
  C  C501  1  0.626400  0.295000  0.855600  1.0  -0.3077
  C  C502  1  0.707000  0.348700  0.663600  1.0  -0.2476
  C  C503  1  0.086100  0.521400  0.359900  1.0  0.699
  C  C504  1  0.058700  0.534700  0.305700  1.0  -0.133
  C  C505  1  0.972300  0.535700  0.292400  1.0  -0.1152
  C  C506  1  0.946100  0.545900  0.241000  1.0  0.0393
  C  C507  1  0.009400  0.554600  0.202200  1.0  0.1848
  C  C508  1  0.004800  0.515800  0.114000  1.0  -0.0537
  C  C509  1  0.927700  0.477000  0.117000  1.0  -0.0661
  C  C510  1  0.945000  0.419900  0.096400  1.0  -0.3056
  C  C511  1  0.096000  0.557600  0.214800  1.0  0.0887
  C  C512  1  0.120500  0.547100  0.266800  1.0  -0.0807
  C  C513  1  0.160500  0.577200  0.174000  1.0  -0.2576
  C  C514  1  0.146500  0.636200  0.161500  1.0  0.0238
  C  C515  1  0.148900  0.673400  0.201000  1.0  -0.1151
  C  C516  1  0.131700  0.727500  0.191600  1.0  -0.1075
  C  C517  1  0.109500  0.743900  0.142100  1.0  -0.046
  C  C518  1  0.104000  0.706600  0.100400  1.0  0.0043
  C  C519  1  0.126800  0.653800  0.110300  1.0  0.1588
  C  C520  1  0.201100  0.620000  0.036500  1.0  0.0296
  C  C521  1  0.237700  0.565200  0.020400  1.0  -0.0757
  C  C522  1  0.329300  0.578000  0.001000  1.0  -0.345
  C  C523  1  0.069100  0.725000  0.047300  1.0  -0.2606
  C  C524  1  0.980800  0.748700  0.054000  1.0  0.0436
  C  C525  1  0.969200  0.804200  0.053100  1.0  -0.1059
  C  C526  1  0.889800  0.826600  0.065700  1.0  -0.1293
  C  C527  1  0.876300  0.885600  0.060800  1.0  0.6931
  C  C528  1  0.822700  0.794400  0.083700  1.0  -0.0972
  C  C529  1  0.832300  0.738400  0.084300  1.0  0.0015
  C  C530  1  0.909400  0.716300  0.067100  1.0  0.2239
  C  C531  1  0.923000  0.637900  0.012400  1.0  0.006
  C  C532  1  0.831200  0.630200  0.992200  1.0  -0.0766
  C  C533  1  0.836600  0.603900  0.937200  1.0  -0.3188
  C  C534  1  0.759500  0.703300  0.107400  1.0  -0.2286
  C  C535  1  0.785500  0.683200  0.160900  1.0  0.0446
  C  C536  1  0.807000  0.720300  0.201200  1.0  -0.1286
  C  C537  1  0.836700  0.701500  0.249000  1.0  -0.1086
  C  C538  1  0.849700  0.648100  0.258000  1.0  -0.1652
  C  C539  1  0.830600  0.610300  0.219000  1.0  0.0566
  C  C540  1  0.795000  0.628700  0.171900  1.0  0.1979
  C  C541  1  0.686700  0.572600  0.143500  1.0  0.0748
  C  C542  1  0.673200  0.524900  0.105600  1.0  -0.0885
  C  C543  1  0.584500  0.498700  0.113800  1.0  -0.3201
  C  C544  1  0.851200  0.552100  0.228300  1.0  -0.275
  C  C545  1  0.836200  0.112100  0.985600  1.0  0.6822
  C  C546  1  0.778000  0.144840  0.019240  1.0  -0.1583
  C  C547  1  0.770100  0.134500  0.073550  1.0  -0.081
  C  C548  1  0.717500  0.165700  0.105300  1.0  0.0239
  C  C549  1  0.671300  0.208100  0.082000  1.0  0.1952
  C  C550  1  0.662400  0.276200  0.148200  1.0  0.047
  C  C551  1  0.693400  0.325900  0.117600  1.0  -0.0693
  C  C552  1  0.742000  0.366400  0.152700  1.0  -0.3116
  C  C553  1  0.674800  0.216750  0.027600  1.0  -0.0236
  C  C554  1  0.729700  0.185950  0.997400  1.0  -0.0968
  C  C555  1  0.614400  0.256800  0.000700  1.0  -0.2195
  C  C556  1  0.529100  0.229890  0.987800  1.0  -0.0098
  C  C557  1  0.525000  0.190400  0.950200  1.0  -0.077
  C  C558  1  0.449300  0.163100  0.939500  1.0  -0.1363
  C  C559  1  0.378400  0.173200  0.970300  1.0  -0.0657
  C  C560  1  0.379400  0.212100  0.010100  1.0  0.0266
  C  C561  1  0.454400  0.242600  0.016100  1.0  0.1666
  C  C562  1  0.428500  0.334700  0.023800  1.0  0.0758
  C  C563  1  0.429800  0.379900  0.062700  1.0  -0.087
  C  C564  1  0.407500  0.432800  0.038000  1.0  -0.3306
  C  C565  1  0.302100  0.218100  0.046900  1.0  -0.242
  C  C566  1  0.293900  0.170300  0.082600  1.0  0.0656
  C  C567  1  0.243000  0.126100  0.069800  1.0  -0.0957
  C  C568  1  0.238200  0.081300  0.101760  1.0  -0.147
  C  C569  1  0.182200  0.034600  0.087100  1.0  0.6714
  C  C570  1  0.286200  0.079700  0.147700  1.0  -0.1161
  C  C571  1  0.337400  0.121900  0.163200  1.0  0.0075
  C  C572  1  0.340600  0.167500  0.130400  1.0  0.1755
  C  C573  1  0.354500  0.247200  0.177000  1.0  0.0595
  C  C574  1  0.422400  0.289600  0.191300  1.0  -0.0939
  C  C575  1  0.383000  0.327300  0.232600  1.0  -0.3548
  C  C576  1  0.392500  0.118400  0.211800  1.0  -0.2513
  C  C577  1  0.482400  0.096700  0.197000  1.0  0.0156
  C  C578  1  0.491000  0.044900  0.180400  1.0  -0.0645
  C  C579  1  0.567800  0.025800  0.160700  1.0  -0.1213
  C  C580  1  0.637200  0.061600  0.153900  1.0  -0.1193
  C  C581  1  0.630200  0.113700  0.172000  1.0  0.0029
  C  C582  1  0.554400  0.130900  0.195780  1.0  0.1662
  C  C583  1  0.567100  0.176100  0.276000  1.0  0.0029
  C  C584  1  0.628100  0.203700  0.295500  1.0  -0.1124
  C  C585  1  0.626400  0.205000  0.355600  1.0  -0.3072
  C  C586  1  0.707000  0.151300  0.163600  1.0  -0.2472
  C  C587  1  0.086100  0.978600  0.859900  1.0  0.6991
  C  C588  1  0.058700  0.965300  0.805700  1.0  -0.1327
  C  C589  1  0.972300  0.964300  0.792400  1.0  -0.1145
  C  C590  1  0.946100  0.954100  0.741000  1.0  0.0397
  C  C591  1  0.009400  0.945400  0.702200  1.0  0.1845
  C  C592  1  0.004800  0.984200  0.614000  1.0  -0.0544
  C  C593  1  0.927700  0.023000  0.617000  1.0  -0.0662
  C  C594  1  0.945000  0.080100  0.596400  1.0  -0.3058
  C  C595  1  0.096000  0.942400  0.714800  1.0  0.0897
  C  C596  1  0.120500  0.952900  0.766800  1.0  -0.0809
  C  C597  1  0.160500  0.922800  0.674000  1.0  -0.258
  C  C598  1  0.146500  0.863800  0.661500  1.0  0.0235
  C  C599  1  0.148900  0.826600  0.701000  1.0  -0.1158
  C  C600  1  0.131700  0.772500  0.691600  1.0  -0.1088
  C  C601  1  0.109500  0.756100  0.642100  1.0  -0.0471
  C  C602  1  0.104000  0.793400  0.600400  1.0  0.0049
  C  C603  1  0.126800  0.846200  0.610300  1.0  0.1584
  C  C604  1  0.201100  0.880000  0.536500  1.0  0.0292
  C  C605  1  0.237700  0.934800  0.520400  1.0  -0.0751
  C  C606  1  0.329300  0.922000  0.501000  1.0  -0.3454
  C  C607  1  0.069100  0.775000  0.547300  1.0  -0.2616
  C  C608  1  0.980800  0.751300  0.554000  1.0  0.0433
  C  C609  1  0.969200  0.695800  0.553100  1.0  -0.1077
  C  C610  1  0.889800  0.673400  0.565700  1.0  -0.1296
  C  C611  1  0.876300  0.614400  0.560800  1.0  0.692
  C  C612  1  0.822700  0.705600  0.583700  1.0  -0.0951
  C  C613  1  0.832300  0.761600  0.584300  1.0  0.0003
  C  C614  1  0.909400  0.783700  0.567100  1.0  0.2238
  C  C615  1  0.923000  0.862100  0.512400  1.0  0.007
  C  C616  1  0.831200  0.869800  0.492200  1.0  -0.0768
  C  C617  1  0.836600  0.896100  0.437200  1.0  -0.3183
  C  C618  1  0.759500  0.796700  0.607400  1.0  -0.2294
  C  C619  1  0.785500  0.816800  0.660900  1.0  0.0442
  C  C620  1  0.807000  0.779700  0.701200  1.0  -0.1276
  C  C621  1  0.836700  0.798500  0.749000  1.0  -0.1092
  C  C622  1  0.849700  0.851900  0.758000  1.0  -0.1666
  C  C623  1  0.830600  0.889700  0.719000  1.0  0.0562
  C  C624  1  0.795000  0.871300  0.671900  1.0  0.1979
  C  C625  1  0.686700  0.927400  0.643500  1.0  0.0747
  C  C626  1  0.673200  0.975100  0.605600  1.0  -0.0882
  C  C627  1  0.584500  0.001300  0.613800  1.0  -0.3195
  C  C628  1  0.851200  0.947900  0.728300  1.0  -0.2748
  C  C629  1  0.163800  0.612100  0.514400  1.0  0.6815
  C  C630  1  0.222000  0.644840  0.480760  1.0  -0.1587
  C  C631  1  0.229900  0.634500  0.426450  1.0  -0.079
  C  C632  1  0.282500  0.665700  0.394700  1.0  0.0217
  C  C633  1  0.328700  0.708100  0.418000  1.0  0.1953
  C  C634  1  0.337600  0.776200  0.351800  1.0  0.0443
  C  C635  1  0.306600  0.825900  0.382400  1.0  -0.0685
  C  C636  1  0.258000  0.866400  0.347300  1.0  -0.3117
  C  C637  1  0.325200  0.716750  0.472400  1.0  -0.0227
  C  C638  1  0.270300  0.685950  0.502600  1.0  -0.098
  C  C639  1  0.385600  0.756800  0.499300  1.0  -0.2192
  C  C640  1  0.470900  0.729890  0.512200  1.0  -0.009
  C  C641  1  0.475000  0.690400  0.549800  1.0  -0.0761
  C  C642  1  0.550700  0.663100  0.560500  1.0  -0.138
  C  C643  1  0.621600  0.673200  0.529700  1.0  -0.0659
  C  C644  1  0.620600  0.712100  0.489900  1.0  0.0285
  C  C645  1  0.545600  0.742600  0.483900  1.0  0.168
  C  C646  1  0.571500  0.834700  0.476200  1.0  0.0759
  C  C647  1  0.570200  0.879900  0.437300  1.0  -0.086
  C  C648  1  0.592500  0.932800  0.462000  1.0  -0.3309
  C  C649  1  0.697900  0.718100  0.453100  1.0  -0.2415
  C  C650  1  0.706100  0.670300  0.417400  1.0  0.0659
  C  C651  1  0.757000  0.626100  0.430200  1.0  -0.0959
  C  C652  1  0.761800  0.581300  0.398240  1.0  -0.1452
  C  C653  1  0.817800  0.534600  0.412900  1.0  0.6709
  C  C654  1  0.713800  0.579700  0.352300  1.0  -0.1166
  C  C655  1  0.662600  0.621900  0.336800  1.0  0.0075
  C  C656  1  0.659400  0.667500  0.369600  1.0  0.1767
  C  C657  1  0.645500  0.747200  0.323000  1.0  0.0602
  C  C658  1  0.577600  0.789600  0.308700  1.0  -0.0905
  C  C659  1  0.617000  0.827300  0.267400  1.0  -0.3551
  C  C660  1  0.607500  0.618400  0.288200  1.0  -0.2486
  C  C661  1  0.517600  0.596700  0.303000  1.0  0.016
  C  C662  1  0.509000  0.544900  0.319600  1.0  -0.063
  C  C663  1  0.432200  0.525800  0.339300  1.0  -0.1227
  C  C664  1  0.362800  0.561600  0.346100  1.0  -0.1199
  C  C665  1  0.369800  0.613700  0.328000  1.0  0.0034
  C  C666  1  0.445600  0.630900  0.304220  1.0  0.1663
  C  C667  1  0.432900  0.676100  0.224000  1.0  0.0044
  C  C668  1  0.371900  0.703700  0.204500  1.0  -0.1144
  C  C669  1  0.373600  0.705000  0.144400  1.0  -0.3086
  C  C670  1  0.293000  0.651300  0.336400  1.0  -0.2469
  C  C671  1  0.913900  0.478600  0.640100  1.0  0.7003
  C  C672  1  0.941300  0.465300  0.694300  1.0  -0.133
  C  C673  1  0.027700  0.464300  0.707600  1.0  -0.115
  C  C674  1  0.053900  0.454100  0.759000  1.0  0.0406
  C  C675  1  0.990600  0.445400  0.797800  1.0  0.1849
  C  C676  1  0.995200  0.484200  0.886000  1.0  -0.0532
  C  C677  1  0.072300  0.523000  0.883000  1.0  -0.0661
  C  C678  1  0.055000  0.580100  0.903600  1.0  -0.305
  C  C679  1  0.904000  0.442400  0.785200  1.0  0.0885
  C  C680  1  0.879500  0.452900  0.733200  1.0  -0.0814
  C  C681  1  0.839500  0.422800  0.826000  1.0  -0.2571
  C  C682  1  0.853500  0.363800  0.838500  1.0  0.0227
  C  C683  1  0.851100  0.326600  0.799000  1.0  -0.1182
  C  C684  1  0.868300  0.272500  0.808400  1.0  -0.1085
  C  C685  1  0.890500  0.256100  0.857900  1.0  -0.0497
  C  C686  1  0.896000  0.293400  0.899600  1.0  0.0044
  C  C687  1  0.873200  0.346200  0.889700  1.0  0.159
  C  C688  1  0.798900  0.380000  0.963500  1.0  0.0287
  C  C689  1  0.762300  0.434800  0.979600  1.0  -0.075
  C  C690  1  0.670700  0.422000  0.999000  1.0  -0.3451
  C  C691  1  0.930900  0.275000  0.952700  1.0  -0.2615
  C  C692  1  0.019200  0.251300  0.946000  1.0  0.0427
  C  C693  1  0.030800  0.195800  0.946900  1.0  -0.1067
  C  C694  1  0.110200  0.173400  0.934300  1.0  -0.1304
  C  C695  1  0.123700  0.114400  0.939200  1.0  0.6918
  C  C696  1  0.177300  0.205600  0.916300  1.0  -0.0967
  C  C697  1  0.167700  0.261600  0.915700  1.0  -0.0
  C  C698  1  0.090600  0.283700  0.932900  1.0  0.224
  C  C699  1  0.077000  0.362100  0.987600  1.0  0.0045
  C  C700  1  0.168800  0.369800  0.007800  1.0  -0.0759
  C  C701  1  0.163400  0.396100  0.062800  1.0  -0.3195
  C  C702  1  0.240500  0.296700  0.892600  1.0  -0.2294
  C  C703  1  0.214500  0.316800  0.839100  1.0  0.0441
  C  C704  1  0.193000  0.279700  0.798800  1.0  -0.1281
  C  C705  1  0.163300  0.298500  0.751000  1.0  -0.1099
  C  C706  1  0.150300  0.351900  0.742000  1.0  -0.1645
  C  C707  1  0.169400  0.389700  0.781000  1.0  0.0558
  C  C708  1  0.205000  0.371300  0.828100  1.0  0.1976
  C  C709  1  0.313300  0.427400  0.856500  1.0  0.0748
  C  C710  1  0.326800  0.475100  0.894400  1.0  -0.0894
  C  C711  1  0.415500  0.501300  0.886200  1.0  -0.3209
  C  C712  1  0.148800  0.447900  0.771700  1.0  -0.2734
  O  O713  1  0.121800  0.927170  0.994930  1.0  -0.6979
  O  O714  1  0.155800  0.875360  0.062200  1.0  -0.6067
  O  O715  1  0.381900  0.760970  0.887170  1.0  -0.31
  O  O716  1  0.545500  0.713860  0.949980  1.0  -0.3167
  O  O717  1  0.606200  0.790530  0.856900  1.0  -0.2854
  O  O718  1  0.822900  0.003940  0.880880  1.0  -0.6106
  O  O719  1  0.859300  0.964240  0.955700  1.0  -0.6832
  O  O720  1  0.450400  0.818990  0.782810  1.0  -0.3928
  O  O721  1  0.970300  0.013820  0.104150  1.0  -0.7197
  O  O722  1  0.835000  0.018720  0.130020  1.0  -0.6036
  O  O723  1  0.016300  0.063000  0.349320  1.0  -0.4841
  O  O724  1  0.873200  0.117280  0.430590  1.0  -0.2683
  O  O725  1  0.081900  0.161550  0.432020  1.0  -0.4848
  O  O726  1  0.059700  0.416120  0.448600  1.0  -0.681
  O  O727  1  0.197900  0.404260  0.434580  1.0  -0.601
  O  O728  1  0.227900  0.091920  0.366820  1.0  -0.3057
  O  O729  1  0.878200  0.427170  0.505070  1.0  -0.6979
  O  O730  1  0.844200  0.375360  0.437800  1.0  -0.6058
  O  O731  1  0.618100  0.260970  0.612830  1.0  -0.3099
  O  O732  1  0.454500  0.213860  0.550020  1.0  -0.3174
  O  O733  1  0.393800  0.290530  0.643100  1.0  -0.286
  O  O734  1  0.177100  0.503940  0.619120  1.0  -0.6109
  O  O735  1  0.140700  0.464240  0.544300  1.0  -0.6831
  O  O736  1  0.549600  0.318990  0.717190  1.0  -0.393
  O  O737  1  0.029700  0.513820  0.395850  1.0  -0.7189
  O  O738  1  0.165000  0.518720  0.369980  1.0  -0.6048
  O  O739  1  0.983700  0.563000  0.150680  1.0  -0.4863
  O  O740  1  0.126800  0.617280  0.069410  1.0  -0.2692
  O  O741  1  0.918100  0.661550  0.067980  1.0  -0.4867
  O  O742  1  0.940300  0.916120  0.051400  1.0  -0.6815
  O  O743  1  0.802100  0.904260  0.065420  1.0  -0.6013
  O  O744  1  0.772100  0.591920  0.133180  1.0  -0.3034
  O  O745  1  0.878200  0.072830  0.005070  1.0  -0.697
  O  O746  1  0.844200  0.124640  0.937800  1.0  -0.6052
  O  O747  1  0.618100  0.239030  0.112830  1.0  -0.3109
  O  O748  1  0.454500  0.286140  0.050020  1.0  -0.3171
  O  O749  1  0.393800  0.209470  0.143100  1.0  -0.2862
  O  O750  1  0.177100  0.996060  0.119120  1.0  -0.6101
  O  O751  1  0.140700  0.035760  0.044300  1.0  -0.6838
  O  O752  1  0.549600  0.181010  0.217190  1.0  -0.392
  O  O753  1  0.029700  0.986180  0.895850  1.0  -0.7187
  O  O754  1  0.165000  0.981280  0.869980  1.0  -0.605
  O  O755  1  0.983700  0.937000  0.650680  1.0  -0.4866
  O  O756  1  0.126800  0.882720  0.569410  1.0  -0.2684
  O  O757  1  0.918100  0.838450  0.567980  1.0  -0.4868
  O  O758  1  0.940300  0.583880  0.551400  1.0  -0.6817
  O  O759  1  0.802100  0.595740  0.565420  1.0  -0.6019
  O  O760  1  0.772100  0.908080  0.633180  1.0  -0.3029
  O  O761  1  0.121800  0.572830  0.494930  1.0  -0.6964
  O  O762  1  0.155800  0.624640  0.562200  1.0  -0.6065
  O  O763  1  0.381900  0.739030  0.387170  1.0  -0.3098
  O  O764  1  0.545500  0.786140  0.449980  1.0  -0.3168
  O  O765  1  0.606200  0.709470  0.356900  1.0  -0.2856
  O  O766  1  0.822900  0.496060  0.380880  1.0  -0.61
  O  O767  1  0.859300  0.535760  0.455700  1.0  -0.6829
  O  O768  1  0.450400  0.681010  0.282810  1.0  -0.3917
  O  O769  1  0.970300  0.486180  0.604150  1.0  -0.7189
  O  O770  1  0.835000  0.481280  0.630020  1.0  -0.6035
  O  O771  1  0.016300  0.437000  0.849320  1.0  -0.4842
  O  O772  1  0.873200  0.382720  0.930590  1.0  -0.2685
  O  O773  1  0.081900  0.338450  0.932020  1.0  -0.4841
  O  O774  1  0.059700  0.083880  0.948600  1.0  -0.6811
  O  O775  1  0.197900  0.095740  0.934580  1.0  -0.6026
  O  O776  1  0.227900  0.408080  0.866820  1.0  -0.3055
