# generated using pymatgen
data_SmZn6H16C40N12(ClO8)2
_symmetry_space_group_name_H-M   'P 1'
_cell_length_a   12.31300000
_cell_length_b   22.62600000
_cell_length_c   34.70200000
_cell_angle_alpha   90.00000000
_cell_angle_beta   90.00000000
_cell_angle_gamma   90.00000000
_symmetry_Int_Tables_number   1
_chemical_formula_structural   SmZn6H16C40N12(ClO8)2
_chemical_formula_sum   'Sm8 Zn48 H128 C320 N96 Cl16 O128'
_cell_volume   9667.76683648
_cell_formula_units_Z   8
loop_
 _symmetry_equiv_pos_site_id
 _symmetry_equiv_pos_as_xyz
  1  'x, y, z'
loop_
 _atom_site_type_symbol
 _atom_site_label
 _atom_site_symmetry_multiplicity
 _atom_site_fract_x
 _atom_site_fract_y
 _atom_site_fract_z
 _atom_site_occupancy
 _atom_site_charge
  Sm  Sm1  1  0.875000  0.375000  0.375000  1.0  2.2851
  Sm  Sm2  1  0.875000  0.875000  0.875000  1.0  2.2851
  Sm  Sm3  1  0.375000  0.375000  0.875000  1.0  2.2851
  Sm  Sm4  1  0.375000  0.875000  0.375000  1.0  2.2851
  Sm  Sm5  1  0.125000  0.625000  0.625000  1.0  2.2851
  Sm  Sm6  1  0.125000  0.125000  0.125000  1.0  2.2851
  Sm  Sm7  1  0.625000  0.625000  0.125000  1.0  2.2851
  Sm  Sm8  1  0.625000  0.125000  0.625000  1.0  2.2851
  Zn  Zn9  1  0.240930  0.324910  0.248460  1.0  0.9341
  Zn  Zn10  1  0.240930  0.824910  0.748460  1.0  0.9341
  Zn  Zn11  1  0.740930  0.324910  0.748460  1.0  0.9341
  Zn  Zn12  1  0.740930  0.824910  0.248460  1.0  0.9341
  Zn  Zn13  1  0.509070  0.425090  0.248460  1.0  0.9341
  Zn  Zn14  1  0.509070  0.925090  0.748460  1.0  0.9341
  Zn  Zn15  1  0.009070  0.425090  0.748460  1.0  0.9341
  Zn  Zn16  1  0.009070  0.925090  0.248460  1.0  0.9341
  Zn  Zn17  1  0.509070  0.324910  0.501540  1.0  0.9336
  Zn  Zn18  1  0.509070  0.824910  0.001540  1.0  0.9336
  Zn  Zn19  1  0.009070  0.324910  0.001540  1.0  0.9336
  Zn  Zn20  1  0.009070  0.824910  0.501540  1.0  0.9336
  Zn  Zn21  1  0.240930  0.425090  0.501540  1.0  0.934
  Zn  Zn22  1  0.240930  0.925090  0.001540  1.0  0.934
  Zn  Zn23  1  0.740930  0.425090  0.001540  1.0  0.934
  Zn  Zn24  1  0.740930  0.925090  0.501540  1.0  0.934
  Zn  Zn25  1  0.759070  0.675090  0.751540  1.0  0.9337
  Zn  Zn26  1  0.759070  0.175090  0.251540  1.0  0.9337
  Zn  Zn27  1  0.259070  0.675090  0.251540  1.0  0.9337
  Zn  Zn28  1  0.259070  0.175090  0.751540  1.0  0.9337
  Zn  Zn29  1  0.490930  0.574910  0.751540  1.0  0.9339
  Zn  Zn30  1  0.490930  0.074910  0.251540  1.0  0.9339
  Zn  Zn31  1  0.990930  0.574910  0.251540  1.0  0.9339
  Zn  Zn32  1  0.990930  0.074910  0.751540  1.0  0.9339
  Zn  Zn33  1  0.490930  0.675090  0.498460  1.0  0.9343
  Zn  Zn34  1  0.490930  0.175090  0.998460  1.0  0.9343
  Zn  Zn35  1  0.990930  0.675090  0.998460  1.0  0.9343
  Zn  Zn36  1  0.990930  0.175090  0.498460  1.0  0.9343
  Zn  Zn37  1  0.759070  0.574910  0.498460  1.0  0.9335
  Zn  Zn38  1  0.759070  0.074910  0.998460  1.0  0.9335
  Zn  Zn39  1  0.259070  0.574910  0.998460  1.0  0.9335
  Zn  Zn40  1  0.259070  0.074910  0.498460  1.0  0.9335
  Zn  Zn41  1  0.375000  0.375000  0.108460  1.0  0.7858
  Zn  Zn42  1  0.375000  0.875000  0.608460  1.0  0.7858
  Zn  Zn43  1  0.875000  0.375000  0.608460  1.0  0.7858
  Zn  Zn44  1  0.875000  0.875000  0.108460  1.0  0.7858
  Zn  Zn45  1  0.375000  0.375000  0.641540  1.0  0.7803
  Zn  Zn46  1  0.375000  0.875000  0.141540  1.0  0.7803
  Zn  Zn47  1  0.875000  0.375000  0.141540  1.0  0.7803
  Zn  Zn48  1  0.875000  0.875000  0.641540  1.0  0.7803
  Zn  Zn49  1  0.625000  0.625000  0.891540  1.0  0.7803
  Zn  Zn50  1  0.625000  0.125000  0.391540  1.0  0.7803
  Zn  Zn51  1  0.125000  0.625000  0.391540  1.0  0.7803
  Zn  Zn52  1  0.125000  0.125000  0.891540  1.0  0.7803
  Zn  Zn53  1  0.625000  0.625000  0.358460  1.0  0.7858
  Zn  Zn54  1  0.625000  0.125000  0.858460  1.0  0.7858
  Zn  Zn55  1  0.125000  0.625000  0.858460  1.0  0.7858
  Zn  Zn56  1  0.125000  0.125000  0.358460  1.0  0.7858
  H  H57  1  0.162200  0.556800  0.196800  1.0  0.089
  H  H58  1  0.259400  0.579300  0.139600  1.0  0.118
  H  H59  1  0.335300  0.502900  0.107100  1.0  0.0569
  H  H60  1  0.220800  0.386200  0.177900  1.0  0.0898
  H  H61  1  0.162200  0.056800  0.696800  1.0  0.089
  H  H62  1  0.259400  0.079300  0.639600  1.0  0.118
  H  H63  1  0.335300  0.002900  0.607100  1.0  0.0569
  H  H64  1  0.220800  0.886200  0.677900  1.0  0.0898
  H  H65  1  0.662200  0.556800  0.696800  1.0  0.089
  H  H66  1  0.759400  0.579300  0.639600  1.0  0.118
  H  H67  1  0.835300  0.502900  0.607100  1.0  0.0569
  H  H68  1  0.720800  0.386200  0.677900  1.0  0.0898
  H  H69  1  0.662200  0.056800  0.196800  1.0  0.089
  H  H70  1  0.759400  0.079300  0.139600  1.0  0.118
  H  H71  1  0.835300  0.002900  0.107100  1.0  0.0569
  H  H72  1  0.720800  0.886200  0.177900  1.0  0.0898
  H  H73  1  0.587800  0.193200  0.196800  1.0  0.0895
  H  H74  1  0.490600  0.170700  0.139600  1.0  0.1179
  H  H75  1  0.414700  0.247100  0.107100  1.0  0.0572
  H  H76  1  0.529200  0.363800  0.177900  1.0  0.0909
  H  H77  1  0.587800  0.693200  0.696800  1.0  0.0895
  H  H78  1  0.490600  0.670700  0.639600  1.0  0.1179
  H  H79  1  0.414700  0.747100  0.607100  1.0  0.0572
  H  H80  1  0.529200  0.863800  0.677900  1.0  0.0909
  H  H81  1  0.087800  0.193200  0.696800  1.0  0.0895
  H  H82  1  0.990600  0.170700  0.639600  1.0  0.1179
  H  H83  1  0.914700  0.247100  0.607100  1.0  0.0572
  H  H84  1  0.029200  0.363800  0.677900  1.0  0.0909
  H  H85  1  0.087800  0.693200  0.196800  1.0  0.0895
  H  H86  1  0.990600  0.670700  0.139600  1.0  0.1179
  H  H87  1  0.914700  0.747100  0.107100  1.0  0.0572
  H  H88  1  0.029200  0.863800  0.177900  1.0  0.0909
  H  H89  1  0.587800  0.556800  0.553200  1.0  0.0887
  H  H90  1  0.490600  0.579300  0.610400  1.0  0.1178
  H  H91  1  0.414700  0.502900  0.642900  1.0  0.0575
  H  H92  1  0.529200  0.386200  0.572100  1.0  0.0911
  H  H93  1  0.587800  0.056800  0.053200  1.0  0.0887
  H  H94  1  0.490600  0.079300  0.110400  1.0  0.1178
  H  H95  1  0.414700  0.002900  0.142900  1.0  0.0575
  H  H96  1  0.529200  0.886200  0.072100  1.0  0.0911
  H  H97  1  0.087800  0.556800  0.053200  1.0  0.0887
  H  H98  1  0.990600  0.579300  0.110400  1.0  0.1178
  H  H99  1  0.914700  0.502900  0.142900  1.0  0.0575
  H  H100  1  0.029200  0.386200  0.072100  1.0  0.0911
  H  H101  1  0.087800  0.056800  0.553200  1.0  0.0887
  H  H102  1  0.990600  0.079300  0.610400  1.0  0.1178
  H  H103  1  0.914700  0.002900  0.642900  1.0  0.0575
  H  H104  1  0.029200  0.886200  0.572100  1.0  0.0911
  H  H105  1  0.162200  0.193200  0.553200  1.0  0.0888
  H  H106  1  0.259400  0.170700  0.610400  1.0  0.1185
  H  H107  1  0.335300  0.247100  0.642900  1.0  0.0569
  H  H108  1  0.220800  0.363800  0.572100  1.0  0.0907
  H  H109  1  0.162200  0.693200  0.053200  1.0  0.0888
  H  H110  1  0.259400  0.670700  0.110400  1.0  0.1185
  H  H111  1  0.335300  0.747100  0.142900  1.0  0.0569
  H  H112  1  0.220800  0.863800  0.072100  1.0  0.0907
  H  H113  1  0.662200  0.193200  0.053200  1.0  0.0888
  H  H114  1  0.759400  0.170700  0.110400  1.0  0.1185
  H  H115  1  0.835300  0.247100  0.142900  1.0  0.0569
  H  H116  1  0.720800  0.363800  0.072100  1.0  0.0907
  H  H117  1  0.662200  0.693200  0.553200  1.0  0.0888
  H  H118  1  0.759400  0.670700  0.610400  1.0  0.1185
  H  H119  1  0.835300  0.747100  0.642900  1.0  0.0569
  H  H120  1  0.720800  0.863800  0.572100  1.0  0.0907
  H  H121  1  0.837800  0.443200  0.803200  1.0  0.0889
  H  H122  1  0.740600  0.420700  0.860400  1.0  0.1182
  H  H123  1  0.664700  0.497100  0.892900  1.0  0.0573
  H  H124  1  0.779200  0.613800  0.822100  1.0  0.091
  H  H125  1  0.837800  0.943200  0.303200  1.0  0.0889
  H  H126  1  0.740600  0.920700  0.360400  1.0  0.1182
  H  H127  1  0.664700  0.997100  0.392900  1.0  0.0573
  H  H128  1  0.779200  0.113800  0.322100  1.0  0.091
  H  H129  1  0.337800  0.443200  0.303200  1.0  0.0889
  H  H130  1  0.240600  0.420700  0.360400  1.0  0.1182
  H  H131  1  0.164700  0.497100  0.392900  1.0  0.0573
  H  H132  1  0.279200  0.613800  0.322100  1.0  0.091
  H  H133  1  0.337800  0.943200  0.803200  1.0  0.0889
  H  H134  1  0.240600  0.920700  0.860400  1.0  0.1182
  H  H135  1  0.164700  0.997100  0.892900  1.0  0.0573
  H  H136  1  0.279200  0.113800  0.822100  1.0  0.091
  H  H137  1  0.412200  0.806800  0.803200  1.0  0.0887
  H  H138  1  0.509400  0.829300  0.860400  1.0  0.1177
  H  H139  1  0.585300  0.752900  0.892900  1.0  0.0573
  H  H140  1  0.470800  0.636200  0.822100  1.0  0.0905
  H  H141  1  0.412200  0.306800  0.303200  1.0  0.0887
  H  H142  1  0.509400  0.329300  0.360400  1.0  0.1177
  H  H143  1  0.585300  0.252900  0.392900  1.0  0.0573
  H  H144  1  0.470800  0.136200  0.322100  1.0  0.0905
  H  H145  1  0.912200  0.806800  0.303200  1.0  0.0887
  H  H146  1  0.009400  0.829300  0.360400  1.0  0.1177
  H  H147  1  0.085300  0.752900  0.392900  1.0  0.0573
  H  H148  1  0.970800  0.636200  0.322100  1.0  0.0905
  H  H149  1  0.912200  0.306800  0.803200  1.0  0.0887
  H  H150  1  0.009400  0.329300  0.860400  1.0  0.1177
  H  H151  1  0.085300  0.252900  0.892900  1.0  0.0573
  H  H152  1  0.970800  0.136200  0.822100  1.0  0.0905
  H  H153  1  0.412200  0.443200  0.446800  1.0  0.0895
  H  H154  1  0.509400  0.420700  0.389600  1.0  0.1193
  H  H155  1  0.585300  0.497100  0.357100  1.0  0.0568
  H  H156  1  0.470800  0.613800  0.427900  1.0  0.0906
  H  H157  1  0.412200  0.943200  0.946800  1.0  0.0895
  H  H158  1  0.509400  0.920700  0.889600  1.0  0.1193
  H  H159  1  0.585300  0.997100  0.857100  1.0  0.0568
  H  H160  1  0.470800  0.113800  0.927900  1.0  0.0906
  H  H161  1  0.912200  0.443200  0.946800  1.0  0.0895
  H  H162  1  0.009400  0.420700  0.889600  1.0  0.1193
  H  H163  1  0.085300  0.497100  0.857100  1.0  0.0568
  H  H164  1  0.970800  0.613800  0.927900  1.0  0.0906
  H  H165  1  0.912200  0.943200  0.446800  1.0  0.0895
  H  H166  1  0.009400  0.920700  0.389600  1.0  0.1193
  H  H167  1  0.085300  0.997100  0.357100  1.0  0.0568
  H  H168  1  0.970800  0.113800  0.427900  1.0  0.0906
  H  H169  1  0.837800  0.806800  0.446800  1.0  0.0891
  H  H170  1  0.740600  0.829300  0.389600  1.0  0.119
  H  H171  1  0.664700  0.752900  0.357100  1.0  0.0572
  H  H172  1  0.779200  0.636200  0.427900  1.0  0.0905
  H  H173  1  0.837800  0.306800  0.946800  1.0  0.0891
  H  H174  1  0.740600  0.329300  0.889600  1.0  0.119
  H  H175  1  0.664700  0.252900  0.857100  1.0  0.0572
  H  H176  1  0.779200  0.136200  0.927900  1.0  0.0905
  H  H177  1  0.337800  0.806800  0.946800  1.0  0.0891
  H  H178  1  0.240600  0.829300  0.889600  1.0  0.119
  H  H179  1  0.164700  0.752900  0.857100  1.0  0.0572
  H  H180  1  0.279200  0.636200  0.927900  1.0  0.0905
  H  H181  1  0.337800  0.306800  0.446800  1.0  0.0891
  H  H182  1  0.240600  0.329300  0.389600  1.0  0.119
  H  H183  1  0.164700  0.252900  0.357100  1.0  0.0572
  H  H184  1  0.279200  0.136200  0.427900  1.0  0.0905
  C  C185  1  0.081700  0.351500  0.305800  1.0  0.6505
  C  C186  1  0.075100  0.402700  0.279300  1.0  -0.0026
  C  C187  1  0.027800  0.457300  0.281200  1.0  0.0098
  C  C188  1  0.960500  0.487100  0.310300  1.0  0.6705
  C  C189  1  0.126200  0.452900  0.228900  1.0  0.3501
  C  C190  1  0.179800  0.468800  0.193400  1.0  -0.0954
  C  C191  1  0.192500  0.526600  0.182100  1.0  0.0112
  C  C192  1  0.251500  0.540600  0.148200  1.0  -0.1668
  C  C193  1  0.295600  0.494200  0.129200  1.0  0.1907
  C  C194  1  0.228600  0.425600  0.170900  1.0  0.1582
  C  C195  1  0.081700  0.851500  0.805800  1.0  0.6505
  C  C196  1  0.075100  0.902700  0.779300  1.0  -0.0026
  C  C197  1  0.027800  0.957300  0.781200  1.0  0.0098
  C  C198  1  0.960500  0.987100  0.810300  1.0  0.6705
  C  C199  1  0.126200  0.952900  0.728900  1.0  0.3501
  C  C200  1  0.179800  0.968800  0.693400  1.0  -0.0954
  C  C201  1  0.192500  0.026600  0.682100  1.0  0.0112
  C  C202  1  0.251500  0.040600  0.648200  1.0  -0.1668
  C  C203  1  0.295600  0.994200  0.629200  1.0  0.1907
  C  C204  1  0.228600  0.925600  0.670900  1.0  0.1582
  C  C205  1  0.581700  0.351500  0.805800  1.0  0.6505
  C  C206  1  0.575100  0.402700  0.779300  1.0  -0.0026
  C  C207  1  0.527800  0.457300  0.781200  1.0  0.0098
  C  C208  1  0.460500  0.487100  0.810300  1.0  0.6705
  C  C209  1  0.626200  0.452900  0.728900  1.0  0.3501
  C  C210  1  0.679800  0.468800  0.693400  1.0  -0.0954
  C  C211  1  0.692500  0.526600  0.682100  1.0  0.0112
  C  C212  1  0.751500  0.540600  0.648200  1.0  -0.1668
  C  C213  1  0.795600  0.494200  0.629200  1.0  0.1907
  C  C214  1  0.728600  0.425600  0.670900  1.0  0.1582
  C  C215  1  0.581700  0.851500  0.305800  1.0  0.6505
  C  C216  1  0.575100  0.902700  0.279300  1.0  -0.0026
  C  C217  1  0.527800  0.957300  0.281200  1.0  0.0098
  C  C218  1  0.460500  0.987100  0.310300  1.0  0.6705
  C  C219  1  0.626200  0.952900  0.228900  1.0  0.3501
  C  C220  1  0.679800  0.968800  0.193400  1.0  -0.0954
  C  C221  1  0.692500  0.026600  0.182100  1.0  0.0112
  C  C222  1  0.751500  0.040600  0.148200  1.0  -0.1668
  C  C223  1  0.795600  0.994200  0.129200  1.0  0.1907
  C  C224  1  0.728600  0.925600  0.170900  1.0  0.1582
  C  C225  1  0.668300  0.398500  0.305800  1.0  0.6495
  C  C226  1  0.674900  0.347300  0.279300  1.0  -0.0017
  C  C227  1  0.722200  0.292700  0.281200  1.0  0.0084
  C  C228  1  0.789500  0.262900  0.310300  1.0  0.6722
  C  C229  1  0.623800  0.297100  0.228900  1.0  0.351
  C  C230  1  0.570200  0.281200  0.193400  1.0  -0.0952
  C  C231  1  0.557500  0.223400  0.182100  1.0  0.0098
  C  C232  1  0.498500  0.209400  0.148200  1.0  -0.1661
  C  C233  1  0.454400  0.255800  0.129200  1.0  0.1918
  C  C234  1  0.521400  0.324400  0.170900  1.0  0.1589
  C  C235  1  0.668300  0.898500  0.805800  1.0  0.6495
  C  C236  1  0.674900  0.847300  0.779300  1.0  -0.0017
  C  C237  1  0.722200  0.792700  0.781200  1.0  0.0084
  C  C238  1  0.789500  0.762900  0.810300  1.0  0.6722
  C  C239  1  0.623800  0.797100  0.728900  1.0  0.351
  C  C240  1  0.570200  0.781200  0.693400  1.0  -0.0952
  C  C241  1  0.557500  0.723400  0.682100  1.0  0.0098
  C  C242  1  0.498500  0.709400  0.648200  1.0  -0.1661
  C  C243  1  0.454400  0.755800  0.629200  1.0  0.1918
  C  C244  1  0.521400  0.824400  0.670900  1.0  0.1589
  C  C245  1  0.168300  0.398500  0.805800  1.0  0.6495
  C  C246  1  0.174900  0.347300  0.779300  1.0  -0.0017
  C  C247  1  0.222200  0.292700  0.781200  1.0  0.0084
  C  C248  1  0.289500  0.262900  0.810300  1.0  0.6722
  C  C249  1  0.123800  0.297100  0.728900  1.0  0.351
  C  C250  1  0.070200  0.281200  0.693400  1.0  -0.0952
  C  C251  1  0.057500  0.223400  0.682100  1.0  0.0098
  C  C252  1  0.998500  0.209400  0.648200  1.0  -0.1661
  C  C253  1  0.954400  0.255800  0.629200  1.0  0.1918
  C  C254  1  0.021400  0.324400  0.670900  1.0  0.1589
  C  C255  1  0.168300  0.898500  0.305800  1.0  0.6495
  C  C256  1  0.174900  0.847300  0.279300  1.0  -0.0017
  C  C257  1  0.222200  0.792700  0.281200  1.0  0.0084
  C  C258  1  0.289500  0.762900  0.310300  1.0  0.6722
  C  C259  1  0.123800  0.797100  0.228900  1.0  0.351
  C  C260  1  0.070200  0.781200  0.193400  1.0  -0.0952
  C  C261  1  0.057500  0.723400  0.182100  1.0  0.0098
  C  C262  1  0.998500  0.709400  0.148200  1.0  -0.1661
  C  C263  1  0.954400  0.755800  0.129200  1.0  0.1918
  C  C264  1  0.021400  0.824400  0.170900  1.0  0.1589
  C  C265  1  0.668300  0.351500  0.444200  1.0  0.6487
  C  C266  1  0.674900  0.402700  0.470700  1.0  -0.0024
  C  C267  1  0.722200  0.457300  0.468800  1.0  0.0087
  C  C268  1  0.789500  0.487100  0.439700  1.0  0.6707
  C  C269  1  0.623800  0.452900  0.521100  1.0  0.3513
  C  C270  1  0.570200  0.468800  0.556600  1.0  -0.0951
  C  C271  1  0.557500  0.526600  0.567900  1.0  0.0099
  C  C272  1  0.498500  0.540600  0.601800  1.0  -0.1657
  C  C273  1  0.454400  0.494200  0.620800  1.0  0.1914
  C  C274  1  0.521400  0.425600  0.579100  1.0  0.1593
  C  C275  1  0.668300  0.851500  0.944200  1.0  0.6487
  C  C276  1  0.674900  0.902700  0.970700  1.0  -0.0024
  C  C277  1  0.722200  0.957300  0.968800  1.0  0.0087
  C  C278  1  0.789500  0.987100  0.939700  1.0  0.6707
  C  C279  1  0.623800  0.952900  0.021100  1.0  0.3513
  C  C280  1  0.570200  0.968800  0.056600  1.0  -0.0951
  C  C281  1  0.557500  0.026600  0.067900  1.0  0.0099
  C  C282  1  0.498500  0.040600  0.101800  1.0  -0.1657
  C  C283  1  0.454400  0.994200  0.120800  1.0  0.1914
  C  C284  1  0.521400  0.925600  0.079100  1.0  0.1593
  C  C285  1  0.168300  0.351500  0.944200  1.0  0.6487
  C  C286  1  0.174900  0.402700  0.970700  1.0  -0.0024
  C  C287  1  0.222200  0.457300  0.968800  1.0  0.0087
  C  C288  1  0.289500  0.487100  0.939700  1.0  0.6707
  C  C289  1  0.123800  0.452900  0.021100  1.0  0.3513
  C  C290  1  0.070200  0.468800  0.056600  1.0  -0.0951
  C  C291  1  0.057500  0.526600  0.067900  1.0  0.0099
  C  C292  1  0.998500  0.540600  0.101800  1.0  -0.1657
  C  C293  1  0.954400  0.494200  0.120800  1.0  0.1914
  C  C294  1  0.021400  0.425600  0.079100  1.0  0.1593
  C  C295  1  0.168300  0.851500  0.444200  1.0  0.6487
  C  C296  1  0.174900  0.902700  0.470700  1.0  -0.0024
  C  C297  1  0.222200  0.957300  0.468800  1.0  0.0087
  C  C298  1  0.289500  0.987100  0.439700  1.0  0.6707
  C  C299  1  0.123800  0.952900  0.521100  1.0  0.3513
  C  C300  1  0.070200  0.968800  0.556600  1.0  -0.0951
  C  C301  1  0.057500  0.026600  0.567900  1.0  0.0099
  C  C302  1  0.998500  0.040600  0.601800  1.0  -0.1657
  C  C303  1  0.954400  0.994200  0.620800  1.0  0.1914
  C  C304  1  0.021400  0.925600  0.579100  1.0  0.1593
  C  C305  1  0.081700  0.398500  0.444200  1.0  0.6488
  C  C306  1  0.075100  0.347300  0.470700  1.0  -0.0013
  C  C307  1  0.027800  0.292700  0.468800  1.0  0.0093
  C  C308  1  0.960500  0.262900  0.439700  1.0  0.6703
  C  C309  1  0.126200  0.297100  0.521100  1.0  0.3505
  C  C310  1  0.179800  0.281200  0.556600  1.0  -0.095
  C  C311  1  0.192500  0.223400  0.567900  1.0  0.0102
  C  C312  1  0.251500  0.209400  0.601800  1.0  -0.1654
  C  C313  1  0.295600  0.255800  0.620800  1.0  0.1916
  C  C314  1  0.228600  0.324400  0.579100  1.0  0.1595
  C  C315  1  0.081700  0.898500  0.944200  1.0  0.6488
  C  C316  1  0.075100  0.847300  0.970700  1.0  -0.0013
  C  C317  1  0.027800  0.792700  0.968800  1.0  0.0093
  C  C318  1  0.960500  0.762900  0.939700  1.0  0.6703
  C  C319  1  0.126200  0.797100  0.021100  1.0  0.3505
  C  C320  1  0.179800  0.781200  0.056600  1.0  -0.095
  C  C321  1  0.192500  0.723400  0.067900  1.0  0.0102
  C  C322  1  0.251500  0.709400  0.101800  1.0  -0.1654
  C  C323  1  0.295600  0.755800  0.120800  1.0  0.1916
  C  C324  1  0.228600  0.824400  0.079100  1.0  0.1595
  C  C325  1  0.581700  0.398500  0.944200  1.0  0.6488
  C  C326  1  0.575100  0.347300  0.970700  1.0  -0.0013
  C  C327  1  0.527800  0.292700  0.968800  1.0  0.0093
  C  C328  1  0.460500  0.262900  0.939700  1.0  0.6703
  C  C329  1  0.626200  0.297100  0.021100  1.0  0.3505
  C  C330  1  0.679800  0.281200  0.056600  1.0  -0.095
  C  C331  1  0.692500  0.223400  0.067900  1.0  0.0102
  C  C332  1  0.751500  0.209400  0.101800  1.0  -0.1654
  C  C333  1  0.795600  0.255800  0.120800  1.0  0.1916
  C  C334  1  0.728600  0.324400  0.079100  1.0  0.1595
  C  C335  1  0.581700  0.898500  0.444200  1.0  0.6488
  C  C336  1  0.575100  0.847300  0.470700  1.0  -0.0013
  C  C337  1  0.527800  0.792700  0.468800  1.0  0.0093
  C  C338  1  0.460500  0.762900  0.439700  1.0  0.6703
  C  C339  1  0.626200  0.797100  0.521100  1.0  0.3505
  C  C340  1  0.679800  0.781200  0.556600  1.0  -0.095
  C  C341  1  0.692500  0.723400  0.567900  1.0  0.0102
  C  C342  1  0.751500  0.709400  0.601800  1.0  -0.1654
  C  C343  1  0.795600  0.755800  0.620800  1.0  0.1916
  C  C344  1  0.728600  0.824400  0.579100  1.0  0.1595
  C  C345  1  0.918300  0.648500  0.694200  1.0  0.6495
  C  C346  1  0.924900  0.597300  0.720700  1.0  -0.0014
  C  C347  1  0.972200  0.542700  0.718800  1.0  0.0086
  C  C348  1  0.039500  0.512900  0.689700  1.0  0.6708
  C  C349  1  0.873800  0.547100  0.771100  1.0  0.351
  C  C350  1  0.820200  0.531200  0.806600  1.0  -0.0951
  C  C351  1  0.807500  0.473400  0.817900  1.0  0.0096
  C  C352  1  0.748500  0.459400  0.851800  1.0  -0.1658
  C  C353  1  0.704400  0.505800  0.870800  1.0  0.1912
  C  C354  1  0.771400  0.574400  0.829100  1.0  0.1603
  C  C355  1  0.918300  0.148500  0.194200  1.0  0.6495
  C  C356  1  0.924900  0.097300  0.220700  1.0  -0.0014
  C  C357  1  0.972200  0.042700  0.218800  1.0  0.0086
  C  C358  1  0.039500  0.012900  0.189700  1.0  0.6708
  C  C359  1  0.873800  0.047100  0.271100  1.0  0.351
  C  C360  1  0.820200  0.031200  0.306600  1.0  -0.0951
  C  C361  1  0.807500  0.973400  0.317900  1.0  0.0096
  C  C362  1  0.748500  0.959400  0.351800  1.0  -0.1658
  C  C363  1  0.704400  0.005800  0.370800  1.0  0.1912
  C  C364  1  0.771400  0.074400  0.329100  1.0  0.1603
  C  C365  1  0.418300  0.648500  0.194200  1.0  0.6495
  C  C366  1  0.424900  0.597300  0.220700  1.0  -0.0014
  C  C367  1  0.472200  0.542700  0.218800  1.0  0.0086
  C  C368  1  0.539500  0.512900  0.189700  1.0  0.6708
  C  C369  1  0.373800  0.547100  0.271100  1.0  0.351
  C  C370  1  0.320200  0.531200  0.306600  1.0  -0.0951
  C  C371  1  0.307500  0.473400  0.317900  1.0  0.0096
  C  C372  1  0.248500  0.459400  0.351800  1.0  -0.1658
  C  C373  1  0.204400  0.505800  0.370800  1.0  0.1912
  C  C374  1  0.271400  0.574400  0.329100  1.0  0.1603
  C  C375  1  0.418300  0.148500  0.694200  1.0  0.6495
  C  C376  1  0.424900  0.097300  0.720700  1.0  -0.0014
  C  C377  1  0.472200  0.042700  0.718800  1.0  0.0086
  C  C378  1  0.539500  0.012900  0.689700  1.0  0.6708
  C  C379  1  0.373800  0.047100  0.771100  1.0  0.351
  C  C380  1  0.320200  0.031200  0.806600  1.0  -0.0951
  C  C381  1  0.307500  0.973400  0.817900  1.0  0.0096
  C  C382  1  0.248500  0.959400  0.851800  1.0  -0.1658
  C  C383  1  0.204400  0.005800  0.870800  1.0  0.1912
  C  C384  1  0.271400  0.074400  0.829100  1.0  0.1603
  C  C385  1  0.331700  0.601500  0.694200  1.0  0.6503
  C  C386  1  0.325100  0.652700  0.720700  1.0  -0.0019
  C  C387  1  0.277800  0.707300  0.718800  1.0  0.0096
  C  C388  1  0.210500  0.737100  0.689700  1.0  0.6705
  C  C389  1  0.376200  0.702900  0.771100  1.0  0.3507
  C  C390  1  0.429800  0.718800  0.806600  1.0  -0.0955
  C  C391  1  0.442500  0.776600  0.817900  1.0  0.0108
  C  C392  1  0.501500  0.790600  0.851800  1.0  -0.1657
  C  C393  1  0.545600  0.744200  0.870800  1.0  0.1911
  C  C394  1  0.478600  0.675600  0.829100  1.0  0.159
  C  C395  1  0.331700  0.101500  0.194200  1.0  0.6503
  C  C396  1  0.325100  0.152700  0.220700  1.0  -0.0019
  C  C397  1  0.277800  0.207300  0.218800  1.0  0.0096
  C  C398  1  0.210500  0.237100  0.189700  1.0  0.6705
  C  C399  1  0.376200  0.202900  0.271100  1.0  0.3507
  C  C400  1  0.429800  0.218800  0.306600  1.0  -0.0955
  C  C401  1  0.442500  0.276600  0.317900  1.0  0.0108
  C  C402  1  0.501500  0.290600  0.351800  1.0  -0.1657
  C  C403  1  0.545600  0.244200  0.370800  1.0  0.1911
  C  C404  1  0.478600  0.175600  0.329100  1.0  0.159
  C  C405  1  0.831700  0.601500  0.194200  1.0  0.6503
  C  C406  1  0.825100  0.652700  0.220700  1.0  -0.0019
  C  C407  1  0.777800  0.707300  0.218800  1.0  0.0096
  C  C408  1  0.710500  0.737100  0.189700  1.0  0.6705
  C  C409  1  0.876200  0.702900  0.271100  1.0  0.3507
  C  C410  1  0.929800  0.718800  0.306600  1.0  -0.0955
  C  C411  1  0.942500  0.776600  0.317900  1.0  0.0108
  C  C412  1  0.001500  0.790600  0.351800  1.0  -0.1657
  C  C413  1  0.045600  0.744200  0.370800  1.0  0.1911
  C  C414  1  0.978600  0.675600  0.329100  1.0  0.159
  C  C415  1  0.831700  0.101500  0.694200  1.0  0.6503
  C  C416  1  0.825100  0.152700  0.720700  1.0  -0.0019
  C  C417  1  0.777800  0.207300  0.718800  1.0  0.0096
  C  C418  1  0.710500  0.237100  0.689700  1.0  0.6705
  C  C419  1  0.876200  0.202900  0.771100  1.0  0.3507
  C  C420  1  0.929800  0.218800  0.806600  1.0  -0.0955
  C  C421  1  0.942500  0.276600  0.817900  1.0  0.0108
  C  C422  1  0.001500  0.290600  0.851800  1.0  -0.1657
  C  C423  1  0.045600  0.244200  0.870800  1.0  0.1911
  C  C424  1  0.978600  0.175600  0.829100  1.0  0.159
  C  C425  1  0.331700  0.648500  0.555800  1.0  0.6488
  C  C426  1  0.325100  0.597300  0.529300  1.0  -0.0013
  C  C427  1  0.277800  0.542700  0.531200  1.0  0.0093
  C  C428  1  0.210500  0.512900  0.560300  1.0  0.6702
  C  C429  1  0.376200  0.547100  0.478900  1.0  0.3501
  C  C430  1  0.429800  0.531200  0.443400  1.0  -0.095
  C  C431  1  0.442500  0.473400  0.432100  1.0  0.0106
  C  C432  1  0.501500  0.459400  0.398200  1.0  -0.1658
  C  C433  1  0.545600  0.505800  0.379200  1.0  0.1915
  C  C434  1  0.478600  0.574400  0.420900  1.0  0.1581
  C  C435  1  0.331700  0.148500  0.055800  1.0  0.6488
  C  C436  1  0.325100  0.097300  0.029300  1.0  -0.0013
  C  C437  1  0.277800  0.042700  0.031200  1.0  0.0093
  C  C438  1  0.210500  0.012900  0.060300  1.0  0.6702
  C  C439  1  0.376200  0.047100  0.978900  1.0  0.3501
  C  C440  1  0.429800  0.031200  0.943400  1.0  -0.095
  C  C441  1  0.442500  0.973400  0.932100  1.0  0.0106
  C  C442  1  0.501500  0.959400  0.898200  1.0  -0.1658
  C  C443  1  0.545600  0.005800  0.879200  1.0  0.1915
  C  C444  1  0.478600  0.074400  0.920900  1.0  0.1581
  C  C445  1  0.831700  0.648500  0.055800  1.0  0.6488
  C  C446  1  0.825100  0.597300  0.029300  1.0  -0.0013
  C  C447  1  0.777800  0.542700  0.031200  1.0  0.0093
  C  C448  1  0.710500  0.512900  0.060300  1.0  0.6702
  C  C449  1  0.876200  0.547100  0.978900  1.0  0.3501
  C  C450  1  0.929800  0.531200  0.943400  1.0  -0.095
  C  C451  1  0.942500  0.473400  0.932100  1.0  0.0106
  C  C452  1  0.001500  0.459400  0.898200  1.0  -0.1658
  C  C453  1  0.045600  0.505800  0.879200  1.0  0.1915
  C  C454  1  0.978600  0.574400  0.920900  1.0  0.1581
  C  C455  1  0.831700  0.148500  0.555800  1.0  0.6488
  C  C456  1  0.825100  0.097300  0.529300  1.0  -0.0013
  C  C457  1  0.777800  0.042700  0.531200  1.0  0.0093
  C  C458  1  0.710500  0.012900  0.560300  1.0  0.6702
  C  C459  1  0.876200  0.047100  0.478900  1.0  0.3501
  C  C460  1  0.929800  0.031200  0.443400  1.0  -0.095
  C  C461  1  0.942500  0.973400  0.432100  1.0  0.0106
  C  C462  1  0.001500  0.959400  0.398200  1.0  -0.1658
  C  C463  1  0.045600  0.005800  0.379200  1.0  0.1915
  C  C464  1  0.978600  0.074400  0.420900  1.0  0.1581
  C  C465  1  0.918300  0.601500  0.555800  1.0  0.649
  C  C466  1  0.924900  0.652700  0.529300  1.0  -0.0032
  C  C467  1  0.972200  0.707300  0.531200  1.0  0.0087
  C  C468  1  0.039500  0.737100  0.560300  1.0  0.6722
  C  C469  1  0.873800  0.702900  0.478900  1.0  0.3512
  C  C470  1  0.820200  0.718800  0.443400  1.0  -0.0953
  C  C471  1  0.807500  0.776600  0.432100  1.0  0.0102
  C  C472  1  0.748500  0.790600  0.398200  1.0  -0.1665
  C  C473  1  0.704400  0.744200  0.379200  1.0  0.1913
  C  C474  1  0.771400  0.675600  0.420900  1.0  0.1585
  C  C475  1  0.918300  0.101500  0.055800  1.0  0.649
  C  C476  1  0.924900  0.152700  0.029300  1.0  -0.0032
  C  C477  1  0.972200  0.207300  0.031200  1.0  0.0087
  C  C478  1  0.039500  0.237100  0.060300  1.0  0.6722
  C  C479  1  0.873800  0.202900  0.978900  1.0  0.3512
  C  C480  1  0.820200  0.218800  0.943400  1.0  -0.0953
  C  C481  1  0.807500  0.276600  0.932100  1.0  0.0102
  C  C482  1  0.748500  0.290600  0.898200  1.0  -0.1665
  C  C483  1  0.704400  0.244200  0.879200  1.0  0.1913
  C  C484  1  0.771400  0.175600  0.920900  1.0  0.1585
  C  C485  1  0.418300  0.601500  0.055800  1.0  0.649
  C  C486  1  0.424900  0.652700  0.029300  1.0  -0.0032
  C  C487  1  0.472200  0.707300  0.031200  1.0  0.0087
  C  C488  1  0.539500  0.737100  0.060300  1.0  0.6722
  C  C489  1  0.373800  0.702900  0.978900  1.0  0.3512
  C  C490  1  0.320200  0.718800  0.943400  1.0  -0.0953
  C  C491  1  0.307500  0.776600  0.932100  1.0  0.0102
  C  C492  1  0.248500  0.790600  0.898200  1.0  -0.1665
  C  C493  1  0.204400  0.744200  0.879200  1.0  0.1913
  C  C494  1  0.271400  0.675600  0.920900  1.0  0.1585
  C  C495  1  0.418300  0.101500  0.555800  1.0  0.649
  C  C496  1  0.424900  0.152700  0.529300  1.0  -0.0032
  C  C497  1  0.472200  0.207300  0.531200  1.0  0.0087
  C  C498  1  0.539500  0.237100  0.560300  1.0  0.6722
  C  C499  1  0.373800  0.202900  0.478900  1.0  0.3512
  C  C500  1  0.320200  0.218800  0.443400  1.0  -0.0953
  C  C501  1  0.307500  0.276600  0.432100  1.0  0.0102
  C  C502  1  0.248500  0.290600  0.398200  1.0  -0.1665
  C  C503  1  0.204400  0.244200  0.379200  1.0  0.1913
  C  C504  1  0.271400  0.175600  0.420900  1.0  0.1585
  N  N505  1  0.138300  0.400400  0.246200  1.0  -0.4507
  N  N506  1  0.059400  0.489700  0.249300  1.0  -0.459
  N  N507  1  0.288100  0.439300  0.138600  1.0  -0.337
  N  N508  1  0.138300  0.900400  0.746200  1.0  -0.4507
  N  N509  1  0.059400  0.989700  0.749300  1.0  -0.459
  N  N510  1  0.288100  0.939300  0.638600  1.0  -0.337
  N  N511  1  0.638300  0.400400  0.746200  1.0  -0.4507
  N  N512  1  0.559400  0.489700  0.749300  1.0  -0.459
  N  N513  1  0.788100  0.439300  0.638600  1.0  -0.337
  N  N514  1  0.638300  0.900400  0.246200  1.0  -0.4507
  N  N515  1  0.559400  0.989700  0.249300  1.0  -0.459
  N  N516  1  0.788100  0.939300  0.138600  1.0  -0.337
  N  N517  1  0.611700  0.349600  0.246200  1.0  -0.452
  N  N518  1  0.690600  0.260300  0.249300  1.0  -0.461
  N  N519  1  0.461900  0.310700  0.138600  1.0  -0.3336
  N  N520  1  0.611700  0.849600  0.746200  1.0  -0.452
  N  N521  1  0.690600  0.760300  0.749300  1.0  -0.461
  N  N522  1  0.461900  0.810700  0.638600  1.0  -0.3336
  N  N523  1  0.111700  0.349600  0.746200  1.0  -0.452
  N  N524  1  0.190600  0.260300  0.749300  1.0  -0.461
  N  N525  1  0.961900  0.310700  0.638600  1.0  -0.3336
  N  N526  1  0.111700  0.849600  0.246200  1.0  -0.452
  N  N527  1  0.190600  0.760300  0.249300  1.0  -0.461
  N  N528  1  0.961900  0.810700  0.138600  1.0  -0.3336
  N  N529  1  0.611700  0.400400  0.503800  1.0  -0.4523
  N  N530  1  0.690600  0.489700  0.500700  1.0  -0.4612
  N  N531  1  0.461900  0.439300  0.611400  1.0  -0.3382
  N  N532  1  0.611700  0.900400  0.003800  1.0  -0.4523
  N  N533  1  0.690600  0.989700  0.000700  1.0  -0.4612
  N  N534  1  0.461900  0.939300  0.111400  1.0  -0.3382
  N  N535  1  0.111700  0.400400  0.003800  1.0  -0.4523
  N  N536  1  0.190600  0.489700  0.000700  1.0  -0.4612
  N  N537  1  0.961900  0.439300  0.111400  1.0  -0.3382
  N  N538  1  0.111700  0.900400  0.503800  1.0  -0.4523
  N  N539  1  0.190600  0.989700  0.500700  1.0  -0.4612
  N  N540  1  0.961900  0.939300  0.611400  1.0  -0.3382
  N  N541  1  0.138300  0.349600  0.503800  1.0  -0.4502
  N  N542  1  0.059400  0.260300  0.500700  1.0  -0.4578
  N  N543  1  0.288100  0.310700  0.611400  1.0  -0.3354
  N  N544  1  0.138300  0.849600  0.003800  1.0  -0.4502
  N  N545  1  0.059400  0.760300  0.000700  1.0  -0.4578
  N  N546  1  0.288100  0.810700  0.111400  1.0  -0.3354
  N  N547  1  0.638300  0.349600  0.003800  1.0  -0.4502
  N  N548  1  0.559400  0.260300  0.000700  1.0  -0.4578
  N  N549  1  0.788100  0.310700  0.111400  1.0  -0.3354
  N  N550  1  0.638300  0.849600  0.503800  1.0  -0.4502
  N  N551  1  0.559400  0.760300  0.500700  1.0  -0.4578
  N  N552  1  0.788100  0.810700  0.611400  1.0  -0.3354
  N  N553  1  0.861700  0.599600  0.753800  1.0  -0.4518
  N  N554  1  0.940600  0.510300  0.750700  1.0  -0.4603
  N  N555  1  0.711900  0.560700  0.861400  1.0  -0.3346
  N  N556  1  0.861700  0.099600  0.253800  1.0  -0.4518
  N  N557  1  0.940600  0.010300  0.250700  1.0  -0.4603
  N  N558  1  0.711900  0.060700  0.361400  1.0  -0.3346
  N  N559  1  0.361700  0.599600  0.253800  1.0  -0.4518
  N  N560  1  0.440600  0.510300  0.250700  1.0  -0.4603
  N  N561  1  0.211900  0.560700  0.361400  1.0  -0.3346
  N  N562  1  0.361700  0.099600  0.753800  1.0  -0.4518
  N  N563  1  0.440600  0.010300  0.750700  1.0  -0.4603
  N  N564  1  0.211900  0.060700  0.861400  1.0  -0.3346
  N  N565  1  0.388300  0.650400  0.753800  1.0  -0.4501
  N  N566  1  0.309400  0.739700  0.750700  1.0  -0.4589
  N  N567  1  0.538100  0.689300  0.861400  1.0  -0.3371
  N  N568  1  0.388300  0.150400  0.253800  1.0  -0.4501
  N  N569  1  0.309400  0.239700  0.250700  1.0  -0.4589
  N  N570  1  0.538100  0.189300  0.361400  1.0  -0.3371
  N  N571  1  0.888300  0.650400  0.253800  1.0  -0.4501
  N  N572  1  0.809400  0.739700  0.250700  1.0  -0.4589
  N  N573  1  0.038100  0.689300  0.361400  1.0  -0.3371
  N  N574  1  0.888300  0.150400  0.753800  1.0  -0.4501
  N  N575  1  0.809400  0.239700  0.750700  1.0  -0.4589
  N  N576  1  0.038100  0.189300  0.861400  1.0  -0.3371
  N  N577  1  0.388300  0.599600  0.496200  1.0  -0.4501
  N  N578  1  0.309400  0.510300  0.499300  1.0  -0.4586
  N  N579  1  0.538100  0.560700  0.388600  1.0  -0.3351
  N  N580  1  0.388300  0.099600  0.996200  1.0  -0.4501
  N  N581  1  0.309400  0.010300  0.999300  1.0  -0.4586
  N  N582  1  0.538100  0.060700  0.888600  1.0  -0.3351
  N  N583  1  0.888300  0.599600  0.996200  1.0  -0.4501
  N  N584  1  0.809400  0.510300  0.999300  1.0  -0.4586
  N  N585  1  0.038100  0.560700  0.888600  1.0  -0.3351
  N  N586  1  0.888300  0.099600  0.496200  1.0  -0.4501
  N  N587  1  0.809400  0.010300  0.499300  1.0  -0.4586
  N  N588  1  0.038100  0.060700  0.388600  1.0  -0.3351
  N  N589  1  0.861700  0.650400  0.496200  1.0  -0.4529
  N  N590  1  0.940600  0.739700  0.499300  1.0  -0.4612
  N  N591  1  0.711900  0.689300  0.388600  1.0  -0.3377
  N  N592  1  0.861700  0.150400  0.996200  1.0  -0.4529
  N  N593  1  0.940600  0.239700  0.999300  1.0  -0.4612
  N  N594  1  0.711900  0.189300  0.888600  1.0  -0.3377
  N  N595  1  0.361700  0.650400  0.996200  1.0  -0.4529
  N  N596  1  0.440600  0.739700  0.999300  1.0  -0.4612
  N  N597  1  0.211900  0.689300  0.888600  1.0  -0.3377
  N  N598  1  0.361700  0.150400  0.496200  1.0  -0.4529
  N  N599  1  0.440600  0.239700  0.499300  1.0  -0.4612
  N  N600  1  0.211900  0.189300  0.388600  1.0  -0.3377
  Cl  Cl601  1  0.375000  0.375000  0.242800  1.0  -0.3715
  Cl  Cl602  1  0.375000  0.875000  0.742800  1.0  -0.3715
  Cl  Cl603  1  0.875000  0.375000  0.742800  1.0  -0.3715
  Cl  Cl604  1  0.875000  0.875000  0.242800  1.0  -0.3715
  Cl  Cl605  1  0.375000  0.375000  0.507200  1.0  -0.3715
  Cl  Cl606  1  0.375000  0.875000  0.007200  1.0  -0.3715
  Cl  Cl607  1  0.875000  0.375000  0.007200  1.0  -0.3715
  Cl  Cl608  1  0.875000  0.875000  0.507200  1.0  -0.3715
  Cl  Cl609  1  0.625000  0.625000  0.757200  1.0  -0.3708
  Cl  Cl610  1  0.625000  0.125000  0.257200  1.0  -0.3708
  Cl  Cl611  1  0.125000  0.625000  0.257200  1.0  -0.3708
  Cl  Cl612  1  0.125000  0.125000  0.757200  1.0  -0.3708
  Cl  Cl613  1  0.625000  0.625000  0.492800  1.0  -0.3708
  Cl  Cl614  1  0.625000  0.125000  0.992800  1.0  -0.3708
  Cl  Cl615  1  0.125000  0.625000  0.992800  1.0  -0.3708
  Cl  Cl616  1  0.125000  0.125000  0.492800  1.0  -0.3708
  O  O617  1  0.154800  0.312800  0.297800  1.0  -0.5792
  O  O618  1  0.019700  0.346100  0.334400  1.0  -0.7027
  O  O619  1  0.937300  0.463300  0.341600  1.0  -0.7048
  O  O620  1  0.934000  0.540900  0.302500  1.0  -0.6085
  O  O621  1  0.154800  0.812800  0.797800  1.0  -0.5792
  O  O622  1  0.019700  0.846100  0.834400  1.0  -0.7027
  O  O623  1  0.937300  0.963300  0.841600  1.0  -0.7048
  O  O624  1  0.934000  0.040900  0.802500  1.0  -0.6085
  O  O625  1  0.654800  0.312800  0.797800  1.0  -0.5792
  O  O626  1  0.519700  0.346100  0.834400  1.0  -0.7027
  O  O627  1  0.437300  0.463300  0.841600  1.0  -0.7048
  O  O628  1  0.434000  0.540900  0.802500  1.0  -0.6085
  O  O629  1  0.654800  0.812800  0.297800  1.0  -0.5792
  O  O630  1  0.519700  0.846100  0.334400  1.0  -0.7027
  O  O631  1  0.437300  0.963300  0.341600  1.0  -0.7048
  O  O632  1  0.434000  0.040900  0.302500  1.0  -0.6085
  O  O633  1  0.595200  0.437200  0.297800  1.0  -0.5788
  O  O634  1  0.730300  0.403900  0.334400  1.0  -0.7032
  O  O635  1  0.812700  0.286700  0.341600  1.0  -0.7042
  O  O636  1  0.816000  0.209100  0.302500  1.0  -0.6106
  O  O637  1  0.595200  0.937200  0.797800  1.0  -0.5788
  O  O638  1  0.730300  0.903900  0.834400  1.0  -0.7032
  O  O639  1  0.812700  0.786700  0.841600  1.0  -0.7042
  O  O640  1  0.816000  0.709100  0.802500  1.0  -0.6106
  O  O641  1  0.095200  0.437200  0.797800  1.0  -0.5788
  O  O642  1  0.230300  0.403900  0.834400  1.0  -0.7032
  O  O643  1  0.312700  0.286700  0.841600  1.0  -0.7042
  O  O644  1  0.316000  0.209100  0.802500  1.0  -0.6106
  O  O645  1  0.095200  0.937200  0.297800  1.0  -0.5788
  O  O646  1  0.230300  0.903900  0.334400  1.0  -0.7032
  O  O647  1  0.312700  0.786700  0.341600  1.0  -0.7042
  O  O648  1  0.316000  0.709100  0.302500  1.0  -0.6106
  O  O649  1  0.595200  0.312800  0.452200  1.0  -0.579
  O  O650  1  0.730300  0.346100  0.415600  1.0  -0.7022
  O  O651  1  0.812700  0.463300  0.408400  1.0  -0.705
  O  O652  1  0.816000  0.540900  0.447500  1.0  -0.6108
  O  O653  1  0.595200  0.812800  0.952200  1.0  -0.579
  O  O654  1  0.730300  0.846100  0.915600  1.0  -0.7022
  O  O655  1  0.812700  0.963300  0.908400  1.0  -0.705
  O  O656  1  0.816000  0.040900  0.947500  1.0  -0.6108
  O  O657  1  0.095200  0.312800  0.952200  1.0  -0.579
  O  O658  1  0.230300  0.346100  0.915600  1.0  -0.7022
  O  O659  1  0.312700  0.463300  0.908400  1.0  -0.705
  O  O660  1  0.316000  0.540900  0.947500  1.0  -0.6108
  O  O661  1  0.095200  0.812800  0.452200  1.0  -0.579
  O  O662  1  0.230300  0.846100  0.415600  1.0  -0.7022
  O  O663  1  0.312700  0.963300  0.408400  1.0  -0.705
  O  O664  1  0.316000  0.040900  0.447500  1.0  -0.6108
  O  O665  1  0.154800  0.437200  0.452200  1.0  -0.5792
  O  O666  1  0.019700  0.403900  0.415600  1.0  -0.7036
  O  O667  1  0.937300  0.286700  0.408400  1.0  -0.7048
  O  O668  1  0.934000  0.209100  0.447500  1.0  -0.6099
  O  O669  1  0.154800  0.937200  0.952200  1.0  -0.5792
  O  O670  1  0.019700  0.903900  0.915600  1.0  -0.7036
  O  O671  1  0.937300  0.786700  0.908400  1.0  -0.7048
  O  O672  1  0.934000  0.709100  0.947500  1.0  -0.6099
  O  O673  1  0.654800  0.437200  0.952200  1.0  -0.5792
  O  O674  1  0.519700  0.403900  0.915600  1.0  -0.7036
  O  O675  1  0.437300  0.286700  0.908400  1.0  -0.7048
  O  O676  1  0.434000  0.209100  0.947500  1.0  -0.6099
  O  O677  1  0.654800  0.937200  0.452200  1.0  -0.5792
  O  O678  1  0.519700  0.903900  0.415600  1.0  -0.7036
  O  O679  1  0.437300  0.786700  0.408400  1.0  -0.7048
  O  O680  1  0.434000  0.709100  0.447500  1.0  -0.6099
  O  O681  1  0.845200  0.687200  0.702200  1.0  -0.5786
  O  O682  1  0.980300  0.653900  0.665600  1.0  -0.7024
  O  O683  1  0.062700  0.536700  0.658400  1.0  -0.7045
  O  O684  1  0.066000  0.459100  0.697500  1.0  -0.6113
  O  O685  1  0.845200  0.187200  0.202200  1.0  -0.5786
  O  O686  1  0.980300  0.153900  0.165600  1.0  -0.7024
  O  O687  1  0.062700  0.036700  0.158400  1.0  -0.7045
  O  O688  1  0.066000  0.959100  0.197500  1.0  -0.6113
  O  O689  1  0.345200  0.687200  0.202200  1.0  -0.5786
  O  O690  1  0.480300  0.653900  0.165600  1.0  -0.7024
  O  O691  1  0.562700  0.536700  0.158400  1.0  -0.7045
  O  O692  1  0.566000  0.459100  0.197500  1.0  -0.6113
  O  O693  1  0.345200  0.187200  0.702200  1.0  -0.5786
  O  O694  1  0.480300  0.153900  0.665600  1.0  -0.7024
  O  O695  1  0.562700  0.036700  0.658400  1.0  -0.7045
  O  O696  1  0.566000  0.959100  0.697500  1.0  -0.6113
  O  O697  1  0.404800  0.562800  0.702200  1.0  -0.5782
  O  O698  1  0.269700  0.596100  0.665600  1.0  -0.7027
  O  O699  1  0.187300  0.713300  0.658400  1.0  -0.7048
  O  O700  1  0.184000  0.790900  0.697500  1.0  -0.6087
  O  O701  1  0.404800  0.062800  0.202200  1.0  -0.5782
  O  O702  1  0.269700  0.096100  0.165600  1.0  -0.7027
  O  O703  1  0.187300  0.213300  0.158400  1.0  -0.7048
  O  O704  1  0.184000  0.290900  0.197500  1.0  -0.6087
  O  O705  1  0.904800  0.562800  0.202200  1.0  -0.5782
  O  O706  1  0.769700  0.596100  0.165600  1.0  -0.7027
  O  O707  1  0.687300  0.713300  0.158400  1.0  -0.7048
  O  O708  1  0.684000  0.790900  0.197500  1.0  -0.6087
  O  O709  1  0.904800  0.062800  0.702200  1.0  -0.5782
  O  O710  1  0.769700  0.096100  0.665600  1.0  -0.7027
  O  O711  1  0.687300  0.213300  0.658400  1.0  -0.7048
  O  O712  1  0.684000  0.290900  0.697500  1.0  -0.6087
  O  O713  1  0.404800  0.687200  0.547800  1.0  -0.5795
  O  O714  1  0.269700  0.653900  0.584400  1.0  -0.7041
  O  O715  1  0.187300  0.536700  0.591600  1.0  -0.7043
  O  O716  1  0.184000  0.459100  0.552500  1.0  -0.609
  O  O717  1  0.404800  0.187200  0.047800  1.0  -0.5795
  O  O718  1  0.269700  0.153900  0.084400  1.0  -0.7041
  O  O719  1  0.187300  0.036700  0.091600  1.0  -0.7043
  O  O720  1  0.184000  0.959100  0.052500  1.0  -0.609
  O  O721  1  0.904800  0.687200  0.047800  1.0  -0.5795
  O  O722  1  0.769700  0.653900  0.084400  1.0  -0.7041
  O  O723  1  0.687300  0.536700  0.091600  1.0  -0.7043
  O  O724  1  0.684000  0.459100  0.052500  1.0  -0.609
  O  O725  1  0.904800  0.187200  0.547800  1.0  -0.5795
  O  O726  1  0.769700  0.153900  0.584400  1.0  -0.7041
  O  O727  1  0.687300  0.036700  0.591600  1.0  -0.7043
  O  O728  1  0.684000  0.959100  0.552500  1.0  -0.609
  O  O729  1  0.845200  0.562800  0.547800  1.0  -0.5797
  O  O730  1  0.980300  0.596100  0.584400  1.0  -0.7027
  O  O731  1  0.062700  0.713300  0.591600  1.0  -0.7054
  O  O732  1  0.066000  0.790900  0.552500  1.0  -0.6104
  O  O733  1  0.845200  0.062800  0.047800  1.0  -0.5797
  O  O734  1  0.980300  0.096100  0.084400  1.0  -0.7027
  O  O735  1  0.062700  0.213300  0.091600  1.0  -0.7054
  O  O736  1  0.066000  0.290900  0.052500  1.0  -0.6104
  O  O737  1  0.345200  0.562800  0.047800  1.0  -0.5797
  O  O738  1  0.480300  0.596100  0.084400  1.0  -0.7027
  O  O739  1  0.562700  0.713300  0.091600  1.0  -0.7054
  O  O740  1  0.566000  0.790900  0.052500  1.0  -0.6104
  O  O741  1  0.345200  0.062800  0.547800  1.0  -0.5797
  O  O742  1  0.480300  0.096100  0.584400  1.0  -0.7027
  O  O743  1  0.562700  0.213300  0.591600  1.0  -0.7054
  O  O744  1  0.566000  0.290900  0.552500  1.0  -0.6104
