# generated using pymatgen
data_EuZn6H16C40N12(ClO8)2
_symmetry_space_group_name_H-M   'P 1'
_cell_length_a   12.28400000
_cell_length_b   22.73300000
_cell_length_c   34.40000000
_cell_angle_alpha   90.00000000
_cell_angle_beta   90.00000000
_cell_angle_gamma   90.00000000
_symmetry_Int_Tables_number   1
_chemical_formula_structural   EuZn6H16C40N12(ClO8)2
_chemical_formula_sum   'Eu8 Zn48 H128 C320 N96 Cl16 O128'
_cell_volume   9606.27471680
_cell_formula_units_Z   8
loop_
 _symmetry_equiv_pos_site_id
 _symmetry_equiv_pos_as_xyz
  1  'x, y, z'
loop_
 _atom_site_type_symbol
 _atom_site_label
 _atom_site_symmetry_multiplicity
 _atom_site_fract_x
 _atom_site_fract_y
 _atom_site_fract_z
 _atom_site_occupancy
 _atom_site_charge
  Eu  Eu1  1  0.875000  0.375000  0.875000  1.0  2.0712
  Eu  Eu2  1  0.875000  0.875000  0.375000  1.0  2.0712
  Eu  Eu3  1  0.375000  0.375000  0.375000  1.0  2.0712
  Eu  Eu4  1  0.375000  0.875000  0.875000  1.0  2.0712
  Eu  Eu5  1  0.125000  0.625000  0.125000  1.0  2.0712
  Eu  Eu6  1  0.125000  0.125000  0.625000  1.0  2.0712
  Eu  Eu7  1  0.625000  0.625000  0.625000  1.0  2.0712
  Eu  Eu8  1  0.625000  0.125000  0.125000  1.0  2.0712
  Zn  Zn9  1  0.992850  0.575110  0.751900  1.0  0.9153
  Zn  Zn10  1  0.992850  0.075110  0.251900  1.0  0.9153
  Zn  Zn11  1  0.492850  0.575110  0.251900  1.0  0.9153
  Zn  Zn12  1  0.492850  0.075110  0.751900  1.0  0.9153
  Zn  Zn13  1  0.757150  0.174890  0.751900  1.0  0.9158
  Zn  Zn14  1  0.757150  0.674890  0.251900  1.0  0.9158
  Zn  Zn15  1  0.257150  0.174890  0.251900  1.0  0.9158
  Zn  Zn16  1  0.257150  0.674890  0.751900  1.0  0.9158
  Zn  Zn17  1  0.757150  0.575110  0.998100  1.0  0.9157
  Zn  Zn18  1  0.757150  0.075110  0.498100  1.0  0.9157
  Zn  Zn19  1  0.257150  0.575110  0.498100  1.0  0.9157
  Zn  Zn20  1  0.257150  0.075110  0.998100  1.0  0.9157
  Zn  Zn21  1  0.992850  0.174890  0.998100  1.0  0.9155
  Zn  Zn22  1  0.992850  0.674890  0.498100  1.0  0.9155
  Zn  Zn23  1  0.492850  0.174890  0.498100  1.0  0.9155
  Zn  Zn24  1  0.492850  0.674890  0.998100  1.0  0.9155
  Zn  Zn25  1  0.007150  0.424890  0.248100  1.0  0.9161
  Zn  Zn26  1  0.007150  0.924890  0.748100  1.0  0.9161
  Zn  Zn27  1  0.507150  0.424890  0.748100  1.0  0.9161
  Zn  Zn28  1  0.507150  0.924890  0.248100  1.0  0.9161
  Zn  Zn29  1  0.242850  0.825110  0.248100  1.0  0.9153
  Zn  Zn30  1  0.242850  0.325110  0.748100  1.0  0.9153
  Zn  Zn31  1  0.742850  0.825110  0.748100  1.0  0.9153
  Zn  Zn32  1  0.742850  0.325110  0.248100  1.0  0.9153
  Zn  Zn33  1  0.242850  0.424890  0.001900  1.0  0.9153
  Zn  Zn34  1  0.242850  0.924890  0.501900  1.0  0.9153
  Zn  Zn35  1  0.742850  0.424890  0.501900  1.0  0.9153
  Zn  Zn36  1  0.742850  0.924890  0.001900  1.0  0.9153
  Zn  Zn37  1  0.007150  0.825110  0.001900  1.0  0.9157
  Zn  Zn38  1  0.007150  0.325110  0.501900  1.0  0.9157
  Zn  Zn39  1  0.507150  0.825110  0.501900  1.0  0.9157
  Zn  Zn40  1  0.507150  0.325110  0.001900  1.0  0.9157
  Zn  Zn41  1  0.375000  0.375000  0.606530  1.0  0.7777
  Zn  Zn42  1  0.375000  0.875000  0.106530  1.0  0.7777
  Zn  Zn43  1  0.875000  0.375000  0.106530  1.0  0.7777
  Zn  Zn44  1  0.875000  0.875000  0.606530  1.0  0.7777
  Zn  Zn45  1  0.375000  0.375000  0.143470  1.0  0.774
  Zn  Zn46  1  0.375000  0.875000  0.643470  1.0  0.774
  Zn  Zn47  1  0.875000  0.375000  0.643470  1.0  0.774
  Zn  Zn48  1  0.875000  0.875000  0.143470  1.0  0.774
  Zn  Zn49  1  0.625000  0.625000  0.393470  1.0  0.774
  Zn  Zn50  1  0.625000  0.125000  0.893470  1.0  0.774
  Zn  Zn51  1  0.125000  0.625000  0.893470  1.0  0.774
  Zn  Zn52  1  0.125000  0.125000  0.393470  1.0  0.774
  Zn  Zn53  1  0.625000  0.625000  0.856530  1.0  0.7777
  Zn  Zn54  1  0.625000  0.125000  0.356530  1.0  0.7777
  Zn  Zn55  1  0.125000  0.625000  0.356530  1.0  0.7777
  Zn  Zn56  1  0.125000  0.125000  0.856530  1.0  0.7777
  H  H57  1  0.263000  0.578600  0.639600  1.0  0.1172
  H  H58  1  0.162800  0.557300  0.695100  1.0  0.1046
  H  H59  1  0.340100  0.503400  0.605000  1.0  0.0681
  H  H60  1  0.225100  0.386600  0.676700  1.0  0.081
  H  H61  1  0.263000  0.078600  0.139600  1.0  0.1172
  H  H62  1  0.162800  0.057300  0.195100  1.0  0.1046
  H  H63  1  0.340100  0.003400  0.105000  1.0  0.0681
  H  H64  1  0.225100  0.886600  0.176700  1.0  0.081
  H  H65  1  0.763000  0.578600  0.139600  1.0  0.1172
  H  H66  1  0.662800  0.557300  0.195100  1.0  0.1046
  H  H67  1  0.840100  0.503400  0.105000  1.0  0.0681
  H  H68  1  0.725100  0.386600  0.176700  1.0  0.081
  H  H69  1  0.763000  0.078600  0.639600  1.0  0.1172
  H  H70  1  0.662800  0.057300  0.695100  1.0  0.1046
  H  H71  1  0.840100  0.003400  0.605000  1.0  0.0681
  H  H72  1  0.725100  0.886600  0.676700  1.0  0.081
  H  H73  1  0.487000  0.171400  0.639600  1.0  0.1175
  H  H74  1  0.587200  0.192700  0.695100  1.0  0.1052
  H  H75  1  0.409900  0.246600  0.605000  1.0  0.0684
  H  H76  1  0.524900  0.363400  0.676700  1.0  0.082
  H  H77  1  0.487000  0.671400  0.139600  1.0  0.1175
  H  H78  1  0.587200  0.692700  0.195100  1.0  0.1052
  H  H79  1  0.409900  0.746600  0.105000  1.0  0.0684
  H  H80  1  0.524900  0.863400  0.176700  1.0  0.082
  H  H81  1  0.987000  0.171400  0.139600  1.0  0.1175
  H  H82  1  0.087200  0.192700  0.195100  1.0  0.1052
  H  H83  1  0.909900  0.246600  0.105000  1.0  0.0684
  H  H84  1  0.024900  0.363400  0.176700  1.0  0.082
  H  H85  1  0.987000  0.671400  0.639600  1.0  0.1175
  H  H86  1  0.087200  0.692700  0.695100  1.0  0.1052
  H  H87  1  0.909900  0.746600  0.605000  1.0  0.0684
  H  H88  1  0.024900  0.863400  0.676700  1.0  0.082
  H  H89  1  0.487000  0.578600  0.110400  1.0  0.1179
  H  H90  1  0.587200  0.557300  0.054900  1.0  0.1044
  H  H91  1  0.409900  0.503400  0.145000  1.0  0.0681
  H  H92  1  0.524900  0.386600  0.073300  1.0  0.0826
  H  H93  1  0.487000  0.078600  0.610400  1.0  0.1179
  H  H94  1  0.587200  0.057300  0.554900  1.0  0.1044
  H  H95  1  0.409900  0.003400  0.645000  1.0  0.0681
  H  H96  1  0.524900  0.886600  0.573300  1.0  0.0826
  H  H97  1  0.987000  0.578600  0.610400  1.0  0.1179
  H  H98  1  0.087200  0.557300  0.554900  1.0  0.1044
  H  H99  1  0.909900  0.503400  0.645000  1.0  0.0681
  H  H100  1  0.024900  0.386600  0.573300  1.0  0.0826
  H  H101  1  0.987000  0.078600  0.110400  1.0  0.1179
  H  H102  1  0.087200  0.057300  0.054900  1.0  0.1044
  H  H103  1  0.909900  0.003400  0.145000  1.0  0.0681
  H  H104  1  0.024900  0.886600  0.073300  1.0  0.0826
  H  H105  1  0.263000  0.171400  0.110400  1.0  0.1183
  H  H106  1  0.162800  0.192700  0.054900  1.0  0.1042
  H  H107  1  0.340100  0.246600  0.145000  1.0  0.0678
  H  H108  1  0.225100  0.363400  0.073300  1.0  0.0828
  H  H109  1  0.263000  0.671400  0.610400  1.0  0.1183
  H  H110  1  0.162800  0.692700  0.554900  1.0  0.1042
  H  H111  1  0.340100  0.746600  0.645000  1.0  0.0678
  H  H112  1  0.225100  0.863400  0.573300  1.0  0.0828
  H  H113  1  0.763000  0.171400  0.610400  1.0  0.1183
  H  H114  1  0.662800  0.192700  0.554900  1.0  0.1042
  H  H115  1  0.840100  0.246600  0.645000  1.0  0.0678
  H  H116  1  0.725100  0.363400  0.573300  1.0  0.0828
  H  H117  1  0.763000  0.671400  0.110400  1.0  0.1183
  H  H118  1  0.662800  0.692700  0.054900  1.0  0.1042
  H  H119  1  0.840100  0.746600  0.145000  1.0  0.0678
  H  H120  1  0.725100  0.863400  0.073300  1.0  0.0828
  H  H121  1  0.737000  0.421400  0.360400  1.0  0.1183
  H  H122  1  0.837200  0.442700  0.304900  1.0  0.1046
  H  H123  1  0.659900  0.496600  0.395000  1.0  0.0684
  H  H124  1  0.774900  0.613400  0.323300  1.0  0.0825
  H  H125  1  0.737000  0.921400  0.860400  1.0  0.1183
  H  H126  1  0.837200  0.942700  0.804900  1.0  0.1046
  H  H127  1  0.659900  0.996600  0.895000  1.0  0.0684
  H  H128  1  0.774900  0.113400  0.823300  1.0  0.0825
  H  H129  1  0.237000  0.421400  0.860400  1.0  0.1183
  H  H130  1  0.337200  0.442700  0.804900  1.0  0.1046
  H  H131  1  0.159900  0.496600  0.895000  1.0  0.0684
  H  H132  1  0.274900  0.613400  0.823300  1.0  0.0825
  H  H133  1  0.237000  0.921400  0.360400  1.0  0.1183
  H  H134  1  0.337200  0.942700  0.304900  1.0  0.1046
  H  H135  1  0.159900  0.996600  0.395000  1.0  0.0684
  H  H136  1  0.274900  0.113400  0.323300  1.0  0.0825
  H  H137  1  0.513000  0.828600  0.360400  1.0  0.1176
  H  H138  1  0.412800  0.807300  0.304900  1.0  0.1044
  H  H139  1  0.590100  0.753400  0.395000  1.0  0.0681
  H  H140  1  0.475100  0.636600  0.323300  1.0  0.0823
  H  H141  1  0.513000  0.328600  0.860400  1.0  0.1176
  H  H142  1  0.412800  0.307300  0.804900  1.0  0.1044
  H  H143  1  0.590100  0.253400  0.895000  1.0  0.0681
  H  H144  1  0.475100  0.136600  0.823300  1.0  0.0823
  H  H145  1  0.013000  0.828600  0.860400  1.0  0.1176
  H  H146  1  0.912800  0.807300  0.804900  1.0  0.1044
  H  H147  1  0.090100  0.753400  0.895000  1.0  0.0681
  H  H148  1  0.975100  0.636600  0.823300  1.0  0.0823
  H  H149  1  0.013000  0.328600  0.360400  1.0  0.1176
  H  H150  1  0.912800  0.307300  0.304900  1.0  0.1044
  H  H151  1  0.090100  0.253400  0.395000  1.0  0.0681
  H  H152  1  0.975100  0.136600  0.323300  1.0  0.0823
  H  H153  1  0.513000  0.421400  0.889600  1.0  0.1182
  H  H154  1  0.412800  0.442700  0.945100  1.0  0.1049
  H  H155  1  0.590100  0.496600  0.855000  1.0  0.0685
  H  H156  1  0.475100  0.613400  0.926700  1.0  0.0821
  H  H157  1  0.513000  0.921400  0.389600  1.0  0.1182
  H  H158  1  0.412800  0.942700  0.445100  1.0  0.1049
  H  H159  1  0.590100  0.996600  0.355000  1.0  0.0685
  H  H160  1  0.475100  0.113400  0.426700  1.0  0.0821
  H  H161  1  0.013000  0.421400  0.389600  1.0  0.1182
  H  H162  1  0.912800  0.442700  0.445100  1.0  0.1049
  H  H163  1  0.090100  0.496600  0.355000  1.0  0.0685
  H  H164  1  0.975100  0.613400  0.426700  1.0  0.0821
  H  H165  1  0.013000  0.921400  0.889600  1.0  0.1182
  H  H166  1  0.912800  0.942700  0.945100  1.0  0.1049
  H  H167  1  0.090100  0.996600  0.855000  1.0  0.0685
  H  H168  1  0.975100  0.113400  0.926700  1.0  0.0821
  H  H169  1  0.737000  0.828600  0.889600  1.0  0.1184
  H  H170  1  0.837200  0.807300  0.945100  1.0  0.1046
  H  H171  1  0.659900  0.753400  0.855000  1.0  0.0684
  H  H172  1  0.774900  0.636600  0.926700  1.0  0.0816
  H  H173  1  0.737000  0.328600  0.389600  1.0  0.1184
  H  H174  1  0.837200  0.307300  0.445100  1.0  0.1046
  H  H175  1  0.659900  0.253400  0.355000  1.0  0.0684
  H  H176  1  0.774900  0.136600  0.426700  1.0  0.0816
  H  H177  1  0.237000  0.828600  0.389600  1.0  0.1184
  H  H178  1  0.337200  0.807300  0.445100  1.0  0.1046
  H  H179  1  0.159900  0.753400  0.355000  1.0  0.0684
  H  H180  1  0.274900  0.636600  0.426700  1.0  0.0816
  H  H181  1  0.237000  0.328600  0.889600  1.0  0.1184
  H  H182  1  0.337200  0.307300  0.945100  1.0  0.1046
  H  H183  1  0.159900  0.253400  0.855000  1.0  0.0684
  H  H184  1  0.274900  0.136600  0.926700  1.0  0.0816
  C  C185  1  0.127000  0.452600  0.729000  1.0  0.3304
  C  C186  1  0.076900  0.402500  0.779090  1.0  -0.0245
  C  C187  1  0.030200  0.457500  0.780920  1.0  0.0033
  C  C188  1  0.183500  0.468800  0.692600  1.0  -0.0871
  C  C189  1  0.079800  0.351200  0.805380  1.0  0.6535
  C  C190  1  0.254500  0.539900  0.647900  1.0  -0.1557
  C  C191  1  0.194900  0.527200  0.680900  1.0  0.0027
  C  C192  1  0.300900  0.494500  0.627400  1.0  0.1646
  C  C193  1  0.962500  0.487700  0.810800  1.0  0.6568
  C  C194  1  0.233300  0.425800  0.669700  1.0  0.1932
  C  C195  1  0.127000  0.952600  0.229000  1.0  0.3304
  C  C196  1  0.076900  0.902500  0.279090  1.0  -0.0245
  C  C197  1  0.030200  0.957500  0.280920  1.0  0.0033
  C  C198  1  0.183500  0.968800  0.192600  1.0  -0.0871
  C  C199  1  0.079800  0.851200  0.305380  1.0  0.6535
  C  C200  1  0.254500  0.039900  0.147900  1.0  -0.1557
  C  C201  1  0.194900  0.027200  0.180900  1.0  0.0027
  C  C202  1  0.300900  0.994500  0.127400  1.0  0.1646
  C  C203  1  0.962500  0.987700  0.310800  1.0  0.6568
  C  C204  1  0.233300  0.925800  0.169700  1.0  0.1932
  C  C205  1  0.627000  0.452600  0.229000  1.0  0.3304
  C  C206  1  0.576900  0.402500  0.279090  1.0  -0.0245
  C  C207  1  0.530200  0.457500  0.280920  1.0  0.0033
  C  C208  1  0.683500  0.468800  0.192600  1.0  -0.0871
  C  C209  1  0.579800  0.351200  0.305380  1.0  0.6535
  C  C210  1  0.754500  0.539900  0.147900  1.0  -0.1557
  C  C211  1  0.694900  0.527200  0.180900  1.0  0.0027
  C  C212  1  0.800900  0.494500  0.127400  1.0  0.1646
  C  C213  1  0.462500  0.487700  0.310800  1.0  0.6568
  C  C214  1  0.733300  0.425800  0.169700  1.0  0.1932
  C  C215  1  0.627000  0.952600  0.729000  1.0  0.3304
  C  C216  1  0.576900  0.902500  0.779090  1.0  -0.0245
  C  C217  1  0.530200  0.957500  0.780920  1.0  0.0033
  C  C218  1  0.683500  0.968800  0.692600  1.0  -0.0871
  C  C219  1  0.579800  0.851200  0.805380  1.0  0.6535
  C  C220  1  0.754500  0.039900  0.647900  1.0  -0.1557
  C  C221  1  0.694900  0.027200  0.680900  1.0  0.0027
  C  C222  1  0.800900  0.994500  0.627400  1.0  0.1646
  C  C223  1  0.462500  0.987700  0.810800  1.0  0.6568
  C  C224  1  0.733300  0.925800  0.669700  1.0  0.1932
  C  C225  1  0.623000  0.297400  0.729000  1.0  0.3303
  C  C226  1  0.673100  0.347500  0.779090  1.0  -0.0243
  C  C227  1  0.719800  0.292500  0.780920  1.0  0.0037
  C  C228  1  0.566500  0.281200  0.692600  1.0  -0.0847
  C  C229  1  0.670200  0.398800  0.805380  1.0  0.6545
  C  C230  1  0.495500  0.210100  0.647900  1.0  -0.1559
  C  C231  1  0.555100  0.222800  0.680900  1.0  0.0017
  C  C232  1  0.449100  0.255500  0.627400  1.0  0.1653
  C  C233  1  0.787500  0.262300  0.810800  1.0  0.6585
  C  C234  1  0.516700  0.324200  0.669700  1.0  0.1923
  C  C235  1  0.623000  0.797400  0.229000  1.0  0.3303
  C  C236  1  0.673100  0.847500  0.279090  1.0  -0.0243
  C  C237  1  0.719800  0.792500  0.280920  1.0  0.0037
  C  C238  1  0.566500  0.781200  0.192600  1.0  -0.0847
  C  C239  1  0.670200  0.898800  0.305380  1.0  0.6545
  C  C240  1  0.495500  0.710100  0.147900  1.0  -0.1559
  C  C241  1  0.555100  0.722800  0.180900  1.0  0.0017
  C  C242  1  0.449100  0.755500  0.127400  1.0  0.1653
  C  C243  1  0.787500  0.762300  0.310800  1.0  0.6585
  C  C244  1  0.516700  0.824200  0.169700  1.0  0.1923
  C  C245  1  0.123000  0.297400  0.229000  1.0  0.3303
  C  C246  1  0.173100  0.347500  0.279090  1.0  -0.0243
  C  C247  1  0.219800  0.292500  0.280920  1.0  0.0037
  C  C248  1  0.066500  0.281200  0.192600  1.0  -0.0847
  C  C249  1  0.170200  0.398800  0.305380  1.0  0.6545
  C  C250  1  0.995500  0.210100  0.147900  1.0  -0.1559
  C  C251  1  0.055100  0.222800  0.180900  1.0  0.0017
  C  C252  1  0.949100  0.255500  0.127400  1.0  0.1653
  C  C253  1  0.287500  0.262300  0.310800  1.0  0.6585
  C  C254  1  0.016700  0.324200  0.169700  1.0  0.1923
  C  C255  1  0.123000  0.797400  0.729000  1.0  0.3303
  C  C256  1  0.173100  0.847500  0.779090  1.0  -0.0243
  C  C257  1  0.219800  0.792500  0.780920  1.0  0.0037
  C  C258  1  0.066500  0.781200  0.692600  1.0  -0.0847
  C  C259  1  0.170200  0.898800  0.805380  1.0  0.6545
  C  C260  1  0.995500  0.710100  0.647900  1.0  -0.1559
  C  C261  1  0.055100  0.722800  0.680900  1.0  0.0017
  C  C262  1  0.949100  0.755500  0.627400  1.0  0.1653
  C  C263  1  0.287500  0.762300  0.810800  1.0  0.6585
  C  C264  1  0.016700  0.824200  0.669700  1.0  0.1923
  C  C265  1  0.623000  0.452600  0.021000  1.0  0.33
  C  C266  1  0.673100  0.402500  0.970910  1.0  -0.0242
  C  C267  1  0.719800  0.457500  0.969080  1.0  0.0045
  C  C268  1  0.566500  0.468800  0.057400  1.0  -0.085
  C  C269  1  0.670200  0.351200  0.944620  1.0  0.6542
  C  C270  1  0.495500  0.539900  0.102100  1.0  -0.1557
  C  C271  1  0.555100  0.527200  0.069100  1.0  0.0021
  C  C272  1  0.449100  0.494500  0.122600  1.0  0.1645
  C  C273  1  0.787500  0.487700  0.939200  1.0  0.6575
  C  C274  1  0.516700  0.425800  0.080300  1.0  0.1922
  C  C275  1  0.623000  0.952600  0.521000  1.0  0.33
  C  C276  1  0.673100  0.902500  0.470910  1.0  -0.0242
  C  C277  1  0.719800  0.957500  0.469080  1.0  0.0045
  C  C278  1  0.566500  0.968800  0.557400  1.0  -0.085
  C  C279  1  0.670200  0.851200  0.444620  1.0  0.6542
  C  C280  1  0.495500  0.039900  0.602100  1.0  -0.1557
  C  C281  1  0.555100  0.027200  0.569100  1.0  0.0021
  C  C282  1  0.449100  0.994500  0.622600  1.0  0.1645
  C  C283  1  0.787500  0.987700  0.439200  1.0  0.6575
  C  C284  1  0.516700  0.925800  0.580300  1.0  0.1922
  C  C285  1  0.123000  0.452600  0.521000  1.0  0.33
  C  C286  1  0.173100  0.402500  0.470910  1.0  -0.0242
  C  C287  1  0.219800  0.457500  0.469080  1.0  0.0045
  C  C288  1  0.066500  0.468800  0.557400  1.0  -0.085
  C  C289  1  0.170200  0.351200  0.444620  1.0  0.6542
  C  C290  1  0.995500  0.539900  0.602100  1.0  -0.1557
  C  C291  1  0.055100  0.527200  0.569100  1.0  0.0021
  C  C292  1  0.949100  0.494500  0.622600  1.0  0.1645
  C  C293  1  0.287500  0.487700  0.439200  1.0  0.6575
  C  C294  1  0.016700  0.425800  0.580300  1.0  0.1922
  C  C295  1  0.123000  0.952600  0.021000  1.0  0.33
  C  C296  1  0.173100  0.902500  0.970910  1.0  -0.0242
  C  C297  1  0.219800  0.957500  0.969080  1.0  0.0045
  C  C298  1  0.066500  0.968800  0.057400  1.0  -0.085
  C  C299  1  0.170200  0.851200  0.944620  1.0  0.6542
  C  C300  1  0.995500  0.039900  0.102100  1.0  -0.1557
  C  C301  1  0.055100  0.027200  0.069100  1.0  0.0021
  C  C302  1  0.949100  0.994500  0.122600  1.0  0.1645
  C  C303  1  0.287500  0.987700  0.939200  1.0  0.6575
  C  C304  1  0.016700  0.925800  0.080300  1.0  0.1922
  C  C305  1  0.127000  0.297400  0.021000  1.0  0.3305
  C  C306  1  0.076900  0.347500  0.970910  1.0  -0.0244
  C  C307  1  0.030200  0.292500  0.969080  1.0  0.0029
  C  C308  1  0.183500  0.281200  0.057400  1.0  -0.0875
  C  C309  1  0.079800  0.398800  0.944620  1.0  0.6541
  C  C310  1  0.254500  0.210100  0.102100  1.0  -0.1557
  C  C311  1  0.194900  0.222800  0.069100  1.0  0.0026
  C  C312  1  0.300900  0.255500  0.122600  1.0  0.1647
  C  C313  1  0.962500  0.262300  0.939200  1.0  0.6563
  C  C314  1  0.233300  0.324200  0.080300  1.0  0.1928
  C  C315  1  0.127000  0.797400  0.521000  1.0  0.3305
  C  C316  1  0.076900  0.847500  0.470910  1.0  -0.0244
  C  C317  1  0.030200  0.792500  0.469080  1.0  0.0029
  C  C318  1  0.183500  0.781200  0.557400  1.0  -0.0875
  C  C319  1  0.079800  0.898800  0.444620  1.0  0.6541
  C  C320  1  0.254500  0.710100  0.602100  1.0  -0.1557
  C  C321  1  0.194900  0.722800  0.569100  1.0  0.0026
  C  C322  1  0.300900  0.755500  0.622600  1.0  0.1647
  C  C323  1  0.962500  0.762300  0.439200  1.0  0.6563
  C  C324  1  0.233300  0.824200  0.580300  1.0  0.1928
  C  C325  1  0.627000  0.297400  0.521000  1.0  0.3305
  C  C326  1  0.576900  0.347500  0.470910  1.0  -0.0244
  C  C327  1  0.530200  0.292500  0.469080  1.0  0.0029
  C  C328  1  0.683500  0.281200  0.557400  1.0  -0.0875
  C  C329  1  0.579800  0.398800  0.444620  1.0  0.6541
  C  C330  1  0.754500  0.210100  0.602100  1.0  -0.1557
  C  C331  1  0.694900  0.222800  0.569100  1.0  0.0026
  C  C332  1  0.800900  0.255500  0.622600  1.0  0.1647
  C  C333  1  0.462500  0.262300  0.439200  1.0  0.6563
  C  C334  1  0.733300  0.324200  0.580300  1.0  0.1928
  C  C335  1  0.627000  0.797400  0.021000  1.0  0.3305
  C  C336  1  0.576900  0.847500  0.970910  1.0  -0.0244
  C  C337  1  0.530200  0.792500  0.969080  1.0  0.0029
  C  C338  1  0.683500  0.781200  0.057400  1.0  -0.0875
  C  C339  1  0.579800  0.898800  0.944620  1.0  0.6541
  C  C340  1  0.754500  0.710100  0.102100  1.0  -0.1557
  C  C341  1  0.694900  0.722800  0.069100  1.0  0.0026
  C  C342  1  0.800900  0.755500  0.122600  1.0  0.1647
  C  C343  1  0.462500  0.762300  0.939200  1.0  0.6563
  C  C344  1  0.733300  0.824200  0.080300  1.0  0.1928
  C  C345  1  0.873000  0.547400  0.271000  1.0  0.33
  C  C346  1  0.923100  0.597500  0.220910  1.0  -0.0244
  C  C347  1  0.969800  0.542500  0.219080  1.0  0.0041
  C  C348  1  0.816500  0.531200  0.307400  1.0  -0.0848
  C  C349  1  0.920200  0.648800  0.194620  1.0  0.6543
  C  C350  1  0.745500  0.460100  0.352100  1.0  -0.1563
  C  C351  1  0.805100  0.472800  0.319100  1.0  0.0023
  C  C352  1  0.699100  0.505500  0.372600  1.0  0.1644
  C  C353  1  0.037500  0.512300  0.189200  1.0  0.6574
  C  C354  1  0.766700  0.574200  0.330300  1.0  0.1926
  C  C355  1  0.873000  0.047400  0.771000  1.0  0.33
  C  C356  1  0.923100  0.097500  0.720910  1.0  -0.0244
  C  C357  1  0.969800  0.042500  0.719080  1.0  0.0041
  C  C358  1  0.816500  0.031200  0.807400  1.0  -0.0848
  C  C359  1  0.920200  0.148800  0.694620  1.0  0.6543
  C  C360  1  0.745500  0.960100  0.852100  1.0  -0.1563
  C  C361  1  0.805100  0.972800  0.819100  1.0  0.0023
  C  C362  1  0.699100  0.005500  0.872600  1.0  0.1644
  C  C363  1  0.037500  0.012300  0.689200  1.0  0.6574
  C  C364  1  0.766700  0.074200  0.830300  1.0  0.1926
  C  C365  1  0.373000  0.547400  0.771000  1.0  0.33
  C  C366  1  0.423100  0.597500  0.720910  1.0  -0.0244
  C  C367  1  0.469800  0.542500  0.719080  1.0  0.0041
  C  C368  1  0.316500  0.531200  0.807400  1.0  -0.0848
  C  C369  1  0.420200  0.648800  0.694620  1.0  0.6543
  C  C370  1  0.245500  0.460100  0.852100  1.0  -0.1563
  C  C371  1  0.305100  0.472800  0.819100  1.0  0.0023
  C  C372  1  0.199100  0.505500  0.872600  1.0  0.1644
  C  C373  1  0.537500  0.512300  0.689200  1.0  0.6574
  C  C374  1  0.266700  0.574200  0.830300  1.0  0.1926
  C  C375  1  0.373000  0.047400  0.271000  1.0  0.33
  C  C376  1  0.423100  0.097500  0.220910  1.0  -0.0244
  C  C377  1  0.469800  0.042500  0.219080  1.0  0.0041
  C  C378  1  0.316500  0.031200  0.307400  1.0  -0.0848
  C  C379  1  0.420200  0.148800  0.194620  1.0  0.6543
  C  C380  1  0.245500  0.960100  0.352100  1.0  -0.1563
  C  C381  1  0.305100  0.972800  0.319100  1.0  0.0023
  C  C382  1  0.199100  0.005500  0.372600  1.0  0.1644
  C  C383  1  0.537500  0.012300  0.189200  1.0  0.6574
  C  C384  1  0.266700  0.074200  0.330300  1.0  0.1926
  C  C385  1  0.377000  0.702600  0.271000  1.0  0.3305
  C  C386  1  0.326900  0.652500  0.220910  1.0  -0.0245
  C  C387  1  0.280200  0.707500  0.219080  1.0  0.0034
  C  C388  1  0.433500  0.718800  0.307400  1.0  -0.088
  C  C389  1  0.329800  0.601200  0.194620  1.0  0.6535
  C  C390  1  0.504500  0.789900  0.352100  1.0  -0.1552
  C  C391  1  0.444900  0.777200  0.319100  1.0  0.0027
  C  C392  1  0.550900  0.744500  0.372600  1.0  0.1645
  C  C393  1  0.212500  0.737700  0.189200  1.0  0.6567
  C  C394  1  0.483300  0.675800  0.330300  1.0  0.1928
  C  C395  1  0.377000  0.202600  0.771000  1.0  0.3305
  C  C396  1  0.326900  0.152500  0.720910  1.0  -0.0245
  C  C397  1  0.280200  0.207500  0.719080  1.0  0.0034
  C  C398  1  0.433500  0.218800  0.807400  1.0  -0.088
  C  C399  1  0.329800  0.101200  0.694620  1.0  0.6535
  C  C400  1  0.504500  0.289900  0.852100  1.0  -0.1552
  C  C401  1  0.444900  0.277200  0.819100  1.0  0.0027
  C  C402  1  0.550900  0.244500  0.872600  1.0  0.1645
  C  C403  1  0.212500  0.237700  0.689200  1.0  0.6567
  C  C404  1  0.483300  0.175800  0.830300  1.0  0.1928
  C  C405  1  0.877000  0.702600  0.771000  1.0  0.3305
  C  C406  1  0.826900  0.652500  0.720910  1.0  -0.0245
  C  C407  1  0.780200  0.707500  0.719080  1.0  0.0034
  C  C408  1  0.933500  0.718800  0.807400  1.0  -0.088
  C  C409  1  0.829800  0.601200  0.694620  1.0  0.6535
  C  C410  1  0.004500  0.789900  0.852100  1.0  -0.1552
  C  C411  1  0.944900  0.777200  0.819100  1.0  0.0027
  C  C412  1  0.050900  0.744500  0.872600  1.0  0.1645
  C  C413  1  0.712500  0.737700  0.689200  1.0  0.6567
  C  C414  1  0.983300  0.675800  0.830300  1.0  0.1928
  C  C415  1  0.877000  0.202600  0.271000  1.0  0.3305
  C  C416  1  0.826900  0.152500  0.220910  1.0  -0.0245
  C  C417  1  0.780200  0.207500  0.219080  1.0  0.0034
  C  C418  1  0.933500  0.218800  0.307400  1.0  -0.088
  C  C419  1  0.829800  0.101200  0.194620  1.0  0.6535
  C  C420  1  0.004500  0.289900  0.352100  1.0  -0.1552
  C  C421  1  0.944900  0.277200  0.319100  1.0  0.0027
  C  C422  1  0.050900  0.244500  0.372600  1.0  0.1645
  C  C423  1  0.712500  0.237700  0.189200  1.0  0.6567
  C  C424  1  0.983300  0.175800  0.330300  1.0  0.1928
  C  C425  1  0.377000  0.547400  0.979000  1.0  0.3303
  C  C426  1  0.326900  0.597500  0.029090  1.0  -0.0241
  C  C427  1  0.280200  0.542500  0.030920  1.0  0.0029
  C  C428  1  0.433500  0.531200  0.942600  1.0  -0.0868
  C  C429  1  0.329800  0.648800  0.055380  1.0  0.6541
  C  C430  1  0.504500  0.460100  0.897900  1.0  -0.1555
  C  C431  1  0.444900  0.472800  0.930900  1.0  0.002
  C  C432  1  0.550900  0.505500  0.877400  1.0  0.1649
  C  C433  1  0.212500  0.512300  0.060800  1.0  0.6568
  C  C434  1  0.483300  0.574200  0.919700  1.0  0.1927
  C  C435  1  0.377000  0.047400  0.479000  1.0  0.3303
  C  C436  1  0.326900  0.097500  0.529090  1.0  -0.0241
  C  C437  1  0.280200  0.042500  0.530920  1.0  0.0029
  C  C438  1  0.433500  0.031200  0.442600  1.0  -0.0868
  C  C439  1  0.329800  0.148800  0.555380  1.0  0.6541
  C  C440  1  0.504500  0.960100  0.397900  1.0  -0.1555
  C  C441  1  0.444900  0.972800  0.430900  1.0  0.002
  C  C442  1  0.550900  0.005500  0.377400  1.0  0.1649
  C  C443  1  0.212500  0.012300  0.560800  1.0  0.6568
  C  C444  1  0.483300  0.074200  0.419700  1.0  0.1927
  C  C445  1  0.877000  0.547400  0.479000  1.0  0.3303
  C  C446  1  0.826900  0.597500  0.529090  1.0  -0.0241
  C  C447  1  0.780200  0.542500  0.530920  1.0  0.0029
  C  C448  1  0.933500  0.531200  0.442600  1.0  -0.0868
  C  C449  1  0.829800  0.648800  0.555380  1.0  0.6541
  C  C450  1  0.004500  0.460100  0.397900  1.0  -0.1555
  C  C451  1  0.944900  0.472800  0.430900  1.0  0.002
  C  C452  1  0.050900  0.505500  0.377400  1.0  0.1649
  C  C453  1  0.712500  0.512300  0.560800  1.0  0.6568
  C  C454  1  0.983300  0.574200  0.419700  1.0  0.1927
  C  C455  1  0.877000  0.047400  0.979000  1.0  0.3303
  C  C456  1  0.826900  0.097500  0.029090  1.0  -0.0241
  C  C457  1  0.780200  0.042500  0.030920  1.0  0.0029
  C  C458  1  0.933500  0.031200  0.942600  1.0  -0.0868
  C  C459  1  0.829800  0.148800  0.055380  1.0  0.6541
  C  C460  1  0.004500  0.960100  0.897900  1.0  -0.1555
  C  C461  1  0.944900  0.972800  0.930900  1.0  0.002
  C  C462  1  0.050900  0.005500  0.877400  1.0  0.1649
  C  C463  1  0.712500  0.012300  0.060800  1.0  0.6568
  C  C464  1  0.983300  0.074200  0.919700  1.0  0.1927
  C  C465  1  0.873000  0.702600  0.979000  1.0  0.3306
  C  C466  1  0.923100  0.652500  0.029090  1.0  -0.0244
  C  C467  1  0.969800  0.707500  0.030920  1.0  0.0042
  C  C468  1  0.816500  0.718800  0.942600  1.0  -0.085
  C  C469  1  0.920200  0.601200  0.055380  1.0  0.6544
  C  C470  1  0.745500  0.789900  0.897900  1.0  -0.1561
  C  C471  1  0.805100  0.777200  0.930900  1.0  0.002
  C  C472  1  0.699100  0.744500  0.877400  1.0  0.1652
  C  C473  1  0.037500  0.737700  0.060800  1.0  0.6584
  C  C474  1  0.766700  0.675800  0.919700  1.0  0.1923
  C  C475  1  0.873000  0.202600  0.479000  1.0  0.3306
  C  C476  1  0.923100  0.152500  0.529090  1.0  -0.0244
  C  C477  1  0.969800  0.207500  0.530920  1.0  0.0042
  C  C478  1  0.816500  0.218800  0.442600  1.0  -0.085
  C  C479  1  0.920200  0.101200  0.555380  1.0  0.6544
  C  C480  1  0.745500  0.289900  0.397900  1.0  -0.1561
  C  C481  1  0.805100  0.277200  0.430900  1.0  0.002
  C  C482  1  0.699100  0.244500  0.377400  1.0  0.1652
  C  C483  1  0.037500  0.237700  0.560800  1.0  0.6584
  C  C484  1  0.766700  0.175800  0.419700  1.0  0.1923
  C  C485  1  0.373000  0.702600  0.479000  1.0  0.3306
  C  C486  1  0.423100  0.652500  0.529090  1.0  -0.0244
  C  C487  1  0.469800  0.707500  0.530920  1.0  0.0042
  C  C488  1  0.316500  0.718800  0.442600  1.0  -0.085
  C  C489  1  0.420200  0.601200  0.555380  1.0  0.6544
  C  C490  1  0.245500  0.789900  0.397900  1.0  -0.1561
  C  C491  1  0.305100  0.777200  0.430900  1.0  0.002
  C  C492  1  0.199100  0.744500  0.377400  1.0  0.1652
  C  C493  1  0.537500  0.737700  0.560800  1.0  0.6584
  C  C494  1  0.266700  0.675800  0.419700  1.0  0.1923
  C  C495  1  0.373000  0.202600  0.979000  1.0  0.3306
  C  C496  1  0.423100  0.152500  0.029090  1.0  -0.0244
  C  C497  1  0.469800  0.207500  0.030920  1.0  0.0042
  C  C498  1  0.316500  0.218800  0.942600  1.0  -0.085
  C  C499  1  0.420200  0.101200  0.055380  1.0  0.6544
  C  C500  1  0.245500  0.289900  0.897900  1.0  -0.1561
  C  C501  1  0.305100  0.277200  0.930900  1.0  0.002
  C  C502  1  0.199100  0.244500  0.877400  1.0  0.1652
  C  C503  1  0.537500  0.237700  0.060800  1.0  0.6584
  C  C504  1  0.266700  0.175800  0.919700  1.0  0.1923
  N  N505  1  0.062600  0.489800  0.749200  1.0  -0.4809
  N  N506  1  0.138800  0.400100  0.745460  1.0  -0.4658
  N  N507  1  0.292700  0.438800  0.637920  1.0  -0.3095
  N  N508  1  0.062600  0.989800  0.249200  1.0  -0.4809
  N  N509  1  0.138800  0.900100  0.245460  1.0  -0.4658
  N  N510  1  0.292700  0.938800  0.137920  1.0  -0.3095
  N  N511  1  0.562600  0.489800  0.249200  1.0  -0.4809
  N  N512  1  0.638800  0.400100  0.245460  1.0  -0.4658
  N  N513  1  0.792700  0.438800  0.137920  1.0  -0.3095
  N  N514  1  0.562600  0.989800  0.749200  1.0  -0.4809
  N  N515  1  0.638800  0.900100  0.745460  1.0  -0.4658
  N  N516  1  0.792700  0.938800  0.637920  1.0  -0.3095
  N  N517  1  0.687400  0.260200  0.749200  1.0  -0.4824
  N  N518  1  0.611200  0.349900  0.745460  1.0  -0.466
  N  N519  1  0.457300  0.311200  0.637920  1.0  -0.3081
  N  N520  1  0.687400  0.760200  0.249200  1.0  -0.4824
  N  N521  1  0.611200  0.849900  0.245460  1.0  -0.466
  N  N522  1  0.457300  0.811200  0.137920  1.0  -0.3081
  N  N523  1  0.187400  0.260200  0.249200  1.0  -0.4824
  N  N524  1  0.111200  0.349900  0.245460  1.0  -0.466
  N  N525  1  0.957300  0.311200  0.137920  1.0  -0.3081
  N  N526  1  0.187400  0.760200  0.749200  1.0  -0.4824
  N  N527  1  0.111200  0.849900  0.745460  1.0  -0.466
  N  N528  1  0.957300  0.811200  0.637920  1.0  -0.3081
  N  N529  1  0.687400  0.489800  0.000800  1.0  -0.4828
  N  N530  1  0.611200  0.400100  0.004540  1.0  -0.4672
  N  N531  1  0.457300  0.438800  0.112080  1.0  -0.312
  N  N532  1  0.687400  0.989800  0.500800  1.0  -0.4828
  N  N533  1  0.611200  0.900100  0.504540  1.0  -0.4672
  N  N534  1  0.457300  0.938800  0.612080  1.0  -0.312
  N  N535  1  0.187400  0.489800  0.500800  1.0  -0.4828
  N  N536  1  0.111200  0.400100  0.504540  1.0  -0.4672
  N  N537  1  0.957300  0.438800  0.612080  1.0  -0.312
  N  N538  1  0.187400  0.989800  0.000800  1.0  -0.4828
  N  N539  1  0.111200  0.900100  0.004540  1.0  -0.4672
  N  N540  1  0.957300  0.938800  0.112080  1.0  -0.312
  N  N541  1  0.062600  0.260200  0.000800  1.0  -0.4793
  N  N542  1  0.138800  0.349900  0.004540  1.0  -0.4651
  N  N543  1  0.292700  0.311200  0.112080  1.0  -0.3099
  N  N544  1  0.062600  0.760200  0.500800  1.0  -0.4793
  N  N545  1  0.138800  0.849900  0.504540  1.0  -0.4651
  N  N546  1  0.292700  0.811200  0.612080  1.0  -0.3099
  N  N547  1  0.562600  0.260200  0.500800  1.0  -0.4793
  N  N548  1  0.638800  0.349900  0.504540  1.0  -0.4651
  N  N549  1  0.792700  0.311200  0.612080  1.0  -0.3099
  N  N550  1  0.562600  0.760200  0.000800  1.0  -0.4793
  N  N551  1  0.638800  0.849900  0.004540  1.0  -0.4651
  N  N552  1  0.792700  0.811200  0.112080  1.0  -0.3099
  N  N553  1  0.937400  0.510200  0.250800  1.0  -0.4817
  N  N554  1  0.861200  0.599900  0.254540  1.0  -0.4661
  N  N555  1  0.707300  0.561200  0.362080  1.0  -0.3096
  N  N556  1  0.937400  0.010200  0.750800  1.0  -0.4817
  N  N557  1  0.861200  0.099900  0.754540  1.0  -0.4661
  N  N558  1  0.707300  0.061200  0.862080  1.0  -0.3096
  N  N559  1  0.437400  0.510200  0.750800  1.0  -0.4817
  N  N560  1  0.361200  0.599900  0.754540  1.0  -0.4661
  N  N561  1  0.207300  0.561200  0.862080  1.0  -0.3096
  N  N562  1  0.437400  0.010200  0.250800  1.0  -0.4817
  N  N563  1  0.361200  0.099900  0.254540  1.0  -0.4661
  N  N564  1  0.207300  0.061200  0.362080  1.0  -0.3096
  N  N565  1  0.312600  0.739800  0.250800  1.0  -0.4811
  N  N566  1  0.388800  0.650100  0.254540  1.0  -0.4656
  N  N567  1  0.542700  0.688800  0.362080  1.0  -0.3095
  N  N568  1  0.312600  0.239800  0.750800  1.0  -0.4811
  N  N569  1  0.388800  0.150100  0.754540  1.0  -0.4656
  N  N570  1  0.542700  0.188800  0.862080  1.0  -0.3095
  N  N571  1  0.812600  0.739800  0.750800  1.0  -0.4811
  N  N572  1  0.888800  0.650100  0.754540  1.0  -0.4656
  N  N573  1  0.042700  0.688800  0.862080  1.0  -0.3095
  N  N574  1  0.812600  0.239800  0.250800  1.0  -0.4811
  N  N575  1  0.888800  0.150100  0.254540  1.0  -0.4656
  N  N576  1  0.042700  0.188800  0.362080  1.0  -0.3095
  N  N577  1  0.312600  0.510200  0.999200  1.0  -0.4804
  N  N578  1  0.388800  0.599900  0.995460  1.0  -0.4647
  N  N579  1  0.542700  0.561200  0.887920  1.0  -0.3088
  N  N580  1  0.312600  0.010200  0.499200  1.0  -0.4804
  N  N581  1  0.388800  0.099900  0.495460  1.0  -0.4647
  N  N582  1  0.542700  0.061200  0.387920  1.0  -0.3088
  N  N583  1  0.812600  0.510200  0.499200  1.0  -0.4804
  N  N584  1  0.888800  0.599900  0.495460  1.0  -0.4647
  N  N585  1  0.042700  0.561200  0.387920  1.0  -0.3088
  N  N586  1  0.812600  0.010200  0.999200  1.0  -0.4804
  N  N587  1  0.888800  0.099900  0.995460  1.0  -0.4647
  N  N588  1  0.042700  0.061200  0.887920  1.0  -0.3088
  N  N589  1  0.937400  0.739800  0.999200  1.0  -0.4825
  N  N590  1  0.861200  0.650100  0.995460  1.0  -0.4676
  N  N591  1  0.707300  0.688800  0.887920  1.0  -0.3116
  N  N592  1  0.937400  0.239800  0.499200  1.0  -0.4825
  N  N593  1  0.861200  0.150100  0.495460  1.0  -0.4676
  N  N594  1  0.707300  0.188800  0.387920  1.0  -0.3116
  N  N595  1  0.437400  0.739800  0.499200  1.0  -0.4825
  N  N596  1  0.361200  0.650100  0.495460  1.0  -0.4676
  N  N597  1  0.207300  0.688800  0.387920  1.0  -0.3116
  N  N598  1  0.437400  0.239800  0.999200  1.0  -0.4825
  N  N599  1  0.361200  0.150100  0.995460  1.0  -0.4676
  N  N600  1  0.207300  0.188800  0.887920  1.0  -0.3116
  Cl  Cl601  1  0.125000  0.625000  0.754200  1.0  -0.2237
  Cl  Cl602  1  0.125000  0.125000  0.254200  1.0  -0.2237
  Cl  Cl603  1  0.625000  0.125000  0.754200  1.0  -0.2237
  Cl  Cl604  1  0.625000  0.625000  0.254200  1.0  -0.2237
  Cl  Cl605  1  0.625000  0.625000  0.995800  1.0  -0.2231
  Cl  Cl606  1  0.625000  0.125000  0.495800  1.0  -0.2231
  Cl  Cl607  1  0.125000  0.125000  0.995800  1.0  -0.2231
  Cl  Cl608  1  0.125000  0.625000  0.495800  1.0  -0.2231
  Cl  Cl609  1  0.875000  0.375000  0.245800  1.0  -0.2234
  Cl  Cl610  1  0.875000  0.875000  0.745800  1.0  -0.2234
  Cl  Cl611  1  0.375000  0.875000  0.245800  1.0  -0.2234
  Cl  Cl612  1  0.375000  0.375000  0.745800  1.0  -0.2234
  Cl  Cl613  1  0.375000  0.375000  0.004200  1.0  -0.2238
  Cl  Cl614  1  0.375000  0.875000  0.504200  1.0  -0.2238
  Cl  Cl615  1  0.875000  0.875000  0.004200  1.0  -0.2238
  Cl  Cl616  1  0.875000  0.375000  0.504200  1.0  -0.2238
  O  O617  1  0.937000  0.541200  0.803130  1.0  -0.6017
  O  O618  1  0.938000  0.463400  0.841690  1.0  -0.6893
  O  O619  1  0.018700  0.346100  0.833610  1.0  -0.693
  O  O620  1  0.152600  0.312400  0.796770  1.0  -0.5785
  O  O621  1  0.937000  0.041200  0.303130  1.0  -0.6017
  O  O622  1  0.938000  0.963400  0.341690  1.0  -0.6893
  O  O623  1  0.018700  0.846100  0.333610  1.0  -0.693
  O  O624  1  0.152600  0.812400  0.296770  1.0  -0.5785
  O  O625  1  0.437000  0.541200  0.303130  1.0  -0.6017
  O  O626  1  0.438000  0.463400  0.341690  1.0  -0.6893
  O  O627  1  0.518700  0.346100  0.333610  1.0  -0.693
  O  O628  1  0.652600  0.312400  0.296770  1.0  -0.5785
  O  O629  1  0.437000  0.041200  0.803130  1.0  -0.6017
  O  O630  1  0.438000  0.963400  0.841690  1.0  -0.6893
  O  O631  1  0.518700  0.846100  0.833610  1.0  -0.693
  O  O632  1  0.652600  0.812400  0.796770  1.0  -0.5785
  O  O633  1  0.813000  0.208800  0.803130  1.0  -0.6025
  O  O634  1  0.812000  0.286600  0.841690  1.0  -0.6887
  O  O635  1  0.731300  0.403900  0.833610  1.0  -0.6941
  O  O636  1  0.597400  0.437600  0.796770  1.0  -0.578
  O  O637  1  0.813000  0.708800  0.303130  1.0  -0.6025
  O  O638  1  0.812000  0.786600  0.341690  1.0  -0.6887
  O  O639  1  0.731300  0.903900  0.333610  1.0  -0.6941
  O  O640  1  0.597400  0.937600  0.296770  1.0  -0.578
  O  O641  1  0.313000  0.208800  0.303130  1.0  -0.6025
  O  O642  1  0.312000  0.286600  0.341690  1.0  -0.6887
  O  O643  1  0.231300  0.403900  0.333610  1.0  -0.6941
  O  O644  1  0.097400  0.437600  0.296770  1.0  -0.578
  O  O645  1  0.313000  0.708800  0.803130  1.0  -0.6025
  O  O646  1  0.312000  0.786600  0.841690  1.0  -0.6887
  O  O647  1  0.231300  0.903900  0.833610  1.0  -0.6941
  O  O648  1  0.097400  0.937600  0.796770  1.0  -0.578
  O  O649  1  0.813000  0.541200  0.946870  1.0  -0.603
  O  O650  1  0.812000  0.463400  0.908310  1.0  -0.6894
  O  O651  1  0.731300  0.346100  0.916390  1.0  -0.6941
  O  O652  1  0.597400  0.312400  0.953230  1.0  -0.578
  O  O653  1  0.813000  0.041200  0.446870  1.0  -0.603
  O  O654  1  0.812000  0.963400  0.408310  1.0  -0.6894
  O  O655  1  0.731300  0.846100  0.416390  1.0  -0.6941
  O  O656  1  0.597400  0.812400  0.453230  1.0  -0.578
  O  O657  1  0.313000  0.541200  0.446870  1.0  -0.603
  O  O658  1  0.312000  0.463400  0.408310  1.0  -0.6894
  O  O659  1  0.231300  0.346100  0.416390  1.0  -0.6941
  O  O660  1  0.097400  0.312400  0.453230  1.0  -0.578
  O  O661  1  0.313000  0.041200  0.946870  1.0  -0.603
  O  O662  1  0.312000  0.963400  0.908310  1.0  -0.6894
  O  O663  1  0.231300  0.846100  0.916390  1.0  -0.6941
  O  O664  1  0.097400  0.812400  0.953230  1.0  -0.578
  O  O665  1  0.937000  0.208800  0.946870  1.0  -0.6023
  O  O666  1  0.938000  0.286600  0.908310  1.0  -0.6899
  O  O667  1  0.018700  0.403900  0.916390  1.0  -0.6944
  O  O668  1  0.152600  0.437600  0.953230  1.0  -0.5785
  O  O669  1  0.937000  0.708800  0.446870  1.0  -0.6023
  O  O670  1  0.938000  0.786600  0.408310  1.0  -0.6899
  O  O671  1  0.018700  0.903900  0.416390  1.0  -0.6944
  O  O672  1  0.152600  0.937600  0.453230  1.0  -0.5785
  O  O673  1  0.437000  0.208800  0.446870  1.0  -0.6023
  O  O674  1  0.438000  0.286600  0.408310  1.0  -0.6899
  O  O675  1  0.518700  0.403900  0.416390  1.0  -0.6944
  O  O676  1  0.652600  0.437600  0.453230  1.0  -0.5785
  O  O677  1  0.437000  0.708800  0.946870  1.0  -0.6023
  O  O678  1  0.438000  0.786600  0.908310  1.0  -0.6899
  O  O679  1  0.518700  0.903900  0.916390  1.0  -0.6944
  O  O680  1  0.652600  0.937600  0.953230  1.0  -0.5785
  O  O681  1  0.063000  0.458800  0.196870  1.0  -0.6027
  O  O682  1  0.062000  0.536600  0.158310  1.0  -0.6894
  O  O683  1  0.981300  0.653900  0.166390  1.0  -0.6941
  O  O684  1  0.847400  0.687600  0.203230  1.0  -0.5776
  O  O685  1  0.063000  0.958800  0.696870  1.0  -0.6027
  O  O686  1  0.062000  0.036600  0.658310  1.0  -0.6894
  O  O687  1  0.981300  0.153900  0.666390  1.0  -0.6941
  O  O688  1  0.847400  0.187600  0.703230  1.0  -0.5776
  O  O689  1  0.563000  0.458800  0.696870  1.0  -0.6027
  O  O690  1  0.562000  0.536600  0.658310  1.0  -0.6894
  O  O691  1  0.481300  0.653900  0.666390  1.0  -0.6941
  O  O692  1  0.347400  0.687600  0.703230  1.0  -0.5776
  O  O693  1  0.563000  0.958800  0.196870  1.0  -0.6027
  O  O694  1  0.562000  0.036600  0.158310  1.0  -0.6894
  O  O695  1  0.481300  0.153900  0.166390  1.0  -0.6941
  O  O696  1  0.347400  0.187600  0.203230  1.0  -0.5776
  O  O697  1  0.187000  0.791200  0.196870  1.0  -0.6021
  O  O698  1  0.188000  0.713400  0.158310  1.0  -0.6894
  O  O699  1  0.268700  0.596100  0.166390  1.0  -0.6938
  O  O700  1  0.402600  0.562400  0.203230  1.0  -0.578
  O  O701  1  0.187000  0.291200  0.696870  1.0  -0.6021
  O  O702  1  0.188000  0.213400  0.658310  1.0  -0.6894
  O  O703  1  0.268700  0.096100  0.666390  1.0  -0.6938
  O  O704  1  0.402600  0.062400  0.703230  1.0  -0.578
  O  O705  1  0.687000  0.791200  0.696870  1.0  -0.6021
  O  O706  1  0.688000  0.713400  0.658310  1.0  -0.6894
  O  O707  1  0.768700  0.596100  0.666390  1.0  -0.6938
  O  O708  1  0.902600  0.562400  0.703230  1.0  -0.578
  O  O709  1  0.687000  0.291200  0.196870  1.0  -0.6021
  O  O710  1  0.688000  0.213400  0.158310  1.0  -0.6894
  O  O711  1  0.768700  0.096100  0.166390  1.0  -0.6938
  O  O712  1  0.902600  0.062400  0.203230  1.0  -0.578
  O  O713  1  0.187000  0.458800  0.053130  1.0  -0.602
  O  O714  1  0.188000  0.536600  0.091690  1.0  -0.689
  O  O715  1  0.268700  0.653900  0.083610  1.0  -0.6942
  O  O716  1  0.402600  0.687600  0.046770  1.0  -0.5789
  O  O717  1  0.187000  0.958800  0.553130  1.0  -0.602
  O  O718  1  0.188000  0.036600  0.591690  1.0  -0.689
  O  O719  1  0.268700  0.153900  0.583610  1.0  -0.6942
  O  O720  1  0.402600  0.187600  0.546770  1.0  -0.5789
  O  O721  1  0.687000  0.458800  0.553130  1.0  -0.602
  O  O722  1  0.688000  0.536600  0.591690  1.0  -0.689
  O  O723  1  0.768700  0.653900  0.583610  1.0  -0.6942
  O  O724  1  0.902600  0.687600  0.546770  1.0  -0.5789
  O  O725  1  0.687000  0.958800  0.053130  1.0  -0.602
  O  O726  1  0.688000  0.036600  0.091690  1.0  -0.689
  O  O727  1  0.768700  0.153900  0.083610  1.0  -0.6942
  O  O728  1  0.902600  0.187600  0.046770  1.0  -0.5789
  O  O729  1  0.063000  0.791200  0.053130  1.0  -0.6026
  O  O730  1  0.062000  0.713400  0.091690  1.0  -0.6895
  O  O731  1  0.981300  0.596100  0.083610  1.0  -0.6938
  O  O732  1  0.847400  0.562400  0.046770  1.0  -0.5784
  O  O733  1  0.063000  0.291200  0.553130  1.0  -0.6026
  O  O734  1  0.062000  0.213400  0.591690  1.0  -0.6895
  O  O735  1  0.981300  0.096100  0.583610  1.0  -0.6938
  O  O736  1  0.847400  0.062400  0.546770  1.0  -0.5784
  O  O737  1  0.563000  0.791200  0.553130  1.0  -0.6026
  O  O738  1  0.562000  0.713400  0.591690  1.0  -0.6895
  O  O739  1  0.481300  0.596100  0.583610  1.0  -0.6938
  O  O740  1  0.347400  0.562400  0.546770  1.0  -0.5784
  O  O741  1  0.563000  0.291200  0.053130  1.0  -0.6026
  O  O742  1  0.562000  0.213400  0.091690  1.0  -0.6895
  O  O743  1  0.481300  0.096100  0.083610  1.0  -0.6938
  O  O744  1  0.347400  0.062400  0.046770  1.0  -0.5784
