# generated using pymatgen
data_TbZn6H16C40N12(ClO8)2
_symmetry_space_group_name_H-M   'P 1'
_cell_length_a   12.16780000
_cell_length_b   22.69100000
_cell_length_c   34.39380000
_cell_angle_alpha   90.00000000
_cell_angle_beta   90.00000000
_cell_angle_gamma   90.00000000
_symmetry_Int_Tables_number   1
_chemical_formula_structural   TbZn6H16C40N12(ClO8)2
_chemical_formula_sum   'Tb8 Zn48 H128 C320 N96 Cl16 O128'
_cell_volume   9496.11269591
_cell_formula_units_Z   8
loop_
 _symmetry_equiv_pos_site_id
 _symmetry_equiv_pos_as_xyz
  1  'x, y, z'
loop_
 _atom_site_type_symbol
 _atom_site_label
 _atom_site_symmetry_multiplicity
 _atom_site_fract_x
 _atom_site_fract_y
 _atom_site_fract_z
 _atom_site_occupancy
 _atom_site_charge
  Tb  Tb1  1  0.875000  0.375000  0.875000  1.0  2.216
  Tb  Tb2  1  0.875000  0.875000  0.375000  1.0  2.216
  Tb  Tb3  1  0.375000  0.375000  0.375000  1.0  2.216
  Tb  Tb4  1  0.375000  0.875000  0.875000  1.0  2.216
  Tb  Tb5  1  0.125000  0.625000  0.125000  1.0  2.216
  Tb  Tb6  1  0.125000  0.125000  0.625000  1.0  2.216
  Tb  Tb7  1  0.625000  0.625000  0.625000  1.0  2.216
  Tb  Tb8  1  0.625000  0.125000  0.125000  1.0  2.216
  Zn  Zn9  1  0.992810  0.575130  0.752010  1.0  0.9274
  Zn  Zn10  1  0.992810  0.075130  0.252010  1.0  0.9274
  Zn  Zn11  1  0.492810  0.575130  0.252010  1.0  0.9274
  Zn  Zn12  1  0.492810  0.075130  0.752010  1.0  0.9274
  Zn  Zn13  1  0.757190  0.174870  0.752010  1.0  0.9277
  Zn  Zn14  1  0.757190  0.674870  0.252010  1.0  0.9277
  Zn  Zn15  1  0.257190  0.174870  0.252010  1.0  0.9277
  Zn  Zn16  1  0.257190  0.674870  0.752010  1.0  0.9277
  Zn  Zn17  1  0.757190  0.575130  0.997990  1.0  0.9276
  Zn  Zn18  1  0.757190  0.075130  0.497990  1.0  0.9276
  Zn  Zn19  1  0.257190  0.575130  0.497990  1.0  0.9276
  Zn  Zn20  1  0.257190  0.075130  0.997990  1.0  0.9276
  Zn  Zn21  1  0.992810  0.174870  0.997990  1.0  0.9278
  Zn  Zn22  1  0.992810  0.674870  0.497990  1.0  0.9278
  Zn  Zn23  1  0.492810  0.174870  0.497990  1.0  0.9278
  Zn  Zn24  1  0.492810  0.674870  0.997990  1.0  0.9278
  Zn  Zn25  1  0.007190  0.424870  0.247990  1.0  0.9279
  Zn  Zn26  1  0.007190  0.924870  0.747990  1.0  0.9279
  Zn  Zn27  1  0.507190  0.424870  0.747990  1.0  0.9279
  Zn  Zn28  1  0.507190  0.924870  0.247990  1.0  0.9279
  Zn  Zn29  1  0.242810  0.825130  0.247990  1.0  0.9275
  Zn  Zn30  1  0.242810  0.325130  0.747990  1.0  0.9275
  Zn  Zn31  1  0.742810  0.825130  0.747990  1.0  0.9275
  Zn  Zn32  1  0.742810  0.325130  0.247990  1.0  0.9275
  Zn  Zn33  1  0.242810  0.424870  0.002010  1.0  0.9277
  Zn  Zn34  1  0.242810  0.924870  0.502010  1.0  0.9277
  Zn  Zn35  1  0.742810  0.424870  0.502010  1.0  0.9277
  Zn  Zn36  1  0.742810  0.924870  0.002010  1.0  0.9277
  Zn  Zn37  1  0.007190  0.825130  0.002010  1.0  0.9274
  Zn  Zn38  1  0.007190  0.325130  0.502010  1.0  0.9274
  Zn  Zn39  1  0.507190  0.825130  0.502010  1.0  0.9274
  Zn  Zn40  1  0.507190  0.325130  0.002010  1.0  0.9274
  Zn  Zn41  1  0.375000  0.375000  0.606320  1.0  0.7722
  Zn  Zn42  1  0.375000  0.875000  0.106320  1.0  0.7722
  Zn  Zn43  1  0.875000  0.375000  0.106320  1.0  0.7722
  Zn  Zn44  1  0.875000  0.875000  0.606320  1.0  0.7722
  Zn  Zn45  1  0.375000  0.375000  0.143680  1.0  0.7684
  Zn  Zn46  1  0.375000  0.875000  0.643680  1.0  0.7684
  Zn  Zn47  1  0.875000  0.375000  0.643680  1.0  0.7684
  Zn  Zn48  1  0.875000  0.875000  0.143680  1.0  0.7684
  Zn  Zn49  1  0.625000  0.625000  0.393680  1.0  0.7684
  Zn  Zn50  1  0.625000  0.125000  0.893680  1.0  0.7684
  Zn  Zn51  1  0.125000  0.625000  0.893680  1.0  0.7684
  Zn  Zn52  1  0.125000  0.125000  0.393680  1.0  0.7684
  Zn  Zn53  1  0.625000  0.625000  0.856320  1.0  0.7722
  Zn  Zn54  1  0.625000  0.125000  0.356320  1.0  0.7722
  Zn  Zn55  1  0.125000  0.625000  0.356320  1.0  0.7722
  Zn  Zn56  1  0.125000  0.125000  0.856320  1.0  0.7722
  H  H57  1  0.260700  0.579200  0.639100  1.0  0.105
  H  H58  1  0.164300  0.557700  0.695400  1.0  0.0899
  H  H59  1  0.341700  0.504500  0.605200  1.0  0.0646
  H  H60  1  0.227300  0.387300  0.677400  1.0  0.0761
  H  H61  1  0.260700  0.079200  0.139100  1.0  0.105
  H  H62  1  0.164300  0.057700  0.195400  1.0  0.0899
  H  H63  1  0.341700  0.004500  0.105200  1.0  0.0646
  H  H64  1  0.227300  0.887300  0.177400  1.0  0.0761
  H  H65  1  0.760700  0.579200  0.139100  1.0  0.105
  H  H66  1  0.664300  0.557700  0.195400  1.0  0.0899
  H  H67  1  0.841700  0.504500  0.105200  1.0  0.0646
  H  H68  1  0.727300  0.387300  0.177400  1.0  0.0761
  H  H69  1  0.760700  0.079200  0.639100  1.0  0.105
  H  H70  1  0.664300  0.057700  0.695400  1.0  0.0899
  H  H71  1  0.841700  0.004500  0.605200  1.0  0.0646
  H  H72  1  0.727300  0.887300  0.677400  1.0  0.0761
  H  H73  1  0.489300  0.170800  0.639100  1.0  0.1047
  H  H74  1  0.585700  0.192300  0.695400  1.0  0.0905
  H  H75  1  0.408300  0.245500  0.605200  1.0  0.0657
  H  H76  1  0.522700  0.362700  0.677400  1.0  0.0772
  H  H77  1  0.489300  0.670800  0.139100  1.0  0.1047
  H  H78  1  0.585700  0.692300  0.195400  1.0  0.0905
  H  H79  1  0.408300  0.745500  0.105200  1.0  0.0657
  H  H80  1  0.522700  0.862700  0.177400  1.0  0.0772
  H  H81  1  0.989300  0.170800  0.139100  1.0  0.1047
  H  H82  1  0.085700  0.192300  0.195400  1.0  0.0905
  H  H83  1  0.908300  0.245500  0.105200  1.0  0.0657
  H  H84  1  0.022700  0.362700  0.177400  1.0  0.0772
  H  H85  1  0.989300  0.670800  0.639100  1.0  0.1047
  H  H86  1  0.085700  0.692300  0.695400  1.0  0.0905
  H  H87  1  0.908300  0.745500  0.605200  1.0  0.0657
  H  H88  1  0.022700  0.862700  0.677400  1.0  0.0772
  H  H89  1  0.489300  0.579200  0.110900  1.0  0.1042
  H  H90  1  0.585700  0.557700  0.054600  1.0  0.0897
  H  H91  1  0.408300  0.504500  0.144800  1.0  0.0644
  H  H92  1  0.522700  0.387300  0.072600  1.0  0.0778
  H  H93  1  0.489300  0.079200  0.610900  1.0  0.1042
  H  H94  1  0.585700  0.057700  0.554600  1.0  0.0897
  H  H95  1  0.408300  0.004500  0.644800  1.0  0.0644
  H  H96  1  0.522700  0.887300  0.572600  1.0  0.0778
  H  H97  1  0.989300  0.579200  0.610900  1.0  0.1042
  H  H98  1  0.085700  0.557700  0.554600  1.0  0.0898
  H  H99  1  0.908300  0.504500  0.644800  1.0  0.0644
  H  H100  1  0.022700  0.387300  0.572600  1.0  0.0778
  H  H101  1  0.989300  0.079200  0.110900  1.0  0.1042
  H  H102  1  0.085700  0.057700  0.054600  1.0  0.0898
  H  H103  1  0.908300  0.004500  0.144800  1.0  0.0644
  H  H104  1  0.022700  0.887300  0.072600  1.0  0.0778
  H  H105  1  0.260700  0.170800  0.110900  1.0  0.1053
  H  H106  1  0.164300  0.192300  0.054600  1.0  0.0896
  H  H107  1  0.341700  0.245500  0.144800  1.0  0.0649
  H  H108  1  0.227300  0.362700  0.072600  1.0  0.0773
  H  H109  1  0.260700  0.670800  0.610900  1.0  0.1053
  H  H110  1  0.164300  0.692300  0.554600  1.0  0.0896
  H  H111  1  0.341700  0.745500  0.644800  1.0  0.0649
  H  H112  1  0.227300  0.862700  0.572600  1.0  0.0773
  H  H113  1  0.760700  0.170800  0.610900  1.0  0.1053
  H  H114  1  0.664300  0.192300  0.554600  1.0  0.0896
  H  H115  1  0.841700  0.245500  0.644800  1.0  0.0649
  H  H116  1  0.727300  0.362700  0.572600  1.0  0.0773
  H  H117  1  0.760700  0.670800  0.110900  1.0  0.1053
  H  H118  1  0.664300  0.692300  0.054600  1.0  0.0896
  H  H119  1  0.841700  0.745500  0.144800  1.0  0.0649
  H  H120  1  0.727300  0.862700  0.072600  1.0  0.0773
  H  H121  1  0.739300  0.420800  0.360900  1.0  0.1049
  H  H122  1  0.835700  0.442300  0.304600  1.0  0.09
  H  H123  1  0.658300  0.495500  0.394800  1.0  0.0654
  H  H124  1  0.772700  0.612700  0.322600  1.0  0.0776
  H  H125  1  0.739300  0.920800  0.860900  1.0  0.1049
  H  H126  1  0.835700  0.942300  0.804600  1.0  0.0899
  H  H127  1  0.658300  0.995500  0.894800  1.0  0.0654
  H  H128  1  0.772700  0.112700  0.822600  1.0  0.0776
  H  H129  1  0.239300  0.420800  0.860900  1.0  0.1049
  H  H130  1  0.335700  0.442300  0.804600  1.0  0.09
  H  H131  1  0.158300  0.495500  0.894800  1.0  0.0654
  H  H132  1  0.272700  0.612700  0.822600  1.0  0.0776
  H  H133  1  0.239300  0.920800  0.360900  1.0  0.1049
  H  H134  1  0.335700  0.942300  0.304600  1.0  0.0899
  H  H135  1  0.158300  0.995500  0.394800  1.0  0.0654
  H  H136  1  0.272700  0.112700  0.322600  1.0  0.0776
  H  H137  1  0.510700  0.829200  0.360900  1.0  0.1047
  H  H138  1  0.414300  0.807700  0.304600  1.0  0.0897
  H  H139  1  0.591700  0.754500  0.394800  1.0  0.0642
  H  H140  1  0.477300  0.637300  0.322600  1.0  0.077
  H  H141  1  0.510700  0.329200  0.860900  1.0  0.1047
  H  H142  1  0.414300  0.307700  0.804600  1.0  0.0897
  H  H143  1  0.591700  0.254500  0.894800  1.0  0.0642
  H  H144  1  0.477300  0.137300  0.822600  1.0  0.077
  H  H145  1  0.010700  0.829200  0.860900  1.0  0.1047
  H  H146  1  0.914300  0.807700  0.804600  1.0  0.0897
  H  H147  1  0.091700  0.754500  0.894800  1.0  0.0642
  H  H148  1  0.977300  0.637300  0.822600  1.0  0.077
  H  H149  1  0.010700  0.329200  0.360900  1.0  0.1047
  H  H150  1  0.914300  0.307700  0.304600  1.0  0.0897
  H  H151  1  0.091700  0.254500  0.394800  1.0  0.0642
  H  H152  1  0.977300  0.137300  0.322600  1.0  0.077
  H  H153  1  0.510700  0.420800  0.889100  1.0  0.1051
  H  H154  1  0.414300  0.442300  0.945400  1.0  0.0903
  H  H155  1  0.591700  0.495500  0.855200  1.0  0.0655
  H  H156  1  0.477300  0.612700  0.927400  1.0  0.0768
  H  H157  1  0.510700  0.920800  0.389100  1.0  0.1051
  H  H158  1  0.414300  0.942300  0.445400  1.0  0.0903
  H  H159  1  0.591700  0.995500  0.355200  1.0  0.0655
  H  H160  1  0.477300  0.112700  0.427400  1.0  0.0768
  H  H161  1  0.010700  0.420800  0.389100  1.0  0.1051
  H  H162  1  0.914300  0.442300  0.445400  1.0  0.0903
  H  H163  1  0.091700  0.495500  0.355200  1.0  0.0655
  H  H164  1  0.977300  0.612700  0.427400  1.0  0.0768
  H  H165  1  0.010700  0.920800  0.889100  1.0  0.1051
  H  H166  1  0.914300  0.942300  0.945400  1.0  0.0903
  H  H167  1  0.091700  0.995500  0.855200  1.0  0.0655
  H  H168  1  0.977300  0.112700  0.927400  1.0  0.0768
  H  H169  1  0.739300  0.829200  0.889100  1.0  0.1046
  H  H170  1  0.835700  0.807700  0.945400  1.0  0.0899
  H  H171  1  0.658300  0.754500  0.855200  1.0  0.0647
  H  H172  1  0.772700  0.637300  0.927400  1.0  0.077
  H  H173  1  0.739300  0.329200  0.389100  1.0  0.1046
  H  H174  1  0.835700  0.307700  0.445400  1.0  0.0899
  H  H175  1  0.658300  0.254500  0.355200  1.0  0.0647
  H  H176  1  0.772700  0.137300  0.427400  1.0  0.077
  H  H177  1  0.239300  0.829200  0.389100  1.0  0.1046
  H  H178  1  0.335700  0.807700  0.445400  1.0  0.0899
  H  H179  1  0.158300  0.754500  0.355200  1.0  0.0647
  H  H180  1  0.272700  0.637300  0.427400  1.0  0.077
  H  H181  1  0.239300  0.329200  0.889100  1.0  0.1046
  H  H182  1  0.335700  0.307700  0.945400  1.0  0.0899
  H  H183  1  0.158300  0.254500  0.855200  1.0  0.0647
  H  H184  1  0.272700  0.137300  0.927400  1.0  0.077
  C  C185  1  0.126800  0.453000  0.728900  1.0  0.3312
  C  C186  1  0.076300  0.402800  0.779210  1.0  -0.0246
  C  C187  1  0.030200  0.457600  0.781230  1.0  0.0007
  C  C188  1  0.183900  0.469400  0.692700  1.0  -0.1112
  C  C189  1  0.079500  0.351100  0.805500  1.0  0.6414
  C  C190  1  0.253900  0.540500  0.647600  1.0  -0.1451
  C  C191  1  0.195700  0.527500  0.680900  1.0  0.0433
  C  C192  1  0.301300  0.495500  0.627300  1.0  0.1566
  C  C193  1  0.962100  0.487700  0.811400  1.0  0.6486
  C  C194  1  0.234200  0.426500  0.670000  1.0  0.1816
  C  C195  1  0.126800  0.953000  0.228900  1.0  0.3312
  C  C196  1  0.076300  0.902800  0.279210  1.0  -0.0246
  C  C197  1  0.030200  0.957600  0.281230  1.0  0.0007
  C  C198  1  0.183900  0.969400  0.192700  1.0  -0.1112
  C  C199  1  0.079500  0.851100  0.305500  1.0  0.6414
  C  C200  1  0.253900  0.040500  0.147600  1.0  -0.1453
  C  C201  1  0.195700  0.027500  0.180900  1.0  0.0433
  C  C202  1  0.301300  0.995500  0.127300  1.0  0.1566
  C  C203  1  0.962100  0.987700  0.311400  1.0  0.6486
  C  C204  1  0.234200  0.926500  0.170000  1.0  0.1805
  C  C205  1  0.626800  0.453000  0.228900  1.0  0.3312
  C  C206  1  0.576300  0.402800  0.279210  1.0  -0.0246
  C  C207  1  0.530200  0.457600  0.281230  1.0  0.0007
  C  C208  1  0.683900  0.469400  0.192700  1.0  -0.1112
  C  C209  1  0.579500  0.351100  0.305500  1.0  0.6414
  C  C210  1  0.753900  0.540500  0.147600  1.0  -0.1451
  C  C211  1  0.695700  0.527500  0.180900  1.0  0.0433
  C  C212  1  0.801300  0.495500  0.127300  1.0  0.1566
  C  C213  1  0.462100  0.487700  0.311400  1.0  0.6486
  C  C214  1  0.734200  0.426500  0.170000  1.0  0.1816
  C  C215  1  0.626800  0.953000  0.728900  1.0  0.3312
  C  C216  1  0.576300  0.902800  0.779210  1.0  -0.0246
  C  C217  1  0.530200  0.957600  0.781230  1.0  0.0007
  C  C218  1  0.683900  0.969400  0.692700  1.0  -0.1112
  C  C219  1  0.579500  0.851100  0.805500  1.0  0.6414
  C  C220  1  0.753900  0.040500  0.647600  1.0  -0.1453
  C  C221  1  0.695700  0.027500  0.680900  1.0  0.0433
  C  C222  1  0.801300  0.995500  0.627300  1.0  0.1566
  C  C223  1  0.462100  0.987700  0.811400  1.0  0.6486
  C  C224  1  0.734200  0.926500  0.670000  1.0  0.1805
  C  C225  1  0.623200  0.297000  0.728900  1.0  0.3318
  C  C226  1  0.673700  0.347200  0.779210  1.0  -0.0235
  C  C227  1  0.719800  0.292400  0.781230  1.0  -0.0018
  C  C228  1  0.566100  0.280600  0.692700  1.0  -0.1097
  C  C229  1  0.670500  0.398900  0.805500  1.0  0.6379
  C  C230  1  0.496100  0.209500  0.647600  1.0  -0.1467
  C  C231  1  0.554300  0.222500  0.680900  1.0  0.0416
  C  C232  1  0.448700  0.254500  0.627300  1.0  0.1573
  C  C233  1  0.787900  0.262300  0.811400  1.0  0.6492
  C  C234  1  0.515800  0.323500  0.670000  1.0  0.1799
  C  C235  1  0.623200  0.797000  0.228900  1.0  0.3318
  C  C236  1  0.673700  0.847200  0.279210  1.0  -0.0235
  C  C237  1  0.719800  0.792400  0.281230  1.0  -0.0018
  C  C238  1  0.566100  0.780600  0.192700  1.0  -0.1097
  C  C239  1  0.670500  0.898900  0.305500  1.0  0.6379
  C  C240  1  0.496100  0.709500  0.147600  1.0  -0.1467
  C  C241  1  0.554300  0.722500  0.180900  1.0  0.0416
  C  C242  1  0.448700  0.754500  0.127300  1.0  0.1573
  C  C243  1  0.787900  0.762300  0.311400  1.0  0.6492
  C  C244  1  0.515800  0.823500  0.170000  1.0  0.1799
  C  C245  1  0.123200  0.297000  0.228900  1.0  0.3318
  C  C246  1  0.173700  0.347200  0.279210  1.0  -0.0235
  C  C247  1  0.219800  0.292400  0.281230  1.0  -0.0018
  C  C248  1  0.066100  0.280600  0.192700  1.0  -0.1097
  C  C249  1  0.170500  0.398900  0.305500  1.0  0.6379
  C  C250  1  0.996100  0.209500  0.147600  1.0  -0.1467
  C  C251  1  0.054300  0.222500  0.180900  1.0  0.0414
  C  C252  1  0.948700  0.254500  0.127300  1.0  0.1584
  C  C253  1  0.287900  0.262300  0.311400  1.0  0.6492
  C  C254  1  0.015800  0.323500  0.170000  1.0  0.1799
  C  C255  1  0.123200  0.797000  0.728900  1.0  0.3318
  C  C256  1  0.173700  0.847200  0.779210  1.0  -0.0235
  C  C257  1  0.219800  0.792400  0.781230  1.0  -0.0018
  C  C258  1  0.066100  0.780600  0.692700  1.0  -0.1097
  C  C259  1  0.170500  0.898900  0.805500  1.0  0.6379
  C  C260  1  0.996100  0.709500  0.647600  1.0  -0.1467
  C  C261  1  0.054300  0.722500  0.680900  1.0  0.0414
  C  C262  1  0.948700  0.754500  0.627300  1.0  0.1584
  C  C263  1  0.287900  0.762300  0.811400  1.0  0.6492
  C  C264  1  0.015800  0.823500  0.670000  1.0  0.1799
  C  C265  1  0.623200  0.453000  0.021100  1.0  0.331
  C  C266  1  0.673700  0.402800  0.970790  1.0  -0.0239
  C  C267  1  0.719800  0.457600  0.968770  1.0  -0.0007
  C  C268  1  0.566100  0.469400  0.057300  1.0  -0.1101
  C  C269  1  0.670500  0.351100  0.944500  1.0  0.6425
  C  C270  1  0.496100  0.540500  0.102400  1.0  -0.1434
  C  C271  1  0.554300  0.527500  0.069100  1.0  0.0415
  C  C272  1  0.448700  0.495500  0.122700  1.0  0.158
  C  C273  1  0.787900  0.487700  0.938600  1.0  0.6484
  C  C274  1  0.515800  0.426500  0.080000  1.0  0.1898
  C  C275  1  0.623200  0.953000  0.521100  1.0  0.331
  C  C276  1  0.673700  0.902800  0.470790  1.0  -0.0239
  C  C277  1  0.719800  0.957600  0.468770  1.0  -0.0007
  C  C278  1  0.566100  0.969400  0.557300  1.0  -0.1101
  C  C279  1  0.670500  0.851100  0.444500  1.0  0.6425
  C  C280  1  0.496100  0.040500  0.602400  1.0  -0.1442
  C  C281  1  0.554300  0.027500  0.569100  1.0  0.0415
  C  C282  1  0.448700  0.995500  0.622700  1.0  0.158
  C  C283  1  0.787900  0.987700  0.438600  1.0  0.6484
  C  C284  1  0.515800  0.926500  0.580000  1.0  0.1863
  C  C285  1  0.123200  0.453000  0.521100  1.0  0.331
  C  C286  1  0.173700  0.402800  0.470790  1.0  -0.0239
  C  C287  1  0.219800  0.457600  0.468770  1.0  -0.0008
  C  C288  1  0.066100  0.469400  0.557300  1.0  -0.1101
  C  C289  1  0.170500  0.351100  0.444500  1.0  0.6425
  C  C290  1  0.996100  0.540500  0.602400  1.0  -0.1434
  C  C291  1  0.054300  0.527500  0.569100  1.0  0.0414
  C  C292  1  0.948700  0.495500  0.622700  1.0  0.1581
  C  C293  1  0.287900  0.487700  0.438600  1.0  0.6484
  C  C294  1  0.015800  0.426500  0.580000  1.0  0.1898
  C  C295  1  0.123200  0.953000  0.021100  1.0  0.331
  C  C296  1  0.173700  0.902800  0.970790  1.0  -0.0239
  C  C297  1  0.219800  0.957600  0.968770  1.0  -0.0009
  C  C298  1  0.066100  0.969400  0.057300  1.0  -0.1101
  C  C299  1  0.170500  0.851100  0.944500  1.0  0.6425
  C  C300  1  0.996100  0.040500  0.102400  1.0  -0.1442
  C  C301  1  0.054300  0.027500  0.069100  1.0  0.0414
  C  C302  1  0.948700  0.995500  0.122700  1.0  0.1581
  C  C303  1  0.287900  0.987700  0.938600  1.0  0.6484
  C  C304  1  0.015800  0.926500  0.080000  1.0  0.1863
  C  C305  1  0.126800  0.297000  0.021100  1.0  0.3313
  C  C306  1  0.076300  0.347200  0.970790  1.0  -0.0235
  C  C307  1  0.030200  0.292400  0.968770  1.0  -0.0004
  C  C308  1  0.183900  0.280600  0.057300  1.0  -0.1113
  C  C309  1  0.079500  0.398900  0.944500  1.0  0.6382
  C  C310  1  0.253900  0.209500  0.102400  1.0  -0.1462
  C  C311  1  0.195700  0.222500  0.069100  1.0  0.0428
  C  C312  1  0.301300  0.254500  0.122700  1.0  0.1581
  C  C313  1  0.962100  0.262300  0.938600  1.0  0.649
  C  C314  1  0.234200  0.323500  0.080000  1.0  0.18
  C  C315  1  0.126800  0.797000  0.521100  1.0  0.3313
  C  C316  1  0.076300  0.847200  0.470790  1.0  -0.0235
  C  C317  1  0.030200  0.792400  0.468770  1.0  -0.0004
  C  C318  1  0.183900  0.780600  0.557300  1.0  -0.1113
  C  C319  1  0.079500  0.898900  0.444500  1.0  0.6385
  C  C320  1  0.253900  0.709500  0.602400  1.0  -0.1462
  C  C321  1  0.195700  0.722500  0.569100  1.0  0.0428
  C  C322  1  0.301300  0.754500  0.622700  1.0  0.1581
  C  C323  1  0.962100  0.762300  0.438600  1.0  0.649
  C  C324  1  0.234200  0.823500  0.580000  1.0  0.18
  C  C325  1  0.626800  0.297000  0.521100  1.0  0.3313
  C  C326  1  0.576300  0.347200  0.470790  1.0  -0.0232
  C  C327  1  0.530200  0.292400  0.468770  1.0  -0.0004
  C  C328  1  0.683900  0.280600  0.557300  1.0  -0.1113
  C  C329  1  0.579500  0.398900  0.444500  1.0  0.6385
  C  C330  1  0.753900  0.209500  0.602400  1.0  -0.1462
  C  C331  1  0.695700  0.222500  0.569100  1.0  0.0428
  C  C332  1  0.801300  0.254500  0.622700  1.0  0.1581
  C  C333  1  0.462100  0.262300  0.438600  1.0  0.649
  C  C334  1  0.734200  0.323500  0.580000  1.0  0.18
  C  C335  1  0.626800  0.797000  0.021100  1.0  0.3313
  C  C336  1  0.576300  0.847200  0.970790  1.0  -0.0232
  C  C337  1  0.530200  0.792400  0.968770  1.0  -0.0004
  C  C338  1  0.683900  0.780600  0.057300  1.0  -0.1113
  C  C339  1  0.579500  0.898900  0.944500  1.0  0.6382
  C  C340  1  0.753900  0.709500  0.102400  1.0  -0.1462
  C  C341  1  0.695700  0.722500  0.069100  1.0  0.0428
  C  C342  1  0.801300  0.754500  0.122700  1.0  0.1581
  C  C343  1  0.462100  0.762300  0.938600  1.0  0.649
  C  C344  1  0.734200  0.823500  0.080000  1.0  0.18
  C  C345  1  0.873200  0.547000  0.271100  1.0  0.3312
  C  C346  1  0.923700  0.597200  0.220790  1.0  -0.0233
  C  C347  1  0.969800  0.542400  0.218770  1.0  -0.0
  C  C348  1  0.816100  0.530600  0.307300  1.0  -0.1099
  C  C349  1  0.920500  0.648900  0.194500  1.0  0.6377
  C  C350  1  0.746100  0.459500  0.352400  1.0  -0.1466
  C  C351  1  0.804300  0.472500  0.319100  1.0  0.0418
  C  C352  1  0.698700  0.504500  0.372700  1.0  0.1562
  C  C353  1  0.037900  0.512300  0.188600  1.0  0.6484
  C  C354  1  0.765800  0.573500  0.330000  1.0  0.1813
  C  C355  1  0.873200  0.047000  0.771100  1.0  0.3312
  C  C356  1  0.923700  0.097200  0.720790  1.0  -0.0233
  C  C357  1  0.969800  0.042400  0.718770  1.0  1e-04
  C  C358  1  0.816100  0.030600  0.807300  1.0  -0.1099
  C  C359  1  0.920500  0.148900  0.694500  1.0  0.6377
  C  C360  1  0.746100  0.959500  0.852400  1.0  -0.1466
  C  C361  1  0.804300  0.972500  0.819100  1.0  0.0418
  C  C362  1  0.698700  0.004500  0.872700  1.0  0.1562
  C  C363  1  0.037900  0.012300  0.688600  1.0  0.6484
  C  C364  1  0.765800  0.073500  0.830000  1.0  0.1818
  C  C365  1  0.373200  0.547000  0.771100  1.0  0.3312
  C  C366  1  0.423700  0.597200  0.720790  1.0  -0.0233
  C  C367  1  0.469800  0.542400  0.718770  1.0  -0.0
  C  C368  1  0.316100  0.530600  0.807300  1.0  -0.1099
  C  C369  1  0.420500  0.648900  0.694500  1.0  0.6377
  C  C370  1  0.246100  0.459500  0.852400  1.0  -0.1466
  C  C371  1  0.304300  0.472500  0.819100  1.0  0.0418
  C  C372  1  0.198700  0.504500  0.872700  1.0  0.1562
  C  C373  1  0.537900  0.512300  0.688600  1.0  0.6484
  C  C374  1  0.265800  0.573500  0.830000  1.0  0.1813
  C  C375  1  0.373200  0.047000  0.271100  1.0  0.3312
  C  C376  1  0.423700  0.097200  0.220790  1.0  -0.0233
  C  C377  1  0.469800  0.042400  0.218770  1.0  1e-04
  C  C378  1  0.316100  0.030600  0.307300  1.0  -0.1099
  C  C379  1  0.420500  0.148900  0.194500  1.0  0.6377
  C  C380  1  0.246100  0.959500  0.352400  1.0  -0.1466
  C  C381  1  0.304300  0.972500  0.319100  1.0  0.0418
  C  C382  1  0.198700  0.004500  0.372700  1.0  0.1562
  C  C383  1  0.537900  0.012300  0.188600  1.0  0.6484
  C  C384  1  0.265800  0.073500  0.330000  1.0  0.1818
  C  C385  1  0.376800  0.703000  0.271100  1.0  0.3311
  C  C386  1  0.326300  0.652800  0.220790  1.0  -0.0241
  C  C387  1  0.280200  0.707600  0.218770  1.0  -0.0
  C  C388  1  0.433900  0.719400  0.307300  1.0  -0.1118
  C  C389  1  0.329500  0.601100  0.194500  1.0  0.6417
  C  C390  1  0.503900  0.790500  0.352400  1.0  -0.1443
  C  C391  1  0.445700  0.777500  0.319100  1.0  0.0429
  C  C392  1  0.551300  0.745500  0.372700  1.0  0.1564
  C  C393  1  0.212100  0.737700  0.188600  1.0  0.6491
  C  C394  1  0.484200  0.676500  0.330000  1.0  0.1824
  C  C395  1  0.376800  0.203000  0.771100  1.0  0.3311
  C  C396  1  0.326300  0.152800  0.720790  1.0  -0.0241
  C  C397  1  0.280200  0.207600  0.718770  1.0  -0.0
  C  C398  1  0.433900  0.219400  0.807300  1.0  -0.1118
  C  C399  1  0.329500  0.101100  0.694500  1.0  0.6417
  C  C400  1  0.503900  0.290500  0.852400  1.0  -0.1443
  C  C401  1  0.445700  0.277500  0.819100  1.0  0.0429
  C  C402  1  0.551300  0.245500  0.872700  1.0  0.1564
  C  C403  1  0.212100  0.237700  0.688600  1.0  0.6491
  C  C404  1  0.484200  0.176500  0.830000  1.0  0.1824
  C  C405  1  0.876800  0.703000  0.771100  1.0  0.3311
  C  C406  1  0.826300  0.652800  0.720790  1.0  -0.0241
  C  C407  1  0.780200  0.707600  0.718770  1.0  -0.0
  C  C408  1  0.933900  0.719400  0.807300  1.0  -0.1118
  C  C409  1  0.829500  0.601100  0.694500  1.0  0.6417
  C  C410  1  0.003900  0.790500  0.852400  1.0  -0.1443
  C  C411  1  0.945700  0.777500  0.819100  1.0  0.0429
  C  C412  1  0.051300  0.745500  0.872700  1.0  0.1563
  C  C413  1  0.712100  0.737700  0.688600  1.0  0.6491
  C  C414  1  0.984200  0.676500  0.830000  1.0  0.1824
  C  C415  1  0.876800  0.203000  0.271100  1.0  0.3311
  C  C416  1  0.826300  0.152800  0.220790  1.0  -0.0241
  C  C417  1  0.780200  0.207600  0.218770  1.0  -0.0
  C  C418  1  0.933900  0.219400  0.307300  1.0  -0.1118
  C  C419  1  0.829500  0.101100  0.194500  1.0  0.6417
  C  C420  1  0.003900  0.290500  0.352400  1.0  -0.1443
  C  C421  1  0.945700  0.277500  0.319100  1.0  0.0429
  C  C422  1  0.051300  0.245500  0.372700  1.0  0.1563
  C  C423  1  0.712100  0.237700  0.188600  1.0  0.6491
  C  C424  1  0.984200  0.176500  0.330000  1.0  0.1824
  C  C425  1  0.376800  0.547000  0.978900  1.0  0.3312
  C  C426  1  0.326300  0.597200  0.029210  1.0  -0.0236
  C  C427  1  0.280200  0.542400  0.031230  1.0  -0.0008
  C  C428  1  0.433900  0.530600  0.942700  1.0  -0.1107
  C  C429  1  0.329500  0.648900  0.055500  1.0  0.6382
  C  C430  1  0.503900  0.459500  0.897600  1.0  -0.1464
  C  C431  1  0.445700  0.472500  0.930900  1.0  0.0428
  C  C432  1  0.551300  0.504500  0.877300  1.0  0.1585
  C  C433  1  0.212100  0.512300  0.061400  1.0  0.6488
  C  C434  1  0.484200  0.573500  0.920000  1.0  0.1789
  C  C435  1  0.376800  0.047000  0.478900  1.0  0.3312
  C  C436  1  0.326300  0.097200  0.529210  1.0  -0.0236
  C  C437  1  0.280200  0.042400  0.531230  1.0  -0.0008
  C  C438  1  0.433900  0.030600  0.442700  1.0  -0.1107
  C  C439  1  0.329500  0.148900  0.555500  1.0  0.6382
  C  C440  1  0.503900  0.959500  0.397600  1.0  -0.1459
  C  C441  1  0.445700  0.972500  0.430900  1.0  0.0428
  C  C442  1  0.551300  0.004500  0.377300  1.0  0.1585
  C  C443  1  0.212100  0.012300  0.561400  1.0  0.6488
  C  C444  1  0.484200  0.073500  0.420000  1.0  0.1791
  C  C445  1  0.876800  0.547000  0.478900  1.0  0.3312
  C  C446  1  0.826300  0.597200  0.529210  1.0  -0.0236
  C  C447  1  0.780200  0.542400  0.531230  1.0  -0.0004
  C  C448  1  0.933900  0.530600  0.442700  1.0  -0.1107
  C  C449  1  0.829500  0.648900  0.555500  1.0  0.6382
  C  C450  1  0.003900  0.459500  0.397600  1.0  -0.1464
  C  C451  1  0.945700  0.472500  0.430900  1.0  0.0428
  C  C452  1  0.051300  0.504500  0.377300  1.0  0.1578
  C  C453  1  0.712100  0.512300  0.561400  1.0  0.6488
  C  C454  1  0.984200  0.573500  0.420000  1.0  0.1789
  C  C455  1  0.876800  0.047000  0.978900  1.0  0.3312
  C  C456  1  0.826300  0.097200  0.029210  1.0  -0.0236
  C  C457  1  0.780200  0.042400  0.031230  1.0  -0.0006
  C  C458  1  0.933900  0.030600  0.942700  1.0  -0.1107
  C  C459  1  0.829500  0.148900  0.055500  1.0  0.6382
  C  C460  1  0.003900  0.959500  0.897600  1.0  -0.1459
  C  C461  1  0.945700  0.972500  0.930900  1.0  0.0428
  C  C462  1  0.051300  0.004500  0.877300  1.0  0.1578
  C  C463  1  0.712100  0.012300  0.061400  1.0  0.6488
  C  C464  1  0.984200  0.073500  0.920000  1.0  0.1791
  C  C465  1  0.873200  0.703000  0.978900  1.0  0.3319
  C  C466  1  0.923700  0.652800  0.029210  1.0  -0.0243
  C  C467  1  0.969800  0.707600  0.031230  1.0  -0.001
  C  C468  1  0.816100  0.719400  0.942700  1.0  -0.11
  C  C469  1  0.920500  0.601100  0.055500  1.0  0.6423
  C  C470  1  0.746100  0.790500  0.897600  1.0  -0.1441
  C  C471  1  0.804300  0.777500  0.930900  1.0  0.0419
  C  C472  1  0.698700  0.745500  0.877300  1.0  0.1585
  C  C473  1  0.037900  0.737700  0.061400  1.0  0.6489
  C  C474  1  0.765800  0.676500  0.920000  1.0  0.1889
  C  C475  1  0.873200  0.203000  0.478900  1.0  0.3319
  C  C476  1  0.923700  0.152800  0.529210  1.0  -0.0243
  C  C477  1  0.969800  0.207600  0.531230  1.0  -0.0006
  C  C478  1  0.816100  0.219400  0.442700  1.0  -0.11
  C  C479  1  0.920500  0.101100  0.555500  1.0  0.6423
  C  C480  1  0.746100  0.290500  0.397600  1.0  -0.1441
  C  C481  1  0.804300  0.277500  0.430900  1.0  0.0419
  C  C482  1  0.698700  0.245500  0.377300  1.0  0.1585
  C  C483  1  0.037900  0.237700  0.561400  1.0  0.6489
  C  C484  1  0.765800  0.176500  0.420000  1.0  0.1889
  C  C485  1  0.373200  0.703000  0.478900  1.0  0.3319
  C  C486  1  0.423700  0.652800  0.529210  1.0  -0.0243
  C  C487  1  0.469800  0.707600  0.531230  1.0  -0.0006
  C  C488  1  0.316100  0.719400  0.442700  1.0  -0.11
  C  C489  1  0.420500  0.601100  0.555500  1.0  0.6423
  C  C490  1  0.246100  0.790500  0.397600  1.0  -0.1441
  C  C491  1  0.304300  0.777500  0.430900  1.0  0.0419
  C  C492  1  0.198700  0.745500  0.377300  1.0  0.1585
  C  C493  1  0.537900  0.737700  0.561400  1.0  0.6489
  C  C494  1  0.265800  0.676500  0.420000  1.0  0.1889
  C  C495  1  0.373200  0.203000  0.978900  1.0  0.3319
  C  C496  1  0.423700  0.152800  0.029210  1.0  -0.0243
  C  C497  1  0.469800  0.207600  0.031230  1.0  -0.001
  C  C498  1  0.316100  0.219400  0.942700  1.0  -0.11
  C  C499  1  0.420500  0.101100  0.055500  1.0  0.6423
  C  C500  1  0.246100  0.290500  0.897600  1.0  -0.1441
  C  C501  1  0.304300  0.277500  0.930900  1.0  0.0419
  C  C502  1  0.198700  0.245500  0.877300  1.0  0.1585
  C  C503  1  0.537900  0.237700  0.061400  1.0  0.6489
  C  C504  1  0.265800  0.176500  0.920000  1.0  0.1889
  N  N505  1  0.062500  0.489800  0.749310  1.0  -0.4671
  N  N506  1  0.138200  0.400500  0.745760  1.0  -0.4411
  N  N507  1  0.292600  0.439100  0.637810  1.0  -0.3199
  N  N508  1  0.062500  0.989800  0.249310  1.0  -0.4671
  N  N509  1  0.138200  0.900500  0.245760  1.0  -0.4411
  N  N510  1  0.292600  0.939100  0.137810  1.0  -0.3194
  N  N511  1  0.562500  0.489800  0.249310  1.0  -0.4671
  N  N512  1  0.638200  0.400500  0.245760  1.0  -0.4411
  N  N513  1  0.792600  0.439100  0.137810  1.0  -0.3199
  N  N514  1  0.562500  0.989800  0.749310  1.0  -0.4671
  N  N515  1  0.638200  0.900500  0.745760  1.0  -0.4411
  N  N516  1  0.792600  0.939100  0.637810  1.0  -0.3194
  N  N517  1  0.687500  0.260200  0.749310  1.0  -0.4687
  N  N518  1  0.611800  0.349500  0.745760  1.0  -0.4409
  N  N519  1  0.457400  0.310900  0.637810  1.0  -0.3169
  N  N520  1  0.687500  0.760200  0.249310  1.0  -0.4687
  N  N521  1  0.611800  0.849500  0.245760  1.0  -0.4409
  N  N522  1  0.457400  0.810900  0.137810  1.0  -0.3169
  N  N523  1  0.187500  0.260200  0.249310  1.0  -0.4687
  N  N524  1  0.111800  0.349500  0.245760  1.0  -0.4409
  N  N525  1  0.957400  0.310900  0.137810  1.0  -0.3169
  N  N526  1  0.187500  0.760200  0.749310  1.0  -0.4687
  N  N527  1  0.111800  0.849500  0.745760  1.0  -0.4409
  N  N528  1  0.957400  0.810900  0.637810  1.0  -0.3169
  N  N529  1  0.687500  0.489800  0.000690  1.0  -0.4694
  N  N530  1  0.611800  0.400500  0.004240  1.0  -0.4417
  N  N531  1  0.457400  0.439100  0.112190  1.0  -0.3197
  N  N532  1  0.687500  0.989800  0.500690  1.0  -0.4694
  N  N533  1  0.611800  0.900500  0.504240  1.0  -0.4417
  N  N534  1  0.457400  0.939100  0.612190  1.0  -0.3196
  N  N535  1  0.187500  0.489800  0.500690  1.0  -0.4694
  N  N536  1  0.111800  0.400500  0.504240  1.0  -0.4417
  N  N537  1  0.957400  0.439100  0.612190  1.0  -0.3197
  N  N538  1  0.187500  0.989800  0.000690  1.0  -0.4694
  N  N539  1  0.111800  0.900500  0.004240  1.0  -0.4417
  N  N540  1  0.957400  0.939100  0.112190  1.0  -0.3196
  N  N541  1  0.062500  0.260200  0.000690  1.0  -0.4665
  N  N542  1  0.138200  0.349500  0.004240  1.0  -0.441
  N  N543  1  0.292600  0.310900  0.112190  1.0  -0.3174
  N  N544  1  0.062500  0.760200  0.500690  1.0  -0.4665
  N  N545  1  0.138200  0.849500  0.504240  1.0  -0.441
  N  N546  1  0.292600  0.810900  0.612190  1.0  -0.3174
  N  N547  1  0.562500  0.260200  0.500690  1.0  -0.4665
  N  N548  1  0.638200  0.349500  0.504240  1.0  -0.441
  N  N549  1  0.792600  0.310900  0.612190  1.0  -0.3174
  N  N550  1  0.562500  0.760200  0.000690  1.0  -0.4665
  N  N551  1  0.638200  0.849500  0.004240  1.0  -0.441
  N  N552  1  0.792600  0.810900  0.112190  1.0  -0.3174
  N  N553  1  0.937500  0.510200  0.250690  1.0  -0.4684
  N  N554  1  0.861800  0.599500  0.254240  1.0  -0.4414
  N  N555  1  0.707400  0.560900  0.362190  1.0  -0.317
  N  N556  1  0.937500  0.010200  0.750690  1.0  -0.4684
  N  N557  1  0.861800  0.099500  0.754240  1.0  -0.4414
  N  N558  1  0.707400  0.060900  0.862190  1.0  -0.3168
  N  N559  1  0.437500  0.510200  0.750690  1.0  -0.4684
  N  N560  1  0.361800  0.599500  0.754240  1.0  -0.4414
  N  N561  1  0.207400  0.560900  0.862190  1.0  -0.317
  N  N562  1  0.437500  0.010200  0.250690  1.0  -0.4684
  N  N563  1  0.361800  0.099500  0.254240  1.0  -0.4414
  N  N564  1  0.207400  0.060900  0.362190  1.0  -0.3168
  N  N565  1  0.312500  0.739800  0.250690  1.0  -0.4676
  N  N566  1  0.388200  0.650500  0.254240  1.0  -0.4404
  N  N567  1  0.542600  0.689100  0.362190  1.0  -0.3182
  N  N568  1  0.312500  0.239800  0.750690  1.0  -0.4676
  N  N569  1  0.388200  0.150500  0.754240  1.0  -0.4404
  N  N570  1  0.542600  0.189100  0.862190  1.0  -0.3182
  N  N571  1  0.812500  0.739800  0.750690  1.0  -0.4676
  N  N572  1  0.888200  0.650500  0.754240  1.0  -0.4404
  N  N573  1  0.042600  0.689100  0.862190  1.0  -0.3179
  N  N574  1  0.812500  0.239800  0.250690  1.0  -0.4676
  N  N575  1  0.888200  0.150500  0.254240  1.0  -0.4404
  N  N576  1  0.042600  0.189100  0.362190  1.0  -0.3179
  N  N577  1  0.312500  0.510200  0.999310  1.0  -0.467
  N  N578  1  0.388200  0.599500  0.995760  1.0  -0.4404
  N  N579  1  0.542600  0.560900  0.887810  1.0  -0.3182
  N  N580  1  0.312500  0.010200  0.499310  1.0  -0.467
  N  N581  1  0.388200  0.099500  0.495760  1.0  -0.4404
  N  N582  1  0.542600  0.060900  0.387810  1.0  -0.3177
  N  N583  1  0.812500  0.510200  0.499310  1.0  -0.467
  N  N584  1  0.888200  0.599500  0.495760  1.0  -0.4404
  N  N585  1  0.042600  0.560900  0.387810  1.0  -0.3177
  N  N586  1  0.812500  0.010200  0.999310  1.0  -0.467
  N  N587  1  0.888200  0.099500  0.995760  1.0  -0.4404
  N  N588  1  0.042600  0.060900  0.887810  1.0  -0.319
  N  N589  1  0.937500  0.739800  0.999310  1.0  -0.469
  N  N590  1  0.861800  0.650500  0.995760  1.0  -0.4423
  N  N591  1  0.707400  0.689100  0.887810  1.0  -0.3206
  N  N592  1  0.937500  0.239800  0.499310  1.0  -0.469
  N  N593  1  0.861800  0.150500  0.495760  1.0  -0.4423
  N  N594  1  0.707400  0.189100  0.387810  1.0  -0.3206
  N  N595  1  0.437500  0.739800  0.499310  1.0  -0.469
  N  N596  1  0.361800  0.650500  0.495760  1.0  -0.4423
  N  N597  1  0.207400  0.689100  0.387810  1.0  -0.3206
  N  N598  1  0.437500  0.239800  0.999310  1.0  -0.469
  N  N599  1  0.361800  0.150500  0.995760  1.0  -0.4423
  N  N600  1  0.207400  0.189100  0.887810  1.0  -0.3206
  Cl  Cl601  1  0.125000  0.625000  0.752900  1.0  -0.2454
  Cl  Cl602  1  0.125000  0.125000  0.252900  1.0  -0.2454
  Cl  Cl603  1  0.625000  0.125000  0.752900  1.0  -0.2454
  Cl  Cl604  1  0.625000  0.625000  0.252900  1.0  -0.2454
  Cl  Cl605  1  0.625000  0.625000  0.997100  1.0  -0.2457
  Cl  Cl606  1  0.625000  0.125000  0.497100  1.0  -0.2457
  Cl  Cl607  1  0.125000  0.125000  0.997100  1.0  -0.2457
  Cl  Cl608  1  0.125000  0.625000  0.497100  1.0  -0.2457
  Cl  Cl609  1  0.875000  0.375000  0.247100  1.0  -0.2457
  Cl  Cl610  1  0.875000  0.875000  0.747100  1.0  -0.2457
  Cl  Cl611  1  0.375000  0.875000  0.247100  1.0  -0.2457
  Cl  Cl612  1  0.375000  0.375000  0.747100  1.0  -0.2457
  Cl  Cl613  1  0.375000  0.375000  0.002900  1.0  -0.2454
  Cl  Cl614  1  0.375000  0.875000  0.502900  1.0  -0.2454
  Cl  Cl615  1  0.875000  0.875000  0.002900  1.0  -0.2454
  Cl  Cl616  1  0.875000  0.375000  0.502900  1.0  -0.2454
  O  O617  1  0.937300  0.541200  0.803750  1.0  -0.61
  O  O618  1  0.937800  0.463200  0.841950  1.0  -0.6818
  O  O619  1  0.018500  0.346500  0.834020  1.0  -0.6944
  O  O620  1  0.151600  0.312100  0.796990  1.0  -0.5872
  O  O621  1  0.937300  0.041200  0.303750  1.0  -0.61
  O  O622  1  0.937800  0.963200  0.341950  1.0  -0.6818
  O  O623  1  0.018500  0.846500  0.334020  1.0  -0.6944
  O  O624  1  0.151600  0.812100  0.296990  1.0  -0.5872
  O  O625  1  0.437300  0.541200  0.303750  1.0  -0.61
  O  O626  1  0.437800  0.463200  0.341950  1.0  -0.6818
  O  O627  1  0.518500  0.346500  0.334020  1.0  -0.6944
  O  O628  1  0.651600  0.312100  0.296990  1.0  -0.5872
  O  O629  1  0.437300  0.041200  0.803750  1.0  -0.61
  O  O630  1  0.437800  0.963200  0.841950  1.0  -0.6818
  O  O631  1  0.518500  0.846500  0.834020  1.0  -0.6944
  O  O632  1  0.651600  0.812100  0.796990  1.0  -0.5872
  O  O633  1  0.812700  0.208800  0.803750  1.0  -0.6114
  O  O634  1  0.812200  0.286800  0.841950  1.0  -0.6814
  O  O635  1  0.731500  0.403500  0.834020  1.0  -0.6951
  O  O636  1  0.598400  0.437900  0.796990  1.0  -0.5873
  O  O637  1  0.812700  0.708800  0.303750  1.0  -0.6114
  O  O638  1  0.812200  0.786800  0.341950  1.0  -0.6814
  O  O639  1  0.731500  0.903500  0.334020  1.0  -0.6951
  O  O640  1  0.598400  0.937900  0.296990  1.0  -0.5873
  O  O641  1  0.312700  0.208800  0.303750  1.0  -0.6114
  O  O642  1  0.312200  0.286800  0.341950  1.0  -0.6814
  O  O643  1  0.231500  0.403500  0.334020  1.0  -0.6951
  O  O644  1  0.098400  0.437900  0.296990  1.0  -0.5873
  O  O645  1  0.312700  0.708800  0.803750  1.0  -0.6114
  O  O646  1  0.312200  0.786800  0.841950  1.0  -0.6814
  O  O647  1  0.231500  0.903500  0.834020  1.0  -0.6951
  O  O648  1  0.098400  0.937900  0.796990  1.0  -0.5873
  O  O649  1  0.812700  0.541200  0.946250  1.0  -0.6111
  O  O650  1  0.812200  0.463200  0.908050  1.0  -0.6822
  O  O651  1  0.731500  0.346500  0.915980  1.0  -0.6958
  O  O652  1  0.598400  0.312100  0.953010  1.0  -0.5875
  O  O653  1  0.812700  0.041200  0.446250  1.0  -0.6111
  O  O654  1  0.812200  0.963200  0.408050  1.0  -0.6822
  O  O655  1  0.731500  0.846500  0.415980  1.0  -0.6958
  O  O656  1  0.598400  0.812100  0.453010  1.0  -0.5875
  O  O657  1  0.312700  0.541200  0.446250  1.0  -0.6111
  O  O658  1  0.312200  0.463200  0.408050  1.0  -0.6822
  O  O659  1  0.231500  0.346500  0.415980  1.0  -0.6958
  O  O660  1  0.098400  0.312100  0.453010  1.0  -0.5875
  O  O661  1  0.312700  0.041200  0.946250  1.0  -0.6111
  O  O662  1  0.312200  0.963200  0.908050  1.0  -0.6822
  O  O663  1  0.231500  0.846500  0.915980  1.0  -0.6958
  O  O664  1  0.098400  0.812100  0.953010  1.0  -0.5875
  O  O665  1  0.937300  0.208800  0.946250  1.0  -0.6121
  O  O666  1  0.937800  0.286800  0.908050  1.0  -0.6824
  O  O667  1  0.018500  0.403500  0.915980  1.0  -0.6955
  O  O668  1  0.151600  0.437900  0.953010  1.0  -0.587
  O  O669  1  0.937300  0.708800  0.446250  1.0  -0.6121
  O  O670  1  0.937800  0.786800  0.408050  1.0  -0.6824
  O  O671  1  0.018500  0.903500  0.415980  1.0  -0.6955
  O  O672  1  0.151600  0.937900  0.453010  1.0  -0.587
  O  O673  1  0.437300  0.208800  0.446250  1.0  -0.6121
  O  O674  1  0.437800  0.286800  0.408050  1.0  -0.6824
  O  O675  1  0.518500  0.403500  0.415980  1.0  -0.6955
  O  O676  1  0.651600  0.437900  0.453010  1.0  -0.587
  O  O677  1  0.437300  0.708800  0.946250  1.0  -0.6121
  O  O678  1  0.437800  0.786800  0.908050  1.0  -0.6824
  O  O679  1  0.518500  0.903500  0.915980  1.0  -0.6955
  O  O680  1  0.651600  0.937900  0.953010  1.0  -0.587
  O  O681  1  0.062700  0.458800  0.196250  1.0  -0.6118
  O  O682  1  0.062200  0.536800  0.158050  1.0  -0.682
  O  O683  1  0.981500  0.653500  0.165980  1.0  -0.695
  O  O684  1  0.848400  0.687900  0.203010  1.0  -0.5871
  O  O685  1  0.062700  0.958800  0.696250  1.0  -0.6118
  O  O686  1  0.062200  0.036800  0.658050  1.0  -0.682
  O  O687  1  0.981500  0.153500  0.665980  1.0  -0.695
  O  O688  1  0.848400  0.187900  0.703010  1.0  -0.5871
  O  O689  1  0.562700  0.458800  0.696250  1.0  -0.6118
  O  O690  1  0.562200  0.536800  0.658050  1.0  -0.682
  O  O691  1  0.481500  0.653500  0.665980  1.0  -0.695
  O  O692  1  0.348400  0.687900  0.703010  1.0  -0.5871
  O  O693  1  0.562700  0.958800  0.196250  1.0  -0.6118
  O  O694  1  0.562200  0.036800  0.158050  1.0  -0.682
  O  O695  1  0.481500  0.153500  0.165980  1.0  -0.695
  O  O696  1  0.348400  0.187900  0.203010  1.0  -0.5871
  O  O697  1  0.187300  0.791200  0.196250  1.0  -0.6111
  O  O698  1  0.187800  0.713200  0.158050  1.0  -0.682
  O  O699  1  0.268500  0.596500  0.165980  1.0  -0.6954
  O  O700  1  0.401600  0.562100  0.203010  1.0  -0.5864
  O  O701  1  0.187300  0.291200  0.696250  1.0  -0.6111
  O  O702  1  0.187800  0.213200  0.658050  1.0  -0.682
  O  O703  1  0.268500  0.096500  0.665980  1.0  -0.6954
  O  O704  1  0.401600  0.062100  0.703010  1.0  -0.5864
  O  O705  1  0.687300  0.791200  0.696250  1.0  -0.6111
  O  O706  1  0.687800  0.713200  0.658050  1.0  -0.682
  O  O707  1  0.768500  0.596500  0.665980  1.0  -0.6954
  O  O708  1  0.901600  0.562100  0.703010  1.0  -0.5864
  O  O709  1  0.687300  0.291200  0.196250  1.0  -0.6111
  O  O710  1  0.687800  0.213200  0.158050  1.0  -0.682
  O  O711  1  0.768500  0.096500  0.165980  1.0  -0.6954
  O  O712  1  0.901600  0.062100  0.203010  1.0  -0.5864
  O  O713  1  0.187300  0.458800  0.053750  1.0  -0.6116
  O  O714  1  0.187800  0.536800  0.091950  1.0  -0.6816
  O  O715  1  0.268500  0.653500  0.084020  1.0  -0.6952
  O  O716  1  0.401600  0.687900  0.046990  1.0  -0.5874
  O  O717  1  0.187300  0.958800  0.553750  1.0  -0.6116
  O  O718  1  0.187800  0.036800  0.591950  1.0  -0.6816
  O  O719  1  0.268500  0.153500  0.584020  1.0  -0.6952
  O  O720  1  0.401600  0.187900  0.546990  1.0  -0.5874
  O  O721  1  0.687300  0.458800  0.553750  1.0  -0.6116
  O  O722  1  0.687800  0.536800  0.591950  1.0  -0.6816
  O  O723  1  0.768500  0.653500  0.584020  1.0  -0.6952
  O  O724  1  0.901600  0.687900  0.546990  1.0  -0.5874
  O  O725  1  0.687300  0.958800  0.053750  1.0  -0.6116
  O  O726  1  0.687800  0.036800  0.091950  1.0  -0.6816
  O  O727  1  0.768500  0.153500  0.084020  1.0  -0.6952
  O  O728  1  0.901600  0.187900  0.046990  1.0  -0.5874
  O  O729  1  0.062700  0.791200  0.053750  1.0  -0.6097
  O  O730  1  0.062200  0.713200  0.091950  1.0  -0.6822
  O  O731  1  0.981500  0.596500  0.084020  1.0  -0.6952
  O  O732  1  0.848400  0.562100  0.046990  1.0  -0.5883
  O  O733  1  0.062700  0.291200  0.553750  1.0  -0.6099
  O  O734  1  0.062200  0.213200  0.591950  1.0  -0.6822
  O  O735  1  0.981500  0.096500  0.584020  1.0  -0.6952
  O  O736  1  0.848400  0.062100  0.546990  1.0  -0.5883
  O  O737  1  0.562700  0.791200  0.553750  1.0  -0.6099
  O  O738  1  0.562200  0.713200  0.591950  1.0  -0.6822
  O  O739  1  0.481500  0.596500  0.584020  1.0  -0.6952
  O  O740  1  0.348400  0.562100  0.546990  1.0  -0.5883
  O  O741  1  0.562700  0.291200  0.053750  1.0  -0.6097
  O  O742  1  0.562200  0.213200  0.091950  1.0  -0.6822
  O  O743  1  0.481500  0.096500  0.084020  1.0  -0.6952
  O  O744  1  0.348400  0.062100  0.046990  1.0  -0.5883
