# generated using pymatgen
data_CdH10(C5N3)2
_symmetry_space_group_name_H-M   'P 1'
_cell_length_a   32.74650000
_cell_length_b   32.74650000
_cell_length_c   32.74650000
_cell_angle_alpha   109.47100000
_cell_angle_beta   109.47100000
_cell_angle_gamma   109.47100000
_symmetry_Int_Tables_number   1
_chemical_formula_structural   CdH10(C5N3)2
_chemical_formula_sum   'Cd48 H480 C480 N288'
_cell_volume   27031.88448730
_cell_formula_units_Z   48
loop_
 _symmetry_equiv_pos_site_id
 _symmetry_equiv_pos_as_xyz
  1  'x, y, z'
loop_
 _atom_site_type_symbol
 _atom_site_label
 _atom_site_symmetry_multiplicity
 _atom_site_fract_x
 _atom_site_fract_y
 _atom_site_fract_z
 _atom_site_occupancy
 _atom_site_charge
  Cd  Cd1  1  0.052780  0.140640  0.413370  1.0  0.869
  Cd  Cd2  1  0.227270  0.639410  0.086630  1.0  0.8651
  Cd  Cd3  1  0.272730  0.359360  0.412140  1.0  0.867
  Cd  Cd4  1  0.447220  0.860590  0.087860  1.0  0.8653
  Cd  Cd5  1  0.912140  0.272730  0.859360  1.0  0.8694
  Cd  Cd6  1  0.587860  0.447220  0.360590  1.0  0.8651
  Cd  Cd7  1  0.913370  0.052780  0.640640  1.0  0.8671
  Cd  Cd8  1  0.586630  0.227270  0.139410  1.0  0.8685
  Cd  Cd9  1  0.639410  0.586630  0.727270  1.0  0.8694
  Cd  Cd10  1  0.140640  0.913370  0.552780  1.0  0.8651
  Cd  Cd11  1  0.860590  0.587860  0.947220  1.0  0.8671
  Cd  Cd12  1  0.359360  0.912140  0.772730  1.0  0.8704
  Cd  Cd13  1  0.359360  0.447220  0.086630  1.0  0.8658
  Cd  Cd14  1  0.860590  0.272730  0.413370  1.0  0.8696
  Cd  Cd15  1  0.140640  0.227270  0.087860  1.0  0.8694
  Cd  Cd16  1  0.639410  0.052780  0.412140  1.0  0.8657
  Cd  Cd17  1  0.227270  0.587860  0.640640  1.0  0.8657
  Cd  Cd18  1  0.052780  0.912140  0.139410  1.0  0.8686
  Cd  Cd19  1  0.447220  0.586630  0.859360  1.0  0.869
  Cd  Cd20  1  0.272730  0.913370  0.360590  1.0  0.8662
  Cd  Cd21  1  0.913370  0.860590  0.772730  1.0  0.867
  Cd  Cd22  1  0.586630  0.359360  0.947220  1.0  0.8653
  Cd  Cd23  1  0.912140  0.639410  0.552780  1.0  0.8669
  Cd  Cd24  1  0.587860  0.140640  0.727270  1.0  0.8654
  Cd  Cd25  1  0.947220  0.859360  0.586630  1.0  0.8656
  Cd  Cd26  1  0.772730  0.360590  0.913370  1.0  0.8667
  Cd  Cd27  1  0.727270  0.640640  0.587860  1.0  0.8653
  Cd  Cd28  1  0.552780  0.139410  0.912140  1.0  0.8677
  Cd  Cd29  1  0.087860  0.727270  0.140640  1.0  0.8696
  Cd  Cd30  1  0.412140  0.552780  0.639410  1.0  0.8659
  Cd  Cd31  1  0.086630  0.947220  0.359360  1.0  0.8657
  Cd  Cd32  1  0.413370  0.772730  0.860590  1.0  0.8694
  Cd  Cd33  1  0.360590  0.413370  0.272730  1.0  0.8679
  Cd  Cd34  1  0.859360  0.086630  0.447220  1.0  0.8669
  Cd  Cd35  1  0.139410  0.412140  0.052780  1.0  0.8654
  Cd  Cd36  1  0.640640  0.087860  0.227270  1.0  0.8687
  Cd  Cd37  1  0.640640  0.552780  0.913370  1.0  0.8655
  Cd  Cd38  1  0.139410  0.727270  0.586630  1.0  0.8693
  Cd  Cd39  1  0.859360  0.772730  0.912140  1.0  0.8686
  Cd  Cd40  1  0.360590  0.947220  0.587860  1.0  0.8668
  Cd  Cd41  1  0.772730  0.412140  0.359360  1.0  0.867
  Cd  Cd42  1  0.947220  0.087860  0.860590  1.0  0.8709
  Cd  Cd43  1  0.552780  0.413370  0.140640  1.0  0.8692
  Cd  Cd44  1  0.727270  0.086630  0.639410  1.0  0.8654
  Cd  Cd45  1  0.086630  0.139410  0.227270  1.0  0.8653
  Cd  Cd46  1  0.413370  0.640640  0.052780  1.0  0.8672
  Cd  Cd47  1  0.087860  0.360590  0.447220  1.0  0.8646
  Cd  Cd48  1  0.412140  0.859360  0.272730  1.0  0.8683
  H  H49  1  0.017300  0.250200  0.370900  1.0  0.1189
  H  H50  1  0.014500  0.198300  0.357200  1.0  0.128
  H  H51  1  0.057200  0.240800  0.359600  1.0  0.1198
  H  H52  1  0.134600  0.330400  0.539400  1.0  0.0923
  H  H53  1  0.142600  0.049300  0.469700  1.0  0.0783
  H  H54  1  0.019400  0.038400  0.318600  1.0  0.1233
  H  H55  1  0.001900  0.986200  0.315700  1.0  0.128
  H  H56  1  0.044900  0.007300  0.304400  1.0  0.1195
  H  H57  1  0.142800  0.274600  0.570400  1.0  0.1133
  H  H58  1  0.163000  0.151200  0.528600  1.0  0.0992
  H  H59  1  0.379300  0.646400  0.129100  1.0  0.1208
  H  H60  1  0.341100  0.657300  0.142800  1.0  0.1284
  H  H61  1  0.381200  0.697600  0.140400  1.0  0.1219
  H  H62  1  0.291000  0.595200  0.960600  1.0  0.0885
  H  H63  1  0.079600  0.672900  0.030300  1.0  0.0782
  H  H64  1  0.219800  0.700800  0.181400  1.0  0.1233
  H  H65  1  0.170500  0.686200  0.184300  1.0  0.1276
  H  H66  1  0.202900  0.740500  0.195600  1.0  0.1218
  H  H67  1  0.204200  0.572400  0.929600  1.0  0.1115
  H  H68  1  0.122600  0.634400  0.971400  1.0  0.1007
  H  H69  1  0.120700  0.249800  0.267100  1.0  0.1212
  H  H70  1  0.158900  0.301700  0.316200  1.0  0.129
  H  H71  1  0.118800  0.259200  0.316400  1.0  0.1198
  H  H72  1  0.209000  0.169600  0.304200  1.0  0.0941
  H  H73  1  0.420400  0.450700  0.593300  1.0  0.0779
  H  H74  1  0.280200  0.461600  0.481000  1.0  0.1222
  H  H75  1  0.329500  0.513800  0.515700  1.0  0.1278
  H  H76  1  0.297100  0.492700  0.537600  1.0  0.1206
  H  H77  1  0.295800  0.225400  0.368200  1.0  0.114
  H  H78  1  0.377400  0.348800  0.511800  1.0  0.1021
  H  H79  1  0.482700  0.853600  0.232900  1.0  0.1216
  H  H80  1  0.485500  0.842700  0.183800  1.0  0.1268
  H  H81  1  0.442800  0.802400  0.183600  1.0  0.122
  H  H82  1  0.365400  0.904800  0.195800  1.0  0.0884
  H  H83  1  0.357400  0.827100  0.906700  1.0  0.0783
  H  H84  1  0.480600  0.799200  0.019000  1.0  0.1219
  H  H85  1  0.498100  0.813800  0.984300  1.0  0.1273
  H  H86  1  0.455100  0.759500  0.962400  1.0  0.12
  H  H87  1  0.357200  0.927600  0.131800  1.0  0.115
  H  H88  1  0.337000  0.865600  0.988200  1.0  0.1031
  H  H89  1  0.767100  0.120700  0.749800  1.0  0.1211
  H  H90  1  0.816200  0.158900  0.801700  1.0  0.1272
  H  H91  1  0.816400  0.118800  0.759200  1.0  0.1226
  H  H92  1  0.804200  0.209000  0.669600  1.0  0.0949
  H  H93  1  0.093300  0.420400  0.950700  1.0  0.0779
  H  H94  1  0.981000  0.280200  0.961600  1.0  0.1232
  H  H95  1  0.015700  0.329500  0.013800  1.0  0.1269
  H  H96  1  0.037600  0.297100  0.992700  1.0  0.1199
  H  H97  1  0.868200  0.295800  0.725400  1.0  0.114
  H  H98  1  0.011800  0.377400  0.848800  1.0  0.1035
  H  H99  1  0.732900  0.482700  0.353600  1.0  0.1213
  H  H100  1  0.683800  0.485500  0.342700  1.0  0.128
  H  H101  1  0.683600  0.442800  0.302400  1.0  0.1204
  H  H102  1  0.695800  0.365400  0.404800  1.0  0.0945
  H  H103  1  0.406700  0.357400  0.327100  1.0  0.0792
  H  H104  1  0.519000  0.480600  0.299200  1.0  0.1234
  H  H105  1  0.484300  0.498100  0.313800  1.0  0.1274
  H  H106  1  0.462400  0.455100  0.259500  1.0  0.1198
  H  H107  1  0.631800  0.357200  0.427600  1.0  0.1136
  H  H108  1  0.488200  0.337000  0.365600  1.0  0.1033
  H  H109  1  0.870900  0.017300  0.750200  1.0  0.1217
  H  H110  1  0.857200  0.014500  0.698300  1.0  0.1264
  H  H111  1  0.859600  0.057200  0.740800  1.0  0.1211
  H  H112  1  0.039400  0.134600  0.830400  1.0  0.0898
  H  H113  1  0.969700  0.142600  0.549300  1.0  0.0773
  H  H114  1  0.818600  0.019400  0.538400  1.0  0.1204
  H  H115  1  0.815700  0.001900  0.486200  1.0  0.1267
  H  H116  1  0.804400  0.044900  0.507300  1.0  0.1202
  H  H117  1  0.070400  0.142800  0.774600  1.0  0.1156
  H  H118  1  0.028600  0.163000  0.651200  1.0  0.0994
  H  H119  1  0.629100  0.379300  0.146400  1.0  0.1225
  H  H120  1  0.642800  0.341100  0.157300  1.0  0.1286
  H  H121  1  0.640400  0.381200  0.197600  1.0  0.1201
  H  H122  1  0.460600  0.291000  0.095200  1.0  0.0903
  H  H123  1  0.530300  0.079600  0.172900  1.0  0.0775
  H  H124  1  0.681400  0.219800  0.200800  1.0  0.1216
  H  H125  1  0.684300  0.170500  0.186200  1.0  0.127
  H  H126  1  0.695600  0.202900  0.240500  1.0  0.1204
  H  H127  1  0.429600  0.204200  0.072400  1.0  0.1134
  H  H128  1  0.471400  0.122600  0.134400  1.0  0.1009
  H  H129  1  0.646400  0.629100  0.879300  1.0  0.1213
  H  H130  1  0.657300  0.642800  0.841100  1.0  0.1265
  H  H131  1  0.697600  0.640400  0.881200  1.0  0.1214
  H  H132  1  0.595200  0.460600  0.791000  1.0  0.0879
  H  H133  1  0.672900  0.530300  0.579600  1.0  0.0794
  H  H134  1  0.700800  0.681400  0.719800  1.0  0.1217
  H  H135  1  0.686200  0.684300  0.670500  1.0  0.1281
  H  H136  1  0.740500  0.695600  0.702900  1.0  0.1201
  H  H137  1  0.572400  0.429600  0.704200  1.0  0.1142
  H  H138  1  0.634400  0.471400  0.622600  1.0  0.1017
  H  H139  1  0.250200  0.870900  0.517300  1.0  0.1214
  H  H140  1  0.198300  0.857200  0.514500  1.0  0.1265
  H  H141  1  0.240800  0.859600  0.557200  1.0  0.1197
  H  H142  1  0.330400  0.039400  0.634600  1.0  0.0927
  H  H143  1  0.049300  0.969700  0.642600  1.0  0.0807
  H  H144  1  0.038400  0.818600  0.519400  1.0  0.1217
  H  H145  1  0.986200  0.815700  0.501900  1.0  0.1253
  H  H146  1  0.007300  0.804400  0.544900  1.0  0.12
  H  H147  1  0.274600  0.070400  0.642800  1.0  0.1145
  H  H148  1  0.151200  0.028600  0.663000  1.0  0.0996
  H  H149  1  0.853600  0.732900  0.982700  1.0  0.1205
  H  H150  1  0.842700  0.683800  0.985500  1.0  0.1262
  H  H151  1  0.802400  0.683600  0.942800  1.0  0.1212
  H  H152  1  0.904800  0.695800  0.865400  1.0  0.0926
  H  H153  1  0.827100  0.406700  0.857400  1.0  0.0778
  H  H154  1  0.799200  0.519000  0.980600  1.0  0.1244
  H  H155  1  0.813800  0.484300  0.998100  1.0  0.1263
  H  H156  1  0.759500  0.462400  0.955100  1.0  0.1202
  H  H157  1  0.927600  0.631800  0.857200  1.0  0.1141
  H  H158  1  0.865600  0.488200  0.837000  1.0  0.1018
  H  H159  1  0.249800  0.767100  0.620700  1.0  0.1178
  H  H160  1  0.301700  0.816200  0.658900  1.0  0.1298
  H  H161  1  0.259200  0.816400  0.618800  1.0  0.1204
  H  H162  1  0.169600  0.804200  0.709000  1.0  0.094
  H  H163  1  0.450700  0.093300  0.920400  1.0  0.0781
  H  H164  1  0.461600  0.981000  0.780200  1.0  0.1232
  H  H165  1  0.513800  0.015700  0.829500  1.0  0.1303
  H  H166  1  0.492700  0.037600  0.797100  1.0  0.1198
  H  H167  1  0.225400  0.868200  0.795800  1.0  0.1134
  H  H168  1  0.348800  0.011800  0.877400  1.0  0.1021
  H  H169  1  0.249800  0.482700  0.129100  1.0  0.1201
  H  H170  1  0.301700  0.485500  0.142800  1.0  0.1285
  H  H171  1  0.259200  0.442800  0.140400  1.0  0.1191
  H  H172  1  0.169600  0.365400  0.960600  1.0  0.0934
  H  H173  1  0.450700  0.357400  0.030300  1.0  0.0785
  H  H174  1  0.461600  0.480600  0.181400  1.0  0.1213
  H  H175  1  0.513800  0.498100  0.184300  1.0  0.1277
  H  H176  1  0.492700  0.455100  0.195600  1.0  0.1188
  H  H177  1  0.225400  0.357200  0.929600  1.0  0.1125
  H  H178  1  0.348800  0.337000  0.971400  1.0  0.1
  H  H179  1  0.853600  0.120700  0.370900  1.0  0.1213
  H  H180  1  0.842700  0.158900  0.357200  1.0  0.1272
  H  H181  1  0.802400  0.118800  0.359600  1.0  0.121
  H  H182  1  0.904800  0.209000  0.539400  1.0  0.0947
  H  H183  1  0.827100  0.420400  0.469700  1.0  0.0792
  H  H184  1  0.799200  0.280200  0.318600  1.0  0.1223
  H  H185  1  0.813800  0.329500  0.315700  1.0  0.1272
  H  H186  1  0.759500  0.297100  0.304400  1.0  0.121
  H  H187  1  0.927600  0.295800  0.570400  1.0  0.1143
  H  H188  1  0.865600  0.377400  0.528600  1.0  0.1021
  H  H189  1  0.250200  0.379300  0.232900  1.0  0.1217
  H  H190  1  0.198300  0.341100  0.183800  1.0  0.1273
  H  H191  1  0.240800  0.381200  0.183600  1.0  0.1209
  H  H192  1  0.330400  0.291000  0.195800  1.0  0.0875
  H  H193  1  0.049300  0.079600  0.906700  1.0  0.0776
  H  H194  1  0.038400  0.219800  0.019000  1.0  0.1213
  H  H195  1  0.986200  0.170500  0.984300  1.0  0.1279
  H  H196  1  0.007300  0.202900  0.962400  1.0  0.1209
  H  H197  1  0.274600  0.204200  0.131800  1.0  0.1138
  H  H198  1  0.151200  0.122600  0.988200  1.0  0.1013
  H  H199  1  0.646400  0.017300  0.267100  1.0  0.1216
  H  H200  1  0.657300  0.014500  0.316200  1.0  0.1269
  H  H201  1  0.697600  0.057200  0.316400  1.0  0.1227
  H  H202  1  0.595200  0.134600  0.304200  1.0  0.0895
  H  H203  1  0.672900  0.142600  0.593300  1.0  0.0768
  H  H204  1  0.700800  0.019400  0.481000  1.0  0.1213
  H  H205  1  0.686200  0.001900  0.515700  1.0  0.1275
  H  H206  1  0.740500  0.044900  0.537600  1.0  0.1204
  H  H207  1  0.572400  0.142800  0.368200  1.0  0.1141
  H  H208  1  0.634400  0.163000  0.511800  1.0  0.1014
  H  H209  1  0.379300  0.732900  0.750200  1.0  0.1209
  H  H210  1  0.341100  0.683800  0.698300  1.0  0.1264
  H  H211  1  0.381200  0.683600  0.740800  1.0  0.1201
  H  H212  1  0.291000  0.695800  0.830400  1.0  0.0888
  H  H213  1  0.079600  0.406700  0.549300  1.0  0.0795
  H  H214  1  0.219800  0.519000  0.538400  1.0  0.1255
  H  H215  1  0.170500  0.484300  0.486200  1.0  0.1253
  H  H216  1  0.202900  0.462400  0.507300  1.0  0.1201
  H  H217  1  0.204200  0.631800  0.774600  1.0  0.1137
  H  H218  1  0.122600  0.488200  0.651200  1.0  0.1028
  H  H219  1  0.017300  0.767100  0.146400  1.0  0.1166
  H  H220  1  0.014500  0.816200  0.157300  1.0  0.1276
  H  H221  1  0.057200  0.816400  0.197600  1.0  0.1199
  H  H222  1  0.134600  0.804200  0.095200  1.0  0.094
  H  H223  1  0.142600  0.093300  0.172900  1.0  0.077
  H  H224  1  0.019400  0.981000  0.200800  1.0  0.124
  H  H225  1  0.001900  0.015700  0.186200  1.0  0.1296
  H  H226  1  0.044900  0.037600  0.240500  1.0  0.1189
  H  H227  1  0.142800  0.868200  0.072400  1.0  0.1146
  H  H228  1  0.163000  0.011800  0.134400  1.0  0.1014
  H  H229  1  0.482700  0.629100  0.749800  1.0  0.1213
  H  H230  1  0.485500  0.642800  0.801700  1.0  0.1272
  H  H231  1  0.442800  0.640400  0.759200  1.0  0.1204
  H  H232  1  0.365400  0.460600  0.669600  1.0  0.0918
  H  H233  1  0.357400  0.530300  0.950700  1.0  0.0791
  H  H234  1  0.480600  0.681400  0.961600  1.0  0.1219
  H  H235  1  0.498100  0.684300  0.013800  1.0  0.1275
  H  H236  1  0.455100  0.695600  0.992700  1.0  0.1207
  H  H237  1  0.357200  0.429600  0.725400  1.0  0.1142
  H  H238  1  0.337000  0.471400  0.848800  1.0  0.1004
  H  H239  1  0.120700  0.870900  0.353600  1.0  0.122
  H  H240  1  0.158900  0.857200  0.342700  1.0  0.1285
  H  H241  1  0.118800  0.859600  0.302400  1.0  0.1213
  H  H242  1  0.209000  0.039400  0.404800  1.0  0.0937
  H  H243  1  0.420400  0.969700  0.327100  1.0  0.0802
  H  H244  1  0.280200  0.818600  0.299200  1.0  0.1215
  H  H245  1  0.329500  0.815700  0.313800  1.0  0.1267
  H  H246  1  0.297100  0.804400  0.259500  1.0  0.1217
  H  H247  1  0.295800  0.070400  0.427600  1.0  0.1142
  H  H248  1  0.377400  0.028600  0.365600  1.0  0.1029
  H  H249  1  0.870900  0.853600  0.620700  1.0  0.1207
  H  H250  1  0.857200  0.842700  0.658900  1.0  0.1264
  H  H251  1  0.859600  0.802400  0.618800  1.0  0.12
  H  H252  1  0.039400  0.904800  0.709000  1.0  0.0922
  H  H253  1  0.969700  0.827100  0.920400  1.0  0.0779
  H  H254  1  0.818600  0.799200  0.780200  1.0  0.123
  H  H255  1  0.815700  0.813800  0.829500  1.0  0.1268
  H  H256  1  0.804400  0.759500  0.797100  1.0  0.1216
  H  H257  1  0.070400  0.927600  0.795800  1.0  0.1159
  H  H258  1  0.028600  0.865600  0.877400  1.0  0.101
  H  H259  1  0.629100  0.249800  0.982700  1.0  0.1213
  H  H260  1  0.642800  0.301700  0.985500  1.0  0.1279
  H  H261  1  0.640400  0.259200  0.942800  1.0  0.1206
  H  H262  1  0.460600  0.169600  0.865400  1.0  0.0897
  H  H263  1  0.530300  0.450700  0.857400  1.0  0.0773
  H  H264  1  0.681400  0.461600  0.980600  1.0  0.1216
  H  H265  1  0.684300  0.513800  0.998100  1.0  0.1278
  H  H266  1  0.695600  0.492700  0.955100  1.0  0.1195
  H  H267  1  0.429600  0.225400  0.857200  1.0  0.1137
  H  H268  1  0.471400  0.348800  0.837000  1.0  0.0983
  H  H269  1  0.767100  0.646400  0.517300  1.0  0.1198
  H  H270  1  0.816200  0.657300  0.514500  1.0  0.1269
  H  H271  1  0.816400  0.697600  0.557200  1.0  0.1236
  H  H272  1  0.804200  0.595200  0.634600  1.0  0.0945
  H  H273  1  0.093300  0.672900  0.642600  1.0  0.0791
  H  H274  1  0.981000  0.700800  0.519400  1.0  0.1245
  H  H275  1  0.015700  0.686200  0.501900  1.0  0.127
  H  H276  1  0.037600  0.740500  0.544900  1.0  0.1205
  H  H277  1  0.868200  0.572400  0.642800  1.0  0.1135
  H  H278  1  0.011800  0.634400  0.663000  1.0  0.1018
  H  H279  1  0.732900  0.250200  0.879300  1.0  0.1205
  H  H280  1  0.683800  0.198300  0.841100  1.0  0.1286
  H  H281  1  0.683600  0.240800  0.881200  1.0  0.1209
  H  H282  1  0.695800  0.330400  0.791000  1.0  0.0914
  H  H283  1  0.406700  0.049300  0.579600  1.0  0.0778
  H  H284  1  0.519000  0.038400  0.719800  1.0  0.1228
  H  H285  1  0.484300  0.986200  0.670500  1.0  0.1275
  H  H286  1  0.462400  0.007300  0.702900  1.0  0.1199
  H  H287  1  0.631800  0.274600  0.704200  1.0  0.1128
  H  H288  1  0.488200  0.151200  0.622600  1.0  0.1017
  H  H289  1  0.982700  0.749800  0.629100  1.0  0.1206
  H  H290  1  0.985500  0.801700  0.642800  1.0  0.1292
  H  H291  1  0.942800  0.759200  0.640400  1.0  0.1207
  H  H292  1  0.865400  0.669600  0.460600  1.0  0.0925
  H  H293  1  0.857400  0.950700  0.530300  1.0  0.0773
  H  H294  1  0.980600  0.961600  0.681400  1.0  0.1213
  H  H295  1  0.998100  0.013800  0.684300  1.0  0.1278
  H  H296  1  0.955100  0.992700  0.695600  1.0  0.1197
  H  H297  1  0.857200  0.725400  0.429600  1.0  0.1109
  H  H298  1  0.837000  0.848800  0.471400  1.0  0.0985
  H  H299  1  0.620700  0.353600  0.870900  1.0  0.1189
  H  H300  1  0.658900  0.342700  0.857200  1.0  0.127
  H  H301  1  0.618800  0.302400  0.859600  1.0  0.1213
  H  H302  1  0.709000  0.404800  0.039400  1.0  0.0945
  H  H303  1  0.920400  0.327100  0.969700  1.0  0.0791
  H  H304  1  0.780200  0.299200  0.818600  1.0  0.1252
  H  H305  1  0.829500  0.313800  0.815700  1.0  0.1271
  H  H306  1  0.797100  0.259500  0.804400  1.0  0.1204
  H  H307  1  0.795800  0.427600  0.070400  1.0  0.1141
  H  H308  1  0.877400  0.365600  0.028600  1.0  0.1016
  H  H309  1  0.879300  0.750200  0.732900  1.0  0.1213
  H  H310  1  0.841100  0.698300  0.683800  1.0  0.1272
  H  H311  1  0.881200  0.740800  0.683600  1.0  0.1203
  H  H312  1  0.791000  0.830400  0.695800  1.0  0.0893
  H  H313  1  0.579600  0.549300  0.406700  1.0  0.0784
  H  H314  1  0.719800  0.538400  0.519000  1.0  0.1233
  H  H315  1  0.670500  0.486200  0.484300  1.0  0.1284
  H  H316  1  0.702900  0.507300  0.462400  1.0  0.1207
  H  H317  1  0.704200  0.774600  0.631800  1.0  0.114
  H  H318  1  0.622600  0.651200  0.488200  1.0  0.1015
  H  H319  1  0.517300  0.146400  0.767100  1.0  0.1207
  H  H320  1  0.514500  0.157300  0.816200  1.0  0.1265
  H  H321  1  0.557200  0.197600  0.816400  1.0  0.1226
  H  H322  1  0.634600  0.095200  0.804200  1.0  0.0904
  H  H323  1  0.642600  0.172900  0.093300  1.0  0.0777
  H  H324  1  0.519400  0.200800  0.981000  1.0  0.1225
  H  H325  1  0.501900  0.186200  0.015700  1.0  0.1274
  H  H326  1  0.544900  0.240500  0.037600  1.0  0.1226
  H  H327  1  0.642800  0.072400  0.868200  1.0  0.1147
  H  H328  1  0.663000  0.134400  0.011800  1.0  0.1013
  H  H329  1  0.232900  0.879300  0.250200  1.0  0.1221
  H  H330  1  0.183800  0.841100  0.198300  1.0  0.1275
  H  H331  1  0.183600  0.881200  0.240800  1.0  0.1211
  H  H332  1  0.195800  0.791000  0.330400  1.0  0.0915
  H  H333  1  0.906700  0.579600  0.049300  1.0  0.079
  H  H334  1  0.019000  0.719800  0.038400  1.0  0.1224
  H  H335  1  0.984300  0.670500  0.986200  1.0  0.127
  H  H336  1  0.962400  0.702900  0.007300  1.0  0.1212
  H  H337  1  0.131800  0.704200  0.274600  1.0  0.1137
  H  H338  1  0.988200  0.622600  0.151200  1.0  0.1035
  H  H339  1  0.267100  0.517300  0.646400  1.0  0.1208
  H  H340  1  0.316200  0.514500  0.657300  1.0  0.1282
  H  H341  1  0.316400  0.557200  0.697600  1.0  0.1199
  H  H342  1  0.304200  0.634600  0.595200  1.0  0.0908
  H  H343  1  0.593300  0.642600  0.672900  1.0  0.0787
  H  H344  1  0.481000  0.519400  0.700800  1.0  0.1213
  H  H345  1  0.515700  0.501900  0.686200  1.0  0.1272
  H  H346  1  0.537600  0.544900  0.740500  1.0  0.119
  H  H347  1  0.368200  0.642800  0.572400  1.0  0.1142
  H  H348  1  0.511800  0.663000  0.634400  1.0  0.1028
  H  H349  1  0.129100  0.982700  0.249800  1.0  0.1215
  H  H350  1  0.142800  0.985500  0.301700  1.0  0.1273
  H  H351  1  0.140400  0.942800  0.259200  1.0  0.1221
  H  H352  1  0.960600  0.865400  0.169600  1.0  0.0918
  H  H353  1  0.030300  0.857400  0.450700  1.0  0.0768
  H  H354  1  0.181400  0.980600  0.461600  1.0  0.1213
  H  H355  1  0.184300  0.998100  0.513800  1.0  0.1273
  H  H356  1  0.195600  0.955100  0.492700  1.0  0.1202
  H  H357  1  0.929600  0.857200  0.225400  1.0  0.1139
  H  H358  1  0.971400  0.837000  0.348800  1.0  0.0997
  H  H359  1  0.370900  0.620700  0.853600  1.0  0.122
  H  H360  1  0.357200  0.658900  0.842700  1.0  0.1275
  H  H361  1  0.359600  0.618800  0.802400  1.0  0.1213
  H  H362  1  0.539400  0.709000  0.904800  1.0  0.0931
  H  H363  1  0.469700  0.920400  0.827100  1.0  0.0779
  H  H364  1  0.318600  0.780200  0.799200  1.0  0.1218
  H  H365  1  0.315700  0.829500  0.813800  1.0  0.127
  H  H366  1  0.304400  0.797100  0.759500  1.0  0.1211
  H  H367  1  0.570400  0.795800  0.927600  1.0  0.115
  H  H368  1  0.528600  0.877400  0.865600  1.0  0.1012
  H  H369  1  0.353600  0.370900  0.120700  1.0  0.1212
  H  H370  1  0.342700  0.357200  0.158900  1.0  0.1275
  H  H371  1  0.302400  0.359600  0.118800  1.0  0.1205
  H  H372  1  0.404800  0.539400  0.209000  1.0  0.0929
  H  H373  1  0.327100  0.469700  0.420400  1.0  0.0791
  H  H374  1  0.299200  0.318600  0.280200  1.0  0.1218
  H  H375  1  0.313800  0.315700  0.329500  1.0  0.1276
  H  H376  1  0.259500  0.304400  0.297100  1.0  0.1204
  H  H377  1  0.427600  0.570400  0.295800  1.0  0.115
  H  H378  1  0.365600  0.528600  0.377400  1.0  0.1014
  H  H379  1  0.749800  0.129100  0.482700  1.0  0.1219
  H  H380  1  0.801700  0.142800  0.485500  1.0  0.128
  H  H381  1  0.759200  0.140400  0.442800  1.0  0.1202
  H  H382  1  0.669600  0.960600  0.365400  1.0  0.0921
  H  H383  1  0.950700  0.030300  0.357400  1.0  0.0805
  H  H384  1  0.961600  0.181400  0.480600  1.0  0.1211
  H  H385  1  0.013800  0.184300  0.498100  1.0  0.1266
  H  H386  1  0.992700  0.195600  0.455100  1.0  0.1216
  H  H387  1  0.725400  0.929600  0.357200  1.0  0.1136
  H  H388  1  0.848800  0.971400  0.337000  1.0  0.0998
  H  H389  1  0.146400  0.267100  0.017300  1.0  0.1181
  H  H390  1  0.157300  0.316200  0.014500  1.0  0.1261
  H  H391  1  0.197600  0.316400  0.057200  1.0  0.12
  H  H392  1  0.095200  0.304200  0.134600  1.0  0.0917
  H  H393  1  0.172900  0.593300  0.142600  1.0  0.0789
  H  H394  1  0.200800  0.481000  0.019400  1.0  0.1247
  H  H395  1  0.186200  0.515700  0.001900  1.0  0.1254
  H  H396  1  0.240500  0.537600  0.044900  1.0  0.1189
  H  H397  1  0.072400  0.368200  0.142800  1.0  0.1137
  H  H398  1  0.134400  0.511800  0.163000  1.0  0.1023
  H  H399  1  0.750200  0.232900  0.379300  1.0  0.1204
  H  H400  1  0.698300  0.183800  0.341100  1.0  0.1279
  H  H401  1  0.740800  0.183600  0.381200  1.0  0.1197
  H  H402  1  0.830400  0.195800  0.291000  1.0  0.0892
  H  H403  1  0.549300  0.906700  0.079600  1.0  0.0774
  H  H404  1  0.538400  0.019000  0.219800  1.0  0.124
  H  H405  1  0.486200  0.984300  0.170500  1.0  0.1301
  H  H406  1  0.507300  0.962400  0.202900  1.0  0.1199
  H  H407  1  0.774600  0.131800  0.204200  1.0  0.1148
  H  H408  1  0.651200  0.988200  0.122600  1.0  0.1018
  H  H409  1  0.750200  0.517300  0.870900  1.0  0.1211
  H  H410  1  0.698300  0.514500  0.857200  1.0  0.1273
  H  H411  1  0.740800  0.557200  0.859600  1.0  0.1201
  H  H412  1  0.830400  0.634600  0.039400  1.0  0.0947
  H  H413  1  0.549300  0.642600  0.969700  1.0  0.0794
  H  H414  1  0.538400  0.519400  0.818600  1.0  0.1235
  H  H415  1  0.486200  0.501900  0.815700  1.0  0.1277
  H  H416  1  0.507300  0.544900  0.804400  1.0  0.1198
  H  H417  1  0.774600  0.642800  0.070400  1.0  0.1136
  H  H418  1  0.651200  0.663000  0.028600  1.0  0.0999
  H  H419  1  0.146400  0.879300  0.629100  1.0  0.1205
  H  H420  1  0.157300  0.841100  0.642800  1.0  0.1271
  H  H421  1  0.197600  0.881200  0.640400  1.0  0.122
  H  H422  1  0.095200  0.791000  0.460600  1.0  0.0904
  H  H423  1  0.172900  0.579600  0.530300  1.0  0.0776
  H  H424  1  0.200800  0.719800  0.681400  1.0  0.1227
  H  H425  1  0.186200  0.670500  0.684300  1.0  0.1276
  H  H426  1  0.240500  0.702900  0.695600  1.0  0.1198
  H  H427  1  0.072400  0.704200  0.429600  1.0  0.1129
  H  H428  1  0.134400  0.622600  0.471400  1.0  0.1021
  H  H429  1  0.749800  0.620700  0.767100  1.0  0.1222
  H  H430  1  0.801700  0.658900  0.816200  1.0  0.1286
  H  H431  1  0.759200  0.618800  0.816400  1.0  0.1198
  H  H432  1  0.669600  0.709000  0.804200  1.0  0.0948
  H  H433  1  0.950700  0.920400  0.093300  1.0  0.0777
  H  H434  1  0.961600  0.780200  0.981000  1.0  0.1213
  H  H435  1  0.013800  0.829500  0.015700  1.0  0.1274
  H  H436  1  0.992700  0.797100  0.037600  1.0  0.1203
  H  H437  1  0.725400  0.795800  0.868200  1.0  0.1141
  H  H438  1  0.848800  0.877400  0.011800  1.0  0.1015
  H  H439  1  0.353600  0.982700  0.732900  1.0  0.1211
  H  H440  1  0.342700  0.985500  0.683800  1.0  0.1274
  H  H441  1  0.302400  0.942800  0.683600  1.0  0.1207
  H  H442  1  0.404800  0.865400  0.695800  1.0  0.09
  H  H443  1  0.327100  0.857400  0.406700  1.0  0.0769
  H  H444  1  0.299200  0.980600  0.519000  1.0  0.1209
  H  H445  1  0.313800  0.998100  0.484300  1.0  0.1275
  H  H446  1  0.259500  0.955100  0.462400  1.0  0.12
  H  H447  1  0.427600  0.857200  0.631800  1.0  0.1146
  H  H448  1  0.365600  0.837000  0.488200  1.0  0.1017
  H  H449  1  0.620700  0.267100  0.249800  1.0  0.1172
  H  H450  1  0.658900  0.316200  0.301700  1.0  0.1264
  H  H451  1  0.618800  0.316400  0.259200  1.0  0.1211
  H  H452  1  0.709000  0.304200  0.169600  1.0  0.0938
  H  H453  1  0.920400  0.593300  0.450700  1.0  0.0772
  H  H454  1  0.780200  0.481000  0.461600  1.0  0.1245
  H  H455  1  0.829500  0.515700  0.513800  1.0  0.1267
  H  H456  1  0.797100  0.537600  0.492700  1.0  0.1197
  H  H457  1  0.795800  0.368200  0.225400  1.0  0.1139
  H  H458  1  0.877400  0.511800  0.348800  1.0  0.1032
  H  H459  1  0.982700  0.232900  0.853600  1.0  0.1208
  H  H460  1  0.985500  0.183800  0.842700  1.0  0.1291
  H  H461  1  0.942800  0.183600  0.802400  1.0  0.1211
  H  H462  1  0.865400  0.195800  0.904800  1.0  0.0907
  H  H463  1  0.857400  0.906700  0.827100  1.0  0.0786
  H  H464  1  0.980600  0.019000  0.799200  1.0  0.1232
  H  H465  1  0.998100  0.984300  0.813800  1.0  0.1301
  H  H466  1  0.955100  0.962400  0.759500  1.0  0.1201
  H  H467  1  0.857200  0.131800  0.927600  1.0  0.1134
  H  H468  1  0.837000  0.988200  0.865600  1.0  0.1019
  H  H469  1  0.517300  0.370900  0.250200  1.0  0.1216
  H  H470  1  0.514500  0.357200  0.198300  1.0  0.1273
  H  H471  1  0.557200  0.359600  0.240800  1.0  0.1227
  H  H472  1  0.634600  0.539400  0.330400  1.0  0.0884
  H  H473  1  0.642600  0.469700  0.049300  1.0  0.0796
  H  H474  1  0.519400  0.318600  0.038400  1.0  0.1218
  H  H475  1  0.501900  0.315700  0.986200  1.0  0.1282
  H  H476  1  0.544900  0.304400  0.007300  1.0  0.12
  H  H477  1  0.642800  0.570400  0.274600  1.0  0.1144
  H  H478  1  0.663000  0.528600  0.151200  1.0  0.0994
  H  H479  1  0.879300  0.129100  0.646400  1.0  0.1213
  H  H480  1  0.841100  0.142800  0.657300  1.0  0.1269
  H  H481  1  0.881200  0.140400  0.697600  1.0  0.1197
  H  H482  1  0.791000  0.960600  0.595200  1.0  0.0902
  H  H483  1  0.579600  0.030300  0.672900  1.0  0.0805
  H  H484  1  0.719800  0.181400  0.700800  1.0  0.1223
  H  H485  1  0.670500  0.184300  0.686200  1.0  0.125
  H  H486  1  0.702900  0.195600  0.740500  1.0  0.1203
  H  H487  1  0.704200  0.929600  0.572400  1.0  0.1141
  H  H488  1  0.622600  0.971400  0.634400  1.0  0.103
  H  H489  1  0.129100  0.146400  0.379300  1.0  0.1221
  H  H490  1  0.142800  0.157300  0.341100  1.0  0.1265
  H  H491  1  0.140400  0.197600  0.381200  1.0  0.1215
  H  H492  1  0.960600  0.095200  0.291000  1.0  0.0895
  H  H493  1  0.030300  0.172900  0.079600  1.0  0.0779
  H  H494  1  0.181400  0.200800  0.219800  1.0  0.1218
  H  H495  1  0.184300  0.186200  0.170500  1.0  0.1267
  H  H496  1  0.195600  0.240500  0.202900  1.0  0.1215
  H  H497  1  0.929600  0.072400  0.204200  1.0  0.1146
  H  H498  1  0.971400  0.134400  0.122600  1.0  0.1027
  H  H499  1  0.370900  0.750200  0.017300  1.0  0.1207
  H  H500  1  0.357200  0.698300  0.014500  1.0  0.1265
  H  H501  1  0.359600  0.740800  0.057200  1.0  0.1197
  H  H502  1  0.539400  0.830400  0.134600  1.0  0.0925
  H  H503  1  0.469700  0.549300  0.142600  1.0  0.0788
  H  H504  1  0.318600  0.538400  0.019400  1.0  0.1232
  H  H505  1  0.315700  0.486200  0.001900  1.0  0.1273
  H  H506  1  0.304400  0.507300  0.044900  1.0  0.1206
  H  H507  1  0.570400  0.774600  0.142800  1.0  0.1153
  H  H508  1  0.528600  0.651200  0.163000  1.0  0.0991
  H  H509  1  0.232900  0.353600  0.482700  1.0  0.1203
  H  H510  1  0.183800  0.342700  0.485500  1.0  0.128
  H  H511  1  0.183600  0.302400  0.442800  1.0  0.1229
  H  H512  1  0.195800  0.404800  0.365400  1.0  0.0877
  H  H513  1  0.906700  0.327100  0.357400  1.0  0.0788
  H  H514  1  0.019000  0.299200  0.480600  1.0  0.1226
  H  H515  1  0.984300  0.313800  0.498100  1.0  0.1271
  H  H516  1  0.962400  0.259500  0.455100  1.0  0.1209
  H  H517  1  0.131800  0.427600  0.357200  1.0  0.1125
  H  H518  1  0.988200  0.365600  0.337000  1.0  0.1011
  H  H519  1  0.267100  0.749800  0.120700  1.0  0.1198
  H  H520  1  0.316200  0.801700  0.158900  1.0  0.1287
  H  H521  1  0.316400  0.759200  0.118800  1.0  0.1197
  H  H522  1  0.304200  0.669600  0.209000  1.0  0.0943
  H  H523  1  0.593300  0.950700  0.420400  1.0  0.0776
  H  H524  1  0.481000  0.961600  0.280200  1.0  0.1219
  H  H525  1  0.515700  0.013800  0.329500  1.0  0.1275
  H  H526  1  0.537600  0.992700  0.297100  1.0  0.1185
  H  H527  1  0.368200  0.725400  0.295800  1.0  0.1129
  H  H528  1  0.511800  0.848800  0.377400  1.0  0.102
  C  C529  1  0.069070  0.252350  0.428300  1.0  0.4147
  C  C530  1  0.036620  0.233730  0.374150  1.0  -0.4341
  C  C531  1  0.115790  0.302030  0.507860  1.0  -0.0186
  C  C532  1  0.110230  0.256050  0.497400  1.0  0.0457
  C  C533  1  0.112340  0.092760  0.456900  1.0  0.0264
  C  C534  1  0.120690  0.052840  0.446330  1.0  0.0003
  C  C535  1  0.067950  0.040900  0.378470  1.0  0.4164
  C  C536  1  0.030150  0.015930  0.324480  1.0  -0.4685
  C  C537  1  0.134000  0.249500  0.539700  1.0  0.1175
  C  C538  1  0.136100  0.141500  0.498800  1.0  0.1274
  C  C539  1  0.324050  0.640770  0.071700  1.0  0.4162
  C  C540  1  0.359580  0.662470  0.125850  1.0  -0.4375
  C  C541  1  0.294170  0.607930  0.992140  1.0  -0.0134
  C  C542  1  0.258650  0.612830  0.002600  1.0  0.0485
  C  C543  1  0.135860  0.655440  0.043100  1.0  0.027
  C  C544  1  0.106510  0.674360  0.053670  1.0  0.0031
  C  C545  1  0.162430  0.689480  0.121530  1.0  0.4203
  C  C546  1  0.191450  0.705670  0.175520  1.0  -0.4728
  C  C547  1  0.209800  0.594300  0.960300  1.0  0.1201
  C  C548  1  0.142700  0.637300  0.001200  1.0  0.1382
  C  C549  1  0.175950  0.247650  0.316720  1.0  0.4173
  C  C550  1  0.140420  0.266270  0.302890  1.0  -0.4321
  C  C551  1  0.205830  0.197970  0.313760  1.0  -0.0187
  C  C552  1  0.241350  0.243950  0.354180  1.0  0.0451
  C  C553  1  0.364140  0.407240  0.519580  1.0  0.0271
  C  C554  1  0.393490  0.447160  0.567850  1.0  0.0013
  C  C555  1  0.337570  0.459100  0.527050  1.0  0.4191
  C  C556  1  0.308550  0.484070  0.514220  1.0  -0.4679
  C  C557  1  0.290200  0.250500  0.384500  1.0  0.112
  C  C558  1  0.357300  0.358500  0.494600  1.0  0.1286
  C  C559  1  0.430930  0.859230  0.183280  1.0  0.4142
  C  C560  1  0.463380  0.837530  0.197110  1.0  -0.4341
  C  C561  1  0.384210  0.892070  0.186240  1.0  -0.0194
  C  C562  1  0.389770  0.887170  0.145820  1.0  0.0461
  C  C563  1  0.387660  0.844560  0.980420  1.0  0.0268
  C  C564  1  0.379310  0.825640  0.932150  1.0  0.0054
  C  C565  1  0.432050  0.810520  0.972950  1.0  0.4181
  C  C566  1  0.469850  0.794330  0.985780  1.0  -0.4698
  C  C567  1  0.366000  0.905700  0.115500  1.0  0.1143
  C  C568  1  0.363900  0.862700  0.005400  1.0  0.131
  C  C569  1  0.816720  0.175950  0.747650  1.0  0.4136
  C  C570  1  0.802890  0.140420  0.766270  1.0  -0.4376
  C  C571  1  0.813760  0.205830  0.697970  1.0  -0.0194
  C  C572  1  0.854180  0.241350  0.743950  1.0  0.0494
  C  C573  1  0.019580  0.364140  0.907240  1.0  0.0302
  C  C574  1  0.067850  0.393490  0.947160  1.0  1e-04
  C  C575  1  0.027050  0.337570  0.959100  1.0  0.4149
  C  C576  1  0.014220  0.308550  0.984070  1.0  -0.4704
  C  C577  1  0.884500  0.290200  0.750500  1.0  0.1214
  C  C578  1  0.994600  0.357300  0.858500  1.0  0.1269
  C  C579  1  0.683280  0.430930  0.359230  1.0  0.4149
  C  C580  1  0.697110  0.463380  0.337530  1.0  -0.4347
  C  C581  1  0.686240  0.384210  0.392070  1.0  -0.0165
  C  C582  1  0.645820  0.389770  0.387170  1.0  0.0502
  C  C583  1  0.480420  0.387660  0.344560  1.0  0.03
  C  C584  1  0.432150  0.379310  0.325640  1.0  0.0018
  C  C585  1  0.472950  0.432050  0.310520  1.0  0.4183
  C  C586  1  0.485780  0.469850  0.294330  1.0  -0.4679
  C  C587  1  0.615500  0.366000  0.405700  1.0  0.1164
  C  C588  1  0.505400  0.363900  0.362700  1.0  0.1333
  C  C589  1  0.928300  0.069070  0.752350  1.0  0.4169
  C  C590  1  0.874150  0.036620  0.733730  1.0  -0.4324
  C  C591  1  0.007860  0.115790  0.802030  1.0  -0.0194
  C  C592  1  0.997400  0.110230  0.756050  1.0  0.0472
  C  C593  1  0.956900  0.112340  0.592760  1.0  0.025
  C  C594  1  0.946330  0.120690  0.552840  1.0  0.0032
  C  C595  1  0.878470  0.067950  0.540900  1.0  0.4178
  C  C596  1  0.824480  0.030150  0.515930  1.0  -0.4702
  C  C597  1  0.039700  0.134000  0.749500  1.0  0.1148
  C  C598  1  0.998800  0.136100  0.641500  1.0  0.1312
  C  C599  1  0.571700  0.324050  0.140770  1.0  0.4165
  C  C600  1  0.625850  0.359580  0.162470  1.0  -0.4337
  C  C601  1  0.492140  0.294170  0.107930  1.0  -0.0197
  C  C602  1  0.502600  0.258650  0.112830  1.0  0.0499
  C  C603  1  0.543100  0.135860  0.155440  1.0  0.0333
  C  C604  1  0.553670  0.106510  0.174360  1.0  0.004
  C  C605  1  0.621530  0.162430  0.189480  1.0  0.4195
  C  C606  1  0.675520  0.191450  0.205670  1.0  -0.4705
  C  C607  1  0.460300  0.209800  0.094300  1.0  0.1127
  C  C608  1  0.501200  0.142700  0.137300  1.0  0.141
  C  C609  1  0.640770  0.571700  0.824050  1.0  0.4169
  C  C610  1  0.662470  0.625850  0.859580  1.0  -0.4345
  C  C611  1  0.607930  0.492140  0.794170  1.0  -0.0154
  C  C612  1  0.612830  0.502600  0.758650  1.0  0.047
  C  C613  1  0.655440  0.543100  0.635860  1.0  0.0286
  C  C614  1  0.674360  0.553670  0.606510  1.0  0.0008
  C  C615  1  0.689480  0.621530  0.662430  1.0  0.4186
  C  C616  1  0.705670  0.675520  0.691450  1.0  -0.4719
  C  C617  1  0.594300  0.460300  0.709800  1.0  0.1134
  C  C618  1  0.637300  0.501200  0.642700  1.0  0.1327
  C  C619  1  0.252350  0.928300  0.569070  1.0  0.4144
  C  C620  1  0.233730  0.874150  0.536620  1.0  -0.4354
  C  C621  1  0.302030  0.007860  0.615790  1.0  -0.0185
  C  C622  1  0.256050  0.997400  0.610230  1.0  0.0496
  C  C623  1  0.092760  0.956900  0.612340  1.0  0.0264
  C  C624  1  0.052840  0.946330  0.620690  1.0  0.0018
  C  C625  1  0.040900  0.878470  0.567950  1.0  0.4188
  C  C626  1  0.015930  0.824480  0.530150  1.0  -0.474
  C  C627  1  0.249500  0.039700  0.634000  1.0  0.1287
  C  C628  1  0.141500  0.998800  0.636100  1.0  0.1302
  C  C629  1  0.859230  0.683280  0.930930  1.0  0.414
  C  C630  1  0.837530  0.697110  0.963380  1.0  -0.4367
  C  C631  1  0.892070  0.686240  0.884210  1.0  -0.0132
  C  C632  1  0.887170  0.645820  0.889770  1.0  0.0471
  C  C633  1  0.844560  0.480420  0.887660  1.0  0.0297
  C  C634  1  0.825640  0.432150  0.879310  1.0  -0.001
  C  C635  1  0.810520  0.472950  0.932050  1.0  0.4156
  C  C636  1  0.794330  0.485780  0.969850  1.0  -0.4722
  C  C637  1  0.905700  0.615500  0.866000  1.0  0.118
  C  C638  1  0.862700  0.505400  0.863900  1.0  0.1284
  C  C639  1  0.247650  0.816720  0.675950  1.0  0.4168
  C  C640  1  0.266270  0.802890  0.640420  1.0  -0.435
  C  C641  1  0.197970  0.813760  0.705830  1.0  -0.0179
  C  C642  1  0.243950  0.854180  0.741350  1.0  0.0461
  C  C643  1  0.407240  0.019580  0.864140  1.0  0.0335
  C  C644  1  0.447160  0.067850  0.893490  1.0  0.0006
  C  C645  1  0.459100  0.027050  0.837570  1.0  0.4203
  C  C646  1  0.484070  0.014220  0.808550  1.0  -0.4697
  C  C647  1  0.250500  0.884500  0.790200  1.0  0.1173
  C  C648  1  0.358500  0.994600  0.857300  1.0  0.1291
  C  C649  1  0.247650  0.430930  0.071700  1.0  0.4141
  C  C650  1  0.266270  0.463380  0.125850  1.0  -0.4362
  C  C651  1  0.197970  0.384210  0.992140  1.0  -0.0181
  C  C652  1  0.243950  0.389770  0.002600  1.0  0.0501
  C  C653  1  0.407240  0.387660  0.043100  1.0  0.0287
  C  C654  1  0.447160  0.379310  0.053670  1.0  0.0014
  C  C655  1  0.459100  0.432050  0.121530  1.0  0.4204
  C  C656  1  0.484070  0.469850  0.175520  1.0  -0.4696
  C  C657  1  0.250500  0.366000  0.960300  1.0  0.1173
  C  C658  1  0.358500  0.363900  0.001200  1.0  0.1324
  C  C659  1  0.859230  0.175950  0.428300  1.0  0.4143
  C  C660  1  0.837530  0.140420  0.374150  1.0  -0.4357
  C  C661  1  0.892070  0.205830  0.507860  1.0  -0.0161
  C  C662  1  0.887170  0.241350  0.497400  1.0  0.0502
  C  C663  1  0.844560  0.364140  0.456900  1.0  0.0263
  C  C664  1  0.825640  0.393490  0.446330  1.0  -0.0022
  C  C665  1  0.810520  0.337570  0.378470  1.0  0.4188
  C  C666  1  0.794330  0.308550  0.324480  1.0  -0.4679
  C  C667  1  0.905700  0.290200  0.539700  1.0  0.1161
  C  C668  1  0.862700  0.357300  0.498800  1.0  0.1247
  C  C669  1  0.252350  0.324050  0.183280  1.0  0.417
  C  C670  1  0.233730  0.359580  0.197110  1.0  -0.433
  C  C671  1  0.302030  0.294170  0.186240  1.0  -0.0191
  C  C672  1  0.256050  0.258650  0.145820  1.0  0.0477
  C  C673  1  0.092760  0.135860  0.980420  1.0  0.0271
  C  C674  1  0.052840  0.106510  0.932150  1.0  0.0002
  C  C675  1  0.040900  0.162430  0.972950  1.0  0.4195
  C  C676  1  0.015930  0.191450  0.985780  1.0  -0.4679
  C  C677  1  0.249500  0.209800  0.115500  1.0  0.1141
  C  C678  1  0.141500  0.142700  0.005400  1.0  0.1335
  C  C679  1  0.640770  0.069070  0.316720  1.0  0.4146
  C  C680  1  0.662470  0.036620  0.302890  1.0  -0.433
  C  C681  1  0.607930  0.115790  0.313760  1.0  -0.0212
  C  C682  1  0.612830  0.110230  0.354180  1.0  0.0483
  C  C683  1  0.655440  0.112340  0.519580  1.0  0.0312
  C  C684  1  0.674360  0.120690  0.567850  1.0  0.0053
  C  C685  1  0.689480  0.067950  0.527050  1.0  0.4187
  C  C686  1  0.705670  0.030150  0.514220  1.0  -0.4712
  C  C687  1  0.594300  0.134000  0.384500  1.0  0.1117
  C  C688  1  0.637300  0.136100  0.494600  1.0  0.132
  C  C689  1  0.324050  0.683280  0.752350  1.0  0.4147
  C  C690  1  0.359580  0.697110  0.733730  1.0  -0.4352
  C  C691  1  0.294170  0.686240  0.802030  1.0  -0.0156
  C  C692  1  0.258650  0.645820  0.756050  1.0  0.0478
  C  C693  1  0.135860  0.480420  0.592760  1.0  0.0275
  C  C694  1  0.106510  0.432150  0.552840  1.0  0.0009
  C  C695  1  0.162430  0.472950  0.540900  1.0  0.4185
  C  C696  1  0.191450  0.485780  0.515930  1.0  -0.4711
  C  C697  1  0.209800  0.615500  0.749500  1.0  0.1179
  C  C698  1  0.142700  0.505400  0.641500  1.0  0.1375
  C  C699  1  0.069070  0.816720  0.140770  1.0  0.414
  C  C700  1  0.036620  0.802890  0.162470  1.0  -0.4364
  C  C701  1  0.115790  0.813760  0.107930  1.0  -0.0183
  C  C702  1  0.110230  0.854180  0.112830  1.0  0.0466
  C  C703  1  0.112340  0.019580  0.155440  1.0  0.0263
  C  C704  1  0.120690  0.067850  0.174360  1.0  -0.0017
  C  C705  1  0.067950  0.027050  0.189480  1.0  0.4194
  C  C706  1  0.030150  0.014220  0.205670  1.0  -0.4665
  C  C707  1  0.134000  0.884500  0.094300  1.0  0.1194
  C  C708  1  0.136100  0.994600  0.137300  1.0  0.1293
  C  C709  1  0.430930  0.571700  0.747650  1.0  0.414
  C  C710  1  0.463380  0.625850  0.766270  1.0  -0.4344
  C  C711  1  0.384210  0.492140  0.697970  1.0  -0.0163
  C  C712  1  0.389770  0.502600  0.743950  1.0  0.0481
  C  C713  1  0.387660  0.543100  0.907240  1.0  0.0272
  C  C714  1  0.379310  0.553670  0.947160  1.0  0.0039
  C  C715  1  0.432050  0.621530  0.959100  1.0  0.4206
  C  C716  1  0.469850  0.675520  0.984070  1.0  -0.4695
  C  C717  1  0.366000  0.460300  0.750500  1.0  0.1155
  C  C718  1  0.363900  0.501200  0.858500  1.0  0.1367
  C  C719  1  0.175950  0.928300  0.359230  1.0  0.4172
  C  C720  1  0.140420  0.874150  0.337530  1.0  -0.4357
  C  C721  1  0.205830  0.007860  0.392070  1.0  -0.0182
  C  C722  1  0.241350  0.997400  0.387170  1.0  0.0487
  C  C723  1  0.364140  0.956900  0.344560  1.0  0.0275
  C  C724  1  0.393490  0.946330  0.325640  1.0  0.0007
  C  C725  1  0.337570  0.878470  0.310520  1.0  0.4206
  C  C726  1  0.308550  0.824480  0.294330  1.0  -0.4737
  C  C727  1  0.290200  0.039700  0.405700  1.0  0.1198
  C  C728  1  0.357300  0.998800  0.362700  1.0  0.1305
  C  C729  1  0.928300  0.859230  0.675950  1.0  0.4167
  C  C730  1  0.874150  0.837530  0.640420  1.0  -0.4323
  C  C731  1  0.007860  0.892070  0.705830  1.0  -0.0178
  C  C732  1  0.997400  0.887170  0.741350  1.0  0.0459
  C  C733  1  0.956900  0.844560  0.864140  1.0  0.0268
  C  C734  1  0.946330  0.825640  0.893490  1.0  0.0036
  C  C735  1  0.878470  0.810520  0.837570  1.0  0.4146
  C  C736  1  0.824480  0.794330  0.808550  1.0  -0.467
  C  C737  1  0.039700  0.905700  0.790200  1.0  0.1124
  C  C738  1  0.998800  0.862700  0.857300  1.0  0.1262
  C  C739  1  0.571700  0.247650  0.930930  1.0  0.4168
  C  C740  1  0.625850  0.266270  0.963380  1.0  -0.4346
  C  C741  1  0.492140  0.197970  0.884210  1.0  -0.0212
  C  C742  1  0.502600  0.243950  0.889770  1.0  0.0466
  C  C743  1  0.543100  0.407240  0.887660  1.0  0.0248
  C  C744  1  0.553670  0.447160  0.879310  1.0  0.0012
  C  C745  1  0.621530  0.459100  0.932050  1.0  0.4202
  C  C746  1  0.675520  0.484070  0.969850  1.0  -0.4707
  C  C747  1  0.460300  0.250500  0.866000  1.0  0.1153
  C  C748  1  0.501200  0.358500  0.863900  1.0  0.1374
  C  C749  1  0.816720  0.640770  0.569070  1.0  0.4154
  C  C750  1  0.802890  0.662470  0.536620  1.0  -0.4345
  C  C751  1  0.813760  0.607930  0.615790  1.0  -0.0145
  C  C752  1  0.854180  0.612830  0.610230  1.0  0.0457
  C  C753  1  0.019580  0.655440  0.612340  1.0  0.0298
  C  C754  1  0.067850  0.674360  0.620690  1.0  0.0023
  C  C755  1  0.027050  0.689480  0.567950  1.0  0.4167
  C  C756  1  0.014220  0.705670  0.530150  1.0  -0.4685
  C  C757  1  0.884500  0.594300  0.634000  1.0  0.1187
  C  C758  1  0.994600  0.637300  0.636100  1.0  0.1287
  C  C759  1  0.683280  0.252350  0.824050  1.0  0.4163
  C  C760  1  0.697110  0.233730  0.859580  1.0  -0.4371
  C  C761  1  0.686240  0.302030  0.794170  1.0  -0.0177
  C  C762  1  0.645820  0.256050  0.758650  1.0  0.0479
  C  C763  1  0.480420  0.092760  0.635860  1.0  0.0277
  C  C764  1  0.432150  0.052840  0.606510  1.0  0.0007
  C  C765  1  0.472950  0.040900  0.662430  1.0  0.4213
  C  C766  1  0.485780  0.015930  0.691450  1.0  -0.467
  C  C767  1  0.615500  0.249500  0.709800  1.0  0.1185
  C  C768  1  0.505400  0.141500  0.642700  1.0  0.1365
  C  C769  1  0.930930  0.747650  0.571700  1.0  0.4175
  C  C770  1  0.963380  0.766270  0.625850  1.0  -0.4373
  C  C771  1  0.884210  0.697970  0.492140  1.0  -0.017
  C  C772  1  0.889770  0.743950  0.502600  1.0  0.0483
  C  C773  1  0.887660  0.907240  0.543100  1.0  0.0268
  C  C774  1  0.879310  0.947160  0.553670  1.0  0.0022
  C  C775  1  0.932050  0.959100  0.621530  1.0  0.4215
  C  C776  1  0.969850  0.984070  0.675520  1.0  -0.4675
  C  C777  1  0.866000  0.750500  0.460300  1.0  0.122
  C  C778  1  0.863900  0.858500  0.501200  1.0  0.1387
  C  C779  1  0.675950  0.359230  0.928300  1.0  0.4144
  C  C780  1  0.640420  0.337530  0.874150  1.0  -0.4343
  C  C781  1  0.705830  0.392070  0.007860  1.0  -0.0144
  C  C782  1  0.741350  0.387170  0.997400  1.0  0.046
  C  C783  1  0.864140  0.344560  0.956900  1.0  0.0267
  C  C784  1  0.893490  0.325640  0.946330  1.0  0.0009
  C  C785  1  0.837570  0.310520  0.878470  1.0  0.4147
  C  C786  1  0.808550  0.294330  0.824480  1.0  -0.4709
  C  C787  1  0.790200  0.405700  0.039700  1.0  0.1182
  C  C788  1  0.857300  0.362700  0.998800  1.0  0.1281
  C  C789  1  0.824050  0.752350  0.683280  1.0  0.4164
  C  C790  1  0.859580  0.733730  0.697110  1.0  -0.4344
  C  C791  1  0.794170  0.802030  0.686240  1.0  -0.0225
  C  C792  1  0.758650  0.756050  0.645820  1.0  0.0474
  C  C793  1  0.635860  0.592760  0.480420  1.0  0.0261
  C  C794  1  0.606510  0.552840  0.432150  1.0  0.0028
  C  C795  1  0.662430  0.540900  0.472950  1.0  0.4206
  C  C796  1  0.691450  0.515930  0.485780  1.0  -0.4707
  C  C797  1  0.709800  0.749500  0.615500  1.0  0.1135
  C  C798  1  0.642700  0.641500  0.505400  1.0  0.1378
  C  C799  1  0.569070  0.140770  0.816720  1.0  0.4141
  C  C800  1  0.536620  0.162470  0.802890  1.0  -0.4322
  C  C801  1  0.615790  0.107930  0.813760  1.0  -0.0187
  C  C802  1  0.610230  0.112830  0.854180  1.0  0.0466
  C  C803  1  0.612340  0.155440  0.019580  1.0  0.0246
  C  C804  1  0.620690  0.174360  0.067850  1.0  0.0033
  C  C805  1  0.567950  0.189480  0.027050  1.0  0.4176
  C  C806  1  0.530150  0.205670  0.014220  1.0  -0.4645
  C  C807  1  0.634000  0.094300  0.884500  1.0  0.1115
  C  C808  1  0.636100  0.137300  0.994600  1.0  0.1262
  C  C809  1  0.183280  0.824050  0.252350  1.0  0.4164
  C  C810  1  0.197110  0.859580  0.233730  1.0  -0.4355
  C  C811  1  0.186240  0.794170  0.302030  1.0  -0.0164
  C  C812  1  0.145820  0.758650  0.256050  1.0  0.0499
  C  C813  1  0.980420  0.635860  0.092760  1.0  0.0276
  C  C814  1  0.932150  0.606510  0.052840  1.0  -0.003
  C  C815  1  0.972950  0.662430  0.040900  1.0  0.4204
  C  C816  1  0.985780  0.691450  0.015930  1.0  -0.4699
  C  C817  1  0.115500  0.709800  0.249500  1.0  0.1169
  C  C818  1  0.005400  0.642700  0.141500  1.0  0.1296
  C  C819  1  0.316720  0.569070  0.640770  1.0  0.4136
  C  C820  1  0.302890  0.536620  0.662470  1.0  -0.4359
  C  C821  1  0.313760  0.615790  0.607930  1.0  -0.0187
  C  C822  1  0.354180  0.610230  0.612830  1.0  0.0508
  C  C823  1  0.519580  0.612340  0.655440  1.0  0.0298
  C  C824  1  0.567850  0.620690  0.674360  1.0  0.0013
  C  C825  1  0.527050  0.567950  0.689480  1.0  0.4162
  C  C826  1  0.514220  0.530150  0.705670  1.0  -0.4693
  C  C827  1  0.384500  0.634000  0.594300  1.0  0.1165
  C  C828  1  0.494600  0.636100  0.637300  1.0  0.1297
  C  C829  1  0.071700  0.930930  0.247650  1.0  0.4146
  C  C830  1  0.125850  0.963380  0.266270  1.0  -0.4328
  C  C831  1  0.992140  0.884210  0.197970  1.0  -0.0205
  C  C832  1  0.002600  0.889770  0.243950  1.0  0.0476
  C  C833  1  0.043100  0.887660  0.407240  1.0  0.0301
  C  C834  1  0.053670  0.879310  0.447160  1.0  0.0048
  C  C835  1  0.121530  0.932050  0.459100  1.0  0.419
  C  C836  1  0.175520  0.969850  0.484070  1.0  -0.4691
  C  C837  1  0.960300  0.866000  0.250500  1.0  0.1122
  C  C838  1  0.001200  0.863900  0.358500  1.0  0.1398
  C  C839  1  0.428300  0.675950  0.859230  1.0  0.4155
  C  C840  1  0.374150  0.640420  0.837530  1.0  -0.433
  C  C841  1  0.507860  0.705830  0.892070  1.0  -0.0188
  C  C842  1  0.497400  0.741350  0.887170  1.0  0.0476
  C  C843  1  0.456900  0.864140  0.844560  1.0  0.0268
  C  C844  1  0.446330  0.893490  0.825640  1.0  0.0002
  C  C845  1  0.378470  0.837570  0.810520  1.0  0.4142
  C  C846  1  0.324480  0.808550  0.794330  1.0  -0.4686
  C  C847  1  0.539700  0.790200  0.905700  1.0  0.1143
  C  C848  1  0.498800  0.857300  0.862700  1.0  0.1304
  C  C849  1  0.359230  0.428300  0.175950  1.0  0.4145
  C  C850  1  0.337530  0.374150  0.140420  1.0  -0.4343
  C  C851  1  0.392070  0.507860  0.205830  1.0  -0.017
  C  C852  1  0.387170  0.497400  0.241350  1.0  0.0492
  C  C853  1  0.344560  0.456900  0.364140  1.0  0.0316
  C  C854  1  0.325640  0.446330  0.393490  1.0  0.0011
  C  C855  1  0.310520  0.378470  0.337570  1.0  0.4206
  C  C856  1  0.294330  0.324480  0.308550  1.0  -0.4739
  C  C857  1  0.405700  0.539700  0.290200  1.0  0.1208
  C  C858  1  0.362700  0.498800  0.357300  1.0  0.1323
  C  C859  1  0.747650  0.071700  0.430930  1.0  0.4172
  C  C860  1  0.766270  0.125850  0.463380  1.0  -0.4362
  C  C861  1  0.697970  0.992140  0.384210  1.0  -0.0185
  C  C862  1  0.743950  0.002600  0.389770  1.0  0.0486
  C  C863  1  0.907240  0.043100  0.387660  1.0  0.0257
  C  C864  1  0.947160  0.053670  0.379310  1.0  0.0026
  C  C865  1  0.959100  0.121530  0.432050  1.0  0.421
  C  C866  1  0.984070  0.175520  0.469850  1.0  -0.4714
  C  C867  1  0.750500  0.960300  0.366000  1.0  0.1128
  C  C868  1  0.858500  0.001200  0.363900  1.0  0.1354
  C  C869  1  0.140770  0.316720  0.069070  1.0  0.4148
  C  C870  1  0.162470  0.302890  0.036620  1.0  -0.4348
  C  C871  1  0.107930  0.313760  0.115790  1.0  -0.0155
  C  C872  1  0.112830  0.354180  0.110230  1.0  0.0477
  C  C873  1  0.155440  0.519580  0.112340  1.0  0.0264
  C  C874  1  0.174360  0.567850  0.120690  1.0  -0.0003
  C  C875  1  0.189480  0.527050  0.067950  1.0  0.4155
  C  C876  1  0.205670  0.514220  0.030150  1.0  -0.4687
  C  C877  1  0.094300  0.384500  0.134000  1.0  0.1168
  C  C878  1  0.137300  0.494600  0.136100  1.0  0.1337
  C  C879  1  0.752350  0.183280  0.324050  1.0  0.4145
  C  C880  1  0.733730  0.197110  0.359580  1.0  -0.436
  C  C881  1  0.802030  0.186240  0.294170  1.0  -0.0175
  C  C882  1  0.756050  0.145820  0.258650  1.0  0.0467
  C  C883  1  0.592760  0.980420  0.135860  1.0  0.0273
  C  C884  1  0.552840  0.932150  0.106510  1.0  -0.0011
  C  C885  1  0.540900  0.972950  0.162430  1.0  0.4175
  C  C886  1  0.515930  0.985780  0.191450  1.0  -0.4705
  C  C887  1  0.749500  0.115500  0.209800  1.0  0.1179
  C  C888  1  0.641500  0.005400  0.142700  1.0  0.1343
  C  C889  1  0.752350  0.569070  0.928300  1.0  0.4166
  C  C890  1  0.733730  0.536620  0.874150  1.0  -0.4353
  C  C891  1  0.802030  0.615790  0.007860  1.0  -0.0178
  C  C892  1  0.756050  0.610230  0.997400  1.0  0.05
  C  C893  1  0.592760  0.612340  0.956900  1.0  0.0281
  C  C894  1  0.552840  0.620690  0.946330  1.0  -0.0006
  C  C895  1  0.540900  0.567950  0.878470  1.0  0.4164
  C  C896  1  0.515930  0.530150  0.824480  1.0  -0.4694
  C  C897  1  0.749500  0.634000  0.039700  1.0  0.121
  C  C898  1  0.641500  0.636100  0.998800  1.0  0.1266
  C  C899  1  0.140770  0.824050  0.571700  1.0  0.4164
  C  C900  1  0.162470  0.859580  0.625850  1.0  -0.4373
  C  C901  1  0.107930  0.794170  0.492140  1.0  -0.0162
  C  C902  1  0.112830  0.758650  0.502600  1.0  0.0502
  C  C903  1  0.155440  0.635860  0.543100  1.0  0.0304
  C  C904  1  0.174360  0.606510  0.553670  1.0  -0.0017
  C  C905  1  0.189480  0.662430  0.621530  1.0  0.4184
  C  C906  1  0.205670  0.691450  0.675520  1.0  -0.4697
  C  C907  1  0.094300  0.709800  0.460300  1.0  0.1263
  C  C908  1  0.137300  0.642700  0.501200  1.0  0.1344
  C  C909  1  0.747650  0.675950  0.816720  1.0  0.4169
  C  C910  1  0.766270  0.640420  0.802890  1.0  -0.434
  C  C911  1  0.697970  0.705830  0.813760  1.0  -0.0198
  C  C912  1  0.743950  0.741350  0.854180  1.0  0.0488
  C  C913  1  0.907240  0.864140  0.019580  1.0  0.0337
  C  C914  1  0.947160  0.893490  0.067850  1.0  0.0029
  C  C915  1  0.959100  0.837570  0.027050  1.0  0.4203
  C  C916  1  0.984070  0.808550  0.014220  1.0  -0.4706
  C  C917  1  0.750500  0.790200  0.884500  1.0  0.1115
  C  C918  1  0.858500  0.857300  0.994600  1.0  0.1327
  C  C919  1  0.359230  0.930930  0.683280  1.0  0.4143
  C  C920  1  0.337530  0.963380  0.697110  1.0  -0.4326
  C  C921  1  0.392070  0.884210  0.686240  1.0  -0.0185
  C  C922  1  0.387170  0.889770  0.645820  1.0  0.0462
  C  C923  1  0.344560  0.887660  0.480420  1.0  0.0254
  C  C924  1  0.325640  0.879310  0.432150  1.0  0.0024
  C  C925  1  0.310520  0.932050  0.472950  1.0  0.4175
  C  C926  1  0.294330  0.969850  0.485780  1.0  -0.4687
  C  C927  1  0.405700  0.866000  0.615500  1.0  0.1134
  C  C928  1  0.362700  0.863900  0.505400  1.0  0.1316
  C  C929  1  0.675950  0.316720  0.247650  1.0  0.4138
  C  C930  1  0.640420  0.302890  0.266270  1.0  -0.4368
  C  C931  1  0.705830  0.313760  0.197970  1.0  -0.014
  C  C932  1  0.741350  0.354180  0.243950  1.0  0.0472
  C  C933  1  0.864140  0.519580  0.407240  1.0  0.0307
  C  C934  1  0.893490  0.567850  0.447160  1.0  -0.0014
  C  C935  1  0.837570  0.527050  0.459100  1.0  0.4155
  C  C936  1  0.808550  0.514220  0.484070  1.0  -0.4701
  C  C937  1  0.790200  0.384500  0.250500  1.0  0.1191
  C  C938  1  0.857300  0.494600  0.358500  1.0  0.128
  C  C939  1  0.930930  0.183280  0.859230  1.0  0.4162
  C  C940  1  0.963380  0.197110  0.837530  1.0  -0.4353
  C  C941  1  0.884210  0.186240  0.892070  1.0  -0.0182
  C  C942  1  0.889770  0.145820  0.887170  1.0  0.0462
  C  C943  1  0.887660  0.980420  0.844560  1.0  0.032
  C  C944  1  0.879310  0.932150  0.825640  1.0  0.0015
  C  C945  1  0.932050  0.972950  0.810520  1.0  0.4197
  C  C946  1  0.969850  0.985780  0.794330  1.0  -0.471
  C  C947  1  0.866000  0.115500  0.905700  1.0  0.1183
  C  C948  1  0.863900  0.005400  0.862700  1.0  0.1377
  C  C949  1  0.569070  0.428300  0.252350  1.0  0.416
  C  C950  1  0.536620  0.374150  0.233730  1.0  -0.434
  C  C951  1  0.615790  0.507860  0.302030  1.0  -0.0164
  C  C952  1  0.610230  0.497400  0.256050  1.0  0.0476
  C  C953  1  0.612340  0.456900  0.092760  1.0  0.027
  C  C954  1  0.620690  0.446330  0.052840  1.0  -0.0003
  C  C955  1  0.567950  0.378470  0.040900  1.0  0.4176
  C  C956  1  0.530150  0.324480  0.015930  1.0  -0.4753
  C  C957  1  0.634000  0.539700  0.249500  1.0  0.1191
  C  C958  1  0.636100  0.498800  0.141500  1.0  0.1289
  C  C959  1  0.824050  0.071700  0.640770  1.0  0.4141
  C  C960  1  0.859580  0.125850  0.662470  1.0  -0.4351
  C  C961  1  0.794170  0.992140  0.607930  1.0  -0.0173
  C  C962  1  0.758650  0.002600  0.612830  1.0  0.0487
  C  C963  1  0.635860  0.043100  0.655440  1.0  0.0295
  C  C964  1  0.606510  0.053670  0.674360  1.0  0.0044
  C  C965  1  0.662430  0.121530  0.689480  1.0  0.4187
  C  C966  1  0.691450  0.175520  0.705670  1.0  -0.4712
  C  C967  1  0.709800  0.960300  0.594300  1.0  0.1159
  C  C968  1  0.642700  0.001200  0.637300  1.0  0.1321
  C  C969  1  0.071700  0.140770  0.324050  1.0  0.4142
  C  C970  1  0.125850  0.162470  0.359580  1.0  -0.4338
  C  C971  1  0.992140  0.107930  0.294170  1.0  -0.0189
  C  C972  1  0.002600  0.112830  0.258650  1.0  0.0466
  C  C973  1  0.043100  0.155440  0.135860  1.0  0.0319
  C  C974  1  0.053670  0.174360  0.106510  1.0  0.0044
  C  C975  1  0.121530  0.189480  0.162430  1.0  0.4197
  C  C976  1  0.175520  0.205670  0.191450  1.0  -0.4699
  C  C977  1  0.960300  0.094300  0.209800  1.0  0.1146
  C  C978  1  0.001200  0.137300  0.142700  1.0  0.1297
  C  C979  1  0.428300  0.752350  0.069070  1.0  0.4162
  C  C980  1  0.374150  0.733730  0.036620  1.0  -0.4319
  C  C981  1  0.507860  0.802030  0.115790  1.0  -0.0208
  C  C982  1  0.497400  0.756050  0.110230  1.0  0.0459
  C  C983  1  0.456900  0.592760  0.112340  1.0  0.0238
  C  C984  1  0.446330  0.552840  0.120690  1.0  0.0026
  C  C985  1  0.378470  0.540900  0.067950  1.0  0.4147
  C  C986  1  0.324480  0.515930  0.030150  1.0  -0.4676
  C  C987  1  0.539700  0.749500  0.134000  1.0  0.1114
  C  C988  1  0.498800  0.641500  0.136100  1.0  0.1294
  C  C989  1  0.183280  0.359230  0.430930  1.0  0.4163
  C  C990  1  0.197110  0.337530  0.463380  1.0  -0.4377
  C  C991  1  0.186240  0.392070  0.384210  1.0  -0.0134
  C  C992  1  0.145820  0.387170  0.389770  1.0  0.0477
  C  C993  1  0.980420  0.344560  0.387660  1.0  0.0255
  C  C994  1  0.932150  0.325640  0.379310  1.0  0.0026
  C  C995  1  0.972950  0.310520  0.432050  1.0  0.4201
  C  C996  1  0.985780  0.294330  0.469850  1.0  -0.4712
  C  C997  1  0.115500  0.405700  0.366000  1.0  0.1201
  C  C998  1  0.005400  0.362700  0.363900  1.0  0.133
  C  C999  1  0.316720  0.747650  0.175950  1.0  0.4169
  C  C1000  1  0.302890  0.766270  0.140420  1.0  -0.4345
  C  C1001  1  0.313760  0.697970  0.205830  1.0  -0.0161
  C  C1002  1  0.354180  0.743950  0.241350  1.0  0.0446
  C  C1003  1  0.519580  0.907240  0.364140  1.0  0.032
  C  C1004  1  0.567850  0.947160  0.393490  1.0  0.0021
  C  C1005  1  0.527050  0.959100  0.337570  1.0  0.4199
  C  C1006  1  0.514220  0.984070  0.308550  1.0  -0.4681
  C  C1007  1  0.384500  0.750500  0.290200  1.0  0.1182
  C  C1008  1  0.494600  0.858500  0.357300  1.0  0.1289
  N  N1009  1  0.080500  0.223750  0.446050  1.0  -0.5013
  N  N1010  1  0.089220  0.299440  0.464320  1.0  -0.378
  N  N1011  1  0.078810  0.084730  0.412820  1.0  -0.451
  N  N1012  1  0.092530  0.020360  0.397690  1.0  -0.4182
  N  N1013  1  0.145200  0.215600  0.542600  1.0  -0.2621
  N  N1014  1  0.120300  0.172300  0.495800  1.0  -0.2226
  N  N1015  1  0.277700  0.634450  0.053950  1.0  -0.5025
  N  N1016  1  0.335120  0.624900  0.035680  1.0  -0.3765
  N  N1017  1  0.171910  0.665990  0.087180  1.0  -0.4424
  N  N1018  1  0.122670  0.694840  0.102310  1.0  -0.422
  N  N1019  1  0.173000  0.602600  0.957400  1.0  -0.2555
  N  N1020  1  0.176500  0.624500  0.004200  1.0  -0.2207
  N  N1021  1  0.222300  0.276250  0.356750  1.0  -0.5043
  N  N1022  1  0.164880  0.200560  0.289780  1.0  -0.379
  N  N1023  1  0.328090  0.415270  0.494080  1.0  -0.4549
  N  N1024  1  0.377330  0.479640  0.572170  1.0  -0.4201
  N  N1025  1  0.327000  0.284400  0.429600  1.0  -0.2624
  N  N1026  1  0.323500  0.327700  0.448000  1.0  -0.221
  N  N1027  1  0.419500  0.865550  0.143250  1.0  -0.4999
  N  N1028  1  0.410780  0.875100  0.210220  1.0  -0.3786
  N  N1029  1  0.421190  0.834010  0.005920  1.0  -0.4414
  N  N1030  1  0.407470  0.805160  0.927830  1.0  -0.4184
  N  N1031  1  0.354800  0.897400  0.070400  1.0  -0.2563
  N  N1032  1  0.379700  0.875500  0.052000  1.0  -0.2212
  N  N1033  1  0.856750  0.222300  0.776250  1.0  -0.5017
  N  N1034  1  0.789780  0.164880  0.700560  1.0  -0.3806
  N  N1035  1  0.994080  0.328090  0.915270  1.0  -0.4553
  N  N1036  1  0.072170  0.377330  0.979640  1.0  -0.4204
  N  N1037  1  0.929600  0.327000  0.784400  1.0  -0.2641
  N  N1038  1  0.948000  0.323500  0.827700  1.0  -0.2268
  N  N1039  1  0.643250  0.419500  0.365550  1.0  -0.5014
  N  N1040  1  0.710220  0.410780  0.375100  1.0  -0.3783
  N  N1041  1  0.505920  0.421190  0.334010  1.0  -0.4411
  N  N1042  1  0.427830  0.407470  0.305160  1.0  -0.4208
  N  N1043  1  0.570400  0.354800  0.397400  1.0  -0.2635
  N  N1044  1  0.552000  0.379700  0.375500  1.0  -0.2277
  N  N1045  1  0.946050  0.080500  0.723750  1.0  -0.4998
  N  N1046  1  0.964320  0.089220  0.799440  1.0  -0.3782
  N  N1047  1  0.912820  0.078810  0.584730  1.0  -0.4484
  N  N1048  1  0.897690  0.092530  0.520360  1.0  -0.4205
  N  N1049  1  0.042600  0.145200  0.715600  1.0  -0.2627
  N  N1050  1  0.995800  0.120300  0.672300  1.0  -0.2272
  N  N1051  1  0.553950  0.277700  0.134450  1.0  -0.5013
  N  N1052  1  0.535680  0.335120  0.124900  1.0  -0.3792
  N  N1053  1  0.587180  0.171910  0.165990  1.0  -0.4397
  N  N1054  1  0.602310  0.122670  0.194840  1.0  -0.4196
  N  N1055  1  0.457400  0.173000  0.102600  1.0  -0.2581
  N  N1056  1  0.504200  0.176500  0.124500  1.0  -0.2263
  N  N1057  1  0.634450  0.553950  0.777700  1.0  -0.4992
  N  N1058  1  0.624900  0.535680  0.835120  1.0  -0.3779
  N  N1059  1  0.665990  0.587180  0.671910  1.0  -0.4498
  N  N1060  1  0.694840  0.602310  0.622670  1.0  -0.4181
  N  N1061  1  0.602600  0.457400  0.673000  1.0  -0.2539
  N  N1062  1  0.624500  0.504200  0.676500  1.0  -0.2274
  N  N1063  1  0.223750  0.946050  0.580500  1.0  -0.5061
  N  N1064  1  0.299440  0.964320  0.589220  1.0  -0.3781
  N  N1065  1  0.084730  0.912820  0.578810  1.0  -0.4404
  N  N1066  1  0.020360  0.897690  0.592530  1.0  -0.4211
  N  N1067  1  0.215600  0.042600  0.645200  1.0  -0.2569
  N  N1068  1  0.172300  0.995800  0.620300  1.0  -0.224
  N  N1069  1  0.865550  0.643250  0.919500  1.0  -0.5003
  N  N1070  1  0.875100  0.710220  0.910780  1.0  -0.3779
  N  N1071  1  0.834010  0.505920  0.921190  1.0  -0.4524
  N  N1072  1  0.805160  0.427830  0.907470  1.0  -0.4213
  N  N1073  1  0.897400  0.570400  0.854800  1.0  -0.2607
  N  N1074  1  0.875500  0.552000  0.879700  1.0  -0.2266
  N  N1075  1  0.276250  0.856750  0.722300  1.0  -0.5
  N  N1076  1  0.200560  0.789780  0.664880  1.0  -0.378
  N  N1077  1  0.415270  0.994080  0.828090  1.0  -0.4493
  N  N1078  1  0.479640  0.072170  0.877330  1.0  -0.4171
  N  N1079  1  0.284400  0.929600  0.827000  1.0  -0.2582
  N  N1080  1  0.327700  0.948000  0.823500  1.0  -0.2252
  N  N1081  1  0.276250  0.419500  0.053950  1.0  -0.503
  N  N1082  1  0.200560  0.410780  0.035680  1.0  -0.3808
  N  N1083  1  0.415270  0.421190  0.087180  1.0  -0.4421
  N  N1084  1  0.479640  0.407470  0.102310  1.0  -0.4216
  N  N1085  1  0.284400  0.354800  0.957400  1.0  -0.2604
  N  N1086  1  0.327700  0.379700  0.004200  1.0  -0.2277
  N  N1087  1  0.865550  0.222300  0.446050  1.0  -0.4996
  N  N1088  1  0.875100  0.164880  0.464320  1.0  -0.3768
  N  N1089  1  0.834010  0.328090  0.412820  1.0  -0.4454
  N  N1090  1  0.805160  0.377330  0.397690  1.0  -0.422
  N  N1091  1  0.897400  0.327000  0.542600  1.0  -0.2596
  N  N1092  1  0.875500  0.323500  0.495800  1.0  -0.2255
  N  N1093  1  0.223750  0.277700  0.143250  1.0  -0.504
  N  N1094  1  0.299440  0.335120  0.210220  1.0  -0.3778
  N  N1095  1  0.084730  0.171910  0.005920  1.0  -0.4411
  N  N1096  1  0.020360  0.122670  0.927830  1.0  -0.4219
  N  N1097  1  0.215600  0.173000  0.070400  1.0  -0.2591
  N  N1098  1  0.172300  0.176500  0.052000  1.0  -0.2291
  N  N1099  1  0.634450  0.080500  0.356750  1.0  -0.5006
  N  N1100  1  0.624900  0.089220  0.289780  1.0  -0.3809
  N  N1101  1  0.665990  0.078810  0.494080  1.0  -0.4485
  N  N1102  1  0.694840  0.092530  0.572170  1.0  -0.4204
  N  N1103  1  0.602600  0.145200  0.429600  1.0  -0.2605
  N  N1104  1  0.624500  0.120300  0.448000  1.0  -0.2268
  N  N1105  1  0.277700  0.643250  0.723750  1.0  -0.4977
  N  N1106  1  0.335120  0.710220  0.799440  1.0  -0.3778
  N  N1107  1  0.171910  0.505920  0.584730  1.0  -0.442
  N  N1108  1  0.122670  0.427830  0.520360  1.0  -0.4212
  N  N1109  1  0.173000  0.570400  0.715600  1.0  -0.2564
  N  N1110  1  0.176500  0.552000  0.672300  1.0  -0.2258
  N  N1111  1  0.080500  0.856750  0.134450  1.0  -0.5002
  N  N1112  1  0.089220  0.789780  0.124900  1.0  -0.3789
  N  N1113  1  0.078810  0.994080  0.165990  1.0  -0.445
  N  N1114  1  0.092530  0.072170  0.194840  1.0  -0.4188
  N  N1115  1  0.145200  0.929600  0.102600  1.0  -0.2612
  N  N1116  1  0.120300  0.948000  0.124500  1.0  -0.2263
  N  N1117  1  0.419500  0.553950  0.776250  1.0  -0.5009
  N  N1118  1  0.410780  0.535680  0.700560  1.0  -0.3773
  N  N1119  1  0.421190  0.587180  0.915270  1.0  -0.4387
  N  N1120  1  0.407470  0.602310  0.979640  1.0  -0.4215
  N  N1121  1  0.354800  0.457400  0.784400  1.0  -0.2569
  N  N1122  1  0.379700  0.504200  0.827700  1.0  -0.2255
  N  N1123  1  0.222300  0.946050  0.365550  1.0  -0.5007
  N  N1124  1  0.164880  0.964320  0.375100  1.0  -0.3797
  N  N1125  1  0.328090  0.912820  0.334010  1.0  -0.4492
  N  N1126  1  0.377330  0.897690  0.305160  1.0  -0.4197
  N  N1127  1  0.327000  0.042600  0.397400  1.0  -0.2587
  N  N1128  1  0.323500  0.995800  0.375500  1.0  -0.225
  N  N1129  1  0.946050  0.865550  0.722300  1.0  -0.4987
  N  N1130  1  0.964320  0.875100  0.664880  1.0  -0.3778
  N  N1131  1  0.912820  0.834010  0.828090  1.0  -0.4415
  N  N1132  1  0.897690  0.805160  0.877330  1.0  -0.4216
  N  N1133  1  0.042600  0.897400  0.827000  1.0  -0.2628
  N  N1134  1  0.995800  0.875500  0.823500  1.0  -0.2201
  N  N1135  1  0.553950  0.276250  0.919500  1.0  -0.5022
  N  N1136  1  0.535680  0.200560  0.910780  1.0  -0.3782
  N  N1137  1  0.587180  0.415270  0.921190  1.0  -0.44
  N  N1138  1  0.602310  0.479640  0.907470  1.0  -0.4195
  N  N1139  1  0.457400  0.284400  0.854800  1.0  -0.2565
  N  N1140  1  0.504200  0.327700  0.879700  1.0  -0.2209
  N  N1141  1  0.856750  0.634450  0.580500  1.0  -0.5026
  N  N1142  1  0.789780  0.624900  0.589220  1.0  -0.3805
  N  N1143  1  0.994080  0.665990  0.578810  1.0  -0.4537
  N  N1144  1  0.072170  0.694840  0.592530  1.0  -0.4207
  N  N1145  1  0.929600  0.602600  0.645200  1.0  -0.26
  N  N1146  1  0.948000  0.624500  0.620300  1.0  -0.2222
  N  N1147  1  0.643250  0.223750  0.777700  1.0  -0.5006
  N  N1148  1  0.710220  0.299440  0.835120  1.0  -0.377
  N  N1149  1  0.505920  0.084730  0.671910  1.0  -0.4427
  N  N1150  1  0.427830  0.020360  0.622670  1.0  -0.4199
  N  N1151  1  0.570400  0.215600  0.673000  1.0  -0.2589
  N  N1152  1  0.552000  0.172300  0.676500  1.0  -0.2222
  N  N1153  1  0.919500  0.776250  0.553950  1.0  -0.5026
  N  N1154  1  0.910780  0.700560  0.535680  1.0  -0.3777
  N  N1155  1  0.921190  0.915270  0.587180  1.0  -0.4423
  N  N1156  1  0.907470  0.979640  0.602310  1.0  -0.4194
  N  N1157  1  0.854800  0.784400  0.457400  1.0  -0.2582
  N  N1158  1  0.879700  0.827700  0.504200  1.0  -0.2216
  N  N1159  1  0.722300  0.365550  0.946050  1.0  -0.5005
  N  N1160  1  0.664880  0.375100  0.964320  1.0  -0.3783
  N  N1161  1  0.828090  0.334010  0.912820  1.0  -0.4464
  N  N1162  1  0.877330  0.305160  0.897690  1.0  -0.421
  N  N1163  1  0.827000  0.397400  0.042600  1.0  -0.2599
  N  N1164  1  0.823500  0.375500  0.995800  1.0  -0.2226
  N  N1165  1  0.777700  0.723750  0.643250  1.0  -0.5007
  N  N1166  1  0.835120  0.799440  0.710220  1.0  -0.3778
  N  N1167  1  0.671910  0.584730  0.505920  1.0  -0.4402
  N  N1168  1  0.622670  0.520360  0.427830  1.0  -0.4205
  N  N1169  1  0.673000  0.715600  0.570400  1.0  -0.2569
  N  N1170  1  0.676500  0.672300  0.552000  1.0  -0.2208
  N  N1171  1  0.580500  0.134450  0.856750  1.0  -0.4991
  N  N1172  1  0.589220  0.124900  0.789780  1.0  -0.3776
  N  N1173  1  0.578810  0.165990  0.994080  1.0  -0.4519
  N  N1174  1  0.592530  0.194840  0.072170  1.0  -0.4216
  N  N1175  1  0.645200  0.102600  0.929600  1.0  -0.2628
  N  N1176  1  0.620300  0.124500  0.948000  1.0  -0.2214
  N  N1177  1  0.143250  0.777700  0.223750  1.0  -0.502
  N  N1178  1  0.210220  0.835120  0.299440  1.0  -0.3763
  N  N1179  1  0.005920  0.671910  0.084730  1.0  -0.4416
  N  N1180  1  0.927830  0.622670  0.020360  1.0  -0.4226
  N  N1181  1  0.070400  0.673000  0.215600  1.0  -0.2637
  N  N1182  1  0.052000  0.676500  0.172300  1.0  -0.2255
  N  N1183  1  0.356750  0.580500  0.634450  1.0  -0.5015
  N  N1184  1  0.289780  0.589220  0.624900  1.0  -0.3805
  N  N1185  1  0.494080  0.578810  0.665990  1.0  -0.4537
  N  N1186  1  0.572170  0.592530  0.694840  1.0  -0.4218
  N  N1187  1  0.429600  0.645200  0.602600  1.0  -0.2681
  N  N1188  1  0.448000  0.620300  0.624500  1.0  -0.2276
  N  N1189  1  0.053950  0.919500  0.276250  1.0  -0.5003
  N  N1190  1  0.035680  0.910780  0.200560  1.0  -0.378
  N  N1191  1  0.087180  0.921190  0.415270  1.0  -0.4389
  N  N1192  1  0.102310  0.907470  0.479640  1.0  -0.4203
  N  N1193  1  0.957400  0.854800  0.284400  1.0  -0.2597
  N  N1194  1  0.004200  0.879700  0.327700  1.0  -0.2263
  N  N1195  1  0.446050  0.722300  0.865550  1.0  -0.5023
  N  N1196  1  0.464320  0.664880  0.875100  1.0  -0.3786
  N  N1197  1  0.412820  0.828090  0.834010  1.0  -0.45
  N  N1198  1  0.397690  0.877330  0.805160  1.0  -0.4209
  N  N1199  1  0.542600  0.827000  0.897400  1.0  -0.2615
  N  N1200  1  0.495800  0.823500  0.875500  1.0  -0.2271
  N  N1201  1  0.365550  0.446050  0.222300  1.0  -0.4983
  N  N1202  1  0.375100  0.464320  0.164880  1.0  -0.3773
  N  N1203  1  0.334010  0.412820  0.328090  1.0  -0.4401
  N  N1204  1  0.305160  0.397690  0.377330  1.0  -0.4219
  N  N1205  1  0.397400  0.542600  0.327000  1.0  -0.2577
  N  N1206  1  0.375500  0.495800  0.323500  1.0  -0.225
  N  N1207  1  0.776250  0.053950  0.419500  1.0  -0.5022
  N  N1208  1  0.700560  0.035680  0.410780  1.0  -0.3803
  N  N1209  1  0.915270  0.087180  0.421190  1.0  -0.4493
  N  N1210  1  0.979640  0.102310  0.407470  1.0  -0.4194
  N  N1211  1  0.784400  0.957400  0.354800  1.0  -0.2542
  N  N1212  1  0.827700  0.004200  0.379700  1.0  -0.2277
  N  N1213  1  0.134450  0.356750  0.080500  1.0  -0.4985
  N  N1214  1  0.124900  0.289780  0.089220  1.0  -0.3785
  N  N1215  1  0.165990  0.494080  0.078810  1.0  -0.4416
  N  N1216  1  0.194840  0.572170  0.092530  1.0  -0.4199
  N  N1217  1  0.102600  0.429600  0.145200  1.0  -0.2567
  N  N1218  1  0.124500  0.448000  0.120300  1.0  -0.2251
  N  N1219  1  0.723750  0.143250  0.277700  1.0  -0.51
  N  N1220  1  0.799440  0.210220  0.335120  1.0  -0.3777
  N  N1221  1  0.584730  0.005920  0.171910  1.0  -0.4434
  N  N1222  1  0.520360  0.927830  0.122670  1.0  -0.4198
  N  N1223  1  0.715600  0.070400  0.173000  1.0  -0.2601
  N  N1224  1  0.672300  0.052000  0.176500  1.0  -0.2269
  N  N1225  1  0.723750  0.580500  0.946050  1.0  -0.5032
  N  N1226  1  0.799440  0.589220  0.964320  1.0  -0.3782
  N  N1227  1  0.584730  0.578810  0.912820  1.0  -0.4505
  N  N1228  1  0.520360  0.592530  0.897690  1.0  -0.4207
  N  N1229  1  0.715600  0.645200  0.042600  1.0  -0.2584
  N  N1230  1  0.672300  0.620300  0.995800  1.0  -0.2269
  N  N1231  1  0.134450  0.777700  0.553950  1.0  -0.5011
  N  N1232  1  0.124900  0.835120  0.535680  1.0  -0.3779
  N  N1233  1  0.165990  0.671910  0.587180  1.0  -0.443
  N  N1234  1  0.194840  0.622670  0.602310  1.0  -0.4208
  N  N1235  1  0.102600  0.673000  0.457400  1.0  -0.2572
  N  N1236  1  0.124500  0.676500  0.504200  1.0  -0.2272
  N  N1237  1  0.776250  0.722300  0.856750  1.0  -0.5036
  N  N1238  1  0.700560  0.664880  0.789780  1.0  -0.3776
  N  N1239  1  0.915270  0.828090  0.994080  1.0  -0.441
  N  N1240  1  0.979640  0.877330  0.072170  1.0  -0.4195
  N  N1241  1  0.784400  0.827000  0.929600  1.0  -0.2606
  N  N1242  1  0.827700  0.823500  0.948000  1.0  -0.2261
  N  N1243  1  0.365550  0.919500  0.643250  1.0  -0.5002
  N  N1244  1  0.375100  0.910780  0.710220  1.0  -0.3777
  N  N1245  1  0.334010  0.921190  0.505920  1.0  -0.4387
  N  N1246  1  0.305160  0.907470  0.427830  1.0  -0.4202
  N  N1247  1  0.397400  0.854800  0.570400  1.0  -0.2606
  N  N1248  1  0.375500  0.879700  0.552000  1.0  -0.2288
  N  N1249  1  0.722300  0.356750  0.276250  1.0  -0.5011
  N  N1250  1  0.664880  0.289780  0.200560  1.0  -0.3787
  N  N1251  1  0.828090  0.494080  0.415270  1.0  -0.4536
  N  N1252  1  0.877330  0.572170  0.479640  1.0  -0.4202
  N  N1253  1  0.827000  0.429600  0.284400  1.0  -0.2626
  N  N1254  1  0.823500  0.448000  0.327700  1.0  -0.2255
  N  N1255  1  0.919500  0.143250  0.865550  1.0  -0.4991
  N  N1256  1  0.910780  0.210220  0.875100  1.0  -0.3784
  N  N1257  1  0.921190  0.005920  0.834010  1.0  -0.4431
  N  N1258  1  0.907470  0.927830  0.805160  1.0  -0.4179
  N  N1259  1  0.854800  0.070400  0.897400  1.0  -0.2575
  N  N1260  1  0.879700  0.052000  0.875500  1.0  -0.2256
  N  N1261  1  0.580500  0.446050  0.223750  1.0  -0.4987
  N  N1262  1  0.589220  0.464320  0.299440  1.0  -0.3782
  N  N1263  1  0.578810  0.412820  0.084730  1.0  -0.4466
  N  N1264  1  0.592530  0.397690  0.020360  1.0  -0.4182
  N  N1265  1  0.645200  0.542600  0.215600  1.0  -0.2569
  N  N1266  1  0.620300  0.495800  0.172300  1.0  -0.2255
  N  N1267  1  0.777700  0.053950  0.634450  1.0  -0.5036
  N  N1268  1  0.835120  0.035680  0.624900  1.0  -0.3779
  N  N1269  1  0.671910  0.087180  0.665990  1.0  -0.4409
  N  N1270  1  0.622670  0.102310  0.694840  1.0  -0.4211
  N  N1271  1  0.673000  0.957400  0.602600  1.0  -0.2556
  N  N1272  1  0.676500  0.004200  0.624500  1.0  -0.2255
  N  N1273  1  0.053950  0.134450  0.277700  1.0  -0.4994
  N  N1274  1  0.035680  0.124900  0.335120  1.0  -0.3781
  N  N1275  1  0.087180  0.165990  0.171910  1.0  -0.44
  N  N1276  1  0.102310  0.194840  0.122670  1.0  -0.4177
  N  N1277  1  0.957400  0.102600  0.173000  1.0  -0.2561
  N  N1278  1  0.004200  0.124500  0.176500  1.0  -0.221
  N  N1279  1  0.446050  0.723750  0.080500  1.0  -0.5037
  N  N1280  1  0.464320  0.799440  0.089220  1.0  -0.3782
  N  N1281  1  0.412820  0.584730  0.078810  1.0  -0.4515
  N  N1282  1  0.397690  0.520360  0.092530  1.0  -0.4213
  N  N1283  1  0.542600  0.715600  0.145200  1.0  -0.2618
  N  N1284  1  0.495800  0.672300  0.120300  1.0  -0.2207
  N  N1285  1  0.143250  0.365550  0.419500  1.0  -0.5044
  N  N1286  1  0.210220  0.375100  0.410780  1.0  -0.3768
  N  N1287  1  0.005920  0.334010  0.421190  1.0  -0.4437
  N  N1288  1  0.927830  0.305160  0.407470  1.0  -0.4224
  N  N1289  1  0.070400  0.397400  0.354800  1.0  -0.2566
  N  N1290  1  0.052000  0.375500  0.379700  1.0  -0.221
  N  N1291  1  0.356750  0.776250  0.222300  1.0  -0.5025
  N  N1292  1  0.289780  0.700560  0.164880  1.0  -0.3774
  N  N1293  1  0.494080  0.915270  0.328090  1.0  -0.4548
  N  N1294  1  0.572170  0.979640  0.377330  1.0  -0.4172
  N  N1295  1  0.429600  0.784400  0.327000  1.0  -0.2626
  N  N1296  1  0.448000  0.827700  0.323500  1.0  -0.2229
