# generated using pymatgen
data_Cd3H70C120N10(Cl4O7)2
_symmetry_space_group_name_H-M   'P 1'
_cell_length_a   20.30490000
_cell_length_b   20.30490000
_cell_length_c   49.64100000
_cell_angle_alpha   90.00000000
_cell_angle_beta   90.00000000
_cell_angle_gamma   90.00000000
_symmetry_Int_Tables_number   1
_chemical_formula_structural   Cd3H70C120N10(Cl4O7)2
_chemical_formula_sum   'Cd12 H280 C480 N40 Cl32 O56'
_cell_volume   20466.43646242
_cell_formula_units_Z   4
loop_
 _symmetry_equiv_pos_site_id
 _symmetry_equiv_pos_as_xyz
  1  'x, y, z'
loop_
 _atom_site_type_symbol
 _atom_site_label
 _atom_site_symmetry_multiplicity
 _atom_site_fract_x
 _atom_site_fract_y
 _atom_site_fract_z
 _atom_site_occupancy
 _atom_site_charge
  Cd  Cd1  1  0.691090  0.129500  0.981900  1.0  0.6976
  Cd  Cd2  1  0.308910  0.870500  0.481900  1.0  0.6967
  Cd  Cd3  1  0.129500  0.691090  0.268100  1.0  0.697
  Cd  Cd4  1  0.870500  0.308910  0.768100  1.0  0.6955
  Cd  Cd5  1  0.796810  0.203190  0.875000  1.0  0.8859
  Cd  Cd6  1  0.203190  0.796810  0.375000  1.0  0.8866
  Cd  Cd7  1  0.870500  0.691090  0.731900  1.0  0.697
  Cd  Cd8  1  0.129500  0.308910  0.231900  1.0  0.6964
  Cd  Cd9  1  0.308910  0.129500  0.018100  1.0  0.6972
  Cd  Cd10  1  0.691090  0.870500  0.518100  1.0  0.6963
  Cd  Cd11  1  0.796810  0.796810  0.625000  1.0  0.8856
  Cd  Cd12  1  0.203190  0.203190  0.125000  1.0  0.8869
  H  H13  1  0.293000  0.244500  0.911400  1.0  0.4211
  H  H14  1  0.297400  0.251200  0.842700  1.0  0.3483
  H  H15  1  0.323700  0.981900  0.075800  1.0  0.4024
  H  H16  1  0.415700  0.834000  0.109600  1.0  0.3304
  H  H17  1  0.670700  0.263600  0.846100  1.0  0.092
  H  H18  1  0.557200  0.257300  0.843500  1.0  0.1254
  H  H19  1  0.559100  0.126300  0.904100  1.0  0.1031
  H  H20  1  0.673900  0.133400  0.905100  1.0  0.0796
  H  H21  1  0.460600  0.245300  0.906800  1.0  0.1174
  H  H22  1  0.519400  0.116300  0.833300  1.0  0.1015
  H  H23  1  0.346100  0.055500  0.801400  1.0  0.1188
  H  H24  1  0.289600  0.109000  0.835100  1.0  0.094
  H  H25  1  0.306700  0.102400  0.913100  1.0  0.0817
  H  H26  1  0.254900  0.032100  0.942200  1.0  0.1183
  H  H27  1  0.078900  0.081900  0.909500  1.0  0.0973
  H  H28  1  0.128800  0.242100  0.846300  1.0  0.0915
  H  H29  1  0.922800  0.185400  0.834400  1.0  0.0805
  H  H30  1  0.034900  0.169300  0.834400  1.0  0.1218
  H  H31  1  0.031700  0.185100  0.915100  1.0  0.0978
  H  H32  1  0.919500  0.202600  0.912900  1.0  0.0812
  H  H33  1  0.618900  0.159400  0.036700  1.0  0.0771
  H  H34  1  0.560300  0.115600  0.071300  1.0  0.0992
  H  H35  1  0.554000  0.948900  0.031100  1.0  0.094
  H  H36  1  0.615200  0.995600  0.998300  1.0  0.0898
  H  H37  1  0.635600  0.987800  0.091800  1.0  0.1078
  H  H38  1  0.608500  0.907300  0.166300  1.0  0.114
  H  H39  1  0.495700  0.911600  0.161100  1.0  0.0988
  H  H40  1  0.423500  0.008400  0.057800  1.0  0.0905
  H  H41  1  0.389000  0.045300  0.145100  1.0  0.0885
  H  H42  1  0.349400  0.113600  0.178600  1.0  0.1279
  H  H43  1  0.275500  0.953600  0.217800  1.0  0.0967
  H  H44  1  0.321800  0.776600  0.161400  1.0  0.1009
  H  H45  1  0.188400  0.886100  0.203600  1.0  0.1063
  H  H46  1  0.335700  0.754100  0.210700  1.0  0.1204
  H  H47  1  0.271900  0.695700  0.241100  1.0  0.095
  H  H48  1  0.707000  0.755500  0.411400  1.0  0.4233
  H  H49  1  0.702600  0.748800  0.342700  1.0  0.3514
  H  H50  1  0.676300  0.018100  0.575800  1.0  0.4022
  H  H51  1  0.584300  0.166000  0.609600  1.0  0.3313
  H  H52  1  0.329300  0.736400  0.346100  1.0  0.0916
  H  H53  1  0.442800  0.742700  0.343500  1.0  0.123
  H  H54  1  0.440900  0.873700  0.404100  1.0  0.1033
  H  H55  1  0.326100  0.866600  0.405100  1.0  0.0794
  H  H56  1  0.539400  0.754700  0.406800  1.0  0.1179
  H  H57  1  0.480600  0.883700  0.333333  1.0  0.1014
  H  H58  1  0.653900  0.944500  0.301400  1.0  0.1209
  H  H59  1  0.710400  0.891000  0.335100  1.0  0.096
  H  H60  1  0.693300  0.897600  0.413100  1.0  0.082
  H  H61  1  0.745100  0.967900  0.442200  1.0  0.1195
  H  H62  1  0.921100  0.918100  0.409500  1.0  0.0982
  H  H63  1  0.871200  0.757900  0.346300  1.0  0.0921
  H  H64  1  0.077200  0.814600  0.334400  1.0  0.0801
  H  H65  1  0.965100  0.830700  0.334400  1.0  0.1224
  H  H66  1  0.968300  0.814900  0.415100  1.0  0.0974
  H  H67  1  0.080500  0.797400  0.412900  1.0  0.0819
  H  H68  1  0.381100  0.840600  0.536700  1.0  0.0777
  H  H69  1  0.439700  0.884400  0.571300  1.0  0.0987
  H  H70  1  0.446000  0.051100  0.531100  1.0  0.0936
  H  H71  1  0.384800  0.004400  0.498300  1.0  0.0899
  H  H72  1  0.364400  0.012200  0.591800  1.0  0.1094
  H  H73  1  0.391500  0.092700  0.666300  1.0  0.1143
  H  H74  1  0.504300  0.088400  0.661100  1.0  0.0992
  H  H75  1  0.576500  0.991600  0.557800  1.0  0.0906
  H  H76  1  0.611000  0.954700  0.645100  1.0  0.0886
  H  H77  1  0.650600  0.886400  0.678600  1.0  0.128
  H  H78  1  0.724500  0.046400  0.717800  1.0  0.0969
  H  H79  1  0.678200  0.223400  0.661400  1.0  0.1018
  H  H80  1  0.811600  0.113900  0.703600  1.0  0.1059
  H  H81  1  0.664300  0.245900  0.710700  1.0  0.1208
  H  H82  1  0.728100  0.304300  0.741100  1.0  0.0966
  H  H83  1  0.244500  0.293000  0.338600  1.0  0.4189
  H  H84  1  0.251200  0.297400  0.407300  1.0  0.3454
  H  H85  1  0.981900  0.323700  0.174200  1.0  0.4023
  H  H86  1  0.834000  0.415700  0.140400  1.0  0.334
  H  H87  1  0.263600  0.670700  0.403900  1.0  0.0921
  H  H88  1  0.257300  0.557200  0.406500  1.0  0.122
  H  H89  1  0.126300  0.559100  0.345900  1.0  0.1026
  H  H90  1  0.133400  0.673900  0.344900  1.0  0.0774
  H  H91  1  0.245300  0.460600  0.343200  1.0  0.1163
  H  H92  1  0.116300  0.519400  0.416700  1.0  0.1015
  H  H93  1  0.055500  0.346100  0.448600  1.0  0.1204
  H  H94  1  0.109000  0.289600  0.414900  1.0  0.0955
  H  H95  1  0.102400  0.306700  0.336900  1.0  0.0824
  H  H96  1  0.032100  0.254900  0.307800  1.0  0.1162
  H  H97  1  0.081900  0.078900  0.340500  1.0  0.0973
  H  H98  1  0.242100  0.128800  0.403700  1.0  0.0923
  H  H99  1  0.185400  0.922800  0.415600  1.0  0.0811
  H  H100  1  0.169300  0.034900  0.415600  1.0  0.1217
  H  H101  1  0.185100  0.031700  0.334900  1.0  0.0976
  H  H102  1  0.202600  0.919500  0.337100  1.0  0.0829
  H  H103  1  0.159400  0.618900  0.213300  1.0  0.0765
  H  H104  1  0.115600  0.560300  0.178700  1.0  0.0985
  H  H105  1  0.948900  0.554000  0.218900  1.0  0.0956
  H  H106  1  0.995600  0.615200  0.251700  1.0  0.0904
  H  H107  1  0.987800  0.635600  0.158200  1.0  0.1091
  H  H108  1  0.907300  0.608500  0.083700  1.0  0.1144
  H  H109  1  0.911600  0.495700  0.088900  1.0  0.0993
  H  H110  1  0.008400  0.423500  0.192200  1.0  0.0902
  H  H111  1  0.045300  0.389000  0.104900  1.0  0.0887
  H  H112  1  0.113600  0.349400  0.071400  1.0  0.128
  H  H113  1  0.953600  0.275500  0.032200  1.0  0.0962
  H  H114  1  0.776600  0.321800  0.088600  1.0  0.101
  H  H115  1  0.886100  0.188400  0.046400  1.0  0.1062
  H  H116  1  0.754100  0.335700  0.039300  1.0  0.1214
  H  H117  1  0.695700  0.271900  0.008900  1.0  0.0956
  H  H118  1  0.755500  0.707000  0.838600  1.0  0.4194
  H  H119  1  0.748800  0.702600  0.907300  1.0  0.344
  H  H120  1  0.018100  0.676300  0.674200  1.0  0.4035
  H  H121  1  0.166000  0.584300  0.640400  1.0  0.3309
  H  H122  1  0.736400  0.329300  0.903900  1.0  0.0919
  H  H123  1  0.742700  0.442800  0.906500  1.0  0.123
  H  H124  1  0.873700  0.440900  0.845900  1.0  0.1027
  H  H125  1  0.866600  0.326100  0.844900  1.0  0.0774
  H  H126  1  0.754700  0.539400  0.843200  1.0  0.116
  H  H127  1  0.883700  0.480600  0.916700  1.0  0.1021
  H  H128  1  0.944500  0.653900  0.948600  1.0  0.1202
  H  H129  1  0.891000  0.710400  0.914900  1.0  0.0953
  H  H130  1  0.897600  0.693300  0.836900  1.0  0.0819
  H  H131  1  0.967900  0.745100  0.807800  1.0  0.1162
  H  H132  1  0.918100  0.921100  0.840500  1.0  0.0984
  H  H133  1  0.757900  0.871200  0.903700  1.0  0.0919
  H  H134  1  0.814600  0.077200  0.915600  1.0  0.0801
  H  H135  1  0.830700  0.965100  0.915600  1.0  0.1199
  H  H136  1  0.814900  0.968300  0.834900  1.0  0.0987
  H  H137  1  0.797400  0.080500  0.837100  1.0  0.083
  H  H138  1  0.840600  0.381100  0.713300  1.0  0.0757
  H  H139  1  0.884400  0.439700  0.678700  1.0  0.0991
  H  H140  1  0.051100  0.446000  0.718900  1.0  0.0943
  H  H141  1  0.004400  0.384800  0.751700  1.0  0.0899
  H  H142  1  0.012200  0.364400  0.658200  1.0  0.1094
  H  H143  1  0.092700  0.391500  0.583700  1.0  0.1149
  H  H144  1  0.088400  0.504300  0.588900  1.0  0.0999
  H  H145  1  0.991600  0.576500  0.692200  1.0  0.0894
  H  H146  1  0.954700  0.611000  0.604900  1.0  0.0892
  H  H147  1  0.886400  0.650600  0.571400  1.0  0.1279
  H  H148  1  0.046400  0.724500  0.532200  1.0  0.0964
  H  H149  1  0.223400  0.678200  0.588600  1.0  0.1016
  H  H150  1  0.113900  0.811600  0.546400  1.0  0.1071
  H  H151  1  0.245900  0.664300  0.539300  1.0  0.1198
  H  H152  1  0.304300  0.728100  0.508900  1.0  0.0949
  H  H153  1  0.755500  0.293000  0.661400  1.0  0.4198
  H  H154  1  0.748800  0.297400  0.592700  1.0  0.3459
  H  H155  1  0.018100  0.323700  0.825800  1.0  0.4023
  H  H156  1  0.166000  0.415700  0.859600  1.0  0.3315
  H  H157  1  0.736400  0.670700  0.596100  1.0  0.091
  H  H158  1  0.742700  0.557200  0.593500  1.0  0.1224
  H  H159  1  0.873700  0.559100  0.654100  1.0  0.103
  H  H160  1  0.866600  0.673900  0.655100  1.0  0.079
  H  H161  1  0.754700  0.460600  0.656800  1.0  0.1167
  H  H162  1  0.883700  0.519400  0.583300  1.0  0.1016
  H  H163  1  0.944500  0.346100  0.551400  1.0  0.1196
  H  H164  1  0.891000  0.289600  0.585100  1.0  0.0967
  H  H165  1  0.897600  0.306700  0.663100  1.0  0.0824
  H  H166  1  0.967900  0.254900  0.692200  1.0  0.1158
  H  H167  1  0.918100  0.078900  0.659500  1.0  0.0977
  H  H168  1  0.757900  0.128800  0.596300  1.0  0.0915
  H  H169  1  0.814600  0.922800  0.584400  1.0  0.0798
  H  H170  1  0.830700  0.034900  0.584400  1.0  0.1221
  H  H171  1  0.814900  0.031700  0.665100  1.0  0.0988
  H  H172  1  0.797400  0.919500  0.662900  1.0  0.0816
  H  H173  1  0.840600  0.618900  0.786700  1.0  0.0753
  H  H174  1  0.884400  0.560300  0.821300  1.0  0.0992
  H  H175  1  0.051100  0.554000  0.781100  1.0  0.0947
  H  H176  1  0.004400  0.615200  0.748300  1.0  0.0902
  H  H177  1  0.012200  0.635600  0.841800  1.0  0.1099
  H  H178  1  0.092700  0.608500  0.916300  1.0  0.1144
  H  H179  1  0.088400  0.495700  0.911100  1.0  0.0986
  H  H180  1  0.991600  0.423500  0.807800  1.0  0.0903
  H  H181  1  0.954700  0.389000  0.895100  1.0  0.0887
  H  H182  1  0.886400  0.349400  0.928600  1.0  0.1286
  H  H183  1  0.046400  0.275500  0.967800  1.0  0.0964
  H  H184  1  0.223400  0.321800  0.911400  1.0  0.1013
  H  H185  1  0.113900  0.188400  0.953600  1.0  0.1067
  H  H186  1  0.245900  0.335700  0.960700  1.0  0.1199
  H  H187  1  0.304300  0.271900  0.991100  1.0  0.0957
  H  H188  1  0.244500  0.707000  0.161400  1.0  0.4193
  H  H189  1  0.251200  0.702600  0.092700  1.0  0.3459
  H  H190  1  0.981900  0.676300  0.325800  1.0  0.401
  H  H191  1  0.834000  0.584300  0.359600  1.0  0.3316
  H  H192  1  0.263600  0.329300  0.096100  1.0  0.0921
  H  H193  1  0.257300  0.442800  0.093500  1.0  0.1227
  H  H194  1  0.126300  0.440900  0.154100  1.0  0.1023
  H  H195  1  0.133400  0.326100  0.155100  1.0  0.0788
  H  H196  1  0.245300  0.539400  0.156800  1.0  0.1161
  H  H197  1  0.116300  0.480600  0.083300  1.0  0.1019
  H  H198  1  0.055500  0.653900  0.051400  1.0  0.12
  H  H199  1  0.109000  0.710400  0.085100  1.0  0.096
  H  H200  1  0.102400  0.693300  0.163100  1.0  0.0818
  H  H201  1  0.032100  0.745100  0.192200  1.0  0.1168
  H  H202  1  0.081900  0.921100  0.159500  1.0  0.0979
  H  H203  1  0.242100  0.871200  0.096300  1.0  0.0912
  H  H204  1  0.185400  0.077200  0.084400  1.0  0.0794
  H  H205  1  0.169300  0.965100  0.084400  1.0  0.1215
  H  H206  1  0.185100  0.968300  0.165100  1.0  0.0986
  H  H207  1  0.202600  0.080500  0.162900  1.0  0.0817
  H  H208  1  0.159400  0.381100  0.286700  1.0  0.076
  H  H209  1  0.115600  0.439700  0.321300  1.0  0.0989
  H  H210  1  0.948900  0.446000  0.281100  1.0  0.0956
  H  H211  1  0.995600  0.384800  0.248300  1.0  0.0902
  H  H212  1  0.987800  0.364400  0.341800  1.0  0.1086
  H  H213  1  0.907300  0.391500  0.416300  1.0  0.1157
  H  H214  1  0.911600  0.504300  0.411100  1.0  0.0993
  H  H215  1  0.008400  0.576500  0.307800  1.0  0.0904
  H  H216  1  0.045300  0.611000  0.395100  1.0  0.0883
  H  H217  1  0.113600  0.650600  0.428600  1.0  0.1273
  H  H218  1  0.953600  0.724500  0.467800  1.0  0.0957
  H  H219  1  0.776600  0.678200  0.411400  1.0  0.1018
  H  H220  1  0.886100  0.811600  0.453600  1.0  0.1065
  H  H221  1  0.754100  0.664300  0.460700  1.0  0.1196
  H  H222  1  0.695700  0.728100  0.491100  1.0  0.0958
  H  H223  1  0.707000  0.244500  0.088600  1.0  0.422
  H  H224  1  0.702600  0.251200  0.157300  1.0  0.3497
  H  H225  1  0.676300  0.981900  0.924200  1.0  0.4026
  H  H226  1  0.584300  0.834000  0.890400  1.0  0.3325
  H  H227  1  0.329300  0.263600  0.153900  1.0  0.0925
  H  H228  1  0.442800  0.257300  0.156500  1.0  0.1242
  H  H229  1  0.440900  0.126300  0.095900  1.0  0.1035
  H  H230  1  0.326100  0.133400  0.094900  1.0  0.0783
  H  H231  1  0.539400  0.245300  0.093200  1.0  0.1178
  H  H232  1  0.480600  0.116300  0.166700  1.0  0.1015
  H  H233  1  0.653900  0.055500  0.198600  1.0  0.1194
  H  H234  1  0.710400  0.109000  0.164900  1.0  0.094
  H  H235  1  0.693300  0.102400  0.086900  1.0  0.0815
  H  H236  1  0.745100  0.032100  0.057800  1.0  0.1167
  H  H237  1  0.921100  0.081900  0.090500  1.0  0.098
  H  H238  1  0.871200  0.242100  0.153700  1.0  0.0921
  H  H239  1  0.077200  0.185400  0.165600  1.0  0.0813
  H  H240  1  0.965100  0.169300  0.165600  1.0  0.1224
  H  H241  1  0.968300  0.185100  0.084900  1.0  0.0987
  H  H242  1  0.080500  0.202600  0.087100  1.0  0.0826
  H  H243  1  0.381100  0.159400  0.963300  1.0  0.0775
  H  H244  1  0.439700  0.115600  0.928700  1.0  0.0992
  H  H245  1  0.446000  0.948900  0.968900  1.0  0.095
  H  H246  1  0.384800  0.995600  0.001700  1.0  0.0903
  H  H247  1  0.364400  0.987800  0.908200  1.0  0.1092
  H  H248  1  0.391500  0.907300  0.833700  1.0  0.1139
  H  H249  1  0.504300  0.911600  0.838900  1.0  0.0993
  H  H250  1  0.576500  0.008400  0.942200  1.0  0.0897
  H  H251  1  0.611000  0.045300  0.854900  1.0  0.089
  H  H252  1  0.650600  0.113600  0.821400  1.0  0.1276
  H  H253  1  0.724500  0.953600  0.782200  1.0  0.0971
  H  H254  1  0.678200  0.776600  0.838600  1.0  0.1019
  H  H255  1  0.811600  0.886100  0.796400  1.0  0.1064
  H  H256  1  0.664300  0.754100  0.789300  1.0  0.1208
  H  H257  1  0.728100  0.695700  0.758900  1.0  0.0954
  H  H258  1  0.293000  0.755500  0.588600  1.0  0.4219
  H  H259  1  0.297400  0.748800  0.657300  1.0  0.3476
  H  H260  1  0.323700  0.018100  0.424200  1.0  0.4037
  H  H261  1  0.415700  0.166000  0.390400  1.0  0.331
  H  H262  1  0.670700  0.736400  0.653900  1.0  0.0926
  H  H263  1  0.557200  0.742700  0.656500  1.0  0.1242
  H  H264  1  0.559100  0.873700  0.595900  1.0  0.1031
  H  H265  1  0.673900  0.866600  0.594900  1.0  0.078
  H  H266  1  0.460600  0.754700  0.593200  1.0  0.117
  H  H267  1  0.519400  0.883700  0.666667  1.0  0.1016
  H  H268  1  0.346100  0.944500  0.698600  1.0  0.1202
  H  H269  1  0.289600  0.891000  0.664900  1.0  0.0934
  H  H270  1  0.306700  0.897600  0.586900  1.0  0.0815
  H  H271  1  0.254900  0.967900  0.557800  1.0  0.1181
  H  H272  1  0.078900  0.918100  0.590500  1.0  0.0979
  H  H273  1  0.128800  0.757900  0.653700  1.0  0.0923
  H  H274  1  0.922800  0.814600  0.665600  1.0  0.0809
  H  H275  1  0.034900  0.830700  0.665600  1.0  0.1221
  H  H276  1  0.031700  0.814900  0.584900  1.0  0.0987
  H  H277  1  0.919500  0.797400  0.587100  1.0  0.0826
  H  H278  1  0.618900  0.840600  0.463300  1.0  0.0778
  H  H279  1  0.560300  0.884400  0.428700  1.0  0.0991
  H  H280  1  0.554000  0.051100  0.468900  1.0  0.0929
  H  H281  1  0.615200  0.004400  0.501700  1.0  0.0903
  H  H282  1  0.635600  0.012200  0.408200  1.0  0.1103
  H  H283  1  0.608500  0.092700  0.333700  1.0  0.1142
  H  H284  1  0.495700  0.088400  0.338900  1.0  0.1003
  H  H285  1  0.423500  0.991600  0.442200  1.0  0.0902
  H  H286  1  0.389000  0.954700  0.354900  1.0  0.0891
  H  H287  1  0.349400  0.886400  0.321400  1.0  0.1283
  H  H288  1  0.275500  0.046400  0.282200  1.0  0.0967
  H  H289  1  0.321800  0.223400  0.338600  1.0  0.1009
  H  H290  1  0.188400  0.113900  0.296400  1.0  0.1062
  H  H291  1  0.335700  0.245900  0.289300  1.0  0.121
  H  H292  1  0.271900  0.304300  0.258900  1.0  0.0953
  C  C293  1  0.647800  0.235900  0.858380  1.0  0.1569
  C  C294  1  0.579900  0.232500  0.856740  1.0  -0.1921
  C  C295  1  0.545000  0.193000  0.874460  1.0  0.1299
  C  C296  1  0.581000  0.155600  0.892190  1.0  -0.1705
  C  C297  1  0.650000  0.160300  0.892810  1.0  0.1581
  C  C298  1  0.472500  0.189300  0.873410  1.0  -0.0392
  C  C299  1  0.437400  0.221300  0.893410  1.0  -0.134
  C  C300  1  0.367400  0.219200  0.894390  1.0  0.2219
  C  C301  1  0.332600  0.183500  0.875190  1.0  0.0478
  C  C302  1  0.369000  0.148500  0.854420  1.0  -0.0004
  C  C303  1  0.437800  0.150800  0.853910  1.0  0.0064
  C  C304  1  0.472700  0.115200  0.833760  1.0  -0.0755
  C  C305  1  0.438900  0.079900  0.815400  1.0  -0.0653
  C  C306  1  0.369200  0.078700  0.815100  1.0  -0.1217
  C  C307  1  0.336400  0.111300  0.834690  1.0  -0.1077
  C  C308  1  0.259600  0.181100  0.875660  1.0  -0.0136
  C  C309  1  0.226100  0.138600  0.894110  1.0  0.0159
  C  C310  1  0.260000  0.099200  0.912500  1.0  -0.0677
  C  C311  1  0.230100  0.056700  0.929510  1.0  -0.1434
  C  C312  1  0.161300  0.049800  0.927950  1.0  -0.0268
  C  C313  1  0.125300  0.087400  0.910340  1.0  -0.0422
  C  C314  1  0.155600  0.133700  0.893550  1.0  0.0082
  C  C315  1  0.120500  0.174900  0.875160  1.0  0.0414
  C  C316  1  0.153200  0.214500  0.858070  1.0  -0.156
  C  C317  1  0.223700  0.216500  0.857170  1.0  0.2462
  C  C318  1  0.945500  0.186600  0.851170  1.0  0.1591
  C  C319  1  0.012700  0.177100  0.850970  1.0  -0.2243
  C  C320  1  0.047400  0.179000  0.874440  1.0  0.1133
  C  C321  1  0.010500  0.186600  0.898050  1.0  -0.2286
  C  C322  1  0.943400  0.196300  0.896640  1.0  0.1602
  C  C323  1  0.606900  0.114200  0.035730  1.0  0.1778
  C  C324  1  0.570800  0.088700  0.056240  1.0  -0.2242
  C  C325  1  0.549600  0.025500  0.055550  1.0  0.1384
  C  C326  1  0.567700  0.993300  0.033300  1.0  -0.189
  C  C327  1  0.604500  0.021100  0.013700  1.0  0.145
  C  C328  1  0.507600  0.996200  0.077120  1.0  0.0076
  C  C329  1  0.536700  0.972600  0.101460  1.0  0.0386
  C  C330  1  0.606900  0.973100  0.105700  1.0  -0.0785
  C  C331  1  0.631700  0.952300  0.129600  1.0  -0.0711
  C  C332  1  0.589900  0.925300  0.150400  1.0  -0.0811
  C  C333  1  0.523600  0.926100  0.146910  1.0  -0.1026
  C  C334  1  0.495400  0.948200  0.122470  1.0  0.0127
  C  C335  1  0.426100  0.945200  0.118450  1.0  0.0045
  C  C336  1  0.400100  0.966800  0.094460  1.0  0.1899
  C  C337  1  0.442500  0.992900  0.074080  1.0  -0.1426
  C  C338  1  0.383100  0.916600  0.139950  1.0  -0.0284
  C  C339  1  0.356100  0.956700  0.160310  1.0  -0.0039
  C  C340  1  0.365700  0.026500  0.159810  1.0  -0.1055
  C  C341  1  0.342700  0.067300  0.179580  1.0  -0.1311
  C  C342  1  0.308200  0.038500  0.201700  1.0  -0.063
  C  C343  1  0.298000  0.971700  0.202730  1.0  -0.0633
  C  C344  1  0.319500  0.930000  0.182460  1.0  -0.0584
  C  C345  1  0.307700  0.859500  0.181710  1.0  0.0223
  C  C346  1  0.331300  0.822400  0.161580  1.0  -0.2023
  C  C347  1  0.370500  0.850200  0.140300  1.0  0.2178
  C  C348  1  0.168800  0.809200  0.228990  1.0  0.1204
  C  C349  1  0.206200  0.846600  0.210830  1.0  -0.0447
  C  C350  1  0.268100  0.827000  0.203330  1.0  0.0615
  C  C351  1  0.292700  0.769200  0.215120  1.0  -0.1947
  C  C352  1  0.254300  0.734400  0.233150  1.0  0.1422
  C  C353  1  0.352200  0.764100  0.358380  1.0  0.1565
  C  C354  1  0.420100  0.767500  0.356740  1.0  -0.1927
  C  C355  1  0.455000  0.807000  0.374460  1.0  0.128
  C  C356  1  0.419000  0.844400  0.392190  1.0  -0.169
  C  C357  1  0.350000  0.839700  0.392810  1.0  0.158
  C  C358  1  0.527500  0.810700  0.373410  1.0  -0.0411
  C  C359  1  0.562600  0.778700  0.393410  1.0  -0.134
  C  C360  1  0.632600  0.780800  0.394390  1.0  0.2221
  C  C361  1  0.667400  0.816500  0.375190  1.0  0.0471
  C  C362  1  0.631000  0.851500  0.354420  1.0  -0.0003
  C  C363  1  0.562200  0.849200  0.353910  1.0  0.005
  C  C364  1  0.527300  0.884800  0.333760  1.0  -0.0757
  C  C365  1  0.561100  0.920100  0.315400  1.0  -0.0594
  C  C366  1  0.630800  0.921300  0.315100  1.0  -0.1231
  C  C367  1  0.663600  0.888700  0.334690  1.0  -0.1095
  C  C368  1  0.740400  0.818900  0.375660  1.0  -0.0131
  C  C369  1  0.773900  0.861400  0.394110  1.0  0.0161
  C  C370  1  0.740000  0.900800  0.412500  1.0  -0.0658
  C  C371  1  0.769900  0.943300  0.429510  1.0  -0.145
  C  C372  1  0.838700  0.950200  0.427950  1.0  -0.0328
  C  C373  1  0.874700  0.912600  0.410340  1.0  -0.044
  C  C374  1  0.844400  0.866300  0.393550  1.0  0.0093
  C  C375  1  0.879500  0.825100  0.375160  1.0  0.0424
  C  C376  1  0.846800  0.785500  0.358070  1.0  -0.1553
  C  C377  1  0.776300  0.783500  0.357170  1.0  0.2451
  C  C378  1  0.054500  0.813400  0.351170  1.0  0.1604
  C  C379  1  0.987300  0.822900  0.350970  1.0  -0.2255
  C  C380  1  0.952600  0.821000  0.374440  1.0  0.1149
  C  C381  1  0.989500  0.813400  0.398050  1.0  -0.229
  C  C382  1  0.056600  0.803700  0.396640  1.0  0.1609
  C  C383  1  0.393100  0.885800  0.535730  1.0  0.176
  C  C384  1  0.429200  0.911300  0.556240  1.0  -0.2219
  C  C385  1  0.450400  0.974500  0.555550  1.0  0.1395
  C  C386  1  0.432300  0.006700  0.533300  1.0  -0.1842
  C  C387  1  0.395500  0.978900  0.513700  1.0  0.1452
  C  C388  1  0.492400  0.003800  0.577120  1.0  0.0073
  C  C389  1  0.463300  0.027400  0.601460  1.0  0.0395
  C  C390  1  0.393100  0.026900  0.605700  1.0  -0.0805
  C  C391  1  0.368300  0.047700  0.629600  1.0  -0.0707
  C  C392  1  0.410100  0.074700  0.650400  1.0  -0.0806
  C  C393  1  0.476400  0.073900  0.646910  1.0  -0.1035
  C  C394  1  0.504600  0.051800  0.622470  1.0  0.0138
  C  C395  1  0.573900  0.054800  0.618450  1.0  0.0041
  C  C396  1  0.599900  0.033200  0.594460  1.0  0.1918
  C  C397  1  0.557500  0.007100  0.574080  1.0  -0.1433
  C  C398  1  0.616900  0.083400  0.639950  1.0  -0.0288
  C  C399  1  0.643900  0.043300  0.660310  1.0  -0.0039
  C  C400  1  0.634300  0.973500  0.659810  1.0  -0.1065
  C  C401  1  0.657300  0.932700  0.679580  1.0  -0.131
  C  C402  1  0.691800  0.961500  0.701700  1.0  -0.0639
  C  C403  1  0.702000  0.028300  0.702730  1.0  -0.0637
  C  C404  1  0.680500  0.070000  0.682460  1.0  -0.0591
  C  C405  1  0.692300  0.140500  0.681710  1.0  0.0223
  C  C406  1  0.668700  0.177600  0.661580  1.0  -0.2017
  C  C407  1  0.629500  0.149800  0.640300  1.0  0.2187
  C  C408  1  0.831200  0.190800  0.728990  1.0  0.119
  C  C409  1  0.793800  0.153400  0.710830  1.0  -0.0443
  C  C410  1  0.731900  0.173000  0.703330  1.0  0.061
  C  C411  1  0.707300  0.230800  0.715120  1.0  -0.1981
  C  C412  1  0.745700  0.265600  0.733150  1.0  0.139
  C  C413  1  0.235900  0.647800  0.391620  1.0  0.1583
  C  C414  1  0.232500  0.579900  0.393260  1.0  -0.1903
  C  C415  1  0.193000  0.545000  0.375540  1.0  0.1241
  C  C416  1  0.155600  0.581000  0.357810  1.0  -0.167
  C  C417  1  0.160300  0.650000  0.357190  1.0  0.1586
  C  C418  1  0.189300  0.472500  0.376590  1.0  -0.0384
  C  C419  1  0.221300  0.437400  0.356590  1.0  -0.1404
  C  C420  1  0.219200  0.367400  0.355610  1.0  0.2188
  C  C421  1  0.183500  0.332600  0.374810  1.0  0.0486
  C  C422  1  0.148500  0.369000  0.395580  1.0  0.0014
  C  C423  1  0.150800  0.437800  0.396090  1.0  0.0056
  C  C424  1  0.115200  0.472700  0.416240  1.0  -0.0783
  C  C425  1  0.079900  0.438900  0.434600  1.0  -0.0613
  C  C426  1  0.078700  0.369200  0.434900  1.0  -0.1245
  C  C427  1  0.111300  0.336400  0.415310  1.0  -0.1138
  C  C428  1  0.181100  0.259600  0.374340  1.0  -0.0166
  C  C429  1  0.138600  0.226100  0.355890  1.0  0.0165
  C  C430  1  0.099200  0.260000  0.337500  1.0  -0.0628
  C  C431  1  0.056700  0.230100  0.320490  1.0  -0.1447
  C  C432  1  0.049800  0.161300  0.322050  1.0  -0.0389
  C  C433  1  0.087400  0.125300  0.339660  1.0  -0.0453
  C  C434  1  0.133700  0.155600  0.356450  1.0  0.0094
  C  C435  1  0.174900  0.120500  0.374840  1.0  0.0425
  C  C436  1  0.214500  0.153200  0.391930  1.0  -0.1534
  C  C437  1  0.216500  0.223700  0.392830  1.0  0.2535
  C  C438  1  0.186600  0.945500  0.398830  1.0  0.1612
  C  C439  1  0.177100  0.012700  0.399030  1.0  -0.2265
  C  C440  1  0.179000  0.047400  0.375560  1.0  0.1104
  C  C441  1  0.186600  0.010500  0.351950  1.0  -0.2273
  C  C442  1  0.196300  0.943400  0.353360  1.0  0.1624
  C  C443  1  0.114200  0.606900  0.214270  1.0  0.1777
  C  C444  1  0.088700  0.570800  0.193760  1.0  -0.2193
  C  C445  1  0.025500  0.549600  0.194450  1.0  0.1356
  C  C446  1  0.993300  0.567700  0.216700  1.0  -0.1801
  C  C447  1  0.021100  0.604500  0.236300  1.0  0.1469
  C  C448  1  0.996200  0.507600  0.172880  1.0  0.0046
  C  C449  1  0.972600  0.536700  0.148540  1.0  0.0403
  C  C450  1  0.973100  0.606900  0.144300  1.0  -0.0815
  C  C451  1  0.952300  0.631700  0.120400  1.0  -0.0645
  C  C452  1  0.925300  0.589900  0.099600  1.0  -0.0882
  C  C453  1  0.926100  0.523600  0.103090  1.0  -0.1013
  C  C454  1  0.948200  0.495400  0.127530  1.0  0.0141
  C  C455  1  0.945200  0.426100  0.131550  1.0  0.004
  C  C456  1  0.966800  0.400100  0.155540  1.0  0.194
  C  C457  1  0.992900  0.442500  0.175920  1.0  -0.1412
  C  C458  1  0.916600  0.383100  0.110050  1.0  -0.0284
  C  C459  1  0.956700  0.356100  0.089690  1.0  -0.0041
  C  C460  1  0.026500  0.365700  0.090190  1.0  -0.1058
  C  C461  1  0.067300  0.342700  0.070420  1.0  -0.1311
  C  C462  1  0.038500  0.308200  0.048300  1.0  -0.0632
  C  C463  1  0.971700  0.298000  0.047270  1.0  -0.065
  C  C464  1  0.930000  0.319500  0.067540  1.0  -0.0552
  C  C465  1  0.859500  0.307700  0.068290  1.0  0.021
  C  C466  1  0.822400  0.331300  0.088420  1.0  -0.2044
  C  C467  1  0.850200  0.370500  0.109700  1.0  0.2124
  C  C468  1  0.809200  0.168800  0.021010  1.0  0.1226
  C  C469  1  0.846600  0.206200  0.039170  1.0  -0.0488
  C  C470  1  0.827000  0.268100  0.046670  1.0  0.0617
  C  C471  1  0.769200  0.292700  0.034880  1.0  -0.1988
  C  C472  1  0.734400  0.254300  0.016850  1.0  0.1403
  C  C473  1  0.764100  0.352200  0.891620  1.0  0.1578
  C  C474  1  0.767500  0.420100  0.893260  1.0  -0.1909
  C  C475  1  0.807000  0.455000  0.875540  1.0  0.1251
  C  C476  1  0.844400  0.419000  0.857810  1.0  -0.1673
  C  C477  1  0.839700  0.350000  0.857190  1.0  0.1579
  C  C478  1  0.810700  0.527500  0.876590  1.0  -0.0406
  C  C479  1  0.778700  0.562600  0.856590  1.0  -0.1414
  C  C480  1  0.780800  0.632600  0.855610  1.0  0.2171
  C  C481  1  0.816500  0.667400  0.874810  1.0  0.0478
  C  C482  1  0.851500  0.631000  0.895580  1.0  0.0006
  C  C483  1  0.849200  0.562200  0.896090  1.0  0.0059
  C  C484  1  0.884800  0.527300  0.916240  1.0  -0.0783
  C  C485  1  0.920100  0.561100  0.934600  1.0  -0.0608
  C  C486  1  0.921300  0.630800  0.934900  1.0  -0.1234
  C  C487  1  0.888700  0.663600  0.915310  1.0  -0.116
  C  C488  1  0.818900  0.740400  0.874340  1.0  -0.016
  C  C489  1  0.861400  0.773900  0.855890  1.0  0.0158
  C  C490  1  0.900800  0.740000  0.837500  1.0  -0.0637
  C  C491  1  0.943300  0.769900  0.820490  1.0  -0.147
  C  C492  1  0.950200  0.838700  0.822050  1.0  -0.0445
  C  C493  1  0.912600  0.874700  0.839660  1.0  -0.0475
  C  C494  1  0.866300  0.844400  0.856450  1.0  0.0075
  C  C495  1  0.825100  0.879500  0.874840  1.0  0.042
  C  C496  1  0.785500  0.846800  0.891930  1.0  -0.1538
  C  C497  1  0.783500  0.776300  0.892830  1.0  0.2515
  C  C498  1  0.813400  0.054500  0.898830  1.0  0.1617
  C  C499  1  0.822900  0.987300  0.899030  1.0  -0.226
  C  C500  1  0.821000  0.952600  0.875560  1.0  0.1101
  C  C501  1  0.813400  0.989500  0.851950  1.0  -0.226
  C  C502  1  0.803700  0.056600  0.853360  1.0  0.162
  C  C503  1  0.885800  0.393100  0.714270  1.0  0.1786
  C  C504  1  0.911300  0.429200  0.693760  1.0  -0.2199
  C  C505  1  0.974500  0.450400  0.694450  1.0  0.1365
  C  C506  1  0.006700  0.432300  0.716700  1.0  -0.1786
  C  C507  1  0.978900  0.395500  0.736300  1.0  0.147
  C  C508  1  0.003800  0.492400  0.672880  1.0  0.0043
  C  C509  1  0.027400  0.463300  0.648540  1.0  0.04
  C  C510  1  0.026900  0.393100  0.644300  1.0  -0.081
  C  C511  1  0.047700  0.368300  0.620400  1.0  -0.069
  C  C512  1  0.074700  0.410100  0.599600  1.0  -0.0905
  C  C513  1  0.073900  0.476400  0.603090  1.0  -0.1009
  C  C514  1  0.051800  0.504600  0.627530  1.0  0.0139
  C  C515  1  0.054800  0.573900  0.631550  1.0  0.0057
  C  C516  1  0.033200  0.599900  0.655540  1.0  0.1954
  C  C517  1  0.007100  0.557500  0.675920  1.0  -0.1413
  C  C518  1  0.083400  0.616900  0.610050  1.0  -0.0283
  C  C519  1  0.043300  0.643900  0.589690  1.0  -0.0046
  C  C520  1  0.973500  0.634300  0.590190  1.0  -0.105
  C  C521  1  0.932700  0.657300  0.570420  1.0  -0.1297
  C  C522  1  0.961500  0.691800  0.548300  1.0  -0.0638
  C  C523  1  0.028300  0.702000  0.547270  1.0  -0.0649
  C  C524  1  0.070000  0.680500  0.567540  1.0  -0.057
  C  C525  1  0.140500  0.692300  0.568290  1.0  0.021
  C  C526  1  0.177600  0.668700  0.588420  1.0  -0.1999
  C  C527  1  0.149800  0.629500  0.609700  1.0  0.2138
  C  C528  1  0.190800  0.831200  0.521010  1.0  0.1204
  C  C529  1  0.153400  0.793800  0.539170  1.0  -0.049
  C  C530  1  0.173000  0.731900  0.546670  1.0  0.0599
  C  C531  1  0.230800  0.707300  0.534880  1.0  -0.1998
  C  C532  1  0.265600  0.745700  0.516850  1.0  0.1401
  C  C533  1  0.764100  0.647800  0.608380  1.0  0.1574
  C  C534  1  0.767500  0.579900  0.606740  1.0  -0.1899
  C  C535  1  0.807000  0.545000  0.624460  1.0  0.1257
  C  C536  1  0.844400  0.581000  0.642190  1.0  -0.1686
  C  C537  1  0.839700  0.650000  0.642810  1.0  0.1581
  C  C538  1  0.810700  0.472500  0.623410  1.0  -0.0414
  C  C539  1  0.778700  0.437400  0.643410  1.0  -0.1417
  C  C540  1  0.780800  0.367400  0.644390  1.0  0.2168
  C  C541  1  0.816500  0.332600  0.625190  1.0  0.0484
  C  C542  1  0.851500  0.369000  0.604420  1.0  0.0004
  C  C543  1  0.849200  0.437800  0.603910  1.0  0.0063
  C  C544  1  0.884800  0.472700  0.583760  1.0  -0.0794
  C  C545  1  0.920100  0.438900  0.565400  1.0  -0.0666
  C  C546  1  0.921300  0.369200  0.565100  1.0  -0.1246
  C  C547  1  0.888700  0.336400  0.584690  1.0  -0.1123
  C  C548  1  0.818900  0.259600  0.625660  1.0  -0.0144
  C  C549  1  0.861400  0.226100  0.644110  1.0  0.0151
  C  C550  1  0.900800  0.260000  0.662500  1.0  -0.0618
  C  C551  1  0.943300  0.230100  0.679510  1.0  -0.1455
  C  C552  1  0.950200  0.161300  0.677950  1.0  -0.0436
  C  C553  1  0.912600  0.125300  0.660340  1.0  -0.0466
  C  C554  1  0.866300  0.155600  0.643550  1.0  0.0075
  C  C555  1  0.825100  0.120500  0.625160  1.0  0.0428
  C  C556  1  0.785500  0.153200  0.608070  1.0  -0.1569
  C  C557  1  0.783500  0.223700  0.607170  1.0  0.246
  C  C558  1  0.813400  0.945500  0.601170  1.0  0.1606
  C  C559  1  0.822900  0.012700  0.600970  1.0  -0.2254
  C  C560  1  0.821000  0.047400  0.624440  1.0  0.1103
  C  C561  1  0.813400  0.010500  0.648050  1.0  -0.2255
  C  C562  1  0.803700  0.943400  0.646640  1.0  0.1625
  C  C563  1  0.885800  0.606900  0.785730  1.0  0.179
  C  C564  1  0.911300  0.570800  0.806240  1.0  -0.2198
  C  C565  1  0.974500  0.549600  0.805550  1.0  0.1386
  C  C566  1  0.006700  0.567700  0.783300  1.0  -0.1778
  C  C567  1  0.978900  0.604500  0.763700  1.0  0.1451
  C  C568  1  0.003800  0.507600  0.827120  1.0  0.0053
  C  C569  1  0.027400  0.536700  0.851460  1.0  0.0403
  C  C570  1  0.026900  0.606900  0.855700  1.0  -0.0829
  C  C571  1  0.047700  0.631700  0.879600  1.0  -0.0673
  C  C572  1  0.074700  0.589900  0.900400  1.0  -0.0862
  C  C573  1  0.073900  0.523600  0.896910  1.0  -0.1009
  C  C574  1  0.051800  0.495400  0.872470  1.0  0.0146
  C  C575  1  0.054800  0.426100  0.868450  1.0  0.0051
  C  C576  1  0.033200  0.400100  0.844460  1.0  0.1907
  C  C577  1  0.007100  0.442500  0.824080  1.0  -0.1412
  C  C578  1  0.083400  0.383100  0.889950  1.0  -0.0279
  C  C579  1  0.043300  0.356100  0.910310  1.0  -0.0042
  C  C580  1  0.973500  0.365700  0.909810  1.0  -0.106
  C  C581  1  0.932700  0.342700  0.929580  1.0  -0.1315
  C  C582  1  0.961500  0.308200  0.951700  1.0  -0.0633
  C  C583  1  0.028300  0.298000  0.952730  1.0  -0.0628
  C  C584  1  0.070000  0.319500  0.932460  1.0  -0.0574
  C  C585  1  0.140500  0.307700  0.931710  1.0  0.022
  C  C586  1  0.177600  0.331300  0.911580  1.0  -0.2014
  C  C587  1  0.149800  0.370500  0.890300  1.0  0.2129
  C  C588  1  0.190800  0.168800  0.978990  1.0  0.1176
  C  C589  1  0.153400  0.206200  0.960830  1.0  -0.0464
  C  C590  1  0.173000  0.268100  0.953330  1.0  0.0616
  C  C591  1  0.230800  0.292700  0.965120  1.0  -0.1998
  C  C592  1  0.265600  0.254300  0.983150  1.0  0.1403
  C  C593  1  0.235900  0.352200  0.108380  1.0  0.1571
  C  C594  1  0.232500  0.420100  0.106740  1.0  -0.1919
  C  C595  1  0.193000  0.455000  0.124460  1.0  0.1236
  C  C596  1  0.155600  0.419000  0.142190  1.0  -0.1669
  C  C597  1  0.160300  0.350000  0.142810  1.0  0.159
  C  C598  1  0.189300  0.527500  0.123410  1.0  -0.0379
  C  C599  1  0.221300  0.562600  0.143410  1.0  -0.1389
  C  C600  1  0.219200  0.632600  0.144390  1.0  0.2198
  C  C601  1  0.183500  0.667400  0.125190  1.0  0.0492
  C  C602  1  0.148500  0.631000  0.104420  1.0  -0.0003
  C  C603  1  0.150800  0.562200  0.103910  1.0  0.0059
  C  C604  1  0.115200  0.527300  0.083760  1.0  -0.0774
  C  C605  1  0.079900  0.561100  0.065400  1.0  -0.0674
  C  C606  1  0.078700  0.630800  0.065100  1.0  -0.1217
  C  C607  1  0.111300  0.663600  0.084690  1.0  -0.1114
  C  C608  1  0.181100  0.740400  0.125660  1.0  -0.0136
  C  C609  1  0.138600  0.773900  0.144110  1.0  0.0159
  C  C610  1  0.099200  0.740000  0.162500  1.0  -0.064
  C  C611  1  0.056700  0.769900  0.179510  1.0  -0.1455
  C  C612  1  0.049800  0.838700  0.177950  1.0  -0.0391
  C  C613  1  0.087400  0.874700  0.160340  1.0  -0.0465
  C  C614  1  0.133700  0.844400  0.143550  1.0  0.0082
  C  C615  1  0.174900  0.879500  0.125160  1.0  0.0431
  C  C616  1  0.214500  0.846800  0.108070  1.0  -0.1555
  C  C617  1  0.216500  0.776300  0.107170  1.0  0.246
  C  C618  1  0.186600  0.054500  0.101170  1.0  0.1616
  C  C619  1  0.177100  0.987300  0.100970  1.0  -0.2237
  C  C620  1  0.179000  0.952600  0.124440  1.0  0.1104
  C  C621  1  0.186600  0.989500  0.148050  1.0  -0.2252
  C  C622  1  0.196300  0.056600  0.146640  1.0  0.1626
  C  C623  1  0.114200  0.393100  0.285730  1.0  0.1778
  C  C624  1  0.088700  0.429200  0.306240  1.0  -0.2207
  C  C625  1  0.025500  0.450400  0.305550  1.0  0.1382
  C  C626  1  0.993300  0.432300  0.283300  1.0  -0.18
  C  C627  1  0.021100  0.395500  0.263700  1.0  0.1468
  C  C628  1  0.996200  0.492400  0.327120  1.0  0.0047
  C  C629  1  0.972600  0.463300  0.351460  1.0  0.0394
  C  C630  1  0.973100  0.393100  0.355700  1.0  -0.0811
  C  C631  1  0.952300  0.368300  0.379600  1.0  -0.0699
  C  C632  1  0.925300  0.410100  0.400400  1.0  -0.0875
  C  C633  1  0.926100  0.476400  0.396910  1.0  -0.1018
  C  C634  1  0.948200  0.504600  0.372470  1.0  0.0136
  C  C635  1  0.945200  0.573900  0.368450  1.0  0.004
  C  C636  1  0.966800  0.599900  0.344460  1.0  0.1905
  C  C637  1  0.992900  0.557500  0.324080  1.0  -0.1419
  C  C638  1  0.916600  0.616900  0.389950  1.0  -0.0293
  C  C639  1  0.956700  0.643900  0.410310  1.0  -0.0044
  C  C640  1  0.026500  0.634300  0.409810  1.0  -0.1053
  C  C641  1  0.067300  0.657300  0.429580  1.0  -0.1302
  C  C642  1  0.038500  0.691800  0.451700  1.0  -0.0631
  C  C643  1  0.971700  0.702000  0.452730  1.0  -0.0627
  C  C644  1  0.930000  0.680500  0.432460  1.0  -0.0573
  C  C645  1  0.859500  0.692300  0.431710  1.0  0.0223
  C  C646  1  0.822400  0.668700  0.411580  1.0  -0.2012
  C  C647  1  0.850200  0.629500  0.390300  1.0  0.2137
  C  C648  1  0.809200  0.831200  0.478990  1.0  0.1209
  C  C649  1  0.846600  0.793800  0.460830  1.0  -0.0468
  C  C650  1  0.827000  0.731900  0.453330  1.0  0.0636
  C  C651  1  0.769200  0.707300  0.465120  1.0  -0.1993
  C  C652  1  0.734400  0.745700  0.483150  1.0  0.1392
  C  C653  1  0.352200  0.235900  0.141620  1.0  0.1556
  C  C654  1  0.420100  0.232500  0.143260  1.0  -0.1923
  C  C655  1  0.455000  0.193000  0.125540  1.0  0.1296
  C  C656  1  0.419000  0.155600  0.107810  1.0  -0.1696
  C  C657  1  0.350000  0.160300  0.107190  1.0  0.1578
  C  C658  1  0.527500  0.189300  0.126590  1.0  -0.0399
  C  C659  1  0.562600  0.221300  0.106590  1.0  -0.1364
  C  C660  1  0.632600  0.219200  0.105610  1.0  0.2225
  C  C661  1  0.667400  0.183500  0.124810  1.0  0.0466
  C  C662  1  0.631000  0.148500  0.145580  1.0  0.0012
  C  C663  1  0.562200  0.150800  0.146090  1.0  0.0057
  C  C664  1  0.527300  0.115200  0.166240  1.0  -0.0775
  C  C665  1  0.561100  0.079900  0.184600  1.0  -0.0611
  C  C666  1  0.630800  0.078700  0.184900  1.0  -0.1235
  C  C667  1  0.663600  0.111300  0.165310  1.0  -0.1122
  C  C668  1  0.740400  0.181100  0.124340  1.0  -0.016
  C  C669  1  0.773900  0.138600  0.105890  1.0  0.0165
  C  C670  1  0.740000  0.099200  0.087500  1.0  -0.0657
  C  C671  1  0.769900  0.056700  0.070490  1.0  -0.1416
  C  C672  1  0.838700  0.049800  0.072050  1.0  -0.0237
  C  C673  1  0.874700  0.087400  0.089660  1.0  -0.044
  C  C674  1  0.844400  0.133700  0.106450  1.0  0.0082
  C  C675  1  0.879500  0.174900  0.124840  1.0  0.0417
  C  C676  1  0.846800  0.214500  0.141930  1.0  -0.1514
  C  C677  1  0.776300  0.216500  0.142830  1.0  0.2528
  C  C678  1  0.054500  0.186600  0.148830  1.0  0.1602
  C  C679  1  0.987300  0.177100  0.149030  1.0  -0.2248
  C  C680  1  0.952600  0.179000  0.125560  1.0  0.115
  C  C681  1  0.989500  0.186600  0.101950  1.0  -0.229
  C  C682  1  0.056600  0.196300  0.103360  1.0  0.16
  C  C683  1  0.393100  0.114200  0.964270  1.0  0.1753
  C  C684  1  0.429200  0.088700  0.943760  1.0  -0.2226
  C  C685  1  0.450400  0.025500  0.944450  1.0  0.1369
  C  C686  1  0.432300  0.993300  0.966700  1.0  -0.1859
  C  C687  1  0.395500  0.021100  0.986300  1.0  0.1465
  C  C688  1  0.492400  0.996200  0.922880  1.0  0.007
  C  C689  1  0.463300  0.972600  0.898540  1.0  0.0394
  C  C690  1  0.393100  0.973100  0.894300  1.0  -0.0791
  C  C691  1  0.368300  0.952300  0.870400  1.0  -0.0709
  C  C692  1  0.410100  0.925300  0.849600  1.0  -0.0825
  C  C693  1  0.476400  0.926100  0.853090  1.0  -0.1019
  C  C694  1  0.504600  0.948200  0.877530  1.0  0.0128
  C  C695  1  0.573900  0.945200  0.881550  1.0  0.0044
  C  C696  1  0.599900  0.966800  0.905540  1.0  0.1958
  C  C697  1  0.557500  0.992900  0.925920  1.0  -0.1415
  C  C698  1  0.616900  0.916600  0.860050  1.0  -0.0288
  C  C699  1  0.643900  0.956700  0.839690  1.0  -0.0045
  C  C700  1  0.634300  0.026500  0.840190  1.0  -0.1061
  C  C701  1  0.657300  0.067300  0.820420  1.0  -0.1304
  C  C702  1  0.691800  0.038500  0.798300  1.0  -0.0646
  C  C703  1  0.702000  0.971700  0.797270  1.0  -0.0649
  C  C704  1  0.680500  0.930000  0.817540  1.0  -0.0576
  C  C705  1  0.692300  0.859500  0.818290  1.0  0.0204
  C  C706  1  0.668700  0.822400  0.838420  1.0  -0.2013
  C  C707  1  0.629500  0.850200  0.859700  1.0  0.2172
  C  C708  1  0.831200  0.809200  0.771010  1.0  0.1198
  C  C709  1  0.793800  0.846600  0.789170  1.0  -0.045
  C  C710  1  0.731900  0.827000  0.796670  1.0  0.0599
  C  C711  1  0.707300  0.769200  0.784880  1.0  -0.198
  C  C712  1  0.745700  0.734400  0.766850  1.0  0.1411
  C  C713  1  0.647800  0.764100  0.641620  1.0  0.158
  C  C714  1  0.579900  0.767500  0.643260  1.0  -0.1907
  C  C715  1  0.545000  0.807000  0.625540  1.0  0.1285
  C  C716  1  0.581000  0.844400  0.607810  1.0  -0.1688
  C  C717  1  0.650000  0.839700  0.607190  1.0  0.1577
  C  C718  1  0.472500  0.810700  0.626590  1.0  -0.0401
  C  C719  1  0.437400  0.778700  0.606590  1.0  -0.1336
  C  C720  1  0.367400  0.780800  0.605610  1.0  0.2246
  C  C721  1  0.332600  0.816500  0.624810  1.0  0.0484
  C  C722  1  0.369000  0.851500  0.645580  1.0  0.0002
  C  C723  1  0.437800  0.849200  0.646090  1.0  0.0046
  C  C724  1  0.472700  0.884800  0.666240  1.0  -0.0766
  C  C725  1  0.438900  0.920100  0.684600  1.0  -0.0536
  C  C726  1  0.369200  0.921300  0.684900  1.0  -0.1239
  C  C727  1  0.336400  0.888700  0.665310  1.0  -0.1128
  C  C728  1  0.259600  0.818900  0.624340  1.0  -0.0155
  C  C729  1  0.226100  0.861400  0.605890  1.0  0.0171
  C  C730  1  0.260000  0.900800  0.587500  1.0  -0.0673
  C  C731  1  0.230100  0.943300  0.570490  1.0  -0.1426
  C  C732  1  0.161300  0.950200  0.572050  1.0  -0.0292
  C  C733  1  0.125300  0.912600  0.589660  1.0  -0.0447
  C  C734  1  0.155600  0.866300  0.606450  1.0  0.0093
  C  C735  1  0.120500  0.825100  0.624840  1.0  0.0408
  C  C736  1  0.153200  0.785500  0.641930  1.0  -0.1538
  C  C737  1  0.223700  0.783500  0.642830  1.0  0.2516
  C  C738  1  0.945500  0.813400  0.648830  1.0  0.16
  C  C739  1  0.012700  0.822900  0.649030  1.0  -0.2282
  C  C740  1  0.047400  0.821000  0.625560  1.0  0.1136
  C  C741  1  0.010500  0.813400  0.601950  1.0  -0.23
  C  C742  1  0.943400  0.803700  0.603360  1.0  0.1603
  C  C743  1  0.606900  0.885800  0.464270  1.0  0.1775
  C  C744  1  0.570800  0.911300  0.443760  1.0  -0.2214
  C  C745  1  0.549600  0.974500  0.444450  1.0  0.1368
  C  C746  1  0.567700  0.006700  0.466700  1.0  -0.1887
  C  C747  1  0.604500  0.978900  0.486300  1.0  0.1462
  C  C748  1  0.507600  0.003800  0.422880  1.0  0.0066
  C  C749  1  0.536700  0.027400  0.398540  1.0  0.0391
  C  C750  1  0.606900  0.026900  0.394300  1.0  -0.0792
  C  C751  1  0.631700  0.047700  0.370400  1.0  -0.0731
  C  C752  1  0.589900  0.074700  0.349600  1.0  -0.0837
  C  C753  1  0.523600  0.073900  0.353090  1.0  -0.1017
  C  C754  1  0.495400  0.051800  0.377530  1.0  0.0137
  C  C755  1  0.426100  0.054800  0.381550  1.0  0.0052
  C  C756  1  0.400100  0.033200  0.405540  1.0  0.1941
  C  C757  1  0.442500  0.007100  0.425920  1.0  -0.1435
  C  C758  1  0.383100  0.083400  0.360050  1.0  -0.0279
  C  C759  1  0.356100  0.043300  0.339690  1.0  -0.0037
  C  C760  1  0.365700  0.973500  0.340190  1.0  -0.1055
  C  C761  1  0.342700  0.932700  0.320420  1.0  -0.1311
  C  C762  1  0.308200  0.961500  0.298300  1.0  -0.0624
  C  C763  1  0.298000  0.028300  0.297270  1.0  -0.0662
  C  C764  1  0.319500  0.070000  0.317540  1.0  -0.0577
  C  C765  1  0.307700  0.140500  0.318290  1.0  0.0222
  C  C766  1  0.331300  0.177600  0.338420  1.0  -0.2039
  C  C767  1  0.370500  0.149800  0.359700  1.0  0.2181
  C  C768  1  0.168800  0.190800  0.271010  1.0  0.1209
  C  C769  1  0.206200  0.153400  0.289170  1.0  -0.046
  C  C770  1  0.268100  0.173000  0.296670  1.0  0.0596
  C  C771  1  0.292700  0.230800  0.284880  1.0  -0.1931
  C  C772  1  0.254300  0.265600  0.266850  1.0  0.1407
  N  N773  1  0.683170  0.201100  0.876810  1.0  -0.3387
  N  N774  1  0.910700  0.197100  0.873360  1.0  -0.3375
  N  N775  1  0.625800  0.081000  0.015030  1.0  -0.322
  N  N776  1  0.192700  0.753500  0.239800  1.0  -0.3725
  N  N777  1  0.767800  0.205300  0.940150  1.0  0.7816
  N  N778  1  0.316830  0.798900  0.376810  1.0  -0.3404
  N  N779  1  0.089300  0.802900  0.373360  1.0  -0.3326
  N  N780  1  0.374200  0.919000  0.515030  1.0  -0.3241
  N  N781  1  0.807300  0.246500  0.739800  1.0  -0.3731
  N  N782  1  0.232200  0.794700  0.440150  1.0  0.7843
  N  N783  1  0.201100  0.683170  0.373190  1.0  -0.3409
  N  N784  1  0.197100  0.910700  0.376640  1.0  -0.3366
  N  N785  1  0.081000  0.625800  0.234970  1.0  -0.3199
  N  N786  1  0.753500  0.192700  0.010200  1.0  -0.3776
  N  N787  1  0.205300  0.767800  0.309850  1.0  0.7853
  N  N788  1  0.798900  0.316830  0.873190  1.0  -0.3419
  N  N789  1  0.802900  0.089300  0.876640  1.0  -0.3358
  N  N790  1  0.919000  0.374200  0.734970  1.0  -0.3223
  N  N791  1  0.246500  0.807300  0.510200  1.0  -0.3794
  N  N792  1  0.794700  0.232200  0.809850  1.0  0.7866
  N  N793  1  0.798900  0.683170  0.626810  1.0  -0.3408
  N  N794  1  0.802900  0.910700  0.623360  1.0  -0.3366
  N  N795  1  0.919000  0.625800  0.765030  1.0  -0.3213
  N  N796  1  0.246500  0.192700  0.989800  1.0  -0.3765
  N  N797  1  0.794700  0.767800  0.690150  1.0  0.7843
  N  N798  1  0.201100  0.316830  0.126810  1.0  -0.3416
  N  N799  1  0.197100  0.089300  0.123360  1.0  -0.3356
  N  N800  1  0.081000  0.374200  0.265030  1.0  -0.3208
  N  N801  1  0.753500  0.807300  0.489800  1.0  -0.3771
  N  N802  1  0.205300  0.232200  0.190150  1.0  0.783
  N  N803  1  0.316830  0.201100  0.123190  1.0  -0.3393
  N  N804  1  0.089300  0.197100  0.126640  1.0  -0.3323
  N  N805  1  0.374200  0.081000  0.984970  1.0  -0.3235
  N  N806  1  0.807300  0.753500  0.760200  1.0  -0.3755
  N  N807  1  0.232200  0.205300  0.059850  1.0  0.7859
  N  N808  1  0.683170  0.798900  0.623190  1.0  -0.3386
  N  N809  1  0.910700  0.802900  0.626640  1.0  -0.3377
  N  N810  1  0.625800  0.919000  0.484970  1.0  -0.3207
  N  N811  1  0.192700  0.246500  0.260200  1.0  -0.3739
  N  N812  1  0.767800  0.794700  0.559850  1.0  0.7847
  Cl  Cl813  1  0.480550  0.035800  0.790370  1.0  -0.0963
  Cl  Cl814  1  0.122220  0.995120  0.949620  1.0  -0.1533
  Cl  Cl815  1  0.716200  0.954200  0.135160  1.0  -0.0729
  Cl  Cl816  1  0.279040  0.090810  0.226590  1.0  -0.073
  Cl  Cl817  1  0.519450  0.964200  0.290370  1.0  -0.0958
  Cl  Cl818  1  0.877780  0.004880  0.449620  1.0  -0.1482
  Cl  Cl819  1  0.283800  0.045800  0.635160  1.0  -0.0752
  Cl  Cl820  1  0.720960  0.909190  0.726590  1.0  -0.073
  Cl  Cl821  1  0.035800  0.480550  0.459630  1.0  -0.0938
  Cl  Cl822  1  0.995120  0.122220  0.300380  1.0  -0.15
  Cl  Cl823  1  0.954200  0.716200  0.114840  1.0  -0.0749
  Cl  Cl824  1  0.090810  0.279040  0.023410  1.0  -0.0755
  Cl  Cl825  1  0.964200  0.519450  0.959630  1.0  -0.0938
  Cl  Cl826  1  0.004880  0.877780  0.800380  1.0  -0.1514
  Cl  Cl827  1  0.045800  0.283800  0.614840  1.0  -0.0717
  Cl  Cl828  1  0.909190  0.720960  0.523410  1.0  -0.0742
  Cl  Cl829  1  0.964200  0.480550  0.540370  1.0  -0.0915
  Cl  Cl830  1  0.004880  0.122220  0.699620  1.0  -0.1505
  Cl  Cl831  1  0.045800  0.716200  0.885160  1.0  -0.0729
  Cl  Cl832  1  0.909190  0.279040  0.976590  1.0  -0.0733
  Cl  Cl833  1  0.035800  0.519450  0.040370  1.0  -0.0936
  Cl  Cl834  1  0.995120  0.877780  0.199620  1.0  -0.1482
  Cl  Cl835  1  0.954200  0.283800  0.385160  1.0  -0.0723
  Cl  Cl836  1  0.090810  0.720960  0.476590  1.0  -0.0742
  Cl  Cl837  1  0.519450  0.035800  0.209630  1.0  -0.0948
  Cl  Cl838  1  0.877780  0.995120  0.050380  1.0  -0.1523
  Cl  Cl839  1  0.283800  0.954200  0.864840  1.0  -0.072
  Cl  Cl840  1  0.720960  0.090810  0.773410  1.0  -0.074
  Cl  Cl841  1  0.480550  0.964200  0.709630  1.0  -0.0925
  Cl  Cl842  1  0.122220  0.004880  0.550380  1.0  -0.1512
  Cl  Cl843  1  0.716200  0.045800  0.364840  1.0  -0.073
  Cl  Cl844  1  0.279040  0.909190  0.273410  1.0  -0.0739
  O  O845  1  0.333500  0.250400  0.913770  1.0  -0.5335
  O  O846  1  0.256700  0.256700  0.840600  1.0  -0.5306
  O  O847  1  0.333333  0.963800  0.090530  1.0  -0.5084
  O  O848  1  0.395600  0.811000  0.121030  1.0  -0.5361
  O  O849  1  0.727400  0.245700  0.949390  1.0  -0.4711
  O  O850  1  0.764100  0.149800  0.947500  1.0  -0.6586
  O  O851  1  0.804700  0.224700  0.921530  1.0  -0.67
  O  O852  1  0.666500  0.749600  0.413770  1.0  -0.5322
  O  O853  1  0.743300  0.743300  0.340600  1.0  -0.5294
  O  O854  1  0.666667  0.036200  0.590530  1.0  -0.5068
  O  O855  1  0.604400  0.189000  0.621030  1.0  -0.5332
  O  O856  1  0.272600  0.754300  0.449390  1.0  -0.4713
  O  O857  1  0.235900  0.850200  0.447500  1.0  -0.6611
  O  O858  1  0.195300  0.775300  0.421530  1.0  -0.6691
  O  O859  1  0.250400  0.333500  0.336230  1.0  -0.5343
  O  O860  1  0.256700  0.256700  0.409400  1.0  -0.5328
  O  O861  1  0.963800  0.333333  0.159470  1.0  -0.5089
  O  O862  1  0.811000  0.395600  0.128970  1.0  -0.5334
  O  O863  1  0.245700  0.727400  0.300610  1.0  -0.4714
  O  O864  1  0.149800  0.764100  0.302500  1.0  -0.662
  O  O865  1  0.224700  0.804700  0.328470  1.0  -0.6699
  O  O866  1  0.749600  0.666500  0.836230  1.0  -0.5345
  O  O867  1  0.743300  0.743300  0.909400  1.0  -0.5314
  O  O868  1  0.036200  0.666667  0.659470  1.0  -0.5089
  O  O869  1  0.189000  0.604400  0.628970  1.0  -0.5364
  O  O870  1  0.754300  0.272600  0.800610  1.0  -0.4728
  O  O871  1  0.850200  0.235900  0.802500  1.0  -0.6624
  O  O872  1  0.775300  0.195300  0.828470  1.0  -0.6701
  O  O873  1  0.749600  0.333500  0.663770  1.0  -0.5346
  O  O874  1  0.743300  0.256700  0.590600  1.0  -0.5328
  O  O875  1  0.036200  0.333333  0.840530  1.0  -0.5075
  O  O876  1  0.189000  0.395600  0.871030  1.0  -0.5356
  O  O877  1  0.754300  0.727400  0.699390  1.0  -0.4717
  O  O878  1  0.850200  0.764100  0.697500  1.0  -0.6602
  O  O879  1  0.775300  0.804700  0.671530  1.0  -0.6689
  O  O880  1  0.250400  0.666500  0.163770  1.0  -0.5356
  O  O881  1  0.256700  0.743300  0.090600  1.0  -0.5308
  O  O882  1  0.963800  0.666667  0.340530  1.0  -0.5068
  O  O883  1  0.811000  0.604400  0.371030  1.0  -0.5326
  O  O884  1  0.245700  0.272600  0.199390  1.0  -0.4708
  O  O885  1  0.149800  0.235900  0.197500  1.0  -0.6622
  O  O886  1  0.224700  0.195300  0.171530  1.0  -0.6683
  O  O887  1  0.666500  0.250400  0.086230  1.0  -0.532
  O  O888  1  0.743300  0.256700  0.159400  1.0  -0.5305
  O  O889  1  0.666667  0.963800  0.909470  1.0  -0.5096
  O  O890  1  0.604400  0.811000  0.878970  1.0  -0.536
  O  O891  1  0.272600  0.245700  0.050610  1.0  -0.4719
  O  O892  1  0.235900  0.149800  0.052500  1.0  -0.6598
  O  O893  1  0.195300  0.224700  0.078470  1.0  -0.6706
  O  O894  1  0.333500  0.749600  0.586230  1.0  -0.5327
  O  O895  1  0.256700  0.743300  0.659400  1.0  -0.5297
  O  O896  1  0.333333  0.036200  0.409470  1.0  -0.509
  O  O897  1  0.395600  0.189000  0.378970  1.0  -0.5329
  O  O898  1  0.727400  0.754300  0.550610  1.0  -0.474
  O  O899  1  0.764100  0.850200  0.552500  1.0  -0.6624
  O  O900  1  0.804700  0.775300  0.578470  1.0  -0.671
