# generated using pymatgen
data_CdH30(C3N)12
_symmetry_space_group_name_H-M   'P 1'
_cell_length_a   31.07000000
_cell_length_b   31.07000000
_cell_length_c   31.86200000
_cell_angle_alpha   90.00000000
_cell_angle_beta   90.00000000
_cell_angle_gamma   120.00000000
_symmetry_Int_Tables_number   1
_chemical_formula_structural   CdH30(C3N)12
_chemical_formula_sum   'Cd18 H540 C648 N216'
_cell_volume   26637.05279550
_cell_formula_units_Z   18
loop_
 _symmetry_equiv_pos_site_id
 _symmetry_equiv_pos_as_xyz
  1  'x, y, z'
loop_
 _atom_site_type_symbol
 _atom_site_label
 _atom_site_symmetry_multiplicity
 _atom_site_fract_x
 _atom_site_fract_y
 _atom_site_fract_z
 _atom_site_occupancy
 _atom_site_charge
  Cd  Cd1  1  0.461160  0.000000  0.250000  1.0  0.7418
  Cd  Cd2  1  0.000000  0.461160  0.250000  1.0  0.7413
  Cd  Cd3  1  0.538840  0.538840  0.250000  1.0  0.7417
  Cd  Cd4  1  0.538840  0.000000  0.750000  1.0  0.7419
  Cd  Cd5  1  0.000000  0.538840  0.750000  1.0  0.7413
  Cd  Cd6  1  0.461160  0.461160  0.750000  1.0  0.7415
  Cd  Cd7  1  0.127830  0.333333  0.583330  1.0  0.7424
  Cd  Cd8  1  0.666667  0.794500  0.583330  1.0  0.7419
  Cd  Cd9  1  0.205500  0.872170  0.583330  1.0  0.7418
  Cd  Cd10  1  0.205500  0.333333  0.083330  1.0  0.7425
  Cd  Cd11  1  0.666667  0.872170  0.083330  1.0  0.7419
  Cd  Cd12  1  0.127830  0.794500  0.083330  1.0  0.7416
  Cd  Cd13  1  0.794500  0.666667  0.916670  1.0  0.7419
  Cd  Cd14  1  0.333333  0.127830  0.916670  1.0  0.7414
  Cd  Cd15  1  0.872170  0.205500  0.916670  1.0  0.7422
  Cd  Cd16  1  0.872170  0.666667  0.416670  1.0  0.742
  Cd  Cd17  1  0.333333  0.205500  0.416670  1.0  0.7415
  Cd  Cd18  1  0.794500  0.127830  0.416670  1.0  0.742
  H  H19  1  0.030500  0.572600  0.215100  1.0  0.0584
  H  H20  1  0.096500  0.652300  0.208800  1.0  0.101
  H  H21  1  0.176000  0.613100  0.282000  1.0  0.1092
  H  H22  1  0.107700  0.534600  0.286800  1.0  0.0636
  H  H23  1  0.509100  0.973400  0.331000  1.0  0.0637
  H  H24  1  0.514200  0.974500  0.403000  1.0  0.1035
  H  H25  1  0.405000  0.008200  0.407300  1.0  0.1151
  H  H26  1  0.404400  0.008000  0.334800  1.0  0.0543
  H  H27  1  0.438700  0.996200  0.475100  1.0  0.0825
  H  H28  1  0.396200  0.904000  0.196300  1.0  0.0611
  H  H29  1  0.322200  0.830300  0.194400  1.0  0.1073
  H  H30  1  0.269400  0.885900  0.280800  1.0  0.1039
  H  H31  1  0.344800  0.958100  0.280400  1.0  0.0626
  H  H32  1  0.217000  0.795500  0.260700  1.0  0.0829
  H  H33  1  0.217800  0.698100  0.253200  1.0  0.0783
  H  H34  1  0.427400  0.457900  0.215100  1.0  0.0572
  H  H35  1  0.347700  0.444200  0.208800  1.0  0.1016
  H  H36  1  0.386900  0.562900  0.282000  1.0  0.1099
  H  H37  1  0.465400  0.573100  0.286800  1.0  0.0637
  H  H38  1  0.026600  0.535700  0.331000  1.0  0.0635
  H  H39  1  0.025500  0.539700  0.403000  1.0  0.1003
  H  H40  1  0.991800  0.396800  0.407300  1.0  0.1136
  H  H41  1  0.992000  0.396400  0.334800  1.0  0.0553
  H  H42  1  0.003800  0.442500  0.475100  1.0  0.0834
  H  H43  1  0.096000  0.492200  0.196300  1.0  0.0618
  H  H44  1  0.169700  0.491900  0.194400  1.0  0.1077
  H  H45  1  0.114100  0.383500  0.280800  1.0  0.1045
  H  H46  1  0.041900  0.386700  0.280400  1.0  0.0632
  H  H47  1  0.204500  0.421500  0.260700  1.0  0.0838
  H  H48  1  0.301900  0.519700  0.253200  1.0  0.0798
  H  H49  1  0.542100  0.969500  0.215100  1.0  0.0586
  H  H50  1  0.555800  0.903500  0.208800  1.0  0.1014
  H  H51  1  0.437100  0.824000  0.282000  1.0  0.11
  H  H52  1  0.426900  0.892300  0.286800  1.0  0.0643
  H  H53  1  0.464300  0.490900  0.331000  1.0  0.0632
  H  H54  1  0.460300  0.485800  0.403000  1.0  0.1025
  H  H55  1  0.603200  0.595000  0.407300  1.0  0.1143
  H  H56  1  0.603600  0.595600  0.334800  1.0  0.0553
  H  H57  1  0.557500  0.561300  0.475100  1.0  0.0834
  H  H58  1  0.507800  0.603800  0.196300  1.0  0.0615
  H  H59  1  0.508100  0.677800  0.194400  1.0  0.1072
  H  H60  1  0.616500  0.730600  0.280800  1.0  0.1034
  H  H61  1  0.613300  0.655200  0.280400  1.0  0.0614
  H  H62  1  0.578500  0.783000  0.260700  1.0  0.0834
  H  H63  1  0.480300  0.782200  0.253200  1.0  0.0783
  H  H64  1  0.572600  0.030500  0.284900  1.0  0.0579
  H  H65  1  0.652300  0.096500  0.291200  1.0  0.1014
  H  H66  1  0.613100  0.176000  0.218000  1.0  0.1097
  H  H67  1  0.534600  0.107700  0.213200  1.0  0.0645
  H  H68  1  0.973400  0.509100  0.169000  1.0  0.0627
  H  H69  1  0.974500  0.514200  0.097000  1.0  0.102
  H  H70  1  0.008200  0.405000  0.092700  1.0  0.115
  H  H71  1  0.008000  0.404400  0.165200  1.0  0.056
  H  H72  1  0.996200  0.438700  0.024900  1.0  0.0832
  H  H73  1  0.904000  0.396200  0.303700  1.0  0.0615
  H  H74  1  0.830300  0.322200  0.305600  1.0  0.1072
  H  H75  1  0.885900  0.269400  0.219200  1.0  0.1037
  H  H76  1  0.958100  0.344800  0.219600  1.0  0.0605
  H  H77  1  0.795500  0.217000  0.239300  1.0  0.083
  H  H78  1  0.698100  0.217800  0.246800  1.0  0.0783
  H  H79  1  0.457900  0.427400  0.284900  1.0  0.0583
  H  H80  1  0.444200  0.347700  0.291200  1.0  0.1011
  H  H81  1  0.562900  0.386900  0.218000  1.0  0.1091
  H  H82  1  0.573100  0.465400  0.213200  1.0  0.064
  H  H83  1  0.535700  0.026600  0.169000  1.0  0.0649
  H  H84  1  0.539700  0.025500  0.097000  1.0  0.1026
  H  H85  1  0.396800  0.991800  0.092700  1.0  0.1151
  H  H86  1  0.396400  0.992000  0.165200  1.0  0.0545
  H  H87  1  0.442500  0.003800  0.024900  1.0  0.0824
  H  H88  1  0.492200  0.096000  0.303700  1.0  0.0613
  H  H89  1  0.491900  0.169700  0.305600  1.0  0.1074
  H  H90  1  0.383500  0.114100  0.219200  1.0  0.1036
  H  H91  1  0.386700  0.041900  0.219600  1.0  0.0623
  H  H92  1  0.421500  0.204500  0.239300  1.0  0.0821
  H  H93  1  0.519700  0.301900  0.246800  1.0  0.0796
  H  H94  1  0.969500  0.542100  0.284900  1.0  0.057
  H  H95  1  0.903500  0.555800  0.291200  1.0  0.1017
  H  H96  1  0.824000  0.437100  0.218000  1.0  0.1089
  H  H97  1  0.892300  0.426900  0.213200  1.0  0.0639
  H  H98  1  0.490900  0.464300  0.169000  1.0  0.0629
  H  H99  1  0.485800  0.460300  0.097000  1.0  0.101
  H  H100  1  0.595000  0.603200  0.092700  1.0  0.1138
  H  H101  1  0.595600  0.603600  0.165200  1.0  0.0563
  H  H102  1  0.561300  0.557500  0.024900  1.0  0.0832
  H  H103  1  0.603800  0.507800  0.303700  1.0  0.0618
  H  H104  1  0.677800  0.508100  0.305600  1.0  0.1075
  H  H105  1  0.730600  0.616500  0.219200  1.0  0.1044
  H  H106  1  0.655200  0.613300  0.219600  1.0  0.0631
  H  H107  1  0.783000  0.578500  0.239300  1.0  0.0832
  H  H108  1  0.782200  0.480300  0.246800  1.0  0.0774
  H  H109  1  0.969500  0.427400  0.784900  1.0  0.0591
  H  H110  1  0.903500  0.347700  0.791200  1.0  0.1011
  H  H111  1  0.824000  0.386900  0.718000  1.0  0.1092
  H  H112  1  0.892300  0.465400  0.713200  1.0  0.0636
  H  H113  1  0.490900  0.026600  0.669000  1.0  0.0637
  H  H114  1  0.485800  0.025500  0.597000  1.0  0.103
  H  H115  1  0.595000  0.991800  0.592700  1.0  0.1149
  H  H116  1  0.595600  0.992000  0.665200  1.0  0.0545
  H  H117  1  0.561300  0.003800  0.524900  1.0  0.0824
  H  H118  1  0.603800  0.096000  0.803700  1.0  0.0616
  H  H119  1  0.677800  0.169700  0.805600  1.0  0.1074
  H  H120  1  0.730600  0.114100  0.719200  1.0  0.1033
  H  H121  1  0.655200  0.041900  0.719600  1.0  0.0624
  H  H122  1  0.783000  0.204500  0.739300  1.0  0.0823
  H  H123  1  0.782200  0.301900  0.746800  1.0  0.0778
  H  H124  1  0.572600  0.542100  0.784900  1.0  0.0572
  H  H125  1  0.652300  0.555800  0.791200  1.0  0.1017
  H  H126  1  0.613100  0.437100  0.718000  1.0  0.1089
  H  H127  1  0.534600  0.426900  0.713200  1.0  0.0639
  H  H128  1  0.973400  0.464300  0.669000  1.0  0.0631
  H  H129  1  0.974500  0.460300  0.597000  1.0  0.101
  H  H130  1  0.008200  0.603200  0.592700  1.0  0.1142
  H  H131  1  0.008000  0.603600  0.665200  1.0  0.0564
  H  H132  1  0.996200  0.557500  0.524900  1.0  0.083
  H  H133  1  0.904000  0.507800  0.803700  1.0  0.062
  H  H134  1  0.830300  0.508100  0.805600  1.0  0.1075
  H  H135  1  0.885900  0.616500  0.719200  1.0  0.1045
  H  H136  1  0.958100  0.613300  0.719600  1.0  0.0632
  H  H137  1  0.795500  0.578500  0.739300  1.0  0.0829
  H  H138  1  0.698100  0.480300  0.746800  1.0  0.0793
  H  H139  1  0.457900  0.030500  0.784900  1.0  0.058
  H  H140  1  0.444200  0.096500  0.791200  1.0  0.1015
  H  H141  1  0.562900  0.176000  0.718000  1.0  0.1101
  H  H142  1  0.573100  0.107700  0.713200  1.0  0.0645
  H  H143  1  0.535700  0.509100  0.669000  1.0  0.064
  H  H144  1  0.539700  0.514200  0.597000  1.0  0.1018
  H  H145  1  0.396800  0.405000  0.592700  1.0  0.1151
  H  H146  1  0.396400  0.404400  0.665200  1.0  0.0553
  H  H147  1  0.442500  0.438700  0.524900  1.0  0.083
  H  H148  1  0.492200  0.396200  0.803700  1.0  0.0613
  H  H149  1  0.491900  0.322200  0.805600  1.0  0.1076
  H  H150  1  0.383500  0.269400  0.719200  1.0  0.1034
  H  H151  1  0.386700  0.344800  0.719600  1.0  0.0607
  H  H152  1  0.421500  0.217000  0.739300  1.0  0.0834
  H  H153  1  0.519700  0.217800  0.746800  1.0  0.0787
  H  H154  1  0.427400  0.969500  0.715100  1.0  0.0584
  H  H155  1  0.347700  0.903500  0.708800  1.0  0.1013
  H  H156  1  0.386900  0.824000  0.782000  1.0  0.1095
  H  H157  1  0.465400  0.892300  0.786800  1.0  0.0649
  H  H158  1  0.026600  0.490900  0.831000  1.0  0.0626
  H  H159  1  0.025500  0.485800  0.903000  1.0  0.1026
  H  H160  1  0.991800  0.595000  0.907300  1.0  0.1148
  H  H161  1  0.992000  0.595600  0.834800  1.0  0.0558
  H  H162  1  0.003800  0.561300  0.975100  1.0  0.083
  H  H163  1  0.096000  0.603800  0.696300  1.0  0.0613
  H  H164  1  0.169700  0.677800  0.694400  1.0  0.1073
  H  H165  1  0.114100  0.730600  0.780800  1.0  0.1035
  H  H166  1  0.041900  0.655200  0.780400  1.0  0.0615
  H  H167  1  0.204500  0.783000  0.760700  1.0  0.0835
  H  H168  1  0.301900  0.782200  0.753200  1.0  0.0781
  H  H169  1  0.542100  0.572600  0.715100  1.0  0.0591
  H  H170  1  0.555800  0.652300  0.708800  1.0  0.1011
  H  H171  1  0.437100  0.613100  0.782000  1.0  0.1097
  H  H172  1  0.426900  0.534600  0.786800  1.0  0.0636
  H  H173  1  0.464300  0.973400  0.831000  1.0  0.0636
  H  H174  1  0.460300  0.974500  0.903000  1.0  0.1035
  H  H175  1  0.603200  0.008200  0.907300  1.0  0.1152
  H  H176  1  0.603600  0.008000  0.834800  1.0  0.0551
  H  H177  1  0.557500  0.996200  0.975100  1.0  0.0827
  H  H178  1  0.507800  0.904000  0.696300  1.0  0.0613
  H  H179  1  0.508100  0.830300  0.694400  1.0  0.1073
  H  H180  1  0.616500  0.885900  0.780800  1.0  0.1033
  H  H181  1  0.613300  0.958100  0.780400  1.0  0.0623
  H  H182  1  0.578500  0.795500  0.760700  1.0  0.083
  H  H183  1  0.480300  0.698100  0.753200  1.0  0.0794
  H  H184  1  0.030500  0.457900  0.715100  1.0  0.0572
  H  H185  1  0.096500  0.444200  0.708800  1.0  0.1015
  H  H186  1  0.176000  0.562900  0.782000  1.0  0.1097
  H  H187  1  0.107700  0.573100  0.786800  1.0  0.0637
  H  H188  1  0.509100  0.535700  0.831000  1.0  0.0637
  H  H189  1  0.514200  0.539700  0.903000  1.0  0.1005
  H  H190  1  0.405000  0.396800  0.907300  1.0  0.1146
  H  H191  1  0.404400  0.396400  0.834800  1.0  0.0561
  H  H192  1  0.438700  0.442500  0.975100  1.0  0.0829
  H  H193  1  0.396200  0.492200  0.696300  1.0  0.0618
  H  H194  1  0.322200  0.491900  0.694400  1.0  0.108
  H  H195  1  0.269400  0.383500  0.780800  1.0  0.1045
  H  H196  1  0.344800  0.386700  0.780400  1.0  0.0633
  H  H197  1  0.217000  0.421500  0.760700  1.0  0.0836
  H  H198  1  0.217800  0.519700  0.753200  1.0  0.0785
  H  H199  1  0.697170  0.905930  0.548430  1.0  0.0584
  H  H200  1  0.763170  0.985630  0.542130  1.0  0.101
  H  H201  1  0.842670  0.946430  0.615330  1.0  0.1097
  H  H202  1  0.774370  0.867930  0.620130  1.0  0.0636
  H  H203  1  0.175770  0.306730  0.664330  1.0  0.0637
  H  H204  1  0.180870  0.307830  0.736330  1.0  0.1034
  H  H205  1  0.071670  0.341530  0.740630  1.0  0.1151
  H  H206  1  0.071070  0.341330  0.668130  1.0  0.0543
  H  H207  1  0.105370  0.329530  0.808430  1.0  0.0824
  H  H208  1  0.062870  0.237330  0.529630  1.0  0.0611
  H  H209  1  0.988870  0.163630  0.527730  1.0  0.1073
  H  H210  1  0.936070  0.219230  0.614130  1.0  0.1039
  H  H211  1  0.011470  0.291430  0.613730  1.0  0.0626
  H  H212  1  0.883670  0.128830  0.594030  1.0  0.0828
  H  H213  1  0.884470  0.031430  0.586530  1.0  0.0794
  H  H214  1  0.094070  0.791230  0.548430  1.0  0.0572
  H  H215  1  0.014370  0.777530  0.542130  1.0  0.1015
  H  H216  1  0.053570  0.896230  0.615330  1.0  0.1093
  H  H217  1  0.132070  0.906430  0.620130  1.0  0.0638
  H  H218  1  0.693270  0.869030  0.664330  1.0  0.0635
  H  H219  1  0.692170  0.873030  0.736330  1.0  0.1004
  H  H220  1  0.658470  0.730130  0.740630  1.0  0.1136
  H  H221  1  0.658670  0.729730  0.668130  1.0  0.0553
  H  H222  1  0.670470  0.775830  0.808430  1.0  0.0834
  H  H223  1  0.762670  0.825530  0.529630  1.0  0.0619
  H  H224  1  0.836370  0.825230  0.527730  1.0  0.1077
  H  H225  1  0.780770  0.716830  0.614130  1.0  0.1045
  H  H226  1  0.708570  0.720030  0.613730  1.0  0.0632
  H  H227  1  0.871170  0.754830  0.594030  1.0  0.0838
  H  H228  1  0.968570  0.853030  0.586530  1.0  0.0785
  H  H229  1  0.208770  0.302830  0.548430  1.0  0.0586
  H  H230  1  0.222470  0.236830  0.542130  1.0  0.1013
  H  H231  1  0.103770  0.157330  0.615330  1.0  0.1096
  H  H232  1  0.093570  0.225630  0.620130  1.0  0.0643
  H  H233  1  0.130970  0.824230  0.664330  1.0  0.0632
  H  H234  1  0.126970  0.819130  0.736330  1.0  0.1026
  H  H235  1  0.269870  0.928330  0.740630  1.0  0.1143
  H  H236  1  0.270270  0.928930  0.668130  1.0  0.0553
  H  H237  1  0.224170  0.894630  0.808430  1.0  0.0834
  H  H238  1  0.174470  0.937130  0.529630  1.0  0.0615
  H  H239  1  0.174770  0.011130  0.527730  1.0  0.1072
  H  H240  1  0.283170  0.063930  0.614130  1.0  0.1034
  H  H241  1  0.279970  0.988530  0.613730  1.0  0.0614
  H  H242  1  0.245170  0.116330  0.594030  1.0  0.0834
  H  H243  1  0.146970  0.115530  0.586530  1.0  0.0783
  H  H244  1  0.239270  0.363830  0.618230  1.0  0.0579
  H  H245  1  0.318970  0.429830  0.624530  1.0  0.1014
  H  H246  1  0.279770  0.509330  0.551330  1.0  0.1097
  H  H247  1  0.201270  0.441030  0.546530  1.0  0.0645
  H  H248  1  0.640070  0.842430  0.502330  1.0  0.0627
  H  H249  1  0.641170  0.847530  0.430330  1.0  0.102
  H  H250  1  0.674870  0.738330  0.426030  1.0  0.115
  H  H251  1  0.674670  0.737730  0.498530  1.0  0.056
  H  H252  1  0.662870  0.772030  0.358230  1.0  0.0818
  H  H253  1  0.570670  0.729530  0.637030  1.0  0.0615
  H  H254  1  0.496970  0.655530  0.638930  1.0  0.1072
  H  H255  1  0.552570  0.602730  0.552530  1.0  0.1036
  H  H256  1  0.624770  0.678130  0.552930  1.0  0.0605
  H  H257  1  0.462170  0.550330  0.572630  1.0  0.083
  H  H258  1  0.364770  0.551130  0.580130  1.0  0.0783
  H  H259  1  0.124570  0.760730  0.618230  1.0  0.0583
  H  H260  1  0.110870  0.681030  0.624530  1.0  0.1011
  H  H261  1  0.229570  0.720230  0.551330  1.0  0.1091
  H  H262  1  0.239770  0.798730  0.546530  1.0  0.064
  H  H263  1  0.202370  0.359930  0.502330  1.0  0.065
  H  H264  1  0.206370  0.358830  0.430330  1.0  0.1026
  H  H265  1  0.063470  0.325130  0.426030  1.0  0.1152
  H  H266  1  0.063070  0.325330  0.498530  1.0  0.0545
  H  H267  1  0.109170  0.337130  0.358230  1.0  0.081
  H  H268  1  0.158870  0.429330  0.637030  1.0  0.0613
  H  H269  1  0.158570  0.503030  0.638930  1.0  0.1074
  H  H270  1  0.050170  0.447430  0.552530  1.0  0.1035
  H  H271  1  0.053370  0.375230  0.552930  1.0  0.0623
  H  H272  1  0.088170  0.537830  0.572630  1.0  0.0821
  H  H273  1  0.186370  0.635230  0.580130  1.0  0.0796
  H  H274  1  0.636170  0.875430  0.618230  1.0  0.057
  H  H275  1  0.570170  0.889130  0.624530  1.0  0.1017
  H  H276  1  0.490670  0.770430  0.551330  1.0  0.1089
  H  H277  1  0.558970  0.760230  0.546530  1.0  0.0639
  H  H278  1  0.157570  0.797630  0.502330  1.0  0.0628
  H  H279  1  0.152470  0.793630  0.430330  1.0  0.101
  H  H280  1  0.261670  0.936530  0.426030  1.0  0.1138
  H  H281  1  0.262270  0.936930  0.498530  1.0  0.0563
  H  H282  1  0.227970  0.890830  0.358230  1.0  0.0819
  H  H283  1  0.270470  0.841130  0.637030  1.0  0.0618
  H  H284  1  0.344470  0.841430  0.638930  1.0  0.1075
  H  H285  1  0.397270  0.949830  0.552530  1.0  0.1044
  H  H286  1  0.321870  0.946630  0.552930  1.0  0.0631
  H  H287  1  0.449670  0.911830  0.572630  1.0  0.0832
  H  H288  1  0.448870  0.813630  0.580130  1.0  0.0774
  H  H289  1  0.636170  0.760730  0.118230  1.0  0.0591
  H  H290  1  0.570170  0.681030  0.124530  1.0  0.1011
  H  H291  1  0.490670  0.720230  0.051330  1.0  0.1092
  H  H292  1  0.558970  0.798730  0.046530  1.0  0.0636
  H  H293  1  0.157570  0.359930  0.002330  1.0  0.0637
  H  H294  1  0.152470  0.358830  0.930330  1.0  0.103
  H  H295  1  0.261670  0.325130  0.926030  1.0  0.1149
  H  H296  1  0.262270  0.325330  0.998530  1.0  0.0545
  H  H297  1  0.227970  0.337130  0.858230  1.0  0.0811
  H  H298  1  0.270470  0.429330  0.137030  1.0  0.0616
  H  H299  1  0.344470  0.503030  0.138930  1.0  0.1074
  H  H300  1  0.397270  0.447430  0.052530  1.0  0.1032
  H  H301  1  0.321870  0.375230  0.052930  1.0  0.0624
  H  H302  1  0.449670  0.537830  0.072630  1.0  0.0823
  H  H303  1  0.448870  0.635230  0.080130  1.0  0.0778
  H  H304  1  0.239270  0.875430  0.118230  1.0  0.0571
  H  H305  1  0.318970  0.889130  0.124530  1.0  0.1017
  H  H306  1  0.279770  0.770430  0.051330  1.0  0.1089
  H  H307  1  0.201270  0.760230  0.046530  1.0  0.0639
  H  H308  1  0.640070  0.797630  0.002330  1.0  0.0631
  H  H309  1  0.641170  0.793630  0.930330  1.0  0.101
  H  H310  1  0.674870  0.936530  0.926030  1.0  0.1142
  H  H311  1  0.674670  0.936930  0.998530  1.0  0.0564
  H  H312  1  0.662870  0.890830  0.858230  1.0  0.0817
  H  H313  1  0.570670  0.841130  0.137030  1.0  0.062
  H  H314  1  0.496970  0.841430  0.138930  1.0  0.1075
  H  H315  1  0.552570  0.949830  0.052530  1.0  0.1045
  H  H316  1  0.624770  0.946630  0.052930  1.0  0.0632
  H  H317  1  0.462170  0.911830  0.072630  1.0  0.0829
  H  H318  1  0.364770  0.813630  0.080130  1.0  0.0793
  H  H319  1  0.124570  0.363830  0.118230  1.0  0.058
  H  H320  1  0.110870  0.429830  0.124530  1.0  0.1015
  H  H321  1  0.229570  0.509330  0.051330  1.0  0.1101
  H  H322  1  0.239770  0.441030  0.046530  1.0  0.0645
  H  H323  1  0.202370  0.842430  0.002330  1.0  0.0639
  H  H324  1  0.206370  0.847530  0.930330  1.0  0.1018
  H  H325  1  0.063470  0.738330  0.926030  1.0  0.1151
  H  H326  1  0.063070  0.737730  0.998530  1.0  0.0553
  H  H327  1  0.109170  0.772030  0.858230  1.0  0.0816
  H  H328  1  0.158870  0.729530  0.137030  1.0  0.0613
  H  H329  1  0.158570  0.655530  0.138930  1.0  0.1076
  H  H330  1  0.050170  0.602730  0.052530  1.0  0.1034
  H  H331  1  0.053370  0.678130  0.052930  1.0  0.0607
  H  H332  1  0.088170  0.550330  0.072630  1.0  0.0834
  H  H333  1  0.186370  0.551130  0.080130  1.0  0.0787
  H  H334  1  0.094070  0.302830  0.048430  1.0  0.0584
  H  H335  1  0.014370  0.236830  0.042130  1.0  0.1013
  H  H336  1  0.053570  0.157330  0.115330  1.0  0.1103
  H  H337  1  0.132070  0.225630  0.120130  1.0  0.0648
  H  H338  1  0.693270  0.824230  0.164330  1.0  0.0626
  H  H339  1  0.692170  0.819130  0.236330  1.0  0.1024
  H  H340  1  0.658470  0.928330  0.240630  1.0  0.1148
  H  H341  1  0.658670  0.928930  0.168130  1.0  0.0558
  H  H342  1  0.670470  0.894630  0.308430  1.0  0.083
  H  H343  1  0.762670  0.937130  0.029630  1.0  0.0613
  H  H344  1  0.836370  0.011130  0.027730  1.0  0.1074
  H  H345  1  0.780770  0.063930  0.114130  1.0  0.1036
  H  H346  1  0.708570  0.988530  0.113730  1.0  0.0615
  H  H347  1  0.871170  0.116330  0.094030  1.0  0.0835
  H  H348  1  0.968570  0.115530  0.086530  1.0  0.0795
  H  H349  1  0.208770  0.905930  0.048430  1.0  0.0591
  H  H350  1  0.222470  0.985630  0.042130  1.0  0.101
  H  H351  1  0.103770  0.946430  0.115330  1.0  0.1092
  H  H352  1  0.093570  0.867930  0.120130  1.0  0.0636
  H  H353  1  0.130970  0.306730  0.164330  1.0  0.0636
  H  H354  1  0.126970  0.307830  0.236330  1.0  0.1036
  H  H355  1  0.269870  0.341530  0.240630  1.0  0.1152
  H  H356  1  0.270270  0.341330  0.168130  1.0  0.0551
  H  H357  1  0.224170  0.329530  0.308430  1.0  0.0827
  H  H358  1  0.174470  0.237330  0.029630  1.0  0.0613
  H  H359  1  0.174770  0.163630  0.027730  1.0  0.1073
  H  H360  1  0.283170  0.219230  0.114130  1.0  0.1033
  H  H361  1  0.279970  0.291430  0.113730  1.0  0.0623
  H  H362  1  0.245170  0.128830  0.094030  1.0  0.0831
  H  H363  1  0.146970  0.031430  0.086530  1.0  0.0779
  H  H364  1  0.697170  0.791230  0.048430  1.0  0.0571
  H  H365  1  0.763170  0.777530  0.042130  1.0  0.1015
  H  H366  1  0.842670  0.896230  0.115330  1.0  0.1093
  H  H367  1  0.774370  0.906430  0.120130  1.0  0.0637
  H  H368  1  0.175770  0.869030  0.164330  1.0  0.0637
  H  H369  1  0.180870  0.873030  0.236330  1.0  0.1006
  H  H370  1  0.071670  0.730130  0.240630  1.0  0.1146
  H  H371  1  0.071070  0.729730  0.168130  1.0  0.0561
  H  H372  1  0.105370  0.775830  0.308430  1.0  0.0829
  H  H373  1  0.062870  0.825530  0.029630  1.0  0.0619
  H  H374  1  0.988870  0.825230  0.027730  1.0  0.1081
  H  H375  1  0.936070  0.716830  0.114130  1.0  0.1044
  H  H376  1  0.011470  0.720030  0.113730  1.0  0.0633
  H  H377  1  0.883670  0.754830  0.094030  1.0  0.0836
  H  H378  1  0.884470  0.853030  0.086530  1.0  0.0785
  H  H379  1  0.363830  0.239270  0.881770  1.0  0.0584
  H  H380  1  0.429830  0.318970  0.875470  1.0  0.101
  H  H381  1  0.509330  0.279770  0.948670  1.0  0.1092
  H  H382  1  0.441030  0.201270  0.953470  1.0  0.0636
  H  H383  1  0.842430  0.640070  0.997670  1.0  0.0637
  H  H384  1  0.847530  0.641170  0.069670  1.0  0.1035
  H  H385  1  0.738330  0.674870  0.073970  1.0  0.1151
  H  H386  1  0.737730  0.674670  0.001470  1.0  0.0543
  H  H387  1  0.772030  0.662870  0.141770  1.0  0.081
  H  H388  1  0.729530  0.570670  0.862970  1.0  0.0611
  H  H389  1  0.655530  0.496970  0.861070  1.0  0.1073
  H  H390  1  0.602730  0.552570  0.947470  1.0  0.1038
  H  H391  1  0.678130  0.624770  0.947070  1.0  0.0626
  H  H392  1  0.550330  0.462170  0.927370  1.0  0.0829
  H  H393  1  0.551130  0.364770  0.919870  1.0  0.0783
  H  H394  1  0.760730  0.124570  0.881770  1.0  0.0572
  H  H395  1  0.681030  0.110870  0.875470  1.0  0.1016
  H  H396  1  0.720230  0.229570  0.948670  1.0  0.1099
  H  H397  1  0.798730  0.239770  0.953470  1.0  0.0638
  H  H398  1  0.359930  0.202370  0.997670  1.0  0.0636
  H  H399  1  0.358830  0.206370  0.069670  1.0  0.1003
  H  H400  1  0.325130  0.063470  0.073970  1.0  0.1137
  H  H401  1  0.325330  0.063070  0.001470  1.0  0.0553
  H  H402  1  0.337130  0.109170  0.141770  1.0  0.082
  H  H403  1  0.429330  0.158870  0.862970  1.0  0.0618
  H  H404  1  0.503030  0.158570  0.861070  1.0  0.1077
  H  H405  1  0.447430  0.050170  0.947470  1.0  0.1044
  H  H406  1  0.375230  0.053370  0.947070  1.0  0.0632
  H  H407  1  0.537830  0.088170  0.927370  1.0  0.0838
  H  H408  1  0.635230  0.186370  0.919870  1.0  0.0798
  H  H409  1  0.875430  0.636170  0.881770  1.0  0.0586
  H  H410  1  0.889130  0.570170  0.875470  1.0  0.1014
  H  H411  1  0.770430  0.490670  0.948670  1.0  0.11
  H  H412  1  0.760230  0.558970  0.953470  1.0  0.0643
  H  H413  1  0.797630  0.157570  0.997670  1.0  0.0632
  H  H414  1  0.793630  0.152470  0.069670  1.0  0.1025
  H  H415  1  0.936530  0.261670  0.073970  1.0  0.1144
  H  H416  1  0.936930  0.262270  0.001470  1.0  0.0553
  H  H417  1  0.890830  0.227970  0.141770  1.0  0.082
  H  H418  1  0.841130  0.270470  0.862970  1.0  0.0615
  H  H419  1  0.841430  0.344470  0.861070  1.0  0.1072
  H  H420  1  0.949830  0.397270  0.947470  1.0  0.1034
  H  H421  1  0.946630  0.321870  0.947070  1.0  0.0614
  H  H422  1  0.911830  0.449670  0.927370  1.0  0.0834
  H  H423  1  0.813630  0.448870  0.919870  1.0  0.0783
  H  H424  1  0.905930  0.697170  0.951570  1.0  0.0579
  H  H425  1  0.985630  0.763170  0.957870  1.0  0.1014
  H  H426  1  0.946430  0.842670  0.884670  1.0  0.1098
  H  H427  1  0.867930  0.774370  0.879870  1.0  0.0645
  H  H428  1  0.306730  0.175770  0.835670  1.0  0.0627
  H  H429  1  0.307830  0.180870  0.763670  1.0  0.1018
  H  H430  1  0.341530  0.071670  0.759370  1.0  0.115
  H  H431  1  0.341330  0.071070  0.831870  1.0  0.056
  H  H432  1  0.329530  0.105370  0.691570  1.0  0.0818
  H  H433  1  0.237330  0.062870  0.970370  1.0  0.0615
  H  H434  1  0.163630  0.988870  0.972270  1.0  0.1072
  H  H435  1  0.219230  0.936070  0.885870  1.0  0.1037
  H  H436  1  0.291430  0.011470  0.886270  1.0  0.0605
  H  H437  1  0.128830  0.883670  0.905970  1.0  0.0829
  H  H438  1  0.031430  0.884470  0.913470  1.0  0.0793
  H  H439  1  0.791230  0.094070  0.951570  1.0  0.0583
  H  H440  1  0.777530  0.014370  0.957870  1.0  0.101
  H  H441  1  0.896230  0.053570  0.884670  1.0  0.1086
  H  H442  1  0.906430  0.132070  0.879870  1.0  0.064
  H  H443  1  0.869030  0.693270  0.835670  1.0  0.0649
  H  H444  1  0.873030  0.692170  0.763670  1.0  0.1027
  H  H445  1  0.730130  0.658470  0.759370  1.0  0.1151
  H  H446  1  0.729730  0.658670  0.831870  1.0  0.0545
  H  H447  1  0.775830  0.670470  0.691570  1.0  0.081
  H  H448  1  0.825530  0.762670  0.970370  1.0  0.0613
  H  H449  1  0.825230  0.836370  0.972270  1.0  0.1074
  H  H450  1  0.716830  0.780770  0.885870  1.0  0.1035
  H  H451  1  0.720030  0.708570  0.886270  1.0  0.0623
  H  H452  1  0.754830  0.871170  0.905970  1.0  0.082
  H  H453  1  0.853030  0.968570  0.913470  1.0  0.0784
  H  H454  1  0.302830  0.208770  0.951570  1.0  0.057
  H  H455  1  0.236830  0.222470  0.957870  1.0  0.1016
  H  H456  1  0.157330  0.103770  0.884670  1.0  0.1084
  H  H457  1  0.225630  0.093570  0.879870  1.0  0.0639
  H  H458  1  0.824230  0.130970  0.835670  1.0  0.0629
  H  H459  1  0.819130  0.126970  0.763670  1.0  0.1011
  H  H460  1  0.928330  0.269870  0.759370  1.0  0.1138
  H  H461  1  0.928930  0.270270  0.831870  1.0  0.0563
  H  H462  1  0.894630  0.224170  0.691570  1.0  0.0819
  H  H463  1  0.937130  0.174470  0.970370  1.0  0.0619
  H  H464  1  0.011130  0.174770  0.972270  1.0  0.1075
  H  H465  1  0.063930  0.283170  0.885870  1.0  0.1044
  H  H466  1  0.988530  0.279970  0.886270  1.0  0.0631
  H  H467  1  0.116330  0.245170  0.905970  1.0  0.0831
  H  H468  1  0.115530  0.146970  0.913470  1.0  0.0774
  H  H469  1  0.302830  0.094070  0.451570  1.0  0.0591
  H  H470  1  0.236830  0.014370  0.457870  1.0  0.1011
  H  H471  1  0.157330  0.053570  0.384670  1.0  0.1096
  H  H472  1  0.225630  0.132070  0.379870  1.0  0.0636
  H  H473  1  0.824230  0.693270  0.335670  1.0  0.0637
  H  H474  1  0.819130  0.692170  0.263670  1.0  0.1029
  H  H475  1  0.928330  0.658470  0.259370  1.0  0.1149
  H  H476  1  0.928930  0.658670  0.331870  1.0  0.0545
  H  H477  1  0.894630  0.670470  0.191570  1.0  0.081
  H  H478  1  0.937130  0.762670  0.470370  1.0  0.0616
  H  H479  1  0.011130  0.836370  0.472270  1.0  0.1074
  H  H480  1  0.063930  0.780770  0.385870  1.0  0.1033
  H  H481  1  0.988530  0.708570  0.386270  1.0  0.0624
  H  H482  1  0.116330  0.871170  0.405970  1.0  0.0823
  H  H483  1  0.115530  0.968570  0.413470  1.0  0.079
  H  H484  1  0.905930  0.208770  0.451570  1.0  0.0572
  H  H485  1  0.985630  0.222470  0.457870  1.0  0.1016
  H  H486  1  0.946430  0.103770  0.384670  1.0  0.1084
  H  H487  1  0.867930  0.093570  0.379870  1.0  0.0639
  H  H488  1  0.306730  0.130970  0.335670  1.0  0.0631
  H  H489  1  0.307830  0.126970  0.263670  1.0  0.1011
  H  H490  1  0.341530  0.269870  0.259370  1.0  0.1142
  H  H491  1  0.341330  0.270270  0.331870  1.0  0.0564
  H  H492  1  0.329530  0.224170  0.191570  1.0  0.0817
  H  H493  1  0.237330  0.174470  0.470370  1.0  0.0621
  H  H494  1  0.163630  0.174770  0.472270  1.0  0.1075
  H  H495  1  0.219230  0.283170  0.385870  1.0  0.1044
  H  H496  1  0.291430  0.279970  0.386270  1.0  0.0632
  H  H497  1  0.128830  0.245170  0.405970  1.0  0.0829
  H  H498  1  0.031430  0.146970  0.413470  1.0  0.0778
  H  H499  1  0.791230  0.697170  0.451570  1.0  0.0579
  H  H500  1  0.777530  0.763170  0.457870  1.0  0.1014
  H  H501  1  0.896230  0.842670  0.384670  1.0  0.1095
  H  H502  1  0.906430  0.774370  0.379870  1.0  0.0645
  H  H503  1  0.869030  0.175770  0.335670  1.0  0.064
  H  H504  1  0.873030  0.180870  0.263670  1.0  0.1019
  H  H505  1  0.730130  0.071670  0.259370  1.0  0.1151
  H  H506  1  0.729730  0.071070  0.331870  1.0  0.0553
  H  H507  1  0.775830  0.105370  0.191570  1.0  0.0816
  H  H508  1  0.825530  0.062870  0.470370  1.0  0.0613
  H  H509  1  0.825230  0.988870  0.472270  1.0  0.1076
  H  H510  1  0.716830  0.936070  0.385870  1.0  0.1033
  H  H511  1  0.720030  0.011470  0.386270  1.0  0.0607
  H  H512  1  0.754830  0.883670  0.405970  1.0  0.0834
  H  H513  1  0.853030  0.884470  0.413470  1.0  0.0787
  H  H514  1  0.760730  0.636170  0.381770  1.0  0.0584
  H  H515  1  0.681030  0.570170  0.375470  1.0  0.1013
  H  H516  1  0.720230  0.490670  0.448670  1.0  0.1095
  H  H517  1  0.798730  0.558970  0.453470  1.0  0.0649
  H  H518  1  0.359930  0.157570  0.497670  1.0  0.0626
  H  H519  1  0.358830  0.152470  0.569670  1.0  0.1026
  H  H520  1  0.325130  0.261670  0.573970  1.0  0.1148
  H  H521  1  0.325330  0.262270  0.501470  1.0  0.0558
  H  H522  1  0.337130  0.227970  0.641770  1.0  0.0817
  H  H523  1  0.429330  0.270470  0.362970  1.0  0.0613
  H  H524  1  0.503030  0.344470  0.361070  1.0  0.1073
  H  H525  1  0.447430  0.397270  0.447470  1.0  0.1035
  H  H526  1  0.375230  0.321870  0.447070  1.0  0.0615
  H  H527  1  0.537830  0.449670  0.427370  1.0  0.0835
  H  H528  1  0.635230  0.448870  0.419870  1.0  0.0781
  H  H529  1  0.875430  0.239270  0.381770  1.0  0.0591
  H  H530  1  0.889130  0.318970  0.375470  1.0  0.1011
  H  H531  1  0.770430  0.279770  0.448670  1.0  0.1097
  H  H532  1  0.760230  0.201270  0.453470  1.0  0.0636
  H  H533  1  0.797630  0.640070  0.497670  1.0  0.0637
  H  H534  1  0.793630  0.641170  0.569670  1.0  0.1035
  H  H535  1  0.936530  0.674870  0.573970  1.0  0.1152
  H  H536  1  0.936930  0.674670  0.501470  1.0  0.0551
  H  H537  1  0.890830  0.662870  0.641770  1.0  0.0813
  H  H538  1  0.841130  0.570670  0.362970  1.0  0.0613
  H  H539  1  0.841430  0.496970  0.361070  1.0  0.1073
  H  H540  1  0.949830  0.552570  0.447470  1.0  0.1033
  H  H541  1  0.946630  0.624770  0.447070  1.0  0.0623
  H  H542  1  0.911830  0.462170  0.427370  1.0  0.083
  H  H543  1  0.813630  0.364770  0.419870  1.0  0.0794
  H  H544  1  0.363830  0.124570  0.381770  1.0  0.0572
  H  H545  1  0.429830  0.110870  0.375470  1.0  0.1015
  H  H546  1  0.509330  0.229570  0.448670  1.0  0.1097
  H  H547  1  0.441030  0.239770  0.453470  1.0  0.0637
  H  H548  1  0.842430  0.202370  0.497670  1.0  0.0636
  H  H549  1  0.847530  0.206370  0.569670  1.0  0.1005
  H  H550  1  0.738330  0.063470  0.573970  1.0  0.1146
  H  H551  1  0.737730  0.063070  0.501470  1.0  0.0561
  H  H552  1  0.772030  0.109170  0.641770  1.0  0.0815
  H  H553  1  0.729530  0.158870  0.362970  1.0  0.0618
  H  H554  1  0.655530  0.158570  0.361070  1.0  0.108
  H  H555  1  0.602730  0.050170  0.447470  1.0  0.1044
  H  H556  1  0.678130  0.053370  0.447070  1.0  0.0633
  H  H557  1  0.550330  0.088170  0.427370  1.0  0.0836
  H  H558  1  0.551130  0.186370  0.419870  1.0  0.0785
  C  C559  1  0.060290  0.580820  0.228450  1.0  0.155
  C  C560  1  0.099790  0.628830  0.224280  1.0  -0.1484
  C  C561  1  0.144230  0.641060  0.243640  1.0  -0.0062
  C  C562  1  0.146920  0.605510  0.267800  1.0  -0.1774
  C  C563  1  0.105650  0.558380  0.270550  1.0  0.1239
  C  C564  1  0.488570  0.981150  0.346530  1.0  0.1574
  C  C565  1  0.491700  0.981440  0.389850  1.0  -0.1338
  C  C566  1  0.460440  0.992340  0.413510  1.0  -0.0458
  C  C567  1  0.426910  0.001720  0.392460  1.0  -0.1775
  C  C568  1  0.426690  0.001250  0.348740  1.0  0.1465
  C  C569  1  0.463730  0.995720  0.459470  1.0  0.135
  C  C570  1  0.370550  0.899910  0.213900  1.0  0.1445
  C  C571  1  0.326230  0.855550  0.212460  1.0  -0.1567
  C  C572  1  0.287590  0.849400  0.238650  1.0  -0.0231
  C  C573  1  0.294930  0.888560  0.263750  1.0  -0.1561
  C  C574  1  0.340430  0.931840  0.263410  1.0  0.1535
  C  C575  1  0.240510  0.801340  0.240090  1.0  0.1451
  C  C576  1  0.188680  0.690950  0.239340  1.0  0.1344
  C  C577  1  0.419180  0.479470  0.228450  1.0  0.1536
  C  C578  1  0.371170  0.470960  0.224280  1.0  -0.1517
  C  C579  1  0.358940  0.503170  0.243640  1.0  -0.0062
  C  C580  1  0.394490  0.541410  0.267800  1.0  -0.1792
  C  C581  1  0.441620  0.547270  0.270550  1.0  0.1238
  C  C582  1  0.018850  0.507420  0.346530  1.0  0.1557
  C  C583  1  0.018560  0.510260  0.389850  1.0  -0.1331
  C  C584  1  0.007660  0.468100  0.413510  1.0  -0.047
  C  C585  1  0.998280  0.425190  0.392460  1.0  -0.1784
  C  C586  1  0.998750  0.425440  0.348740  1.0  0.1482
  C  C587  1  0.004280  0.468010  0.459470  1.0  0.1336
  C  C588  1  0.100090  0.470640  0.213900  1.0  0.1438
  C  C589  1  0.144450  0.470680  0.212460  1.0  -0.1563
  C  C590  1  0.150600  0.438190  0.238650  1.0  -0.0226
  C  C591  1  0.111440  0.406370  0.263750  1.0  -0.1573
  C  C592  1  0.068160  0.408590  0.263410  1.0  0.1514
  C  C593  1  0.198660  0.439170  0.240090  1.0  0.1451
  C  C594  1  0.309050  0.497730  0.239340  1.0  0.1327
  C  C595  1  0.520530  0.939710  0.228450  1.0  0.1549
  C  C596  1  0.529040  0.900210  0.224280  1.0  -0.1499
  C  C597  1  0.496830  0.855770  0.243640  1.0  -0.0044
  C  C598  1  0.458590  0.853080  0.267800  1.0  -0.1826
  C  C599  1  0.452730  0.894350  0.270550  1.0  0.1227
  C  C600  1  0.492580  0.511430  0.346530  1.0  0.1578
  C  C601  1  0.489740  0.508300  0.389850  1.0  -0.1339
  C  C602  1  0.531900  0.539560  0.413510  1.0  -0.0481
  C  C603  1  0.574810  0.573090  0.392460  1.0  -0.1807
  C  C604  1  0.574560  0.573310  0.348740  1.0  0.1445
  C  C605  1  0.531990  0.536270  0.459470  1.0  0.1321
  C  C606  1  0.529360  0.629450  0.213900  1.0  0.1448
  C  C607  1  0.529320  0.673770  0.212460  1.0  -0.1554
  C  C608  1  0.561810  0.712410  0.238650  1.0  -0.0238
  C  C609  1  0.593630  0.705070  0.263750  1.0  -0.1569
  C  C610  1  0.591410  0.659570  0.263410  1.0  0.153
  C  C611  1  0.560830  0.759490  0.240090  1.0  0.1443
  C  C612  1  0.502270  0.811320  0.239340  1.0  0.1326
  C  C613  1  0.580820  0.060290  0.271550  1.0  0.1554
  C  C614  1  0.628830  0.099790  0.275720  1.0  -0.1504
  C  C615  1  0.641060  0.144230  0.256360  1.0  -0.0041
  C  C616  1  0.605510  0.146920  0.232200  1.0  -0.1818
  C  C617  1  0.558380  0.105650  0.229450  1.0  0.1233
  C  C618  1  0.981150  0.488570  0.153470  1.0  0.158
  C  C619  1  0.981440  0.491700  0.110150  1.0  -0.1331
  C  C620  1  0.992340  0.460440  0.086490  1.0  -0.0514
  C  C621  1  0.001720  0.426910  0.107540  1.0  -0.1817
  C  C622  1  0.001250  0.426690  0.151260  1.0  0.1439
  C  C623  1  0.995720  0.463730  0.040530  1.0  0.132
  C  C624  1  0.899910  0.370550  0.286100  1.0  0.1458
  C  C625  1  0.855550  0.326230  0.287540  1.0  -0.1551
  C  C626  1  0.849400  0.287590  0.261350  1.0  -0.0246
  C  C627  1  0.888560  0.294930  0.236250  1.0  -0.1581
  C  C628  1  0.931840  0.340430  0.236590  1.0  0.1531
  C  C629  1  0.801340  0.240510  0.259910  1.0  0.143
  C  C630  1  0.690950  0.188680  0.260660  1.0  0.1316
  C  C631  1  0.479470  0.419180  0.271550  1.0  0.155
  C  C632  1  0.470960  0.371170  0.275720  1.0  -0.1483
  C  C633  1  0.503170  0.358940  0.256360  1.0  -0.0056
  C  C634  1  0.541410  0.394490  0.232200  1.0  -0.1791
  C  C635  1  0.547270  0.441620  0.229450  1.0  0.1234
  C  C636  1  0.507420  0.018850  0.153470  1.0  0.1578
  C  C637  1  0.510260  0.018560  0.110150  1.0  -0.1339
  C  C638  1  0.468100  0.007660  0.086490  1.0  -0.0453
  C  C639  1  0.425190  0.998280  0.107540  1.0  -0.1782
  C  C640  1  0.425440  0.998750  0.151260  1.0  0.1466
  C  C641  1  0.468010  0.004280  0.040530  1.0  0.1338
  C  C642  1  0.470640  0.100090  0.286100  1.0  0.1449
  C  C643  1  0.470680  0.144450  0.287540  1.0  -0.1562
  C  C644  1  0.438190  0.150600  0.261350  1.0  -0.0229
  C  C645  1  0.406370  0.111440  0.236250  1.0  -0.1564
  C  C646  1  0.408590  0.068160  0.236590  1.0  0.1543
  C  C647  1  0.439170  0.198660  0.259910  1.0  0.1446
  C  C648  1  0.497730  0.309050  0.260660  1.0  0.1335
  C  C649  1  0.939710  0.520530  0.271550  1.0  0.1537
  C  C650  1  0.900210  0.529040  0.275720  1.0  -0.1524
  C  C651  1  0.855770  0.496830  0.256360  1.0  -0.007
  C  C652  1  0.853080  0.458590  0.232200  1.0  -0.178
  C  C653  1  0.894350  0.452730  0.229450  1.0  0.1241
  C  C654  1  0.511430  0.492580  0.153470  1.0  0.1553
  C  C655  1  0.508300  0.489740  0.110150  1.0  -0.1319
  C  C656  1  0.539560  0.531900  0.086490  1.0  -0.0479
  C  C657  1  0.573090  0.574810  0.107540  1.0  -0.1775
  C  C658  1  0.573310  0.574560  0.151260  1.0  0.1481
  C  C659  1  0.536270  0.531990  0.040530  1.0  0.1328
  C  C660  1  0.629450  0.529360  0.286100  1.0  0.1442
  C  C661  1  0.673770  0.529320  0.287540  1.0  -0.1557
  C  C662  1  0.712410  0.561810  0.261350  1.0  -0.0222
  C  C663  1  0.705070  0.593630  0.236250  1.0  -0.1585
  C  C664  1  0.659570  0.591410  0.236590  1.0  0.1519
  C  C665  1  0.759490  0.560830  0.259910  1.0  0.145
  C  C666  1  0.811320  0.502270  0.260660  1.0  0.1321
  C  C667  1  0.939710  0.419180  0.771550  1.0  0.1552
  C  C668  1  0.900210  0.371170  0.775720  1.0  -0.1495
  C  C669  1  0.855770  0.358940  0.756360  1.0  -0.0059
  C  C670  1  0.853080  0.394490  0.732200  1.0  -0.1803
  C  C671  1  0.894350  0.441620  0.729450  1.0  0.1234
  C  C672  1  0.511430  0.018850  0.653470  1.0  0.1579
  C  C673  1  0.508300  0.018560  0.610150  1.0  -0.1345
  C  C674  1  0.539560  0.007660  0.586490  1.0  -0.0436
  C  C675  1  0.573090  0.998280  0.607540  1.0  -0.1775
  C  C676  1  0.573310  0.998750  0.651260  1.0  0.1476
  C  C677  1  0.536270  0.004280  0.540530  1.0  0.1335
  C  C678  1  0.629450  0.100090  0.786100  1.0  0.1448
  C  C679  1  0.673770  0.144450  0.787540  1.0  -0.1566
  C  C680  1  0.712410  0.150600  0.761350  1.0  -0.0232
  C  C681  1  0.705070  0.111440  0.736250  1.0  -0.1574
  C  C682  1  0.659570  0.068160  0.736590  1.0  0.1543
  C  C683  1  0.759490  0.198660  0.759910  1.0  0.1456
  C  C684  1  0.811320  0.309050  0.760660  1.0  0.1334
  C  C685  1  0.580820  0.520530  0.771550  1.0  0.154
  C  C686  1  0.628830  0.529040  0.775720  1.0  -0.1522
  C  C687  1  0.641060  0.496830  0.756360  1.0  -0.0066
  C  C688  1  0.605510  0.458590  0.732200  1.0  -0.1797
  C  C689  1  0.558380  0.452730  0.729450  1.0  0.1236
  C  C690  1  0.981150  0.492580  0.653470  1.0  0.1558
  C  C691  1  0.981440  0.489740  0.610150  1.0  -0.1314
  C  C692  1  0.992340  0.531900  0.586490  1.0  -0.0492
  C  C693  1  0.001720  0.574810  0.607540  1.0  -0.1781
  C  C694  1  0.001250  0.574560  0.651260  1.0  0.1466
  C  C695  1  0.995720  0.531990  0.540530  1.0  0.1324
  C  C696  1  0.899910  0.529360  0.786100  1.0  0.1446
  C  C697  1  0.855550  0.529320  0.787540  1.0  -0.1563
  C  C698  1  0.849400  0.561810  0.761350  1.0  -0.0232
  C  C699  1  0.888560  0.593630  0.736250  1.0  -0.1583
  C  C700  1  0.931840  0.591410  0.736590  1.0  0.1521
  C  C701  1  0.801340  0.560830  0.759910  1.0  0.1456
  C  C702  1  0.690950  0.502270  0.760660  1.0  0.1312
  C  C703  1  0.479470  0.060290  0.771550  1.0  0.1552
  C  C704  1  0.470960  0.099790  0.775720  1.0  -0.1506
  C  C705  1  0.503170  0.144230  0.756360  1.0  -0.0042
  C  C706  1  0.541410  0.146920  0.732200  1.0  -0.1812
  C  C707  1  0.547270  0.105650  0.729450  1.0  0.1236
  C  C708  1  0.507420  0.488570  0.653470  1.0  0.1597
  C  C709  1  0.510260  0.491700  0.610150  1.0  -0.1302
  C  C710  1  0.468100  0.460440  0.586490  1.0  -0.0483
  C  C711  1  0.425190  0.426910  0.607540  1.0  -0.1811
  C  C712  1  0.425440  0.426690  0.651260  1.0  0.1442
  C  C713  1  0.468010  0.463730  0.540530  1.0  0.1311
  C  C714  1  0.470640  0.370550  0.786100  1.0  0.1453
  C  C715  1  0.470680  0.326230  0.787540  1.0  -0.1542
  C  C716  1  0.438190  0.287590  0.761350  1.0  -0.0241
  C  C717  1  0.406370  0.294930  0.736250  1.0  -0.1575
  C  C718  1  0.408590  0.340430  0.736590  1.0  0.153
  C  C719  1  0.439170  0.240510  0.759910  1.0  0.1419
  C  C720  1  0.497730  0.188680  0.760660  1.0  0.1297
  C  C721  1  0.419180  0.939710  0.728450  1.0  0.1535
  C  C722  1  0.371170  0.900210  0.724280  1.0  -0.1499
  C  C723  1  0.358940  0.855770  0.743640  1.0  -0.0046
  C  C724  1  0.394490  0.853080  0.767800  1.0  -0.182
  C  C725  1  0.441620  0.894350  0.770550  1.0  0.1229
  C  C726  1  0.018850  0.511430  0.846530  1.0  0.159
  C  C727  1  0.018560  0.508300  0.889850  1.0  -0.131
  C  C728  1  0.007660  0.539560  0.913510  1.0  -0.0462
  C  C729  1  0.998280  0.573090  0.892460  1.0  -0.1812
  C  C730  1  0.998750  0.573310  0.848740  1.0  0.1455
  C  C731  1  0.004280  0.536270  0.959470  1.0  0.1317
  C  C732  1  0.100090  0.629450  0.713900  1.0  0.1444
  C  C733  1  0.144450  0.673770  0.712460  1.0  -0.1549
  C  C734  1  0.150600  0.712410  0.738650  1.0  -0.0239
  C  C735  1  0.111440  0.705070  0.763750  1.0  -0.1575
  C  C736  1  0.068160  0.659570  0.763410  1.0  0.1526
  C  C737  1  0.198660  0.759490  0.740090  1.0  0.1431
  C  C738  1  0.309050  0.811320  0.739340  1.0  0.1319
  C  C739  1  0.520530  0.580820  0.728450  1.0  0.1544
  C  C740  1  0.529040  0.628830  0.724280  1.0  -0.1496
  C  C741  1  0.496830  0.641060  0.743640  1.0  -0.0048
  C  C742  1  0.458590  0.605510  0.767800  1.0  -0.182
  C  C743  1  0.452730  0.558380  0.770550  1.0  0.1225
  C  C744  1  0.492580  0.981150  0.846530  1.0  0.1576
  C  C745  1  0.489740  0.981440  0.889850  1.0  -0.1326
  C  C746  1  0.531900  0.992340  0.913510  1.0  -0.0437
  C  C747  1  0.574810  0.001720  0.892460  1.0  -0.1776
  C  C748  1  0.574560  0.001250  0.848740  1.0  0.1469
  C  C749  1  0.531990  0.995720  0.959470  1.0  0.1354
  C  C750  1  0.529360  0.899910  0.713900  1.0  0.1443
  C  C751  1  0.529320  0.855550  0.712460  1.0  -0.1567
  C  C752  1  0.561810  0.849400  0.738650  1.0  -0.0238
  C  C753  1  0.593630  0.888560  0.763750  1.0  -0.1567
  C  C754  1  0.591410  0.931840  0.763410  1.0  0.1536
  C  C755  1  0.560830  0.801340  0.740090  1.0  0.1456
  C  C756  1  0.502270  0.690950  0.739340  1.0  0.1342
  C  C757  1  0.060290  0.479470  0.728450  1.0  0.1529
  C  C758  1  0.099790  0.470960  0.724280  1.0  -0.1513
  C  C759  1  0.144230  0.503170  0.743640  1.0  -0.0068
  C  C760  1  0.146920  0.541410  0.767800  1.0  -0.1781
  C  C761  1  0.105650  0.547270  0.770550  1.0  0.1238
  C  C762  1  0.488570  0.507420  0.846530  1.0  0.1559
  C  C763  1  0.491700  0.510260  0.889850  1.0  -0.1332
  C  C764  1  0.460440  0.468100  0.913510  1.0  -0.0468
  C  C765  1  0.426910  0.425190  0.892460  1.0  -0.1769
  C  C766  1  0.426690  0.425440  0.848740  1.0  0.147
  C  C767  1  0.463730  0.468010  0.959470  1.0  0.1326
  C  C768  1  0.370550  0.470640  0.713900  1.0  0.1445
  C  C769  1  0.326230  0.470680  0.712460  1.0  -0.1571
  C  C770  1  0.287590  0.438190  0.738650  1.0  -0.0229
  C  C771  1  0.294930  0.406370  0.763750  1.0  -0.1577
  C  C772  1  0.340430  0.408590  0.763410  1.0  0.1518
  C  C773  1  0.240510  0.439170  0.740090  1.0  0.1445
  C  C774  1  0.188680  0.497730  0.739340  1.0  0.1325
  C  C775  1  0.726960  0.914150  0.561780  1.0  0.155
  C  C776  1  0.766460  0.962160  0.557610  1.0  -0.1484
  C  C777  1  0.810900  0.974390  0.576970  1.0  -0.0062
  C  C778  1  0.813590  0.938840  0.601130  1.0  -0.1775
  C  C779  1  0.772320  0.891710  0.603880  1.0  0.1239
  C  C780  1  0.155240  0.314480  0.679860  1.0  0.1574
  C  C781  1  0.158370  0.314770  0.723180  1.0  -0.1338
  C  C782  1  0.127110  0.325670  0.746840  1.0  -0.046
  C  C783  1  0.093580  0.335050  0.725790  1.0  -0.1774
  C  C784  1  0.093360  0.334580  0.682070  1.0  0.1465
  C  C785  1  0.130400  0.329050  0.792800  1.0  0.135
  C  C786  1  0.037220  0.233240  0.547230  1.0  0.1446
  C  C787  1  0.992900  0.188880  0.545790  1.0  -0.1568
  C  C788  1  0.954260  0.182730  0.571980  1.0  -0.0231
  C  C789  1  0.961600  0.221890  0.597080  1.0  -0.1562
  C  C790  1  0.007100  0.265170  0.596740  1.0  0.1535
  C  C791  1  0.907180  0.134670  0.573420  1.0  0.1451
  C  C792  1  0.855350  0.024280  0.572670  1.0  0.1344
  C  C793  1  0.085850  0.812800  0.561780  1.0  0.1537
  C  C794  1  0.037840  0.804290  0.557610  1.0  -0.1516
  C  C795  1  0.025610  0.836500  0.576970  1.0  -0.0062
  C  C796  1  0.061160  0.874740  0.601130  1.0  -0.1792
  C  C797  1  0.108290  0.880600  0.603880  1.0  0.1238
  C  C798  1  0.685520  0.840750  0.679860  1.0  0.1557
  C  C799  1  0.685230  0.843590  0.723180  1.0  -0.1331
  C  C800  1  0.674330  0.801430  0.746840  1.0  -0.0472
  C  C801  1  0.664950  0.758520  0.725790  1.0  -0.1784
  C  C802  1  0.665420  0.758770  0.682070  1.0  0.1482
  C  C803  1  0.670950  0.801340  0.792800  1.0  0.1336
  C  C804  1  0.766760  0.803970  0.547230  1.0  0.1439
  C  C805  1  0.811120  0.804010  0.545790  1.0  -0.1564
  C  C806  1  0.817270  0.771520  0.571980  1.0  -0.0226
  C  C807  1  0.778110  0.739700  0.597080  1.0  -0.1573
  C  C808  1  0.734830  0.741920  0.596740  1.0  0.1514
  C  C809  1  0.865330  0.772500  0.573420  1.0  0.1451
  C  C810  1  0.975720  0.831060  0.572670  1.0  0.1326
  C  C811  1  0.187200  0.273040  0.561780  1.0  0.1549
  C  C812  1  0.195710  0.233540  0.557610  1.0  -0.1499
  C  C813  1  0.163500  0.189100  0.576970  1.0  -0.0044
  C  C814  1  0.125260  0.186410  0.601130  1.0  -0.1826
  C  C815  1  0.119400  0.227680  0.603880  1.0  0.1227
  C  C816  1  0.159250  0.844760  0.679860  1.0  0.1578
  C  C817  1  0.156410  0.841630  0.723180  1.0  -0.1339
  C  C818  1  0.198570  0.872890  0.746840  1.0  -0.0479
  C  C819  1  0.241480  0.906420  0.725790  1.0  -0.1807
  C  C820  1  0.241230  0.906640  0.682070  1.0  0.1445
  C  C821  1  0.198660  0.869600  0.792800  1.0  0.1321
  C  C822  1  0.196030  0.962780  0.547230  1.0  0.1448
  C  C823  1  0.195990  0.007100  0.545790  1.0  -0.1555
  C  C824  1  0.228480  0.045740  0.571980  1.0  -0.0238
  C  C825  1  0.260300  0.038400  0.597080  1.0  -0.1569
  C  C826  1  0.258080  0.992900  0.596740  1.0  0.153
  C  C827  1  0.227500  0.092820  0.573420  1.0  0.1443
  C  C828  1  0.168940  0.144650  0.572670  1.0  0.1326
  C  C829  1  0.247490  0.393620  0.604880  1.0  0.1554
  C  C830  1  0.295500  0.433120  0.609050  1.0  -0.1504
  C  C831  1  0.307730  0.477560  0.589690  1.0  -0.0041
  C  C832  1  0.272180  0.480250  0.565530  1.0  -0.1818
  C  C833  1  0.225050  0.438980  0.562780  1.0  0.1233
  C  C834  1  0.647820  0.821900  0.486800  1.0  0.1578
  C  C835  1  0.648110  0.825030  0.443480  1.0  -0.1332
  C  C836  1  0.659010  0.793770  0.419820  1.0  -0.0514
  C  C837  1  0.668390  0.760240  0.440870  1.0  -0.1817
  C  C838  1  0.667920  0.760020  0.484590  1.0  0.1439
  C  C839  1  0.662390  0.797060  0.373860  1.0  0.132
  C  C840  1  0.566580  0.703880  0.619430  1.0  0.1458
  C  C841  1  0.522220  0.659560  0.620870  1.0  -0.1551
  C  C842  1  0.516070  0.620920  0.594680  1.0  -0.0246
  C  C843  1  0.555230  0.628260  0.569580  1.0  -0.1581
  C  C844  1  0.598510  0.673760  0.569920  1.0  0.1531
  C  C845  1  0.468010  0.573840  0.593240  1.0  0.143
  C  C846  1  0.357620  0.522010  0.593990  1.0  0.1316
  C  C847  1  0.146140  0.752510  0.604880  1.0  0.155
  C  C848  1  0.137630  0.704500  0.609050  1.0  -0.1483
  C  C849  1  0.169840  0.692270  0.589690  1.0  -0.0056
  C  C850  1  0.208080  0.727820  0.565530  1.0  -0.1791
  C  C851  1  0.213940  0.774950  0.562780  1.0  0.1234
  C  C852  1  0.174090  0.352180  0.486800  1.0  0.1579
  C  C853  1  0.176930  0.351890  0.443480  1.0  -0.1339
  C  C854  1  0.134770  0.340990  0.419820  1.0  -0.0454
  C  C855  1  0.091860  0.331610  0.440870  1.0  -0.1781
  C  C856  1  0.092110  0.332080  0.484590  1.0  0.1466
  C  C857  1  0.134680  0.337610  0.373860  1.0  0.1338
  C  C858  1  0.137310  0.433420  0.619430  1.0  0.1449
  C  C859  1  0.137350  0.477780  0.620870  1.0  -0.1562
  C  C860  1  0.104860  0.483930  0.594680  1.0  -0.0229
  C  C861  1  0.073040  0.444770  0.569580  1.0  -0.1564
  C  C862  1  0.075260  0.401490  0.569920  1.0  0.1543
  C  C863  1  0.105840  0.531990  0.593240  1.0  0.1446
  C  C864  1  0.164400  0.642380  0.593990  1.0  0.1335
  C  C865  1  0.606380  0.853860  0.604880  1.0  0.1536
  C  C866  1  0.566880  0.862370  0.609050  1.0  -0.1524
  C  C867  1  0.522440  0.830160  0.589690  1.0  -0.007
  C  C868  1  0.519750  0.791920  0.565530  1.0  -0.178
  C  C869  1  0.561020  0.786060  0.562780  1.0  0.1241
  C  C870  1  0.178100  0.825910  0.486800  1.0  0.1553
  C  C871  1  0.174970  0.823070  0.443480  1.0  -0.1319
  C  C872  1  0.206230  0.865230  0.419820  1.0  -0.0479
  C  C873  1  0.239760  0.908140  0.440870  1.0  -0.1775
  C  C874  1  0.239980  0.907890  0.484590  1.0  0.1481
  C  C875  1  0.202940  0.865320  0.373860  1.0  0.1328
  C  C876  1  0.296120  0.862690  0.619430  1.0  0.1442
  C  C877  1  0.340440  0.862650  0.620870  1.0  -0.1557
  C  C878  1  0.379080  0.895140  0.594680  1.0  -0.0222
  C  C879  1  0.371740  0.926960  0.569580  1.0  -0.1585
  C  C880  1  0.326240  0.924740  0.569920  1.0  0.1519
  C  C881  1  0.426160  0.894160  0.593240  1.0  0.145
  C  C882  1  0.477990  0.835600  0.593990  1.0  0.1321
  C  C883  1  0.606380  0.752510  0.104880  1.0  0.1552
  C  C884  1  0.566880  0.704500  0.109050  1.0  -0.1495
  C  C885  1  0.522440  0.692270  0.089690  1.0  -0.0059
  C  C886  1  0.519750  0.727820  0.065530  1.0  -0.1803
  C  C887  1  0.561020  0.774950  0.062780  1.0  0.1234
  C  C888  1  0.178100  0.352180  0.986800  1.0  0.1578
  C  C889  1  0.174970  0.351890  0.943480  1.0  -0.1345
  C  C890  1  0.206230  0.340990  0.919820  1.0  -0.0436
  C  C891  1  0.239760  0.331610  0.940870  1.0  -0.1775
  C  C892  1  0.239980  0.332080  0.984590  1.0  0.1476
  C  C893  1  0.202940  0.337610  0.873860  1.0  0.1335
  C  C894  1  0.296120  0.433420  0.119430  1.0  0.1448
  C  C895  1  0.340440  0.477780  0.120870  1.0  -0.1566
  C  C896  1  0.379080  0.483930  0.094680  1.0  -0.0232
  C  C897  1  0.371740  0.444770  0.069580  1.0  -0.1574
  C  C898  1  0.326240  0.401490  0.069920  1.0  0.1543
  C  C899  1  0.426160  0.531990  0.093240  1.0  0.1456
  C  C900  1  0.477990  0.642380  0.093990  1.0  0.1334
  C  C901  1  0.247490  0.853860  0.104880  1.0  0.154
  C  C902  1  0.295500  0.862370  0.109050  1.0  -0.1522
  C  C903  1  0.307730  0.830160  0.089690  1.0  -0.0066
  C  C904  1  0.272180  0.791920  0.065530  1.0  -0.1797
  C  C905  1  0.225050  0.786060  0.062780  1.0  0.1236
  C  C906  1  0.647820  0.825910  0.986800  1.0  0.156
  C  C907  1  0.648110  0.823070  0.943480  1.0  -0.1314
  C  C908  1  0.659010  0.865230  0.919820  1.0  -0.0492
  C  C909  1  0.668390  0.908140  0.940870  1.0  -0.1781
  C  C910  1  0.667920  0.907890  0.984590  1.0  0.1466
  C  C911  1  0.662390  0.865320  0.873860  1.0  0.1324
  C  C912  1  0.566580  0.862690  0.119430  1.0  0.1446
  C  C913  1  0.522220  0.862650  0.120870  1.0  -0.1563
  C  C914  1  0.516070  0.895140  0.094680  1.0  -0.0232
  C  C915  1  0.555230  0.926960  0.069580  1.0  -0.1583
  C  C916  1  0.598510  0.924740  0.069920  1.0  0.1521
  C  C917  1  0.468010  0.894160  0.093240  1.0  0.1456
  C  C918  1  0.357620  0.835600  0.093990  1.0  0.1312
  C  C919  1  0.146140  0.393620  0.104880  1.0  0.1552
  C  C920  1  0.137630  0.433120  0.109050  1.0  -0.1506
  C  C921  1  0.169840  0.477560  0.089690  1.0  -0.0042
  C  C922  1  0.208080  0.480250  0.065530  1.0  -0.1812
  C  C923  1  0.213940  0.438980  0.062780  1.0  0.1236
  C  C924  1  0.174090  0.821900  0.986800  1.0  0.1597
  C  C925  1  0.176930  0.825030  0.943480  1.0  -0.1302
  C  C926  1  0.134770  0.793770  0.919820  1.0  -0.0482
  C  C927  1  0.091860  0.760240  0.940870  1.0  -0.1811
  C  C928  1  0.092110  0.760020  0.984590  1.0  0.1442
  C  C929  1  0.134680  0.797060  0.873860  1.0  0.1311
  C  C930  1  0.137310  0.703880  0.119430  1.0  0.1453
  C  C931  1  0.137350  0.659560  0.120870  1.0  -0.1542
  C  C932  1  0.104860  0.620920  0.094680  1.0  -0.0241
  C  C933  1  0.073040  0.628260  0.069580  1.0  -0.1575
  C  C934  1  0.075260  0.673760  0.069920  1.0  0.153
  C  C935  1  0.105840  0.573840  0.093240  1.0  0.1419
  C  C936  1  0.164400  0.522010  0.093990  1.0  0.1297
  C  C937  1  0.085850  0.273040  0.061780  1.0  0.1535
  C  C938  1  0.037840  0.233540  0.057610  1.0  -0.1499
  C  C939  1  0.025610  0.189100  0.076970  1.0  -0.0046
  C  C940  1  0.061160  0.186410  0.101130  1.0  -0.182
  C  C941  1  0.108290  0.227680  0.103880  1.0  0.1229
  C  C942  1  0.685520  0.844760  0.179860  1.0  0.159
  C  C943  1  0.685230  0.841630  0.223180  1.0  -0.131
  C  C944  1  0.674330  0.872890  0.246840  1.0  -0.0464
  C  C945  1  0.664950  0.906420  0.225790  1.0  -0.1811
  C  C946  1  0.665420  0.906640  0.182070  1.0  0.1455
  C  C947  1  0.670950  0.869600  0.292800  1.0  0.1317
  C  C948  1  0.766760  0.962780  0.047230  1.0  0.1445
  C  C949  1  0.811120  0.007100  0.045790  1.0  -0.1549
  C  C950  1  0.817270  0.045740  0.071980  1.0  -0.0239
  C  C951  1  0.778110  0.038400  0.097080  1.0  -0.1575
  C  C952  1  0.734830  0.992900  0.096740  1.0  0.1526
  C  C953  1  0.865330  0.092820  0.073420  1.0  0.1431
  C  C954  1  0.975720  0.144650  0.072670  1.0  0.1319
  C  C955  1  0.187200  0.914150  0.061780  1.0  0.1544
  C  C956  1  0.195710  0.962160  0.057610  1.0  -0.1495
  C  C957  1  0.163500  0.974390  0.076970  1.0  -0.0049
  C  C958  1  0.125260  0.938840  0.101130  1.0  -0.1821
  C  C959  1  0.119400  0.891710  0.103880  1.0  0.1225
  C  C960  1  0.159250  0.314480  0.179860  1.0  0.1576
  C  C961  1  0.156410  0.314770  0.223180  1.0  -0.1326
  C  C962  1  0.198570  0.325670  0.246840  1.0  -0.0439
  C  C963  1  0.241480  0.335050  0.225790  1.0  -0.1776
  C  C964  1  0.241230  0.334580  0.182070  1.0  0.1469
  C  C965  1  0.198660  0.329050  0.292800  1.0  0.1354
  C  C966  1  0.196030  0.233240  0.047230  1.0  0.1444
  C  C967  1  0.195990  0.188880  0.045790  1.0  -0.1568
  C  C968  1  0.228480  0.182730  0.071980  1.0  -0.0238
  C  C969  1  0.260300  0.221890  0.097080  1.0  -0.1567
  C  C970  1  0.258080  0.265170  0.096740  1.0  0.1536
  C  C971  1  0.227500  0.134670  0.073420  1.0  0.1456
  C  C972  1  0.168940  0.024280  0.072670  1.0  0.1341
  C  C973  1  0.726960  0.812800  0.061780  1.0  0.1528
  C  C974  1  0.766460  0.804290  0.057610  1.0  -0.1512
  C  C975  1  0.810900  0.836500  0.076970  1.0  -0.0067
  C  C976  1  0.813590  0.874740  0.101130  1.0  -0.1781
  C  C977  1  0.772320  0.880600  0.103880  1.0  0.1238
  C  C978  1  0.155240  0.840750  0.179860  1.0  0.1559
  C  C979  1  0.158370  0.843590  0.223180  1.0  -0.1332
  C  C980  1  0.127110  0.801430  0.246840  1.0  -0.0466
  C  C981  1  0.093580  0.758520  0.225790  1.0  -0.1769
  C  C982  1  0.093360  0.758770  0.182070  1.0  0.147
  C  C983  1  0.130400  0.801340  0.292800  1.0  0.1326
  C  C984  1  0.037220  0.803970  0.047230  1.0  0.1445
  C  C985  1  0.992900  0.804010  0.045790  1.0  -0.1571
  C  C986  1  0.954260  0.771520  0.071980  1.0  -0.0229
  C  C987  1  0.961600  0.739700  0.097080  1.0  -0.1577
  C  C988  1  0.007100  0.741920  0.096740  1.0  0.1518
  C  C989  1  0.907180  0.772500  0.073420  1.0  0.1445
  C  C990  1  0.855350  0.831060  0.072670  1.0  0.1325
  C  C991  1  0.393620  0.247490  0.895120  1.0  0.155
  C  C992  1  0.433120  0.295500  0.890950  1.0  -0.1484
  C  C993  1  0.477560  0.307730  0.910310  1.0  -0.0062
  C  C994  1  0.480250  0.272180  0.934470  1.0  -0.1774
  C  C995  1  0.438980  0.225050  0.937220  1.0  0.1239
  C  C996  1  0.821900  0.647820  0.013200  1.0  0.1573
  C  C997  1  0.825030  0.648110  0.056520  1.0  -0.1338
  C  C998  1  0.793770  0.659010  0.080180  1.0  -0.0458
  C  C999  1  0.760240  0.668390  0.059130  1.0  -0.1775
  C  C1000  1  0.760020  0.667920  0.015410  1.0  0.1465
  C  C1001  1  0.797060  0.662390  0.126140  1.0  0.135
  C  C1002  1  0.703880  0.566580  0.880570  1.0  0.1445
  C  C1003  1  0.659560  0.522220  0.879130  1.0  -0.1567
  C  C1004  1  0.620920  0.516070  0.905320  1.0  -0.0231
  C  C1005  1  0.628260  0.555230  0.930420  1.0  -0.1561
  C  C1006  1  0.673760  0.598510  0.930080  1.0  0.1535
  C  C1007  1  0.573840  0.468010  0.906760  1.0  0.1451
  C  C1008  1  0.522010  0.357620  0.906010  1.0  0.1344
  C  C1009  1  0.752510  0.146140  0.895120  1.0  0.1536
  C  C1010  1  0.704500  0.137630  0.890950  1.0  -0.1517
  C  C1011  1  0.692270  0.169840  0.910310  1.0  -0.0062
  C  C1012  1  0.727820  0.208080  0.934470  1.0  -0.1792
  C  C1013  1  0.774950  0.213940  0.937220  1.0  0.1238
  C  C1014  1  0.352180  0.174090  0.013200  1.0  0.1559
  C  C1015  1  0.351890  0.176930  0.056520  1.0  -0.1331
  C  C1016  1  0.340990  0.134770  0.080180  1.0  -0.047
  C  C1017  1  0.331610  0.091860  0.059130  1.0  -0.1783
  C  C1018  1  0.332080  0.092110  0.015410  1.0  0.1482
  C  C1019  1  0.337610  0.134680  0.126140  1.0  0.1336
  C  C1020  1  0.433420  0.137310  0.880570  1.0  0.1438
  C  C1021  1  0.477780  0.137350  0.879130  1.0  -0.1563
  C  C1022  1  0.483930  0.104860  0.905320  1.0  -0.0226
  C  C1023  1  0.444770  0.073040  0.930420  1.0  -0.1573
  C  C1024  1  0.401490  0.075260  0.930080  1.0  0.1514
  C  C1025  1  0.531990  0.105840  0.906760  1.0  0.1451
  C  C1026  1  0.642380  0.164400  0.906010  1.0  0.1327
  C  C1027  1  0.853860  0.606380  0.895120  1.0  0.1549
  C  C1028  1  0.862370  0.566880  0.890950  1.0  -0.1499
  C  C1029  1  0.830160  0.522440  0.910310  1.0  -0.0044
  C  C1030  1  0.791920  0.519750  0.934470  1.0  -0.1826
  C  C1031  1  0.786060  0.561020  0.937220  1.0  0.1227
  C  C1032  1  0.825910  0.178100  0.013200  1.0  0.1578
  C  C1033  1  0.823070  0.174970  0.056520  1.0  -0.1339
  C  C1034  1  0.865230  0.206230  0.080180  1.0  -0.0481
  C  C1035  1  0.908140  0.239760  0.059130  1.0  -0.1807
  C  C1036  1  0.907890  0.239980  0.015410  1.0  0.1445
  C  C1037  1  0.865320  0.202940  0.126140  1.0  0.1321
  C  C1038  1  0.862690  0.296120  0.880570  1.0  0.1448
  C  C1039  1  0.862650  0.340440  0.879130  1.0  -0.1554
  C  C1040  1  0.895140  0.379080  0.905320  1.0  -0.0238
  C  C1041  1  0.926960  0.371740  0.930420  1.0  -0.1569
  C  C1042  1  0.924740  0.326240  0.930080  1.0  0.153
  C  C1043  1  0.894160  0.426160  0.906760  1.0  0.1443
  C  C1044  1  0.835600  0.477990  0.906010  1.0  0.1326
  C  C1045  1  0.914150  0.726960  0.938220  1.0  0.1554
  C  C1046  1  0.962160  0.766460  0.942390  1.0  -0.1504
  C  C1047  1  0.974390  0.810900  0.923030  1.0  -0.0041
  C  C1048  1  0.938840  0.813590  0.898870  1.0  -0.1818
  C  C1049  1  0.891710  0.772320  0.896120  1.0  0.1233
  C  C1050  1  0.314480  0.155240  0.820140  1.0  0.158
  C  C1051  1  0.314770  0.158370  0.776820  1.0  -0.1331
  C  C1052  1  0.325670  0.127110  0.753160  1.0  -0.0516
  C  C1053  1  0.335050  0.093580  0.774210  1.0  -0.1817
  C  C1054  1  0.334580  0.093360  0.817930  1.0  0.1439
  C  C1055  1  0.329050  0.130400  0.707200  1.0  0.132
  C  C1056  1  0.233240  0.037220  0.952770  1.0  0.1458
  C  C1057  1  0.188880  0.992900  0.954210  1.0  -0.1551
  C  C1058  1  0.182730  0.954260  0.928020  1.0  -0.0246
  C  C1059  1  0.221890  0.961600  0.902920  1.0  -0.1581
  C  C1060  1  0.265170  0.007100  0.903260  1.0  0.1531
  C  C1061  1  0.134670  0.907180  0.926580  1.0  0.143
  C  C1062  1  0.024280  0.855350  0.927330  1.0  0.1317
  C  C1063  1  0.812800  0.085850  0.938220  1.0  0.155
  C  C1064  1  0.804290  0.037840  0.942390  1.0  -0.1483
  C  C1065  1  0.836500  0.025610  0.923030  1.0  -0.0057
  C  C1066  1  0.874740  0.061160  0.898870  1.0  -0.179
  C  C1067  1  0.880600  0.108290  0.896120  1.0  0.1234
  C  C1068  1  0.840750  0.685520  0.820140  1.0  0.1578
  C  C1069  1  0.843590  0.685230  0.776820  1.0  -0.1339
  C  C1070  1  0.801430  0.674330  0.753160  1.0  -0.0456
  C  C1071  1  0.758520  0.664950  0.774210  1.0  -0.1783
  C  C1072  1  0.758770  0.665420  0.817930  1.0  0.1466
  C  C1073  1  0.801340  0.670950  0.707200  1.0  0.1338
  C  C1074  1  0.803970  0.766760  0.952770  1.0  0.145
  C  C1075  1  0.804010  0.811120  0.954210  1.0  -0.1563
  C  C1076  1  0.771520  0.817270  0.928020  1.0  -0.0229
  C  C1077  1  0.739700  0.778110  0.902920  1.0  -0.1564
  C  C1078  1  0.741920  0.734830  0.903260  1.0  0.1543
  C  C1079  1  0.772500  0.865330  0.926580  1.0  0.1446
  C  C1080  1  0.831060  0.975720  0.927330  1.0  0.1335
  C  C1081  1  0.273040  0.187200  0.938220  1.0  0.1536
  C  C1082  1  0.233540  0.195710  0.942390  1.0  -0.1524
  C  C1083  1  0.189100  0.163500  0.923030  1.0  -0.0071
  C  C1084  1  0.186410  0.125260  0.898870  1.0  -0.178
  C  C1085  1  0.227680  0.119400  0.896120  1.0  0.1241
  C  C1086  1  0.844760  0.159250  0.820140  1.0  0.1553
  C  C1087  1  0.841630  0.156410  0.776820  1.0  -0.1319
  C  C1088  1  0.872890  0.198570  0.753160  1.0  -0.0478
  C  C1089  1  0.906420  0.241480  0.774210  1.0  -0.1775
  C  C1090  1  0.906640  0.241230  0.817930  1.0  0.1481
  C  C1091  1  0.869600  0.198660  0.707200  1.0  0.1328
  C  C1092  1  0.962780  0.196030  0.952770  1.0  0.1442
  C  C1093  1  0.007100  0.195990  0.954210  1.0  -0.1558
  C  C1094  1  0.045740  0.228480  0.928020  1.0  -0.0222
  C  C1095  1  0.038400  0.260300  0.902920  1.0  -0.1585
  C  C1096  1  0.992900  0.258080  0.903260  1.0  0.1519
  C  C1097  1  0.092820  0.227500  0.926580  1.0  0.145
  C  C1098  1  0.144650  0.168940  0.927330  1.0  0.1321
  C  C1099  1  0.273040  0.085850  0.438220  1.0  0.1552
  C  C1100  1  0.233540  0.037840  0.442390  1.0  -0.1495
  C  C1101  1  0.189100  0.025610  0.423030  1.0  -0.0059
  C  C1102  1  0.186410  0.061160  0.398870  1.0  -0.1802
  C  C1103  1  0.227680  0.108290  0.396120  1.0  0.1234
  C  C1104  1  0.844760  0.685520  0.320140  1.0  0.1579
  C  C1105  1  0.841630  0.685230  0.276820  1.0  -0.1345
  C  C1106  1  0.872890  0.674330  0.253160  1.0  -0.0438
  C  C1107  1  0.906420  0.664950  0.274210  1.0  -0.1774
  C  C1108  1  0.906640  0.665420  0.317930  1.0  0.1476
  C  C1109  1  0.869600  0.670950  0.207200  1.0  0.1335
  C  C1110  1  0.962780  0.766760  0.452770  1.0  0.1449
  C  C1111  1  0.007100  0.811120  0.454210  1.0  -0.1567
  C  C1112  1  0.045740  0.817270  0.428020  1.0  -0.0232
  C  C1113  1  0.038400  0.778110  0.402920  1.0  -0.1574
  C  C1114  1  0.992900  0.734830  0.403260  1.0  0.1543
  C  C1115  1  0.092820  0.865330  0.426580  1.0  0.1456
  C  C1116  1  0.144650  0.975720  0.427330  1.0  0.1334
  C  C1117  1  0.914150  0.187200  0.438220  1.0  0.1541
  C  C1118  1  0.962160  0.195710  0.442390  1.0  -0.1521
  C  C1119  1  0.974390  0.163500  0.423030  1.0  -0.0066
  C  C1120  1  0.938840  0.125260  0.398870  1.0  -0.1797
  C  C1121  1  0.891710  0.119400  0.396120  1.0  0.1236
  C  C1122  1  0.314480  0.159250  0.320140  1.0  0.1558
  C  C1123  1  0.314770  0.156410  0.276820  1.0  -0.1314
  C  C1124  1  0.325670  0.198570  0.253160  1.0  -0.0495
  C  C1125  1  0.335050  0.241480  0.274210  1.0  -0.1782
  C  C1126  1  0.334580  0.241230  0.317930  1.0  0.1466
  C  C1127  1  0.329050  0.198660  0.207200  1.0  0.1324
  C  C1128  1  0.233240  0.196030  0.452770  1.0  0.1447
  C  C1129  1  0.188880  0.195990  0.454210  1.0  -0.1563
  C  C1130  1  0.182730  0.228480  0.428020  1.0  -0.0232
  C  C1131  1  0.221890  0.260300  0.402920  1.0  -0.1583
  C  C1132  1  0.265170  0.258080  0.403260  1.0  0.1521
  C  C1133  1  0.134670  0.227500  0.426580  1.0  0.1456
  C  C1134  1  0.024280  0.168940  0.427330  1.0  0.1312
  C  C1135  1  0.812800  0.726960  0.438220  1.0  0.1552
  C  C1136  1  0.804290  0.766460  0.442390  1.0  -0.1506
  C  C1137  1  0.836500  0.810900  0.423030  1.0  -0.0042
  C  C1138  1  0.874740  0.813590  0.398870  1.0  -0.1812
  C  C1139  1  0.880600  0.772320  0.396120  1.0  0.1236
  C  C1140  1  0.840750  0.155240  0.320140  1.0  0.1597
  C  C1141  1  0.843590  0.158370  0.276820  1.0  -0.1302
  C  C1142  1  0.801430  0.127110  0.253160  1.0  -0.0481
  C  C1143  1  0.758520  0.093580  0.274210  1.0  -0.1811
  C  C1144  1  0.758770  0.093360  0.317930  1.0  0.1442
  C  C1145  1  0.801340  0.130400  0.207200  1.0  0.1311
  C  C1146  1  0.803970  0.037220  0.452770  1.0  0.1453
  C  C1147  1  0.804010  0.992900  0.454210  1.0  -0.1542
  C  C1148  1  0.771520  0.954260  0.428020  1.0  -0.0242
  C  C1149  1  0.739700  0.961600  0.402920  1.0  -0.1576
  C  C1150  1  0.741920  0.007100  0.403260  1.0  0.153
  C  C1151  1  0.772500  0.907180  0.426580  1.0  0.1419
  C  C1152  1  0.831060  0.855350  0.427330  1.0  0.1297
  C  C1153  1  0.752510  0.606380  0.395120  1.0  0.1535
  C  C1154  1  0.704500  0.566880  0.390950  1.0  -0.1499
  C  C1155  1  0.692270  0.522440  0.410310  1.0  -0.0046
  C  C1156  1  0.727820  0.519750  0.434470  1.0  -0.182
  C  C1157  1  0.774950  0.561020  0.437220  1.0  0.1229
  C  C1158  1  0.352180  0.178100  0.513200  1.0  0.1589
  C  C1159  1  0.351890  0.174970  0.556520  1.0  -0.131
  C  C1160  1  0.340990  0.206230  0.580180  1.0  -0.0462
  C  C1161  1  0.331610  0.239760  0.559130  1.0  -0.1812
  C  C1162  1  0.332080  0.239980  0.515410  1.0  0.1455
  C  C1163  1  0.337610  0.202940  0.626140  1.0  0.1317
  C  C1164  1  0.433420  0.296120  0.380570  1.0  0.1444
  C  C1165  1  0.477780  0.340440  0.379130  1.0  -0.1549
  C  C1166  1  0.483930  0.379080  0.405320  1.0  -0.0239
  C  C1167  1  0.444770  0.371740  0.430420  1.0  -0.1575
  C  C1168  1  0.401490  0.326240  0.430080  1.0  0.1526
  C  C1169  1  0.531990  0.426160  0.406760  1.0  0.1431
  C  C1170  1  0.642380  0.477990  0.406010  1.0  0.1319
  C  C1171  1  0.853860  0.247490  0.395120  1.0  0.1544
  C  C1172  1  0.862370  0.295500  0.390950  1.0  -0.1496
  C  C1173  1  0.830160  0.307730  0.410310  1.0  -0.0048
  C  C1174  1  0.791920  0.272180  0.434470  1.0  -0.182
  C  C1175  1  0.786060  0.225050  0.437220  1.0  0.1225
  C  C1176  1  0.825910  0.647820  0.513200  1.0  0.1578
  C  C1177  1  0.823070  0.648110  0.556520  1.0  -0.1327
  C  C1178  1  0.865230  0.659010  0.580180  1.0  -0.0437
  C  C1179  1  0.908140  0.668390  0.559130  1.0  -0.1775
  C  C1180  1  0.907890  0.667920  0.515410  1.0  0.1469
  C  C1181  1  0.865320  0.662390  0.626140  1.0  0.1354
  C  C1182  1  0.862690  0.566580  0.380570  1.0  0.1443
  C  C1183  1  0.862650  0.522220  0.379130  1.0  -0.1567
  C  C1184  1  0.895140  0.516070  0.405320  1.0  -0.0238
  C  C1185  1  0.926960  0.555230  0.430420  1.0  -0.1567
  C  C1186  1  0.924740  0.598510  0.430080  1.0  0.1536
  C  C1187  1  0.894160  0.468010  0.406760  1.0  0.1456
  C  C1188  1  0.835600  0.357620  0.406010  1.0  0.1342
  C  C1189  1  0.393620  0.146140  0.395120  1.0  0.1528
  C  C1190  1  0.433120  0.137630  0.390950  1.0  -0.1513
  C  C1191  1  0.477560  0.169840  0.410310  1.0  -0.0068
  C  C1192  1  0.480250  0.208080  0.434470  1.0  -0.1781
  C  C1193  1  0.438980  0.213940  0.437220  1.0  0.1238
  C  C1194  1  0.821900  0.174090  0.513200  1.0  0.1559
  C  C1195  1  0.825030  0.176930  0.556520  1.0  -0.1332
  C  C1196  1  0.793770  0.134770  0.580180  1.0  -0.0468
  C  C1197  1  0.760240  0.091860  0.559130  1.0  -0.1769
  C  C1198  1  0.760020  0.092110  0.515410  1.0  0.147
  C  C1199  1  0.797060  0.134680  0.626140  1.0  0.1326
  C  C1200  1  0.703880  0.137310  0.380570  1.0  0.1445
  C  C1201  1  0.659560  0.137350  0.379130  1.0  -0.1571
  C  C1202  1  0.620920  0.104860  0.405320  1.0  -0.0229
  C  C1203  1  0.628260  0.073040  0.430420  1.0  -0.1577
  C  C1204  1  0.673760  0.075260  0.430080  1.0  0.1518
  C  C1205  1  0.573840  0.105840  0.406760  1.0  0.1445
  C  C1206  1  0.522010  0.164400  0.406010  1.0  0.1325
  N  N1207  1  0.062930  0.545780  0.250780  1.0  -0.3617
  N  N1208  1  0.456970  0.991640  0.325770  1.0  -0.3677
  N  N1209  1  0.501340  0.997960  0.477800  1.0  -0.2671
  N  N1210  1  0.187580  0.723880  0.217140  1.0  -0.2664
  N  N1211  1  0.232430  0.768250  0.213110  1.0  -0.2643
  N  N1212  1  0.378490  0.937650  0.239610  1.0  -0.3514
  N  N1213  1  0.454220  0.517150  0.250780  1.0  -0.3639
  N  N1214  1  0.008360  0.465330  0.325770  1.0  -0.3661
  N  N1215  1  0.002040  0.503380  0.477800  1.0  -0.2663
  N  N1216  1  0.276120  0.463700  0.217140  1.0  -0.2668
  N  N1217  1  0.231750  0.464180  0.213110  1.0  -0.2643
  N  N1218  1  0.062350  0.440840  0.239610  1.0  -0.3524
  N  N1219  1  0.482850  0.937070  0.250780  1.0  -0.3637
  N  N1220  1  0.534670  0.543030  0.325770  1.0  -0.3673
  N  N1221  1  0.496620  0.498660  0.477800  1.0  -0.268
  N  N1222  1  0.536300  0.812420  0.217140  1.0  -0.2645
  N  N1223  1  0.535820  0.767570  0.213110  1.0  -0.2605
  N  N1224  1  0.559160  0.621510  0.239610  1.0  -0.3504
  N  N1225  1  0.545780  0.062930  0.249220  1.0  -0.3638
  N  N1226  1  0.991640  0.456970  0.174230  1.0  -0.3646
  N  N1227  1  0.997960  0.501340  0.022200  1.0  -0.2669
  N  N1228  1  0.723880  0.187580  0.282860  1.0  -0.2633
  N  N1229  1  0.768250  0.232430  0.286890  1.0  -0.2602
  N  N1230  1  0.937650  0.378490  0.260390  1.0  -0.3506
  N  N1231  1  0.517150  0.454220  0.249220  1.0  -0.3623
  N  N1232  1  0.465330  0.008360  0.174230  1.0  -0.365
  N  N1233  1  0.503380  0.002040  0.022200  1.0  -0.2672
  N  N1234  1  0.463700  0.276120  0.282860  1.0  -0.2656
  N  N1235  1  0.464180  0.231750  0.286890  1.0  -0.264
  N  N1236  1  0.440840  0.062350  0.260390  1.0  -0.3512
  N  N1237  1  0.937070  0.482850  0.249220  1.0  -0.3649
  N  N1238  1  0.543030  0.534670  0.174230  1.0  -0.363
  N  N1239  1  0.498660  0.496620  0.022200  1.0  -0.2673
  N  N1240  1  0.812420  0.536300  0.282860  1.0  -0.2655
  N  N1241  1  0.767570  0.535820  0.286890  1.0  -0.2628
  N  N1242  1  0.621510  0.559160  0.260390  1.0  -0.3525
  N  N1243  1  0.937070  0.454220  0.749220  1.0  -0.3614
  N  N1244  1  0.543030  0.008360  0.674230  1.0  -0.3649
  N  N1245  1  0.498660  0.002040  0.522200  1.0  -0.2685
  N  N1246  1  0.812420  0.276120  0.782860  1.0  -0.2643
  N  N1247  1  0.767570  0.231750  0.786890  1.0  -0.2601
  N  N1248  1  0.621510  0.062350  0.760390  1.0  -0.3509
  N  N1249  1  0.545780  0.482850  0.749220  1.0  -0.3638
  N  N1250  1  0.991640  0.534670  0.674230  1.0  -0.3632
  N  N1251  1  0.997960  0.496620  0.522200  1.0  -0.2669
  N  N1252  1  0.723880  0.536300  0.782860  1.0  -0.2665
  N  N1253  1  0.768250  0.535820  0.786890  1.0  -0.2632
  N  N1254  1  0.937650  0.559160  0.760390  1.0  -0.3548
  N  N1255  1  0.517150  0.062930  0.749220  1.0  -0.3625
  N  N1256  1  0.465330  0.456970  0.674230  1.0  -0.364
  N  N1257  1  0.503380  0.501340  0.522200  1.0  -0.2667
  N  N1258  1  0.463700  0.187580  0.782860  1.0  -0.2654
  N  N1259  1  0.464180  0.232430  0.786890  1.0  -0.2632
  N  N1260  1  0.440840  0.378490  0.760390  1.0  -0.352
  N  N1261  1  0.454220  0.937070  0.750780  1.0  -0.3626
  N  N1262  1  0.008360  0.543030  0.825770  1.0  -0.3667
  N  N1263  1  0.002040  0.498660  0.977800  1.0  -0.2679
  N  N1264  1  0.276120  0.812420  0.717140  1.0  -0.2663
  N  N1265  1  0.231750  0.767570  0.713110  1.0  -0.264
  N  N1266  1  0.062350  0.621510  0.739610  1.0  -0.3506
  N  N1267  1  0.482850  0.545780  0.750780  1.0  -0.361
  N  N1268  1  0.534670  0.991640  0.825770  1.0  -0.3676
  N  N1269  1  0.496620  0.997960  0.977800  1.0  -0.2692
  N  N1270  1  0.536300  0.723880  0.717140  1.0  -0.265
  N  N1271  1  0.535820  0.768250  0.713110  1.0  -0.2596
  N  N1272  1  0.559160  0.937650  0.739610  1.0  -0.3516
  N  N1273  1  0.062930  0.517150  0.750780  1.0  -0.3631
  N  N1274  1  0.456970  0.465330  0.825770  1.0  -0.3664
  N  N1275  1  0.501340  0.503380  0.977800  1.0  -0.2668
  N  N1276  1  0.187580  0.463700  0.717140  1.0  -0.2673
  N  N1277  1  0.232430  0.464180  0.713110  1.0  -0.2649
  N  N1278  1  0.378490  0.440840  0.739610  1.0  -0.3543
  N  N1279  1  0.729600  0.879110  0.584110  1.0  -0.3617
  N  N1280  1  0.123640  0.324970  0.659100  1.0  -0.3677
  N  N1281  1  0.168010  0.331290  0.811130  1.0  -0.2671
  N  N1282  1  0.854250  0.057210  0.550470  1.0  -0.2665
  N  N1283  1  0.899100  0.101580  0.546440  1.0  -0.2643
  N  N1284  1  0.045160  0.270980  0.572940  1.0  -0.3516
  N  N1285  1  0.120890  0.850480  0.584110  1.0  -0.3639
  N  N1286  1  0.675030  0.798660  0.659100  1.0  -0.3661
  N  N1287  1  0.668710  0.836710  0.811130  1.0  -0.2662
  N  N1288  1  0.942790  0.797030  0.550470  1.0  -0.267
  N  N1289  1  0.898420  0.797510  0.546440  1.0  -0.2643
  N  N1290  1  0.729020  0.774170  0.572940  1.0  -0.3525
  N  N1291  1  0.149520  0.270400  0.584110  1.0  -0.3637
  N  N1292  1  0.201340  0.876360  0.659100  1.0  -0.3673
  N  N1293  1  0.163290  0.831990  0.811130  1.0  -0.268
  N  N1294  1  0.202970  0.145750  0.550470  1.0  -0.2646
  N  N1295  1  0.202490  0.100900  0.546440  1.0  -0.2605
  N  N1296  1  0.225830  0.954840  0.572940  1.0  -0.3504
  N  N1297  1  0.212450  0.396260  0.582550  1.0  -0.3638
  N  N1298  1  0.658310  0.790300  0.507560  1.0  -0.3645
  N  N1299  1  0.664630  0.834670  0.355530  1.0  -0.2669
  N  N1300  1  0.390550  0.520910  0.616190  1.0  -0.2633
  N  N1301  1  0.434920  0.565760  0.620220  1.0  -0.2602
  N  N1302  1  0.604320  0.711820  0.593720  1.0  -0.3506
  N  N1303  1  0.183820  0.787550  0.582550  1.0  -0.3623
  N  N1304  1  0.132000  0.341690  0.507560  1.0  -0.365
  N  N1305  1  0.170050  0.335370  0.355530  1.0  -0.2672
  N  N1306  1  0.130370  0.609450  0.616190  1.0  -0.2656
  N  N1307  1  0.130850  0.565080  0.620220  1.0  -0.264
  N  N1308  1  0.107510  0.395680  0.593720  1.0  -0.3512
  N  N1309  1  0.603740  0.816180  0.582550  1.0  -0.3649
  N  N1310  1  0.209700  0.868000  0.507560  1.0  -0.363
  N  N1311  1  0.165330  0.829950  0.355530  1.0  -0.2673
  N  N1312  1  0.479090  0.869630  0.616190  1.0  -0.2655
  N  N1313  1  0.434240  0.869150  0.620220  1.0  -0.2628
  N  N1314  1  0.288180  0.892490  0.593720  1.0  -0.3524
  N  N1315  1  0.603740  0.787550  0.082550  1.0  -0.3614
  N  N1316  1  0.209700  0.341690  0.007560  1.0  -0.3649
  N  N1317  1  0.165330  0.335370  0.855530  1.0  -0.2686
  N  N1318  1  0.479090  0.609450  0.116190  1.0  -0.2643
  N  N1319  1  0.434240  0.565080  0.120220  1.0  -0.2601
  N  N1320  1  0.288180  0.395680  0.093720  1.0  -0.3508
  N  N1321  1  0.212450  0.816180  0.082550  1.0  -0.3638
  N  N1322  1  0.658310  0.868000  0.007560  1.0  -0.3632
  N  N1323  1  0.664630  0.829950  0.855530  1.0  -0.2669
  N  N1324  1  0.390550  0.869630  0.116190  1.0  -0.2665
  N  N1325  1  0.434920  0.869150  0.120220  1.0  -0.2632
  N  N1326  1  0.604320  0.892490  0.093720  1.0  -0.3548
  N  N1327  1  0.183820  0.396260  0.082550  1.0  -0.3625
  N  N1328  1  0.132000  0.790300  0.007560  1.0  -0.364
  N  N1329  1  0.170050  0.834670  0.855530  1.0  -0.2667
  N  N1330  1  0.130370  0.520910  0.116190  1.0  -0.2654
  N  N1331  1  0.130850  0.565760  0.120220  1.0  -0.2632
  N  N1332  1  0.107510  0.711820  0.093720  1.0  -0.3519
  N  N1333  1  0.120890  0.270400  0.084110  1.0  -0.3626
  N  N1334  1  0.675030  0.876360  0.159100  1.0  -0.3667
  N  N1335  1  0.668710  0.831990  0.311130  1.0  -0.2679
  N  N1336  1  0.942790  0.145750  0.050470  1.0  -0.2664
  N  N1337  1  0.898420  0.100900  0.046440  1.0  -0.264
  N  N1338  1  0.729020  0.954840  0.072940  1.0  -0.3508
  N  N1339  1  0.149520  0.879110  0.084110  1.0  -0.361
  N  N1340  1  0.201340  0.324970  0.159100  1.0  -0.3676
  N  N1341  1  0.163290  0.331290  0.311130  1.0  -0.2691
  N  N1342  1  0.202970  0.057210  0.050470  1.0  -0.2651
  N  N1343  1  0.202490  0.101580  0.046440  1.0  -0.2596
  N  N1344  1  0.225830  0.270980  0.072940  1.0  -0.3516
  N  N1345  1  0.729600  0.850480  0.084110  1.0  -0.3631
  N  N1346  1  0.123640  0.798660  0.159100  1.0  -0.3664
  N  N1347  1  0.168010  0.836710  0.311130  1.0  -0.2667
  N  N1348  1  0.854250  0.797030  0.050470  1.0  -0.2674
  N  N1349  1  0.899100  0.797510  0.046440  1.0  -0.2649
  N  N1350  1  0.045160  0.774170  0.072940  1.0  -0.3542
  N  N1351  1  0.396260  0.212450  0.917450  1.0  -0.3617
  N  N1352  1  0.790300  0.658310  0.992440  1.0  -0.3677
  N  N1353  1  0.834670  0.664630  0.144470  1.0  -0.2671
  N  N1354  1  0.520910  0.390550  0.883810  1.0  -0.2664
  N  N1355  1  0.565760  0.434920  0.879780  1.0  -0.2643
  N  N1356  1  0.711820  0.604320  0.906280  1.0  -0.3513
  N  N1357  1  0.787550  0.183820  0.917450  1.0  -0.3639
  N  N1358  1  0.341690  0.132000  0.992440  1.0  -0.3661
  N  N1359  1  0.335370  0.170050  0.144470  1.0  -0.2663
  N  N1360  1  0.609450  0.130370  0.883810  1.0  -0.2668
  N  N1361  1  0.565080  0.130850  0.879780  1.0  -0.2643
  N  N1362  1  0.395680  0.107510  0.906280  1.0  -0.3525
  N  N1363  1  0.816180  0.603740  0.917450  1.0  -0.3638
  N  N1364  1  0.868000  0.209700  0.992440  1.0  -0.3673
  N  N1365  1  0.829950  0.165330  0.144470  1.0  -0.268
  N  N1366  1  0.869630  0.479090  0.883810  1.0  -0.2645
  N  N1367  1  0.869150  0.434240  0.879780  1.0  -0.2605
  N  N1368  1  0.892490  0.288180  0.906280  1.0  -0.3504
  N  N1369  1  0.879110  0.729600  0.915890  1.0  -0.3638
  N  N1370  1  0.324970  0.123640  0.840900  1.0  -0.3646
  N  N1371  1  0.331290  0.168010  0.688870  1.0  -0.2668
  N  N1372  1  0.057210  0.854250  0.949530  1.0  -0.2633
  N  N1373  1  0.101580  0.899100  0.953560  1.0  -0.2602
  N  N1374  1  0.270980  0.045160  0.927060  1.0  -0.3508
  N  N1375  1  0.850480  0.120890  0.915890  1.0  -0.3623
  N  N1376  1  0.798660  0.675030  0.840900  1.0  -0.365
  N  N1377  1  0.836710  0.668710  0.688870  1.0  -0.2672
  N  N1378  1  0.797030  0.942790  0.949530  1.0  -0.2658
  N  N1379  1  0.797510  0.898420  0.953560  1.0  -0.264
  N  N1380  1  0.774170  0.729020  0.927060  1.0  -0.3512
  N  N1381  1  0.270400  0.149520  0.915890  1.0  -0.3649
  N  N1382  1  0.876360  0.201340  0.840900  1.0  -0.363
  N  N1383  1  0.831990  0.163290  0.688870  1.0  -0.2672
  N  N1384  1  0.145750  0.202970  0.949530  1.0  -0.2656
  N  N1385  1  0.100900  0.202490  0.953560  1.0  -0.2628
  N  N1386  1  0.954840  0.225830  0.927060  1.0  -0.3524
  N  N1387  1  0.270400  0.120890  0.415890  1.0  -0.3614
  N  N1388  1  0.876360  0.675030  0.340900  1.0  -0.3649
  N  N1389  1  0.831990  0.668710  0.188870  1.0  -0.2685
  N  N1390  1  0.145750  0.942790  0.449530  1.0  -0.2644
  N  N1391  1  0.100900  0.898420  0.453560  1.0  -0.2601
  N  N1392  1  0.954840  0.729020  0.427060  1.0  -0.3511
  N  N1393  1  0.879110  0.149520  0.415890  1.0  -0.3638
  N  N1394  1  0.324970  0.201340  0.340900  1.0  -0.3632
  N  N1395  1  0.331290  0.163290  0.188870  1.0  -0.2669
  N  N1396  1  0.057210  0.202970  0.449530  1.0  -0.2668
  N  N1397  1  0.101580  0.202490  0.453560  1.0  -0.2631
  N  N1398  1  0.270980  0.225830  0.427060  1.0  -0.3548
  N  N1399  1  0.850480  0.729600  0.415890  1.0  -0.3625
  N  N1400  1  0.798660  0.123640  0.340900  1.0  -0.364
  N  N1401  1  0.836710  0.168010  0.188870  1.0  -0.2666
  N  N1402  1  0.797030  0.854250  0.449530  1.0  -0.2654
  N  N1403  1  0.797510  0.899100  0.453560  1.0  -0.2632
  N  N1404  1  0.774170  0.045160  0.427060  1.0  -0.3519
  N  N1405  1  0.787550  0.603740  0.417450  1.0  -0.3626
  N  N1406  1  0.341690  0.209700  0.492440  1.0  -0.3667
  N  N1407  1  0.335370  0.165330  0.644470  1.0  -0.2679
  N  N1408  1  0.609450  0.479090  0.383810  1.0  -0.2663
  N  N1409  1  0.565080  0.434240  0.379780  1.0  -0.264
  N  N1410  1  0.395680  0.288180  0.406280  1.0  -0.3505
  N  N1411  1  0.816180  0.212450  0.417450  1.0  -0.361
  N  N1412  1  0.868000  0.658310  0.492440  1.0  -0.3676
  N  N1413  1  0.829950  0.664630  0.644470  1.0  -0.2691
  N  N1414  1  0.869630  0.390550  0.383810  1.0  -0.265
  N  N1415  1  0.869150  0.434920  0.379780  1.0  -0.2596
  N  N1416  1  0.892490  0.604320  0.406280  1.0  -0.3515
  N  N1417  1  0.396260  0.183820  0.417450  1.0  -0.3631
  N  N1418  1  0.790300  0.132000  0.492440  1.0  -0.3664
  N  N1419  1  0.834670  0.170050  0.644470  1.0  -0.2668
  N  N1420  1  0.520910  0.130370  0.383810  1.0  -0.2673
  N  N1421  1  0.565760  0.130850  0.379780  1.0  -0.2649
  N  N1422  1  0.711820  0.107510  0.406280  1.0  -0.3542
