# generated using pymatgen
data_Zn8H21C60(O5F3)5
_symmetry_space_group_name_H-M   'P 1'
_cell_length_a   37.22700000
_cell_length_b   37.22700000
_cell_length_c   30.14900000
_cell_angle_alpha   90.00000000
_cell_angle_beta   90.00000000
_cell_angle_gamma   120.00000000
_symmetry_Int_Tables_number   1
_chemical_formula_structural   Zn8H21C60(O5F3)5
_chemical_formula_sum   'Zn64 H168 C480 O200 F120'
_cell_volume   36184.25389189
_cell_formula_units_Z   8
loop_
 _symmetry_equiv_pos_site_id
 _symmetry_equiv_pos_as_xyz
  1  'x, y, z'
loop_
 _atom_site_type_symbol
 _atom_site_label
 _atom_site_symmetry_multiplicity
 _atom_site_fract_x
 _atom_site_fract_y
 _atom_site_fract_z
 _atom_site_occupancy
 _atom_site_charge
  Zn  Zn1  1  0.633250  0.858320  0.738770  1.0  0.88
  Zn  Zn2  1  0.702350  0.842000  0.698210  1.0  0.9309
  Zn  Zn3  1  0.377020  0.719010  0.218120  1.0  0.8274
  Zn  Zn4  1  0.627700  0.792400  0.706700  1.0  0.818
  Zn  Zn5  1  0.697900  0.889500  0.721400  1.0  0.8546
  Zn  Zn6  1  0.141680  0.774930  0.738770  1.0  0.8852
  Zn  Zn7  1  0.158000  0.860350  0.698210  1.0  0.9317
  Zn  Zn8  1  0.280990  0.658010  0.218120  1.0  0.8334
  Zn  Zn9  1  0.207600  0.835300  0.706700  1.0  0.8195
  Zn  Zn10  1  0.110500  0.808400  0.721400  1.0  0.852
  Zn  Zn11  1  0.225070  0.366750  0.738770  1.0  0.8808
  Zn  Zn12  1  0.139650  0.297650  0.698210  1.0  0.9272
  Zn  Zn13  1  0.341990  0.622980  0.218120  1.0  0.8259
  Zn  Zn14  1  0.164700  0.372300  0.706700  1.0  0.8209
  Zn  Zn15  1  0.191600  0.302100  0.721400  1.0  0.8559
  Zn  Zn16  1  0.141680  0.366750  0.761230  1.0  0.8798
  Zn  Zn17  1  0.158000  0.297650  0.801790  1.0  0.9247
  Zn  Zn18  1  0.280990  0.622980  0.281880  1.0  0.8279
  Zn  Zn19  1  0.207600  0.372300  0.793300  1.0  0.8168
  Zn  Zn20  1  0.110500  0.302100  0.778600  1.0  0.8477
  Zn  Zn21  1  0.225070  0.858320  0.761230  1.0  0.8811
  Zn  Zn22  1  0.139650  0.842000  0.801790  1.0  0.926
  Zn  Zn23  1  0.341990  0.719010  0.281880  1.0  0.8256
  Zn  Zn24  1  0.164700  0.792400  0.793300  1.0  0.8179
  Zn  Zn25  1  0.191600  0.889500  0.778600  1.0  0.852
  Zn  Zn26  1  0.633250  0.774930  0.761230  1.0  0.885
  Zn  Zn27  1  0.702350  0.860350  0.801790  1.0  0.9288
  Zn  Zn28  1  0.377020  0.658010  0.281880  1.0  0.8323
  Zn  Zn29  1  0.627700  0.835300  0.793300  1.0  0.818
  Zn  Zn30  1  0.697900  0.808400  0.778600  1.0  0.8556
  Zn  Zn31  1  0.366750  0.141680  0.261230  1.0  0.8767
  Zn  Zn32  1  0.297650  0.158000  0.301790  1.0  0.9268
  Zn  Zn33  1  0.622980  0.280990  0.781880  1.0  0.8273
  Zn  Zn34  1  0.372300  0.207600  0.293300  1.0  0.8183
  Zn  Zn35  1  0.302100  0.110500  0.278600  1.0  0.8546
  Zn  Zn36  1  0.858320  0.225070  0.261230  1.0  0.8862
  Zn  Zn37  1  0.842000  0.139650  0.301790  1.0  0.928
  Zn  Zn38  1  0.719010  0.341990  0.781880  1.0  0.8314
  Zn  Zn39  1  0.792400  0.164700  0.293300  1.0  0.8172
  Zn  Zn40  1  0.889500  0.191600  0.278600  1.0  0.856
  Zn  Zn41  1  0.774930  0.633250  0.261230  1.0  0.8778
  Zn  Zn42  1  0.860350  0.702350  0.301790  1.0  0.9271
  Zn  Zn43  1  0.658010  0.377020  0.781880  1.0  0.8276
  Zn  Zn44  1  0.835300  0.627700  0.293300  1.0  0.817
  Zn  Zn45  1  0.808400  0.697900  0.278600  1.0  0.85
  Zn  Zn46  1  0.858320  0.633250  0.238770  1.0  0.8795
  Zn  Zn47  1  0.842000  0.702350  0.198210  1.0  0.9312
  Zn  Zn48  1  0.719010  0.377020  0.718120  1.0  0.8263
  Zn  Zn49  1  0.792400  0.627700  0.206700  1.0  0.8195
  Zn  Zn50  1  0.889500  0.697900  0.221400  1.0  0.857
  Zn  Zn51  1  0.774930  0.141680  0.238770  1.0  0.8747
  Zn  Zn52  1  0.860350  0.158000  0.198210  1.0  0.9311
  Zn  Zn53  1  0.658010  0.280990  0.718120  1.0  0.8282
  Zn  Zn54  1  0.835300  0.207600  0.206700  1.0  0.8212
  Zn  Zn55  1  0.808400  0.110500  0.221400  1.0  0.8565
  Zn  Zn56  1  0.366750  0.225070  0.238770  1.0  0.8861
  Zn  Zn57  1  0.297650  0.139650  0.198210  1.0  0.9294
  Zn  Zn58  1  0.622980  0.341990  0.718120  1.0  0.8321
  Zn  Zn59  1  0.372300  0.164700  0.206700  1.0  0.819
  Zn  Zn60  1  0.302100  0.191600  0.221400  1.0  0.8555
  Zn  Zn61  1  0.333333  0.666667  0.306400  1.0  0.857
  Zn  Zn62  1  0.333333  0.666667  0.193600  1.0  0.8607
  Zn  Zn63  1  0.666667  0.333333  0.693600  1.0  0.8607
  Zn  Zn64  1  0.666667  0.333333  0.806400  1.0  0.857
  H  H65  1  0.663000  0.947500  0.455800  1.0  0.1582
  H  H66  1  0.556600  0.838200  0.459500  1.0  0.1477
  H  H67  1  0.587000  0.909300  0.350200  1.0  0.1422
  H  H68  1  0.686400  0.006000  0.428900  1.0  0.1701
  H  H69  1  0.641900  0.949300  0.311900  1.0  0.1637
  H  H70  1  0.558200  0.847300  0.534200  1.0  0.1672
  H  H71  1  0.678900  0.921400  0.505500  1.0  0.1737
  H  H72  1  0.516100  0.874500  0.340200  1.0  0.1271
  H  H73  1  0.520800  0.786300  0.412500  1.0  0.124
  H  H74  1  0.430300  0.756000  0.706000  1.0  0.1696
  H  H75  1  0.903100  0.902500  0.721500  1.0  0.163
  H  H76  1  0.486700  0.816500  0.433600  1.0  0.1288
  H  H77  1  0.549800  0.845300  0.318700  1.0  0.1259
  H  H78  1  0.052500  0.715500  0.455800  1.0  0.1586
  H  H79  1  0.161800  0.718400  0.459500  1.0  0.147
  H  H80  1  0.090700  0.677700  0.350200  1.0  0.1429
  H  H81  1  0.994000  0.680400  0.428900  1.0  0.1702
  H  H82  1  0.050700  0.692600  0.311900  1.0  0.1641
  H  H83  1  0.152700  0.710900  0.534200  1.0  0.1669
  H  H84  1  0.078600  0.757500  0.505500  1.0  0.1736
  H  H85  1  0.125500  0.641600  0.340200  1.0  0.1243
  H  H86  1  0.213700  0.734500  0.412500  1.0  0.1254
  H  H87  1  0.244000  0.674300  0.706000  1.0  0.1689
  H  H88  1  0.097500  0.000600  0.721500  1.0  0.1623
  H  H89  1  0.183500  0.670200  0.433600  1.0  0.127
  H  H90  1  0.154700  0.704500  0.318700  1.0  0.1241
  H  H91  1  0.284500  0.337000  0.455800  1.0  0.1588
  H  H92  1  0.281600  0.443400  0.459500  1.0  0.1478
  H  H93  1  0.322300  0.413000  0.350200  1.0  0.1423
  H  H94  1  0.319600  0.313600  0.428900  1.0  0.1702
  H  H95  1  0.307400  0.358100  0.311900  1.0  0.1647
  H  H96  1  0.289100  0.441800  0.534200  1.0  0.1657
  H  H97  1  0.242500  0.321100  0.505500  1.0  0.1736
  H  H98  1  0.358400  0.483900  0.340200  1.0  0.1239
  H  H99  1  0.265500  0.479200  0.412500  1.0  0.1232
  H  H100  1  0.325700  0.569700  0.706000  1.0  0.1691
  H  H101  1  0.999400  0.096900  0.721500  1.0  0.1622
  H  H102  1  0.329800  0.513300  0.433600  1.0  0.1272
  H  H103  1  0.295500  0.450200  0.318700  1.0  0.1217
  H  H104  1  0.052500  0.337000  0.044200  1.0  0.1581
  H  H105  1  0.161800  0.443400  0.040500  1.0  0.148
  H  H106  1  0.090700  0.413000  0.149800  1.0  0.1412
  H  H107  1  0.994000  0.313600  0.071100  1.0  0.1698
  H  H108  1  0.050700  0.358100  0.188100  1.0  0.1649
  H  H109  1  0.152700  0.441800  0.965800  1.0  0.1658
  H  H110  1  0.078600  0.321100  0.994500  1.0  0.172
  H  H111  1  0.125500  0.483900  0.159800  1.0  0.128
  H  H112  1  0.213700  0.479200  0.087500  1.0  0.1239
  H  H113  1  0.244000  0.569700  0.794000  1.0  0.1704
  H  H114  1  0.097500  0.096900  0.778500  1.0  0.1625
  H  H115  1  0.183500  0.513300  0.066400  1.0  0.127
  H  H116  1  0.154700  0.450200  0.181300  1.0  0.1235
  H  H117  1  0.284500  0.947500  0.044200  1.0  0.1587
  H  H118  1  0.281600  0.838200  0.040500  1.0  0.1478
  H  H119  1  0.322300  0.909300  0.149800  1.0  0.1414
  H  H120  1  0.319600  0.006000  0.071100  1.0  0.1698
  H  H121  1  0.307400  0.949300  0.188100  1.0  0.1642
  H  H122  1  0.289100  0.847300  0.965800  1.0  0.1668
  H  H123  1  0.242500  0.921400  0.994500  1.0  0.173
  H  H124  1  0.358400  0.874500  0.159800  1.0  0.1262
  H  H125  1  0.265500  0.786300  0.087500  1.0  0.1239
  H  H126  1  0.325700  0.756000  0.794000  1.0  0.1697
  H  H127  1  0.999400  0.902500  0.778500  1.0  0.1629
  H  H128  1  0.329800  0.816500  0.066400  1.0  0.1299
  H  H129  1  0.295500  0.845300  0.181300  1.0  0.125
  H  H130  1  0.663000  0.715500  0.044200  1.0  0.159
  H  H131  1  0.556600  0.718400  0.040500  1.0  0.1487
  H  H132  1  0.587000  0.677700  0.149800  1.0  0.1419
  H  H133  1  0.686400  0.680400  0.071100  1.0  0.1701
  H  H134  1  0.641900  0.692600  0.188100  1.0  0.1648
  H  H135  1  0.558200  0.710900  0.965800  1.0  0.1669
  H  H136  1  0.678900  0.757500  0.994500  1.0  0.1735
  H  H137  1  0.516100  0.641600  0.159800  1.0  0.1282
  H  H138  1  0.520800  0.734500  0.087500  1.0  0.1261
  H  H139  1  0.430300  0.674300  0.794000  1.0  0.1698
  H  H140  1  0.903100  0.000600  0.778500  1.0  0.1635
  H  H141  1  0.486700  0.670200  0.066400  1.0  0.1283
  H  H142  1  0.549800  0.704500  0.181300  1.0  0.1261
  H  H143  1  0.337000  0.052500  0.544200  1.0  0.1583
  H  H144  1  0.443400  0.161800  0.540500  1.0  0.1475
  H  H145  1  0.413000  0.090700  0.649800  1.0  0.1411
  H  H146  1  0.313600  0.994000  0.571100  1.0  0.1699
  H  H147  1  0.358100  0.050700  0.688100  1.0  0.1638
  H  H148  1  0.441800  0.152700  0.465800  1.0  0.1672
  H  H149  1  0.321100  0.078600  0.494500  1.0  0.1735
  H  H150  1  0.483900  0.125500  0.659800  1.0  0.1282
  H  H151  1  0.479200  0.213700  0.587500  1.0  0.1249
  H  H152  1  0.569700  0.244000  0.294000  1.0  0.17
  H  H153  1  0.096900  0.097500  0.278500  1.0  0.1629
  H  H154  1  0.513300  0.183500  0.566400  1.0  0.1304
  H  H155  1  0.450200  0.154700  0.681300  1.0  0.1247
  H  H156  1  0.947500  0.284500  0.544200  1.0  0.1586
  H  H157  1  0.838200  0.281600  0.540500  1.0  0.1486
  H  H158  1  0.909300  0.322300  0.649800  1.0  0.1416
  H  H159  1  0.006000  0.319600  0.571100  1.0  0.1702
  H  H160  1  0.949300  0.307400  0.688100  1.0  0.1649
  H  H161  1  0.847300  0.289100  0.465800  1.0  0.1668
  H  H162  1  0.921400  0.242500  0.494500  1.0  0.1736
  H  H163  1  0.874500  0.358400  0.659800  1.0  0.1271
  H  H164  1  0.786300  0.265500  0.587500  1.0  0.1225
  H  H165  1  0.756000  0.325700  0.294000  1.0  0.1696
  H  H166  1  0.902500  0.999400  0.278500  1.0  0.163
  H  H167  1  0.816500  0.329800  0.566400  1.0  0.1275
  H  H168  1  0.845300  0.295500  0.681300  1.0  0.1264
  H  H169  1  0.715500  0.663000  0.544200  1.0  0.1583
  H  H170  1  0.718400  0.556600  0.540500  1.0  0.1478
  H  H171  1  0.677700  0.587000  0.649800  1.0  0.1414
  H  H172  1  0.680400  0.686400  0.571100  1.0  0.1699
  H  H173  1  0.692600  0.641900  0.688100  1.0  0.1652
  H  H174  1  0.710900  0.558200  0.465800  1.0  0.1662
  H  H175  1  0.757500  0.678900  0.494500  1.0  0.1737
  H  H176  1  0.641600  0.516100  0.659800  1.0  0.1257
  H  H177  1  0.734500  0.520800  0.587500  1.0  0.1249
  H  H178  1  0.674300  0.430300  0.294000  1.0  0.1707
  H  H179  1  0.000600  0.903100  0.278500  1.0  0.1628
  H  H180  1  0.670200  0.486700  0.566400  1.0  0.1284
  H  H181  1  0.704500  0.549800  0.681300  1.0  0.1242
  H  H182  1  0.947500  0.663000  0.955800  1.0  0.1587
  H  H183  1  0.838200  0.556600  0.959500  1.0  0.1482
  H  H184  1  0.909300  0.587000  0.850200  1.0  0.1425
  H  H185  1  0.006000  0.686400  0.928900  1.0  0.1697
  H  H186  1  0.949300  0.641900  0.811900  1.0  0.1644
  H  H187  1  0.847300  0.558200  0.034200  1.0  0.1663
  H  H188  1  0.921400  0.678900  0.005500  1.0  0.1719
  H  H189  1  0.874500  0.516100  0.840200  1.0  0.121
  H  H190  1  0.786300  0.520800  0.912500  1.0  0.1237
  H  H191  1  0.756000  0.430300  0.206000  1.0  0.1692
  H  H192  1  0.902500  0.903100  0.221500  1.0  0.1622
  H  H193  1  0.816500  0.486700  0.933600  1.0  0.1268
  H  H194  1  0.845300  0.549800  0.818700  1.0  0.1251
  H  H195  1  0.715500  0.052500  0.955800  1.0  0.1583
  H  H196  1  0.718400  0.161800  0.959500  1.0  0.1473
  H  H197  1  0.677700  0.090700  0.850200  1.0  0.1427
  H  H198  1  0.680400  0.994000  0.928900  1.0  0.1698
  H  H199  1  0.692600  0.050700  0.811900  1.0  0.1634
  H  H200  1  0.710900  0.152700  0.034200  1.0  0.1671
  H  H201  1  0.757500  0.078600  0.005500  1.0  0.1731
  H  H202  1  0.641600  0.125500  0.840200  1.0  0.1226
  H  H203  1  0.734500  0.213700  0.912500  1.0  0.1244
  H  H204  1  0.674300  0.244000  0.206000  1.0  0.1695
  H  H205  1  0.000600  0.097500  0.221500  1.0  0.163
  H  H206  1  0.670200  0.183500  0.933600  1.0  0.128
  H  H207  1  0.704500  0.154700  0.818700  1.0  0.1247
  H  H208  1  0.337000  0.284500  0.955800  1.0  0.1589
  H  H209  1  0.443400  0.281600  0.959500  1.0  0.1474
  H  H210  1  0.413000  0.322300  0.850200  1.0  0.1425
  H  H211  1  0.313600  0.319600  0.928900  1.0  0.1699
  H  H212  1  0.358100  0.307400  0.811900  1.0  0.164
  H  H213  1  0.441800  0.289100  0.034200  1.0  0.167
  H  H214  1  0.321100  0.242500  0.005500  1.0  0.1725
  H  H215  1  0.483900  0.358400  0.840200  1.0  0.1276
  H  H216  1  0.479200  0.265500  0.912500  1.0  0.1247
  H  H217  1  0.569700  0.325700  0.206000  1.0  0.1693
  H  H218  1  0.096900  0.999400  0.221500  1.0  0.1631
  H  H219  1  0.513300  0.329800  0.933600  1.0  0.1268
  H  H220  1  0.450200  0.295500  0.818700  1.0  0.1242
  H  H221  1  0.369000  0.738000  0.750000  1.0  0.1563
  H  H222  1  0.262000  0.631000  0.750000  1.0  0.1593
  H  H223  1  0.369000  0.631000  0.750000  1.0  0.1597
  H  H224  1  0.631000  0.262000  0.250000  1.0  0.1576
  H  H225  1  0.738000  0.369000  0.250000  1.0  0.1599
  H  H226  1  0.631000  0.369000  0.250000  1.0  0.1592
  H  H227  1  0.966350  0.932700  0.750000  1.0  0.1425
  H  H228  1  0.067300  0.033650  0.750000  1.0  0.1464
  H  H229  1  0.966350  0.033650  0.750000  1.0  0.1466
  H  H230  1  0.033650  0.067300  0.250000  1.0  0.1428
  H  H231  1  0.932700  0.966350  0.250000  1.0  0.1459
  H  H232  1  0.033650  0.966350  0.250000  1.0  0.1463
  C  C233  1  0.629600  0.934400  0.399200  1.0  0.0611
  C  C234  1  0.638700  0.927800  0.442200  1.0  -0.052
  C  C235  1  0.611300  0.891800  0.464700  1.0  0.004
  C  C236  1  0.574900  0.862300  0.444400  1.0  -0.1256
  C  C237  1  0.565800  0.868900  0.401400  1.0  0.0785
  C  C238  1  0.593100  0.904900  0.378900  1.0  -0.0709
  C  C239  1  0.659500  0.971700  0.374000  1.0  0.0755
  C  C240  1  0.686900  0.006600  0.398000  1.0  -0.094
  C  C241  1  0.715200  0.042600  0.376000  1.0  0.3862
  C  C242  1  0.716000  0.043600  0.329900  1.0  0.0189
  C  C243  1  0.688600  0.008600  0.305900  1.0  0.4049
  C  C244  1  0.660300  0.972700  0.327900  1.0  -0.0944
  C  C245  1  0.616800  0.885400  0.512800  1.0  0.0587
  C  C246  1  0.586000  0.860200  0.542700  1.0  -0.0693
  C  C247  1  0.596500  0.854300  0.585200  1.0  0.3457
  C  C248  1  0.637900  0.873500  0.597800  1.0  0.0524
  C  C249  1  0.668800  0.898700  0.568000  1.0  0.3839
  C  C250  1  0.658300  0.904600  0.525500  1.0  -0.0733
  C  C251  1  0.524300  0.835400  0.379900  1.0  0.2105
  C  C252  1  0.505300  0.846700  0.347500  1.0  0.0223
  C  C253  1  0.470100  0.816400  0.325800  1.0  0.1744
  C  C254  1  0.454000  0.774800  0.336700  1.0  0.2339
  C  C255  1  0.473000  0.763500  0.369200  1.0  0.1427
  C  C256  1  0.508100  0.793800  0.390800  1.0  0.0289
  C  C257  1  0.750900  0.080700  0.307600  1.0  0.1263
  C  C258  1  0.645300  0.860400  0.642300  1.0  0.1534
  C  C259  1  0.418400  0.741400  0.311100  1.0  0.0865
  C  C260  1  0.444720  0.746900  0.723500  1.0  -0.0531
  C  C261  1  0.488240  0.768500  0.723400  1.0  0.3343
  C  C262  1  0.888600  0.914810  0.732900  1.0  -0.055
  C  C263  1  0.845090  0.893040  0.732900  1.0  0.288
  C  C264  1  0.487700  0.811800  0.403500  1.0  0.0209
  C  C265  1  0.452800  0.781000  0.382000  1.0  0.1587
  C  C266  1  0.491000  0.797300  0.313500  1.0  0.1377
  C  C267  1  0.525700  0.828700  0.334700  1.0  0.0391
  C  C268  1  0.065600  0.695200  0.399200  1.0  0.0604
  C  C269  1  0.072200  0.710900  0.442200  1.0  -0.0529
  C  C270  1  0.108200  0.719500  0.464700  1.0  0.0041
  C  C271  1  0.137700  0.712600  0.444400  1.0  -0.1248
  C  C272  1  0.131100  0.696900  0.401400  1.0  0.0804
  C  C273  1  0.095100  0.688200  0.378900  1.0  -0.068
  C  C274  1  0.028300  0.687800  0.374000  1.0  0.0729
  C  C275  1  0.993400  0.680300  0.398000  1.0  -0.0932
  C  C276  1  0.957400  0.672600  0.376000  1.0  0.3876
  C  C277  1  0.956400  0.672400  0.329900  1.0  0.0193
  C  C278  1  0.991400  0.680000  0.305900  1.0  0.4041
  C  C279  1  0.027300  0.687600  0.327900  1.0  -0.0965
  C  C280  1  0.114600  0.731400  0.512800  1.0  0.0593
  C  C281  1  0.139800  0.725800  0.542700  1.0  -0.0713
  C  C282  1  0.145700  0.742200  0.585200  1.0  0.3479
  C  C283  1  0.126500  0.764400  0.597800  1.0  0.0505
  C  C284  1  0.101300  0.770100  0.568000  1.0  0.385
  C  C285  1  0.095400  0.753700  0.525500  1.0  -0.0741
  C  C286  1  0.164600  0.688900  0.379900  1.0  0.2076
  C  C287  1  0.153300  0.658600  0.347500  1.0  0.0212
  C  C288  1  0.183600  0.653700  0.325800  1.0  0.174
  C  C289  1  0.225200  0.679200  0.336700  1.0  0.2359
  C  C290  1  0.236500  0.709500  0.369200  1.0  0.1349
  C  C291  1  0.206200  0.714300  0.390800  1.0  0.0305
  C  C292  1  0.919300  0.670200  0.307600  1.0  0.1226
  C  C293  1  0.139600  0.784900  0.642300  1.0  0.1532
  C  C294  1  0.258600  0.677000  0.311100  1.0  0.0838
  C  C295  1  0.253100  0.697820  0.723500  1.0  -0.0501
  C  C296  1  0.231500  0.719740  0.723400  1.0  0.3371
  C  C297  1  0.085190  0.973790  0.732900  1.0  -0.0532
  C  C298  1  0.106960  0.952050  0.732900  1.0  0.2898
  C  C299  1  0.188200  0.675900  0.403500  1.0  0.0198
  C  C300  1  0.219000  0.671800  0.382000  1.0  0.1565
  C  C301  1  0.202700  0.693700  0.313500  1.0  0.1352
  C  C302  1  0.171300  0.697000  0.334700  1.0  0.0343
  C  C303  1  0.304800  0.370400  0.399200  1.0  0.0605
  C  C304  1  0.289100  0.361300  0.442200  1.0  -0.0501
  C  C305  1  0.280500  0.388700  0.464700  1.0  0.0057
  C  C306  1  0.287400  0.425100  0.444400  1.0  -0.1252
  C  C307  1  0.303100  0.434200  0.401400  1.0  0.0798
  C  C308  1  0.311800  0.406900  0.378900  1.0  -0.0704
  C  C309  1  0.312200  0.340500  0.374000  1.0  0.0738
  C  C310  1  0.319700  0.313100  0.398000  1.0  -0.0932
  C  C311  1  0.327400  0.284800  0.376000  1.0  0.3878
  C  C312  1  0.327600  0.284000  0.329900  1.0  0.0197
  C  C313  1  0.320000  0.311400  0.305900  1.0  0.4036
  C  C314  1  0.312400  0.339700  0.327900  1.0  -0.096
  C  C315  1  0.268600  0.383200  0.512800  1.0  0.059
  C  C316  1  0.274200  0.414000  0.542700  1.0  -0.0686
  C  C317  1  0.257800  0.403500  0.585200  1.0  0.3468
  C  C318  1  0.235600  0.362100  0.597800  1.0  0.0519
  C  C319  1  0.229900  0.331200  0.568000  1.0  0.3855
  C  C320  1  0.246300  0.341700  0.525500  1.0  -0.0742
  C  C321  1  0.311100  0.475700  0.379900  1.0  0.2123
  C  C322  1  0.341400  0.494700  0.347500  1.0  0.022
  C  C323  1  0.346300  0.529900  0.325800  1.0  0.1726
  C  C324  1  0.320800  0.546000  0.336700  1.0  0.2375
  C  C325  1  0.290500  0.527000  0.369200  1.0  0.1363
  C  C326  1  0.285700  0.491900  0.390800  1.0  0.0252
  C  C327  1  0.329800  0.249100  0.307600  1.0  0.1247
  C  C328  1  0.215100  0.354700  0.642300  1.0  0.1538
  C  C329  1  0.323000  0.581600  0.311100  1.0  0.0876
  C  C330  1  0.302180  0.555280  0.723500  1.0  -0.0502
  C  C331  1  0.280260  0.511760  0.723400  1.0  0.3356
  C  C332  1  0.026210  0.111400  0.732900  1.0  -0.0528
  C  C333  1  0.047950  0.154910  0.732900  1.0  0.2899
  C  C334  1  0.324100  0.512300  0.403500  1.0  0.0193
  C  C335  1  0.328200  0.547200  0.382000  1.0  0.1584
  C  C336  1  0.306300  0.509000  0.313500  1.0  0.1313
  C  C337  1  0.303000  0.474300  0.334700  1.0  0.0344
  C  C338  1  0.065600  0.370400  0.100800  1.0  0.0602
  C  C339  1  0.072200  0.361300  0.057800  1.0  -0.0518
  C  C340  1  0.108200  0.388700  0.035300  1.0  0.0065
  C  C341  1  0.137700  0.425100  0.055600  1.0  -0.1252
  C  C342  1  0.131100  0.434200  0.098600  1.0  0.0799
  C  C343  1  0.095100  0.406900  0.121100  1.0  -0.0708
  C  C344  1  0.028300  0.340500  0.126000  1.0  0.0733
  C  C345  1  0.993400  0.313100  0.102000  1.0  -0.0942
  C  C346  1  0.957400  0.284800  0.124000  1.0  0.3855
  C  C347  1  0.956400  0.284000  0.170100  1.0  0.0201
  C  C348  1  0.991400  0.311400  0.194100  1.0  0.4072
  C  C349  1  0.027300  0.339700  0.172100  1.0  -0.0939
  C  C350  1  0.114600  0.383200  0.987200  1.0  0.0592
  C  C351  1  0.139800  0.414000  0.957300  1.0  -0.0701
  C  C352  1  0.145700  0.403500  0.914800  1.0  0.3469
  C  C353  1  0.126500  0.362100  0.902200  1.0  0.0496
  C  C354  1  0.101300  0.331200  0.932000  1.0  0.3854
  C  C355  1  0.095400  0.341700  0.974500  1.0  -0.0734
  C  C356  1  0.164600  0.475700  0.120100  1.0  0.2093
  C  C357  1  0.153300  0.494700  0.152500  1.0  0.0247
  C  C358  1  0.183600  0.529900  0.174200  1.0  0.168
  C  C359  1  0.225200  0.546000  0.163300  1.0  0.2374
  C  C360  1  0.236500  0.527000  0.130800  1.0  0.1419
  C  C361  1  0.206200  0.491900  0.109200  1.0  0.0251
  C  C362  1  0.919300  0.249100  0.192400  1.0  0.1236
  C  C363  1  0.139600  0.354700  0.857700  1.0  0.1467
  C  C364  1  0.258600  0.581600  0.188900  1.0  0.0889
  C  C365  1  0.253100  0.555280  0.776500  1.0  -0.05
  C  C366  1  0.231500  0.511760  0.776600  1.0  0.3339
  C  C367  1  0.085190  0.111400  0.767100  1.0  -0.0509
  C  C368  1  0.106960  0.154910  0.767100  1.0  0.2893
  C  C369  1  0.188200  0.512300  0.096500  1.0  0.0208
  C  C370  1  0.219000  0.547200  0.118000  1.0  0.1643
  C  C371  1  0.202700  0.509000  0.186500  1.0  0.1296
  C  C372  1  0.171300  0.474300  0.165300  1.0  0.0358
  C  C373  1  0.304800  0.934400  0.100800  1.0  0.06
  C  C374  1  0.289100  0.927800  0.057800  1.0  -0.052
  C  C375  1  0.280500  0.891800  0.035300  1.0  0.0044
  C  C376  1  0.287400  0.862300  0.055600  1.0  -0.1235
  C  C377  1  0.303100  0.868900  0.098600  1.0  0.0798
  C  C378  1  0.311800  0.904900  0.121100  1.0  -0.0703
  C  C379  1  0.312200  0.971700  0.126000  1.0  0.0751
  C  C380  1  0.319700  0.006600  0.102000  1.0  -0.0963
  C  C381  1  0.327400  0.042600  0.124000  1.0  0.3849
  C  C382  1  0.327600  0.043600  0.170100  1.0  0.0195
  C  C383  1  0.320000  0.008600  0.194100  1.0  0.4061
  C  C384  1  0.312400  0.972700  0.172100  1.0  -0.092
  C  C385  1  0.268600  0.885400  0.987200  1.0  0.06
  C  C386  1  0.274200  0.860200  0.957300  1.0  -0.0711
  C  C387  1  0.257800  0.854300  0.914800  1.0  0.3466
  C  C388  1  0.235600  0.873500  0.902200  1.0  0.0515
  C  C389  1  0.229900  0.898700  0.932000  1.0  0.3842
  C  C390  1  0.246300  0.904600  0.974500  1.0  -0.0729
  C  C391  1  0.311100  0.835400  0.120100  1.0  0.2103
  C  C392  1  0.341400  0.846700  0.152500  1.0  0.0223
  C  C393  1  0.346300  0.816400  0.174200  1.0  0.1722
  C  C394  1  0.320800  0.774800  0.163300  1.0  0.2349
  C  C395  1  0.290500  0.763500  0.130800  1.0  0.1342
  C  C396  1  0.285700  0.793800  0.109200  1.0  0.0275
  C  C397  1  0.329800  0.080700  0.192400  1.0  0.1252
  C  C398  1  0.215100  0.860400  0.857700  1.0  0.1489
  C  C399  1  0.323000  0.741400  0.188900  1.0  0.0856
  C  C400  1  0.302180  0.746900  0.776500  1.0  -0.0511
  C  C401  1  0.280260  0.768500  0.776600  1.0  0.3325
  C  C402  1  0.026210  0.914810  0.767100  1.0  -0.0539
  C  C403  1  0.047950  0.893040  0.767100  1.0  0.2899
  C  C404  1  0.324100  0.811800  0.096500  1.0  0.022
  C  C405  1  0.328200  0.781000  0.118000  1.0  0.165
  C  C406  1  0.306300  0.797300  0.186500  1.0  0.1257
  C  C407  1  0.303000  0.828700  0.165300  1.0  0.0401
  C  C408  1  0.629600  0.695200  0.100800  1.0  0.0598
  C  C409  1  0.638700  0.710900  0.057800  1.0  -0.0515
  C  C410  1  0.611300  0.719500  0.035300  1.0  0.0049
  C  C411  1  0.574900  0.712600  0.055600  1.0  -0.1239
  C  C412  1  0.565800  0.696900  0.098600  1.0  0.0797
  C  C413  1  0.593100  0.688200  0.121100  1.0  -0.0683
  C  C414  1  0.659500  0.687800  0.126000  1.0  0.0733
  C  C415  1  0.686900  0.680300  0.102000  1.0  -0.0946
  C  C416  1  0.715200  0.672600  0.124000  1.0  0.3857
  C  C417  1  0.716000  0.672400  0.170100  1.0  0.0187
  C  C418  1  0.688600  0.680000  0.194100  1.0  0.4047
  C  C419  1  0.660300  0.687600  0.172100  1.0  -0.0946
  C  C420  1  0.616800  0.731400  0.987200  1.0  0.0603
  C  C421  1  0.586000  0.725800  0.957300  1.0  -0.0711
  C  C422  1  0.596500  0.742200  0.914800  1.0  0.3465
  C  C423  1  0.637900  0.764400  0.902200  1.0  0.0507
  C  C424  1  0.668800  0.770100  0.932000  1.0  0.3844
  C  C425  1  0.658300  0.753700  0.974500  1.0  -0.074
  C  C426  1  0.524300  0.688900  0.120100  1.0  0.2135
  C  C427  1  0.505300  0.658600  0.152500  1.0  0.0217
  C  C428  1  0.470100  0.653700  0.174200  1.0  0.1717
  C  C429  1  0.454000  0.679200  0.163300  1.0  0.2325
  C  C430  1  0.473000  0.709500  0.130800  1.0  0.1308
  C  C431  1  0.508100  0.714300  0.109200  1.0  0.0345
  C  C432  1  0.750900  0.670200  0.192400  1.0  0.1251
  C  C433  1  0.645300  0.784900  0.857700  1.0  0.1481
  C  C434  1  0.418400  0.677000  0.188900  1.0  0.0871
  C  C435  1  0.444720  0.697820  0.776500  1.0  -0.0495
  C  C436  1  0.488240  0.719740  0.776600  1.0  0.3347
  C  C437  1  0.888600  0.973790  0.767100  1.0  -0.0528
  C  C438  1  0.845090  0.952050  0.767100  1.0  0.2887
  C  C439  1  0.487700  0.675900  0.096500  1.0  0.0198
  C  C440  1  0.452800  0.671800  0.118000  1.0  0.1632
  C  C441  1  0.491000  0.693700  0.186500  1.0  0.1297
  C  C442  1  0.525700  0.697000  0.165300  1.0  0.0354
  C  C443  1  0.370400  0.065600  0.600800  1.0  0.0595
  C  C444  1  0.361300  0.072200  0.557800  1.0  -0.0517
  C  C445  1  0.388700  0.108200  0.535300  1.0  0.0044
  C  C446  1  0.425100  0.137700  0.555600  1.0  -0.1232
  C  C447  1  0.434200  0.131100  0.598600  1.0  0.0791
  C  C448  1  0.406900  0.095100  0.621100  1.0  -0.0706
  C  C449  1  0.340500  0.028300  0.626000  1.0  0.0748
  C  C450  1  0.313100  0.993400  0.602000  1.0  -0.0958
  C  C451  1  0.284800  0.957400  0.624000  1.0  0.3833
  C  C452  1  0.284000  0.956400  0.670100  1.0  0.0196
  C  C453  1  0.311400  0.991400  0.694100  1.0  0.4072
  C  C454  1  0.339700  0.027300  0.672100  1.0  -0.0928
  C  C455  1  0.383200  0.114600  0.487200  1.0  0.0598
  C  C456  1  0.414000  0.139800  0.457300  1.0  -0.0718
  C  C457  1  0.403500  0.145700  0.414800  1.0  0.3462
  C  C458  1  0.362100  0.126500  0.402200  1.0  0.0513
  C  C459  1  0.331200  0.101300  0.432000  1.0  0.3849
  C  C460  1  0.341700  0.095400  0.474500  1.0  -0.0723
  C  C461  1  0.475700  0.164600  0.620100  1.0  0.2125
  C  C462  1  0.494700  0.153300  0.652500  1.0  0.0221
  C  C463  1  0.529900  0.183600  0.674200  1.0  0.173
  C  C464  1  0.546000  0.225200  0.663300  1.0  0.2358
  C  C465  1  0.527000  0.236500  0.630800  1.0  0.1329
  C  C466  1  0.491900  0.206200  0.609200  1.0  0.0332
  C  C467  1  0.249100  0.919300  0.692400  1.0  0.1234
  C  C468  1  0.354700  0.139600  0.357700  1.0  0.1485
  C  C469  1  0.581600  0.258600  0.688900  1.0  0.0872
  C  C470  1  0.555280  0.253100  0.276500  1.0  -0.051
  C  C471  1  0.511760  0.231500  0.276600  1.0  0.3345
  C  C472  1  0.111400  0.085190  0.267100  1.0  -0.0551
  C  C473  1  0.154910  0.106960  0.267100  1.0  0.2873
  C  C474  1  0.512300  0.188200  0.596500  1.0  0.0215
  C  C475  1  0.547200  0.219000  0.618000  1.0  0.1648
  C  C476  1  0.509000  0.202700  0.686500  1.0  0.1275
  C  C477  1  0.474300  0.171300  0.665300  1.0  0.0399
  C  C478  1  0.934400  0.304800  0.600800  1.0  0.0598
  C  C479  1  0.927800  0.289100  0.557800  1.0  -0.0516
  C  C480  1  0.891800  0.280500  0.535300  1.0  0.0047
  C  C481  1  0.862300  0.287400  0.555600  1.0  -0.1239
  C  C482  1  0.868900  0.303100  0.598600  1.0  0.0798
  C  C483  1  0.904900  0.311800  0.621100  1.0  -0.0689
  C  C484  1  0.971700  0.312200  0.626000  1.0  0.0727
  C  C485  1  0.006600  0.319700  0.602000  1.0  -0.0951
  C  C486  1  0.042600  0.327400  0.624000  1.0  0.3859
  C  C487  1  0.043600  0.327600  0.670100  1.0  0.0188
  C  C488  1  0.008600  0.320000  0.694100  1.0  0.4045
  C  C489  1  0.972700  0.312400  0.672100  1.0  -0.0949
  C  C490  1  0.885400  0.268600  0.487200  1.0  0.0607
  C  C491  1  0.860200  0.274200  0.457300  1.0  -0.072
  C  C492  1  0.854300  0.257800  0.414800  1.0  0.3465
  C  C493  1  0.873500  0.235600  0.402200  1.0  0.0509
  C  C494  1  0.898700  0.229900  0.432000  1.0  0.3845
  C  C495  1  0.904600  0.246300  0.474500  1.0  -0.0735
  C  C496  1  0.835400  0.311100  0.620100  1.0  0.2132
  C  C497  1  0.846700  0.341400  0.652500  1.0  0.0232
  C  C498  1  0.816400  0.346300  0.674200  1.0  0.1699
  C  C499  1  0.774800  0.320800  0.663300  1.0  0.2323
  C  C500  1  0.763500  0.290500  0.630800  1.0  0.1365
  C  C501  1  0.793800  0.285700  0.609200  1.0  0.0307
  C  C502  1  0.080700  0.329800  0.692400  1.0  0.1248
  C  C503  1  0.860400  0.215100  0.357700  1.0  0.1469
  C  C504  1  0.741400  0.323000  0.688900  1.0  0.0863
  C  C505  1  0.746900  0.302180  0.276500  1.0  -0.0493
  C  C506  1  0.768500  0.280260  0.276600  1.0  0.3348
  C  C507  1  0.914810  0.026210  0.267100  1.0  -0.0512
  C  C508  1  0.893040  0.047950  0.267100  1.0  0.2876
  C  C509  1  0.811800  0.324100  0.596500  1.0  0.0234
  C  C510  1  0.781000  0.328200  0.618000  1.0  0.1633
  C  C511  1  0.797300  0.306300  0.686500  1.0  0.128
  C  C512  1  0.828700  0.303000  0.665300  1.0  0.0328
  C  C513  1  0.695200  0.629600  0.600800  1.0  0.0604
  C  C514  1  0.710900  0.638700  0.557800  1.0  -0.0519
  C  C515  1  0.719500  0.611300  0.535300  1.0  0.0065
  C  C516  1  0.712600  0.574900  0.555600  1.0  -0.1238
  C  C517  1  0.696900  0.565800  0.598600  1.0  0.0799
  C  C518  1  0.688200  0.593100  0.621100  1.0  -0.0709
  C  C519  1  0.687800  0.659500  0.626000  1.0  0.0744
  C  C520  1  0.680300  0.686900  0.602000  1.0  -0.0945
  C  C521  1  0.672600  0.715200  0.624000  1.0  0.3868
  C  C522  1  0.672400  0.716000  0.670100  1.0  0.0198
  C  C523  1  0.680000  0.688600  0.694100  1.0  0.406
  C  C524  1  0.687600  0.660300  0.672100  1.0  -0.0945
  C  C525  1  0.731400  0.616800  0.487200  1.0  0.0589
  C  C526  1  0.725800  0.586000  0.457300  1.0  -0.0696
  C  C527  1  0.742200  0.596500  0.414800  1.0  0.3477
  C  C528  1  0.764400  0.637900  0.402200  1.0  0.0499
  C  C529  1  0.770100  0.668800  0.432000  1.0  0.3844
  C  C530  1  0.753700  0.658300  0.474500  1.0  -0.0747
  C  C531  1  0.688900  0.524300  0.620100  1.0  0.2081
  C  C532  1  0.658600  0.505300  0.652500  1.0  0.024
  C  C533  1  0.653700  0.470100  0.674200  1.0  0.1658
  C  C534  1  0.679200  0.454000  0.663300  1.0  0.2368
  C  C535  1  0.709500  0.473000  0.630800  1.0  0.1422
  C  C536  1  0.714300  0.508100  0.609200  1.0  0.0281
  C  C537  1  0.670200  0.750900  0.692400  1.0  0.1246
  C  C538  1  0.784900  0.645300  0.357700  1.0  0.1471
  C  C539  1  0.677000  0.418400  0.688900  1.0  0.0882
  C  C540  1  0.697820  0.444720  0.276500  1.0  -0.0502
  C  C541  1  0.719740  0.488240  0.276600  1.0  0.3344
  C  C542  1  0.973790  0.888600  0.267100  1.0  -0.0519
  C  C543  1  0.952050  0.845090  0.267100  1.0  0.2902
  C  C544  1  0.675900  0.487700  0.596500  1.0  0.0177
  C  C545  1  0.671800  0.452800  0.618000  1.0  0.1652
  C  C546  1  0.693700  0.491000  0.686500  1.0  0.1291
  C  C547  1  0.697000  0.525700  0.665300  1.0  0.0361
  C  C548  1  0.934400  0.629600  0.899200  1.0  0.0606
  C  C549  1  0.927800  0.638700  0.942200  1.0  -0.0505
  C  C550  1  0.891800  0.611300  0.964700  1.0  0.0058
  C  C551  1  0.862300  0.574900  0.944400  1.0  -0.1249
  C  C552  1  0.868900  0.565800  0.901400  1.0  0.0784
  C  C553  1  0.904900  0.593100  0.878900  1.0  -0.0702
  C  C554  1  0.971700  0.659500  0.874000  1.0  0.0737
  C  C555  1  0.006600  0.686900  0.898000  1.0  -0.093
  C  C556  1  0.042600  0.715200  0.876000  1.0  0.3885
  C  C557  1  0.043600  0.716000  0.829900  1.0  0.0196
  C  C558  1  0.008600  0.688600  0.805900  1.0  0.4042
  C  C559  1  0.972700  0.660300  0.827900  1.0  -0.095
  C  C560  1  0.885400  0.616800  0.012800  1.0  0.0589
  C  C561  1  0.860200  0.586000  0.042700  1.0  -0.0689
  C  C562  1  0.854300  0.596500  0.085200  1.0  0.3471
  C  C563  1  0.873500  0.637900  0.097800  1.0  0.052
  C  C564  1  0.898700  0.668800  0.068000  1.0  0.3849
  C  C565  1  0.904600  0.658300  0.025500  1.0  -0.0745
  C  C566  1  0.835400  0.524300  0.879900  1.0  0.2106
  C  C567  1  0.846700  0.505300  0.847500  1.0  0.0223
  C  C568  1  0.816400  0.470100  0.825800  1.0  0.1707
  C  C569  1  0.774800  0.454000  0.836700  1.0  0.2372
  C  C570  1  0.763500  0.473000  0.869200  1.0  0.1366
  C  C571  1  0.793800  0.508100  0.890800  1.0  0.0256
  C  C572  1  0.080700  0.750900  0.807600  1.0  0.1258
  C  C573  1  0.860400  0.645300  0.142300  1.0  0.1535
  C  C574  1  0.741400  0.418400  0.811100  1.0  0.0864
  C  C575  1  0.746900  0.444720  0.223500  1.0  -0.0504
  C  C576  1  0.768500  0.488240  0.223400  1.0  0.335
  C  C577  1  0.914810  0.888600  0.232900  1.0  -0.0539
  C  C578  1  0.893040  0.845090  0.232900  1.0  0.2887
  C  C579  1  0.811800  0.487700  0.903500  1.0  0.0202
  C  C580  1  0.781000  0.452800  0.882000  1.0  0.1605
  C  C581  1  0.797300  0.491000  0.813500  1.0  0.135
  C  C582  1  0.828700  0.525700  0.834700  1.0  0.0373
  C  C583  1  0.695200  0.065600  0.899200  1.0  0.0606
  C  C584  1  0.710900  0.072200  0.942200  1.0  -0.0513
  C  C585  1  0.719500  0.108200  0.964700  1.0  0.004
  C  C586  1  0.712600  0.137700  0.944400  1.0  -0.1249
  C  C587  1  0.696900  0.131100  0.901400  1.0  0.0794
  C  C588  1  0.688200  0.095100  0.878900  1.0  -0.0709
  C  C589  1  0.687800  0.028300  0.874000  1.0  0.0754
  C  C590  1  0.680300  0.993400  0.898000  1.0  -0.0947
  C  C591  1  0.672600  0.957400  0.876000  1.0  0.3851
  C  C592  1  0.672400  0.956400  0.829900  1.0  0.0189
  C  C593  1  0.680000  0.991400  0.805900  1.0  0.4036
  C  C594  1  0.687600  0.027300  0.827900  1.0  -0.0953
  C  C595  1  0.731400  0.114600  0.012800  1.0  0.0585
  C  C596  1  0.725800  0.139800  0.042700  1.0  -0.0703
  C  C597  1  0.742200  0.145700  0.085200  1.0  0.3457
  C  C598  1  0.764400  0.126500  0.097800  1.0  0.0515
  C  C599  1  0.770100  0.101300  0.068000  1.0  0.3852
  C  C600  1  0.753700  0.095400  0.025500  1.0  -0.0727
  C  C601  1  0.688900  0.164600  0.879900  1.0  0.2134
  C  C602  1  0.658600  0.153300  0.847500  1.0  0.0183
  C  C603  1  0.653700  0.183600  0.825800  1.0  0.1704
  C  C604  1  0.679200  0.225200  0.836700  1.0  0.2354
  C  C605  1  0.709500  0.236500  0.869200  1.0  0.1381
  C  C606  1  0.714300  0.206200  0.890800  1.0  0.0311
  C  C607  1  0.670200  0.919300  0.807600  1.0  0.1249
  C  C608  1  0.784900  0.139600  0.142300  1.0  0.1535
  C  C609  1  0.677000  0.258600  0.811100  1.0  0.0881
  C  C610  1  0.697820  0.253100  0.223500  1.0  -0.0528
  C  C611  1  0.719740  0.231500  0.223400  1.0  0.3337
  C  C612  1  0.973790  0.085190  0.232900  1.0  -0.0548
  C  C613  1  0.952050  0.106960  0.232900  1.0  0.2897
  C  C614  1  0.675900  0.188200  0.903500  1.0  0.0214
  C  C615  1  0.671800  0.219000  0.882000  1.0  0.1592
  C  C616  1  0.693700  0.202700  0.813500  1.0  0.1398
  C  C617  1  0.697000  0.171300  0.834700  1.0  0.0396
  C  C618  1  0.370400  0.304800  0.899200  1.0  0.0603
  C  C619  1  0.361300  0.289100  0.942200  1.0  -0.0531
  C  C620  1  0.388700  0.280500  0.964700  1.0  0.0038
  C  C621  1  0.425100  0.287400  0.944400  1.0  -0.1254
  C  C622  1  0.434200  0.303100  0.901400  1.0  0.0805
  C  C623  1  0.406900  0.311800  0.878900  1.0  -0.0682
  C  C624  1  0.340500  0.312200  0.874000  1.0  0.0735
  C  C625  1  0.313100  0.319700  0.898000  1.0  -0.0935
  C  C626  1  0.284800  0.327400  0.876000  1.0  0.3871
  C  C627  1  0.284000  0.327600  0.829900  1.0  0.0191
  C  C628  1  0.311400  0.320000  0.805900  1.0  0.4041
  C  C629  1  0.339700  0.312400  0.827900  1.0  -0.0968
  C  C630  1  0.383200  0.268600  0.012800  1.0  0.0596
  C  C631  1  0.414000  0.274200  0.042700  1.0  -0.0714
  C  C632  1  0.403500  0.257800  0.085200  1.0  0.3478
  C  C633  1  0.362100  0.235600  0.097800  1.0  0.0511
  C  C634  1  0.331200  0.229900  0.068000  1.0  0.3847
  C  C635  1  0.341700  0.246300  0.025500  1.0  -0.0744
  C  C636  1  0.475700  0.311100  0.879900  1.0  0.2088
  C  C637  1  0.494700  0.341400  0.847500  1.0  0.0226
  C  C638  1  0.529900  0.346300  0.825800  1.0  0.1721
  C  C639  1  0.546000  0.320800  0.836700  1.0  0.2357
  C  C640  1  0.527000  0.290500  0.869200  1.0  0.1409
  C  C641  1  0.491900  0.285700  0.890800  1.0  0.0294
  C  C642  1  0.249100  0.329800  0.807600  1.0  0.1227
  C  C643  1  0.354700  0.215100  0.142300  1.0  0.1536
  C  C644  1  0.581600  0.323000  0.811100  1.0  0.0834
  C  C645  1  0.555280  0.302180  0.223500  1.0  -0.0502
  C  C646  1  0.511760  0.280260  0.223400  1.0  0.3351
  C  C647  1  0.111400  0.026210  0.232900  1.0  -0.0506
  C  C648  1  0.154910  0.047950  0.232900  1.0  0.2888
  C  C649  1  0.512300  0.324100  0.903500  1.0  0.0222
  C  C650  1  0.547200  0.328200  0.882000  1.0  0.1571
  C  C651  1  0.509000  0.306300  0.813500  1.0  0.134
  C  C652  1  0.474300  0.303000  0.834700  1.0  0.0325
  C  C653  1  0.377700  0.688850  0.750000  1.0  0.0863
  C  C654  1  0.423130  0.711570  0.750000  1.0  0.1047
  C  C655  1  0.509830  0.754920  0.750000  1.0  0.0908
  C  C656  1  0.556400  0.778200  0.750000  1.0  0.1283
  C  C657  1  0.952800  0.976400  0.750000  1.0  0.0601
  C  C658  1  0.910200  0.955100  0.750000  1.0  0.0989
  C  C659  1  0.823490  0.911750  0.750000  1.0  0.0613
  C  C660  1  0.777000  0.888500  0.750000  1.0  0.3329
  C  C661  1  0.311150  0.688850  0.750000  1.0  0.0789
  C  C662  1  0.288430  0.711570  0.750000  1.0  0.1051
  C  C663  1  0.245080  0.754910  0.750000  1.0  0.0928
  C  C664  1  0.221800  0.778200  0.750000  1.0  0.1268
  C  C665  1  0.023600  0.976400  0.750000  1.0  0.0616
  C  C666  1  0.044900  0.955100  0.750000  1.0  0.1
  C  C667  1  0.088250  0.911750  0.750000  1.0  0.0607
  C  C668  1  0.111500  0.888500  0.750000  1.0  0.3363
  C  C669  1  0.311150  0.622300  0.750000  1.0  0.0867
  C  C670  1  0.288440  0.576870  0.750000  1.0  0.1053
  C  C671  1  0.245090  0.490170  0.750000  1.0  0.0916
  C  C672  1  0.221800  0.443600  0.750000  1.0  0.1288
  C  C673  1  0.023600  0.047200  0.750000  1.0  0.0614
  C  C674  1  0.044900  0.089800  0.750000  1.0  0.0997
  C  C675  1  0.088250  0.176510  0.750000  1.0  0.0623
  C  C676  1  0.111500  0.223000  0.750000  1.0  0.3341
  C  C677  1  0.622300  0.311150  0.250000  1.0  0.0857
  C  C678  1  0.576870  0.288430  0.250000  1.0  0.1049
  C  C679  1  0.490170  0.245080  0.250000  1.0  0.0926
  C  C680  1  0.443600  0.221800  0.250000  1.0  0.1265
  C  C681  1  0.047200  0.023600  0.250000  1.0  0.0617
  C  C682  1  0.089800  0.044900  0.250000  1.0  0.0999
  C  C683  1  0.176510  0.088250  0.250000  1.0  0.0602
  C  C684  1  0.223000  0.111500  0.250000  1.0  0.3362
  C  C685  1  0.688850  0.311150  0.250000  1.0  0.0794
  C  C686  1  0.711570  0.288430  0.250000  1.0  0.105
  C  C687  1  0.754920  0.245090  0.250000  1.0  0.091
  C  C688  1  0.778200  0.221800  0.250000  1.0  0.1283
  C  C689  1  0.976400  0.023600  0.250000  1.0  0.0602
  C  C690  1  0.955100  0.044900  0.250000  1.0  0.0994
  C  C691  1  0.911750  0.088250  0.250000  1.0  0.0608
  C  C692  1  0.888500  0.111500  0.250000  1.0  0.3332
  C  C693  1  0.688850  0.377700  0.250000  1.0  0.0867
  C  C694  1  0.711570  0.423130  0.250000  1.0  0.1053
  C  C695  1  0.754920  0.509830  0.250000  1.0  0.0923
  C  C696  1  0.778200  0.556400  0.250000  1.0  0.1292
  C  C697  1  0.976400  0.952800  0.250000  1.0  0.0617
  C  C698  1  0.955100  0.910200  0.250000  1.0  0.0993
  C  C699  1  0.911750  0.823490  0.250000  1.0  0.0623
  C  C700  1  0.888500  0.777000  0.250000  1.0  0.3331
  C  C701  1  0.354600  0.709200  0.750000  1.0  -0.0621
  C  C702  1  0.290800  0.645400  0.750000  1.0  -0.0656
  C  C703  1  0.354600  0.645400  0.750000  1.0  -0.0649
  C  C704  1  0.645400  0.290800  0.250000  1.0  -0.0622
  C  C705  1  0.709200  0.354600  0.250000  1.0  -0.0651
  C  C706  1  0.645400  0.354600  0.250000  1.0  -0.0653
  C  C707  1  0.980800  0.961600  0.750000  1.0  -0.078
  C  C708  1  0.038400  0.019200  0.750000  1.0  -0.0824
  C  C709  1  0.980800  0.019200  0.750000  1.0  -0.0813
  C  C710  1  0.019200  0.038400  0.250000  1.0  -0.0783
  C  C711  1  0.961600  0.980800  0.250000  1.0  -0.0824
  C  C712  1  0.019200  0.980800  0.250000  1.0  -0.0826
  O  O713  1  0.738400  0.095100  0.273100  1.0  -0.48
  O  O714  1  0.790600  0.093500  0.319600  1.0  -0.4626
  O  O715  1  0.678300  0.854400  0.645300  1.0  -0.4834
  O  O716  1  0.628600  0.871500  0.675700  1.0  -0.6274
  O  O717  1  0.576800  0.820020  0.754400  1.0  -0.6033
  O  O718  1  0.758500  0.872500  0.710500  1.0  -0.5969
  O  O719  1  0.404900  0.747800  0.273100  1.0  -0.4249
  O  O720  1  0.385100  0.712000  0.331100  1.0  -0.5024
  O  O721  1  0.424200  0.709600  0.304400  1.0  -0.603
  O  O722  1  0.394300  0.758000  0.311400  1.0  -0.4752
  O  O723  1  0.773500  0.071700  0.279300  1.0  -0.531
  O  O724  1  0.747100  0.114600  0.315000  1.0  -0.5017
  O  O725  1  0.680200  0.892400  0.659800  1.0  -0.506
  O  O726  1  0.619800  0.820400  0.654400  1.0  -0.6211
  O  O727  1  0.752200  0.909300  0.744000  1.0  -0.6161
  O  O728  1  0.573900  0.787100  0.709100  1.0  -0.5287
  O  O729  1  0.904900  0.643300  0.273100  1.0  -0.478
  O  O730  1  0.906500  0.697100  0.319600  1.0  -0.4611
  O  O731  1  0.145600  0.823900  0.645300  1.0  -0.4866
  O  O732  1  0.128500  0.757100  0.675700  1.0  -0.6307
  O  O733  1  0.179980  0.756780  0.754400  1.0  -0.6021
  O  O734  1  0.127500  0.886000  0.710500  1.0  -0.5965
  O  O735  1  0.252200  0.657100  0.273100  1.0  -0.426
  O  O736  1  0.288000  0.673100  0.331100  1.0  -0.5044
  O  O737  1  0.290400  0.714600  0.304400  1.0  -0.6151
  O  O738  1  0.242000  0.636300  0.311400  1.0  -0.4807
  O  O739  1  0.928300  0.701800  0.279300  1.0  -0.5298
  O  O740  1  0.885400  0.632500  0.315000  1.0  -0.5036
  O  O741  1  0.107600  0.787800  0.659800  1.0  -0.5086
  O  O742  1  0.179600  0.799400  0.654400  1.0  -0.619
  O  O743  1  0.090700  0.842900  0.744000  1.0  -0.6169
  O  O744  1  0.212900  0.786800  0.709100  1.0  -0.5333
  O  O745  1  0.356700  0.261600  0.273100  1.0  -0.4782
  O  O746  1  0.302900  0.209400  0.319600  1.0  -0.4668
  O  O747  1  0.176100  0.321700  0.645300  1.0  -0.4864
  O  O748  1  0.242900  0.371400  0.675700  1.0  -0.6244
  O  O749  1  0.243220  0.423200  0.754400  1.0  -0.6037
  O  O750  1  0.114000  0.241500  0.710500  1.0  -0.5964
  O  O751  1  0.342900  0.595100  0.273100  1.0  -0.4257
  O  O752  1  0.326900  0.614900  0.331100  1.0  -0.5043
  O  O753  1  0.285400  0.575800  0.304400  1.0  -0.6101
  O  O754  1  0.363700  0.605700  0.311400  1.0  -0.4747
  O  O755  1  0.298200  0.226500  0.279300  1.0  -0.5312
  O  O756  1  0.367500  0.252900  0.315000  1.0  -0.4974
  O  O757  1  0.212200  0.319800  0.659800  1.0  -0.5069
  O  O758  1  0.200600  0.380200  0.654400  1.0  -0.6182
  O  O759  1  0.157100  0.247800  0.744000  1.0  -0.615
  O  O760  1  0.213200  0.426100  0.709100  1.0  -0.5323
  O  O761  1  0.904900  0.261600  0.226900  1.0  -0.4775
  O  O762  1  0.906500  0.209400  0.180400  1.0  -0.4712
  O  O763  1  0.145600  0.321700  0.854700  1.0  -0.4839
  O  O764  1  0.128500  0.371400  0.824300  1.0  -0.6248
  O  O765  1  0.179980  0.423200  0.745600  1.0  -0.6042
  O  O766  1  0.127500  0.241500  0.789500  1.0  -0.6021
  O  O767  1  0.252200  0.595100  0.226900  1.0  -0.4231
  O  O768  1  0.288000  0.614900  0.168900  1.0  -0.5029
  O  O769  1  0.290400  0.575800  0.195600  1.0  -0.6079
  O  O770  1  0.242000  0.605700  0.188600  1.0  -0.478
  O  O771  1  0.928300  0.226500  0.220700  1.0  -0.5296
  O  O772  1  0.885400  0.252900  0.185000  1.0  -0.5072
  O  O773  1  0.107600  0.319800  0.840200  1.0  -0.5071
  O  O774  1  0.179600  0.380200  0.845600  1.0  -0.6225
  O  O775  1  0.090700  0.247800  0.756000  1.0  -0.6164
  O  O776  1  0.212900  0.426100  0.790900  1.0  -0.5311
  O  O777  1  0.356700  0.095100  0.226900  1.0  -0.4773
  O  O778  1  0.302900  0.093500  0.180400  1.0  -0.4681
  O  O779  1  0.176100  0.854400  0.854700  1.0  -0.4864
  O  O780  1  0.242900  0.871500  0.824300  1.0  -0.6283
  O  O781  1  0.243220  0.820020  0.745600  1.0  -0.6049
  O  O782  1  0.114000  0.872500  0.789500  1.0  -0.5973
  O  O783  1  0.342900  0.747800  0.226900  1.0  -0.4243
  O  O784  1  0.326900  0.712000  0.168900  1.0  -0.5013
  O  O785  1  0.285400  0.709600  0.195600  1.0  -0.6091
  O  O786  1  0.363700  0.758000  0.188600  1.0  -0.4748
  O  O787  1  0.298200  0.071700  0.220700  1.0  -0.5301
  O  O788  1  0.367500  0.114600  0.185000  1.0  -0.5017
  O  O789  1  0.212200  0.892400  0.840200  1.0  -0.5045
  O  O790  1  0.200600  0.820400  0.845600  1.0  -0.6204
  O  O791  1  0.157100  0.909300  0.756000  1.0  -0.6191
  O  O792  1  0.213200  0.787100  0.790900  1.0  -0.5326
  O  O793  1  0.738400  0.643300  0.226900  1.0  -0.4791
  O  O794  1  0.790600  0.697100  0.180400  1.0  -0.4625
  O  O795  1  0.678300  0.823900  0.854700  1.0  -0.4843
  O  O796  1  0.628600  0.757100  0.824300  1.0  -0.6305
  O  O797  1  0.576800  0.756780  0.745600  1.0  -0.6042
  O  O798  1  0.758500  0.886000  0.789500  1.0  -0.6027
  O  O799  1  0.404900  0.657100  0.226900  1.0  -0.424
  O  O800  1  0.385100  0.673100  0.168900  1.0  -0.5026
  O  O801  1  0.424200  0.714600  0.195600  1.0  -0.6151
  O  O802  1  0.394300  0.636300  0.188600  1.0  -0.4778
  O  O803  1  0.773500  0.701800  0.220700  1.0  -0.5298
  O  O804  1  0.747100  0.632500  0.185000  1.0  -0.5033
  O  O805  1  0.680200  0.787800  0.840200  1.0  -0.5056
  O  O806  1  0.619800  0.799400  0.845600  1.0  -0.6225
  O  O807  1  0.752200  0.842900  0.756000  1.0  -0.6168
  O  O808  1  0.573900  0.786800  0.790900  1.0  -0.532
  O  O809  1  0.261600  0.904900  0.726900  1.0  -0.4769
  O  O810  1  0.209400  0.906500  0.680400  1.0  -0.4662
  O  O811  1  0.321700  0.145600  0.354700  1.0  -0.4856
  O  O812  1  0.371400  0.128500  0.324300  1.0  -0.6266
  O  O813  1  0.423200  0.179980  0.245600  1.0  -0.6042
  O  O814  1  0.241500  0.127500  0.289500  1.0  -0.5973
  O  O815  1  0.595100  0.252200  0.726900  1.0  -0.4216
  O  O816  1  0.614900  0.288000  0.668900  1.0  -0.5027
  O  O817  1  0.575800  0.290400  0.695600  1.0  -0.6099
  O  O818  1  0.605700  0.242000  0.688600  1.0  -0.4756
  O  O819  1  0.226500  0.928300  0.720700  1.0  -0.5262
  O  O820  1  0.252900  0.885400  0.685000  1.0  -0.501
  O  O821  1  0.319800  0.107600  0.340200  1.0  -0.5085
  O  O822  1  0.380200  0.179600  0.345600  1.0  -0.6194
  O  O823  1  0.247800  0.090700  0.256000  1.0  -0.6152
  O  O824  1  0.426100  0.212900  0.290900  1.0  -0.5329
  O  O825  1  0.095100  0.356700  0.726900  1.0  -0.4779
  O  O826  1  0.093500  0.302900  0.680400  1.0  -0.4627
  O  O827  1  0.854400  0.176100  0.354700  1.0  -0.482
  O  O828  1  0.871500  0.242900  0.324300  1.0  -0.628
  O  O829  1  0.820020  0.243220  0.245600  1.0  -0.6043
  O  O830  1  0.872500  0.114000  0.289500  1.0  -0.6027
  O  O831  1  0.747800  0.342900  0.726900  1.0  -0.4247
  O  O832  1  0.712000  0.326900  0.668900  1.0  -0.5024
  O  O833  1  0.709600  0.285400  0.695600  1.0  -0.6132
  O  O834  1  0.758000  0.363700  0.688600  1.0  -0.4748
  O  O835  1  0.071700  0.298200  0.720700  1.0  -0.5319
  O  O836  1  0.114600  0.367500  0.685000  1.0  -0.5079
  O  O837  1  0.892400  0.212200  0.340200  1.0  -0.505
  O  O838  1  0.820400  0.200600  0.345600  1.0  -0.6225
  O  O839  1  0.909300  0.157100  0.256000  1.0  -0.6173
  O  O840  1  0.787100  0.213200  0.290900  1.0  -0.5326
  O  O841  1  0.643300  0.738400  0.726900  1.0  -0.4769
  O  O842  1  0.697100  0.790600  0.680400  1.0  -0.4694
  O  O843  1  0.823900  0.678300  0.354700  1.0  -0.4849
  O  O844  1  0.757100  0.628600  0.324300  1.0  -0.6247
  O  O845  1  0.756780  0.576800  0.245600  1.0  -0.6022
  O  O846  1  0.886000  0.758500  0.289500  1.0  -0.5996
  O  O847  1  0.657100  0.404900  0.726900  1.0  -0.4243
  O  O848  1  0.673100  0.385100  0.668900  1.0  -0.5015
  O  O849  1  0.714600  0.424200  0.695600  1.0  -0.6095
  O  O850  1  0.636300  0.394300  0.688600  1.0  -0.4805
  O  O851  1  0.701800  0.773500  0.720700  1.0  -0.5292
  O  O852  1  0.632500  0.747100  0.685000  1.0  -0.5062
  O  O853  1  0.787800  0.680200  0.340200  1.0  -0.5073
  O  O854  1  0.799400  0.619800  0.345600  1.0  -0.6224
  O  O855  1  0.842900  0.752200  0.256000  1.0  -0.6167
  O  O856  1  0.786800  0.573900  0.290900  1.0  -0.5321
  O  O857  1  0.095100  0.738400  0.773100  1.0  -0.4756
  O  O858  1  0.093500  0.790600  0.819600  1.0  -0.4661
  O  O859  1  0.854400  0.678300  0.145300  1.0  -0.4866
  O  O860  1  0.871500  0.628600  0.175700  1.0  -0.625
  O  O861  1  0.820020  0.576800  0.254400  1.0  -0.6024
  O  O862  1  0.872500  0.758500  0.210500  1.0  -0.5949
  O  O863  1  0.747800  0.404900  0.773100  1.0  -0.4244
  O  O864  1  0.712000  0.385100  0.831100  1.0  -0.5018
  O  O865  1  0.709600  0.424200  0.804400  1.0  -0.6097
  O  O866  1  0.758000  0.394300  0.811400  1.0  -0.4738
  O  O867  1  0.071700  0.773500  0.779300  1.0  -0.5318
  O  O868  1  0.114600  0.747100  0.815000  1.0  -0.5018
  O  O869  1  0.892400  0.680200  0.159800  1.0  -0.5075
  O  O870  1  0.820400  0.619800  0.154400  1.0  -0.619
  O  O871  1  0.909300  0.752200  0.244000  1.0  -0.6149
  O  O872  1  0.787100  0.573900  0.209100  1.0  -0.5295
  O  O873  1  0.643300  0.904900  0.773100  1.0  -0.4776
  O  O874  1  0.697100  0.906500  0.819600  1.0  -0.4609
  O  O875  1  0.823900  0.145600  0.145300  1.0  -0.4831
  O  O876  1  0.757100  0.128500  0.175700  1.0  -0.6289
  O  O877  1  0.756780  0.179980  0.254400  1.0  -0.6034
  O  O878  1  0.886000  0.127500  0.210500  1.0  -0.5967
  O  O879  1  0.657100  0.252200  0.773100  1.0  -0.4236
  O  O880  1  0.673100  0.288000  0.831100  1.0  -0.5044
  O  O881  1  0.714600  0.290400  0.804400  1.0  -0.6068
  O  O882  1  0.636300  0.242000  0.811400  1.0  -0.4799
  O  O883  1  0.701800  0.928300  0.779300  1.0  -0.5284
  O  O884  1  0.632500  0.885400  0.815000  1.0  -0.5029
  O  O885  1  0.787800  0.107600  0.159800  1.0  -0.5078
  O  O886  1  0.799400  0.179600  0.154400  1.0  -0.6196
  O  O887  1  0.842900  0.090700  0.244000  1.0  -0.6126
  O  O888  1  0.786800  0.212900  0.209100  1.0  -0.5311
  O  O889  1  0.261600  0.356700  0.773100  1.0  -0.477
  O  O890  1  0.209400  0.302900  0.819600  1.0  -0.4622
  O  O891  1  0.321700  0.176100  0.145300  1.0  -0.4845
  O  O892  1  0.371400  0.242900  0.175700  1.0  -0.628
  O  O893  1  0.423200  0.243220  0.254400  1.0  -0.6007
  O  O894  1  0.241500  0.114000  0.210500  1.0  -0.5986
  O  O895  1  0.595100  0.342900  0.773100  1.0  -0.4254
  O  O896  1  0.614900  0.326900  0.831100  1.0  -0.5045
  O  O897  1  0.575800  0.285400  0.804400  1.0  -0.6114
  O  O898  1  0.605700  0.363700  0.811400  1.0  -0.4766
  O  O899  1  0.226500  0.298200  0.779300  1.0  -0.5334
  O  O900  1  0.252900  0.367500  0.815000  1.0  -0.5017
  O  O901  1  0.319800  0.212200  0.159800  1.0  -0.5061
  O  O902  1  0.380200  0.200600  0.154400  1.0  -0.6193
  O  O903  1  0.247800  0.157100  0.244000  1.0  -0.619
  O  O904  1  0.426100  0.213200  0.209100  1.0  -0.5332
  O  O905  1  0.664700  0.832350  0.750000  1.0  -0.714
  O  O906  1  0.167650  0.832350  0.750000  1.0  -0.7119
  O  O907  1  0.167650  0.335300  0.750000  1.0  -0.7115
  O  O908  1  0.335300  0.167650  0.250000  1.0  -0.712
  O  O909  1  0.832350  0.167650  0.250000  1.0  -0.7141
  O  O910  1  0.832350  0.664700  0.250000  1.0  -0.7116
  O  O911  1  0.333333  0.666667  0.250000  1.0  -0.7787
  O  O912  1  0.666667  0.333333  0.750000  1.0  -0.7787
  F  F913  1  0.688500  0.008600  0.262400  1.0  -0.104
  F  F914  1  0.741000  0.075600  0.398600  1.0  -0.1079
  F  F915  1  0.707200  0.915700  0.582100  1.0  -0.08
  F  F916  1  0.567400  0.830700  0.613400  1.0  -0.1122
  F  F917  1  0.460000  0.725200  0.381400  1.0  -0.2066
  F  F918  1  0.455800  0.831900  0.296300  1.0  -0.2173
  F  F919  1  0.509900  0.801400  0.698600  1.0  -0.1033
  F  F920  1  0.821400  0.855400  0.717500  1.0  -0.0939
  F  F921  1  0.422400  0.763000  0.410700  1.0  -0.1738
  F  F922  1  0.495600  0.792300  0.271300  1.0  -0.2001
  F  F923  1  0.991400  0.679900  0.262400  1.0  -0.1053
  F  F924  1  0.924400  0.665400  0.398600  1.0  -0.1071
  F  F925  1  0.084300  0.791500  0.582100  1.0  -0.0751
  F  F926  1  0.169300  0.736700  0.613400  1.0  -0.1099
  F  F927  1  0.274800  0.734800  0.381400  1.0  -0.1998
  F  F928  1  0.168100  0.623900  0.296300  1.0  -0.219
  F  F929  1  0.198600  0.708500  0.698600  1.0  -0.1009
  F  F930  1  0.144600  0.966000  0.717500  1.0  -0.092
  F  F931  1  0.237000  0.659400  0.410700  1.0  -0.1751
  F  F932  1  0.207700  0.703300  0.271300  1.0  -0.2029
  F  F933  1  0.320100  0.311500  0.262400  1.0  -0.102
  F  F934  1  0.334600  0.259000  0.398600  1.0  -0.1087
  F  F935  1  0.208500  0.292800  0.582100  1.0  -0.0804
  F  F936  1  0.263300  0.432600  0.613400  1.0  -0.1102
  F  F937  1  0.265200  0.540000  0.381400  1.0  -0.1963
  F  F938  1  0.376100  0.544200  0.296300  1.0  -0.2133
  F  F939  1  0.291500  0.490100  0.698600  1.0  -0.1019
  F  F940  1  0.034000  0.178600  0.717500  1.0  -0.09
  F  F941  1  0.340600  0.577600  0.410700  1.0  -0.1728
  F  F942  1  0.296700  0.504400  0.271300  1.0  -0.1963
  F  F943  1  0.991400  0.311500  0.237600  1.0  -0.1024
  F  F944  1  0.924400  0.259000  0.101400  1.0  -0.1082
  F  F945  1  0.084300  0.292800  0.917900  1.0  -0.0808
  F  F946  1  0.169300  0.432600  0.886600  1.0  -0.1107
  F  F947  1  0.274800  0.540000  0.118600  1.0  -0.1938
  F  F948  1  0.168100  0.544200  0.203700  1.0  -0.2116
  F  F949  1  0.198600  0.490100  0.801400  1.0  -0.1019
  F  F950  1  0.144600  0.178600  0.782500  1.0  -0.0925
  F  F951  1  0.237000  0.577600  0.089300  1.0  -0.1725
  F  F952  1  0.207700  0.504400  0.228700  1.0  -0.1968
  F  F953  1  0.320100  0.008600  0.237600  1.0  -0.1036
  F  F954  1  0.334600  0.075600  0.101400  1.0  -0.1076
  F  F955  1  0.208500  0.915700  0.917900  1.0  -0.0783
  F  F956  1  0.263300  0.830700  0.886600  1.0  -0.1117
  F  F957  1  0.265200  0.725200  0.118600  1.0  -0.2027
  F  F958  1  0.376100  0.831900  0.203700  1.0  -0.2158
  F  F959  1  0.291500  0.801400  0.801400  1.0  -0.105
  F  F960  1  0.034000  0.855400  0.782500  1.0  -0.093
  F  F961  1  0.340600  0.763000  0.089300  1.0  -0.1686
  F  F962  1  0.296700  0.792300  0.228700  1.0  -0.1966
  F  F963  1  0.688500  0.679900  0.237600  1.0  -0.1032
  F  F964  1  0.741000  0.665400  0.101400  1.0  -0.1056
  F  F965  1  0.707200  0.791500  0.917900  1.0  -0.071
  F  F966  1  0.567400  0.736700  0.886600  1.0  -0.1114
  F  F967  1  0.460000  0.734800  0.118600  1.0  -0.1997
  F  F968  1  0.455800  0.623900  0.203700  1.0  -0.2224
  F  F969  1  0.509900  0.708500  0.801400  1.0  -0.1006
  F  F970  1  0.821400  0.966000  0.782500  1.0  -0.0921
  F  F971  1  0.422400  0.659400  0.089300  1.0  -0.1726
  F  F972  1  0.495600  0.703300  0.228700  1.0  -0.2012
  F  F973  1  0.311500  0.991400  0.737600  1.0  -0.1059
  F  F974  1  0.259000  0.924400  0.601400  1.0  -0.1067
  F  F975  1  0.292800  0.084300  0.417900  1.0  -0.0797
  F  F976  1  0.432600  0.169300  0.386600  1.0  -0.1133
  F  F977  1  0.540000  0.274800  0.618600  1.0  -0.2019
  F  F978  1  0.544200  0.168100  0.703700  1.0  -0.2197
  F  F979  1  0.490100  0.198600  0.301400  1.0  -0.1043
  F  F980  1  0.178600  0.144600  0.282500  1.0  -0.0955
  F  F981  1  0.577600  0.237000  0.589300  1.0  -0.1692
  F  F982  1  0.504400  0.207700  0.728700  1.0  -0.1966
  F  F983  1  0.008600  0.320100  0.737600  1.0  -0.1067
  F  F984  1  0.075600  0.334600  0.601400  1.0  -0.106
  F  F985  1  0.915700  0.208500  0.417900  1.0  -0.0765
  F  F986  1  0.830700  0.263300  0.386600  1.0  -0.1118
  F  F987  1  0.725200  0.265200  0.618600  1.0  -0.1993
  F  F988  1  0.831900  0.376100  0.703700  1.0  -0.2192
  F  F989  1  0.801400  0.291500  0.301400  1.0  -0.1007
  F  F990  1  0.855400  0.034000  0.282500  1.0  -0.0937
  F  F991  1  0.763000  0.340600  0.589300  1.0  -0.174
  F  F992  1  0.792300  0.296700  0.728700  1.0  -0.2014
  F  F993  1  0.679900  0.688500  0.737600  1.0  -0.1029
  F  F994  1  0.665400  0.741000  0.601400  1.0  -0.1084
  F  F995  1  0.791500  0.707200  0.417900  1.0  -0.0775
  F  F996  1  0.736700  0.567400  0.386600  1.0  -0.1103
  F  F997  1  0.734800  0.460000  0.618600  1.0  -0.1952
  F  F998  1  0.623900  0.455800  0.703700  1.0  -0.2112
  F  F999  1  0.708500  0.509900  0.301400  1.0  -0.1002
  F  F1000  1  0.966000  0.821400  0.282500  1.0  -0.0922
  F  F1001  1  0.659400  0.422400  0.589300  1.0  -0.1707
  F  F1002  1  0.703300  0.495600  0.728700  1.0  -0.1948
  F  F1003  1  0.008600  0.688500  0.762400  1.0  -0.1005
  F  F1004  1  0.075600  0.741000  0.898600  1.0  -0.1096
  F  F1005  1  0.915700  0.707200  0.082100  1.0  -0.0782
  F  F1006  1  0.830700  0.567400  0.113400  1.0  -0.109
  F  F1007  1  0.725200  0.460000  0.881400  1.0  -0.1967
  F  F1008  1  0.831900  0.455800  0.796300  1.0  -0.2121
  F  F1009  1  0.801400  0.509900  0.198600  1.0  -0.1012
  F  F1010  1  0.855400  0.821400  0.217500  1.0  -0.0917
  F  F1011  1  0.763000  0.422400  0.910700  1.0  -0.175
  F  F1012  1  0.792300  0.495600  0.771300  1.0  -0.1972
  F  F1013  1  0.679900  0.991400  0.762400  1.0  -0.1024
  F  F1014  1  0.665400  0.924400  0.898600  1.0  -0.1069
  F  F1015  1  0.791500  0.084300  0.082100  1.0  -0.0809
  F  F1016  1  0.736700  0.169300  0.113400  1.0  -0.1126
  F  F1017  1  0.734800  0.274800  0.881400  1.0  -0.2019
  F  F1018  1  0.623900  0.168100  0.796300  1.0  -0.2174
  F  F1019  1  0.708500  0.198600  0.198600  1.0  -0.1036
  F  F1020  1  0.966000  0.144600  0.217500  1.0  -0.0921
  F  F1021  1  0.659400  0.237000  0.910700  1.0  -0.1729
  F  F1022  1  0.703300  0.207700  0.771300  1.0  -0.1998
  F  F1023  1  0.311500  0.320100  0.762400  1.0  -0.1009
  F  F1024  1  0.259000  0.334600  0.898600  1.0  -0.1077
  F  F1025  1  0.292800  0.208500  0.082100  1.0  -0.0707
  F  F1026  1  0.432600  0.263300  0.113400  1.0  -0.1102
  F  F1027  1  0.540000  0.265200  0.881400  1.0  -0.2038
  F  F1028  1  0.544200  0.376100  0.796300  1.0  -0.2202
  F  F1029  1  0.490100  0.291500  0.198600  1.0  -0.1016
  F  F1030  1  0.178600  0.034000  0.217500  1.0  -0.091
  F  F1031  1  0.577600  0.340600  0.910700  1.0  -0.1744
  F  F1032  1  0.504400  0.296700  0.771300  1.0  -0.2026
