# generated using pymatgen
data_CuH17C26O5
_symmetry_space_group_name_H-M   'P 1'
_cell_length_a   27.09640000
_cell_length_b   30.49010000
_cell_length_c   30.49010000
_cell_angle_alpha   78.61240000
_cell_angle_beta   63.61840000
_cell_angle_gamma   63.61840000
_symmetry_Int_Tables_number   1
_chemical_formula_structural   CuH17C26O5
_chemical_formula_sum   'Cu16 H272 C416 O80'
_cell_volume   20216.42019276
_cell_formula_units_Z   16
loop_
 _symmetry_equiv_pos_site_id
 _symmetry_equiv_pos_as_xyz
  1  'x, y, z'
loop_
 _atom_site_type_symbol
 _atom_site_label
 _atom_site_symmetry_multiplicity
 _atom_site_fract_x
 _atom_site_fract_y
 _atom_site_fract_z
 _atom_site_occupancy
 _atom_site_charge
  Cu  Cu1  1  0.975060  0.033900  0.033900  1.0  0.9211
  Cu  Cu2  1  0.542860  0.466100  0.466090  1.0  0.9203
  Cu  Cu3  1  0.457140  0.533900  0.533910  1.0  0.9216
  Cu  Cu4  1  0.024940  0.966100  0.966100  1.0  0.9196
  Cu  Cu5  1  0.460610  0.750000  0.750000  1.0  0.9194
  Cu  Cu6  1  0.557860  0.750000  0.750000  1.0  0.8997
  Cu  Cu7  1  0.539390  0.250000  0.250000  1.0  0.9207
  Cu  Cu8  1  0.442140  0.250000  0.250000  1.0  0.8978
  Cu  Cu9  1  0.508950  0.966100  0.533910  1.0  0.9173
  Cu  Cu10  1  0.508960  0.533900  0.966100  1.0  0.9189
  Cu  Cu11  1  0.491050  0.033900  0.466090  1.0  0.9177
  Cu  Cu12  1  0.491040  0.466100  0.033900  1.0  0.9183
  Cu  Cu13  1  0.710610  0.250000  0.250000  1.0  0.9271
  Cu  Cu14  1  0.807860  0.250000  0.250000  1.0  0.8878
  Cu  Cu15  1  0.289390  0.750000  0.750000  1.0  0.9289
  Cu  Cu16  1  0.192140  0.750000  0.750000  1.0  0.8863
  H  H17  1  0.123700  0.035400  0.849600  1.0  0.1095
  H  H18  1  0.126700  0.217600  0.823000  1.0  0.1046
  H  H19  1  0.084000  0.117700  0.958100  1.0  0.1109
  H  H20  1  0.272300  0.058700  0.799100  1.0  0.1015
  H  H21  1  0.173700  0.081400  0.793000  1.0  0.0888
  H  H22  1  0.137500  0.161000  0.901600  1.0  0.1167
  H  H23  1  0.374300  0.151200  0.693000  1.0  0.1002
  H  H24  1  0.461900  0.993200  0.734600  1.0  0.0992
  H  H25  1  0.307800  0.987500  0.758900  1.0  0.1042
  H  H26  1  0.422100  0.068100  0.692900  1.0  0.1038
  H  H27  1  0.352400  0.903400  0.758000  1.0  0.1138
  H  H28  1  0.507300  0.908700  0.737900  1.0  0.1131
  H  H29  1  0.115600  0.295600  0.838000  1.0  0.0798
  H  H30  1  0.082200  0.300600  0.804400  1.0  0.0848
  H  H31  1  0.138400  0.363100  0.791300  1.0  0.0987
  H  H32  1  0.070300  0.376700  0.828500  1.0  0.111
  H  H33  1  0.089500  0.371300  0.771900  1.0  0.1075
  H  H34  1  0.508700  0.464600  0.650400  1.0  0.1094
  H  H35  1  0.667300  0.282400  0.677000  1.0  0.1054
  H  H36  1  0.659800  0.382300  0.541900  1.0  0.1125
  H  H37  1  0.630100  0.441300  0.700900  1.0  0.1029
  H  H38  1  0.548100  0.418600  0.707000  1.0  0.0883
  H  H39  1  0.700100  0.339000  0.598400  1.0  0.1161
  H  H40  1  0.718500  0.348800  0.807000  1.0  0.0997
  H  H41  1  0.689700  0.506800  0.765400  1.0  0.0981
  H  H42  1  0.554200  0.512500  0.741100  1.0  0.1043
  H  H43  1  0.683100  0.431900  0.807100  1.0  0.1054
  H  H44  1  0.513800  0.596600  0.742000  1.0  0.1147
  H  H45  1  0.653900  0.591300  0.762100  1.0  0.1121
  H  H46  1  0.749200  0.204400  0.662000  1.0  0.0775
  H  H47  1  0.687200  0.199400  0.695600  1.0  0.0837
  H  H48  1  0.792800  0.136900  0.708700  1.0  0.1064
  H  H49  1  0.775500  0.123300  0.671500  1.0  0.1113
  H  H50  1  0.732700  0.128700  0.728100  1.0  0.1061
  H  H51  1  0.491300  0.349600  0.535400  1.0  0.1096
  H  H52  1  0.332700  0.323000  0.717600  1.0  0.1046
  H  H53  1  0.340200  0.458100  0.617700  1.0  0.111
  H  H54  1  0.369900  0.299100  0.558700  1.0  0.1005
  H  H55  1  0.451900  0.293000  0.581400  1.0  0.0884
  H  H56  1  0.299900  0.401600  0.661000  1.0  0.1175
  H  H57  1  0.281500  0.193000  0.651200  1.0  0.1006
  H  H58  1  0.310300  0.234600  0.493200  1.0  0.1002
  H  H59  1  0.445800  0.258900  0.487500  1.0  0.1033
  H  H60  1  0.316900  0.192900  0.568100  1.0  0.1034
  H  H61  1  0.486200  0.258000  0.403400  1.0  0.1137
  H  H62  1  0.346100  0.237900  0.408700  1.0  0.1123
  H  H63  1  0.250800  0.338000  0.795600  1.0  0.0791
  H  H64  1  0.312800  0.304400  0.800600  1.0  0.0808
  H  H65  1  0.207200  0.291300  0.863100  1.0  0.1086
  H  H66  1  0.224500  0.328500  0.876700  1.0  0.1113
  H  H67  1  0.267300  0.271900  0.871300  1.0  0.1056
  H  H68  1  0.876300  0.150400  0.964600  1.0  0.1093
  H  H69  1  0.873300  0.177000  0.782400  1.0  0.1051
  H  H70  1  0.916000  0.041900  0.882300  1.0  0.1105
  H  H71  1  0.727700  0.200900  0.941300  1.0  0.0999
  H  H72  1  0.826300  0.207000  0.918600  1.0  0.0891
  H  H73  1  0.862500  0.098400  0.839000  1.0  0.1164
  H  H74  1  0.625700  0.307000  0.848800  1.0  0.0995
  H  H75  1  0.538100  0.265400  0.006800  1.0  0.1
  H  H76  1  0.692200  0.241100  0.012500  1.0  0.1075
  H  H77  1  0.577900  0.307100  0.931900  1.0  0.1047
  H  H78  1  0.647600  0.242000  0.096600  1.0  0.1151
  H  H79  1  0.492700  0.262100  0.091300  1.0  0.1147
  H  H80  1  0.884400  0.162000  0.704400  1.0  0.0765
  H  H81  1  0.917800  0.195600  0.699400  1.0  0.0857
  H  H82  1  0.861600  0.208700  0.636900  1.0  0.1089
  H  H83  1  0.929700  0.171500  0.623300  1.0  0.1112
  H  H84  1  0.910500  0.228100  0.628700  1.0  0.107
  H  H85  1  0.876300  0.964600  0.150400  1.0  0.1093
  H  H86  1  0.873300  0.782400  0.177000  1.0  0.1039
  H  H87  1  0.916000  0.882300  0.041900  1.0  0.1121
  H  H88  1  0.727700  0.941300  0.200900  1.0  0.1014
  H  H89  1  0.826300  0.918600  0.207000  1.0  0.0884
  H  H90  1  0.862500  0.839000  0.098400  1.0  0.1168
  H  H91  1  0.625700  0.848800  0.307000  1.0  0.1
  H  H92  1  0.538100  0.006800  0.265400  1.0  0.0985
  H  H93  1  0.692200  0.012500  0.241100  1.0  0.104
  H  H94  1  0.577900  0.931900  0.307100  1.0  0.1042
  H  H95  1  0.647600  0.096600  0.242000  1.0  0.1137
  H  H96  1  0.492700  0.091300  0.262100  1.0  0.113
  H  H97  1  0.884400  0.704400  0.162000  1.0  0.0801
  H  H98  1  0.917800  0.699400  0.195600  1.0  0.0855
  H  H99  1  0.861600  0.636900  0.208700  1.0  0.1069
  H  H100  1  0.929700  0.623300  0.171500  1.0  0.1101
  H  H101  1  0.910500  0.628700  0.228100  1.0  0.1054
  H  H102  1  0.491300  0.535400  0.349600  1.0  0.1098
  H  H103  1  0.332700  0.717600  0.323000  1.0  0.1051
  H  H104  1  0.340200  0.617700  0.458100  1.0  0.1126
  H  H105  1  0.369900  0.558700  0.299100  1.0  0.103
  H  H106  1  0.451900  0.581400  0.293000  1.0  0.0877
  H  H107  1  0.299900  0.661000  0.401600  1.0  0.1165
  H  H108  1  0.281500  0.651200  0.193000  1.0  0.0998
  H  H109  1  0.310300  0.493200  0.234600  1.0  0.0989
  H  H110  1  0.445800  0.487500  0.258900  1.0  0.1045
  H  H111  1  0.316900  0.568100  0.192900  1.0  0.1052
  H  H112  1  0.486200  0.403400  0.258000  1.0  0.1146
  H  H113  1  0.346100  0.408700  0.237900  1.0  0.1119
  H  H114  1  0.250800  0.795600  0.338000  1.0  0.0782
  H  H115  1  0.312800  0.800600  0.304400  1.0  0.0834
  H  H116  1  0.207200  0.863100  0.291300  1.0  0.1075
  H  H117  1  0.224500  0.876700  0.328500  1.0  0.1119
  H  H118  1  0.267300  0.871300  0.271900  1.0  0.1064
  H  H119  1  0.508700  0.650400  0.464600  1.0  0.1096
  H  H120  1  0.667300  0.677000  0.282400  1.0  0.1056
  H  H121  1  0.659800  0.541900  0.382300  1.0  0.1107
  H  H122  1  0.630100  0.700900  0.441300  1.0  0.1004
  H  H123  1  0.548100  0.707000  0.418600  1.0  0.0887
  H  H124  1  0.700100  0.598400  0.339000  1.0  0.1178
  H  H125  1  0.718500  0.807000  0.348800  1.0  0.1002
  H  H126  1  0.689700  0.765400  0.506800  1.0  0.0995
  H  H127  1  0.554200  0.741100  0.512500  1.0  0.1047
  H  H128  1  0.683100  0.807100  0.431900  1.0  0.1047
  H  H129  1  0.513800  0.742000  0.596600  1.0  0.1155
  H  H130  1  0.653900  0.762100  0.591300  1.0  0.1125
  H  H131  1  0.749200  0.662000  0.204400  1.0  0.0755
  H  H132  1  0.687200  0.695600  0.199400  1.0  0.0838
  H  H133  1  0.792800  0.708700  0.136900  1.0  0.1092
  H  H134  1  0.775500  0.671500  0.123300  1.0  0.1093
  H  H135  1  0.732700  0.728100  0.128700  1.0  0.1072
  H  H136  1  0.123700  0.849600  0.035400  1.0  0.1091
  H  H137  1  0.126700  0.823000  0.217600  1.0  0.105
  H  H138  1  0.084000  0.958100  0.117700  1.0  0.1103
  H  H139  1  0.272300  0.799100  0.058700  1.0  0.1005
  H  H140  1  0.173700  0.793000  0.081400  1.0  0.0886
  H  H141  1  0.137500  0.901600  0.161000  1.0  0.1159
  H  H142  1  0.374300  0.693000  0.151200  1.0  0.0997
  H  H143  1  0.461900  0.734600  0.993200  1.0  0.0999
  H  H144  1  0.307800  0.758900  0.987500  1.0  0.1079
  H  H145  1  0.422100  0.692900  0.068100  1.0  0.104
  H  H146  1  0.352400  0.758000  0.903400  1.0  0.1143
  H  H147  1  0.507300  0.737900  0.908700  1.0  0.1145
  H  H148  1  0.115600  0.838000  0.295600  1.0  0.0786
  H  H149  1  0.082200  0.804400  0.300600  1.0  0.0844
  H  H150  1  0.138400  0.791300  0.363100  1.0  0.1078
  H  H151  1  0.070300  0.828500  0.376700  1.0  0.113
  H  H152  1  0.089500  0.771900  0.371300  1.0  0.1055
  H  H153  1  0.473300  0.150400  0.535400  1.0  0.1091
  H  H154  1  0.449700  0.177000  0.717600  1.0  0.1055
  H  H155  1  0.542100  0.041900  0.617700  1.0  0.1126
  H  H156  1  0.571400  0.200900  0.558700  1.0  0.1032
  H  H157  1  0.466700  0.207000  0.581400  1.0  0.0886
  H  H158  1  0.539100  0.098400  0.661000  1.0  0.1158
  H  H159  1  0.567300  0.307000  0.651200  1.0  0.0993
  H  H160  1  0.696500  0.265400  0.493200  1.0  0.1001
  H  H161  1  0.566700  0.241100  0.487500  1.0  0.1073
  H  H162  1  0.615000  0.307100  0.568100  1.0  0.1041
  H  H163  1  0.610400  0.242000  0.403400  1.0  0.1152
  H  H164  1  0.745200  0.262100  0.408700  1.0  0.1131
  H  H165  1  0.453600  0.162000  0.795600  1.0  0.0754
  H  H166  1  0.386600  0.195600  0.800600  1.0  0.0847
  H  H167  1  0.429700  0.208700  0.863100  1.0  0.1076
  H  H168  1  0.398800  0.171500  0.876700  1.0  0.1131
  H  H169  1  0.361400  0.228100  0.871300  1.0  0.106
  H  H170  1  0.659100  0.349600  0.964600  1.0  0.1093
  H  H171  1  0.844300  0.323000  0.782400  1.0  0.1055
  H  H172  1  0.701700  0.458100  0.882300  1.0  0.1134
  H  H173  1  0.831000  0.299100  0.941300  1.0  0.1055
  H  H174  1  0.755100  0.293000  0.918600  1.0  0.0886
  H  H175  1  0.798500  0.401600  0.839000  1.0  0.118
  H  H176  1  0.025500  0.193000  0.848800  1.0  0.1004
  H  H177  1  0.955100  0.234600  0.006800  1.0  0.0991
  H  H178  1  0.795300  0.258900  0.012500  1.0  0.1051
  H  H179  1  0.990200  0.192900  0.931900  1.0  0.1049
  H  H180  1  0.755800  0.258000  0.096600  1.0  0.1162
  H  H181  1  0.916000  0.237900  0.091300  1.0  0.1124
  H  H182  1  0.911200  0.338000  0.704400  1.0  0.0773
  H  H183  1  0.882800  0.304400  0.699400  1.0  0.0846
  H  H184  1  0.001500  0.291300  0.636900  1.0  0.1092
  H  H185  1  0.947000  0.328500  0.623300  1.0  0.1132
  H  H186  1  0.960800  0.271900  0.628700  1.0  0.1068
  H  H187  1  0.340900  0.035400  0.650400  1.0  0.1096
  H  H188  1  0.155700  0.217600  0.677000  1.0  0.1042
  H  H189  1  0.298300  0.117700  0.541900  1.0  0.1139
  H  H190  1  0.169000  0.058700  0.700900  1.0  0.1062
  H  H191  1  0.244900  0.081400  0.707000  1.0  0.0881
  H  H192  1  0.201500  0.161000  0.598400  1.0  0.1176
  H  H193  1  0.974500  0.151200  0.807000  1.0  0.1003
  H  H194  1  0.044900  0.993200  0.765400  1.0  0.0985
  H  H195  1  0.204700  0.987500  0.741100  1.0  0.104
  H  H196  1  0.009800  0.068100  0.807100  1.0  0.1043
  H  H197  1  0.244200  0.903400  0.742000  1.0  0.115
  H  H198  1  0.084000  0.908700  0.762100  1.0  0.1124
  H  H199  1  0.088800  0.295600  0.662000  1.0  0.08
  H  H200  1  0.117200  0.300600  0.695600  1.0  0.0855
  H  H201  1  0.998500  0.363100  0.708700  1.0  0.1066
  H  H202  1  0.053000  0.376700  0.671500  1.0  0.1099
  H  H203  1  0.039200  0.371300  0.728100  1.0  0.1066
  H  H204  1  0.526700  0.464600  0.849600  1.0  0.1094
  H  H205  1  0.550300  0.282400  0.823000  1.0  0.1058
  H  H206  1  0.457900  0.382300  0.958100  1.0  0.1148
  H  H207  1  0.428600  0.441300  0.799100  1.0  0.1068
  H  H208  1  0.533300  0.418600  0.793000  1.0  0.0881
  H  H209  1  0.460900  0.339000  0.901600  1.0  0.116
  H  H210  1  0.432700  0.348800  0.693000  1.0  0.0998
  H  H211  1  0.303500  0.506800  0.734600  1.0  0.0989
  H  H212  1  0.433300  0.512500  0.758900  1.0  0.1044
  H  H213  1  0.385000  0.431900  0.692900  1.0  0.1053
  H  H214  1  0.389600  0.596600  0.758000  1.0  0.1155
  H  H215  1  0.254800  0.591300  0.737900  1.0  0.1116
  H  H216  1  0.546400  0.204400  0.838000  1.0  0.0782
  H  H217  1  0.613400  0.199400  0.804400  1.0  0.084
  H  H218  1  0.570300  0.136900  0.791300  1.0  0.1075
  H  H219  1  0.601200  0.123300  0.828500  1.0  0.1135
  H  H220  1  0.638600  0.128700  0.771900  1.0  0.1057
  H  H221  1  0.526700  0.849600  0.464600  1.0  0.109
  H  H222  1  0.550300  0.823000  0.282400  1.0  0.105
  H  H223  1  0.457900  0.958100  0.382300  1.0  0.1131
  H  H224  1  0.428600  0.799100  0.441300  1.0  0.1041
  H  H225  1  0.533300  0.793000  0.418600  1.0  0.0887
  H  H226  1  0.460900  0.901600  0.339000  1.0  0.1165
  H  H227  1  0.432700  0.693000  0.348800  1.0  0.0995
  H  H228  1  0.303500  0.734600  0.506800  1.0  0.0999
  H  H229  1  0.433300  0.758900  0.512500  1.0  0.1066
  H  H230  1  0.385000  0.692900  0.431900  1.0  0.1042
  H  H231  1  0.389600  0.758000  0.596600  1.0  0.1162
  H  H232  1  0.254800  0.737900  0.591300  1.0  0.1138
  H  H233  1  0.546400  0.838000  0.204400  1.0  0.0794
  H  H234  1  0.613400  0.804400  0.199400  1.0  0.0848
  H  H235  1  0.570300  0.791300  0.136900  1.0  0.109
  H  H236  1  0.601200  0.828500  0.123300  1.0  0.1139
  H  H237  1  0.638600  0.771900  0.128700  1.0  0.1068
  H  H238  1  0.340900  0.650400  0.035400  1.0  0.1098
  H  H239  1  0.155700  0.677000  0.217600  1.0  0.1054
  H  H240  1  0.298300  0.541900  0.117700  1.0  0.1131
  H  H241  1  0.169000  0.700900  0.058700  1.0  0.1049
  H  H242  1  0.244900  0.707000  0.081400  1.0  0.0879
  H  H243  1  0.201500  0.598400  0.161000  1.0  0.1175
  H  H244  1  0.974500  0.807000  0.151200  1.0  0.1005
  H  H245  1  0.044900  0.765400  0.993200  1.0  0.1002
  H  H246  1  0.204700  0.741100  0.987500  1.0  0.1037
  H  H247  1  0.009800  0.807100  0.068100  1.0  0.1035
  H  H248  1  0.244200  0.742000  0.903400  1.0  0.1146
  H  H249  1  0.084000  0.762100  0.908700  1.0  0.1124
  H  H250  1  0.088800  0.662000  0.295600  1.0  0.076
  H  H251  1  0.117200  0.695600  0.300600  1.0  0.0816
  H  H252  1  0.998500  0.708700  0.363100  1.0  0.1086
  H  H253  1  0.053000  0.671500  0.376700  1.0  0.1123
  H  H254  1  0.039200  0.728100  0.371300  1.0  0.1059
  H  H255  1  0.659100  0.964600  0.349600  1.0  0.1093
  H  H256  1  0.844300  0.782400  0.323000  1.0  0.105
  H  H257  1  0.701700  0.882300  0.458100  1.0  0.1138
  H  H258  1  0.831000  0.941300  0.299100  1.0  0.1055
  H  H259  1  0.755100  0.918600  0.293000  1.0  0.0889
  H  H260  1  0.798500  0.839000  0.401600  1.0  0.1167
  H  H261  1  0.025500  0.848800  0.193000  1.0  0.0999
  H  H262  1  0.955100  0.006800  0.234600  1.0  0.099
  H  H263  1  0.795300  0.012500  0.258900  1.0  0.1041
  H  H264  1  0.990200  0.931900  0.192900  1.0  0.1039
  H  H265  1  0.755800  0.096600  0.258000  1.0  0.1154
  H  H266  1  0.916000  0.091300  0.237900  1.0  0.1121
  H  H267  1  0.911200  0.704400  0.338000  1.0  0.0795
  H  H268  1  0.882800  0.699400  0.304400  1.0  0.085
  H  H269  1  0.001500  0.636900  0.291300  1.0  0.0992
  H  H270  1  0.947000  0.623300  0.328500  1.0  0.1105
  H  H271  1  0.960800  0.628700  0.271900  1.0  0.107
  H  H272  1  0.473300  0.535400  0.150400  1.0  0.1093
  H  H273  1  0.449700  0.717600  0.177000  1.0  0.1058
  H  H274  1  0.542100  0.617700  0.041900  1.0  0.1145
  H  H275  1  0.571400  0.558700  0.200900  1.0  0.1063
  H  H276  1  0.466700  0.581400  0.207000  1.0  0.0878
  H  H277  1  0.539100  0.661000  0.098400  1.0  0.1167
  H  H278  1  0.567300  0.651200  0.307000  1.0  0.1001
  H  H279  1  0.696500  0.493200  0.265400  1.0  0.0982
  H  H280  1  0.566700  0.487500  0.241100  1.0  0.1046
  H  H281  1  0.615000  0.568100  0.307100  1.0  0.1055
  H  H282  1  0.610400  0.403400  0.242000  1.0  0.1148
  H  H283  1  0.745200  0.408700  0.262100  1.0  0.1119
  H  H284  1  0.453600  0.795600  0.162000  1.0  0.0775
  H  H285  1  0.386600  0.800600  0.195600  1.0  0.0841
  H  H286  1  0.429700  0.863100  0.208700  1.0  0.1053
  H  H287  1  0.398800  0.876700  0.171500  1.0  0.1128
  H  H288  1  0.361400  0.871300  0.228100  1.0  0.1066
  C  C289  1  0.066370  0.042600  0.946160  1.0  0.6951
  C  C290  1  0.100290  0.071540  0.909760  1.0  -0.1347
  C  C291  1  0.290780  0.157620  0.742600  1.0  0.0186
  C  C292  1  0.126500  0.060780  0.860320  1.0  -0.0273
  C  C293  1  0.168070  0.202220  0.803180  1.0  -0.2126
  C  C294  1  0.198840  0.230970  0.771090  1.0  0.2358
  C  C295  1  0.259320  0.128870  0.775190  1.0  0.0293
  C  C296  1  0.103430  0.109320  0.924760  1.0  -0.0633
  C  C297  1  0.292230  0.077400  0.776360  1.0  -0.1896
  C  C298  1  0.163160  0.124260  0.841700  1.0  0.022
  C  C299  1  0.258770  0.209510  0.741330  1.0  -0.0527
  C  C300  1  0.197250  0.152630  0.805910  1.0  -0.0396
  C  C301  1  0.157000  0.087970  0.826610  1.0  -0.1297
  C  C302  1  0.135190  0.135390  0.890830  1.0  -0.1365
  C  C303  1  0.351270  0.053900  0.746100  1.0  0.0395
  C  C304  1  0.352360  0.132910  0.713530  1.0  -0.0767
  C  C305  1  0.463210  0.841720  0.749460  1.0  0.6823
  C  C306  1  0.439200  0.975040  0.740300  1.0  -0.0937
  C  C307  1  0.348560  0.971370  0.754030  1.0  -0.1432
  C  C308  1  0.434950  0.896580  0.749340  1.0  -0.1035
  C  C309  1  0.380880  0.999240  0.746640  1.0  0.0526
  C  C310  1  0.381230  0.083290  0.714170  1.0  -0.101
  C  C311  1  0.374670  0.921340  0.754360  1.0  -0.0862
  C  C312  1  0.466820  0.924240  0.741900  1.0  -0.11
  C  C313  1  0.114150  0.306400  0.805900  1.0  0.1672
  C  C314  1  0.102060  0.358880  0.798800  1.0  -0.3693
  C  C315  1  0.555130  0.457400  0.553840  1.0  0.6957
  C  C316  1  0.581590  0.428460  0.590240  1.0  -0.1383
  C  C317  1  0.691000  0.342380  0.757400  1.0  0.0177
  C  C318  1  0.547600  0.439220  0.639680  1.0  -0.0259
  C  C319  1  0.673470  0.297780  0.696820  1.0  -0.2116
  C  C320  1  0.700900  0.269030  0.728910  1.0  0.2359
  C  C321  1  0.663380  0.371130  0.724810  1.0  0.0307
  C  C322  1  0.637510  0.390680  0.575240  1.0  -0.0597
  C  C323  1  0.645990  0.422600  0.723640  1.0  -0.1928
  C  C324  1  0.629120  0.375740  0.658300  1.0  0.0222
  C  C325  1  0.709610  0.290490  0.758670  1.0  -0.0511
  C  C326  1  0.655790  0.347370  0.694090  1.0  -0.0394
  C  C327  1  0.571580  0.412030  0.673390  1.0  -0.1294
  C  C328  1  0.661410  0.364610  0.609170  1.0  -0.1321
  C  C329  1  0.651270  0.446100  0.753900  1.0  0.039
  C  C330  1  0.698800  0.367090  0.786470  1.0  -0.0786
  C  C331  1  0.554390  0.658280  0.750540  1.0  0.6817
  C  C332  1  0.654540  0.524960  0.759700  1.0  -0.0927
  C  C333  1  0.573960  0.528630  0.745970  1.0  -0.1443
  C  C334  1  0.580870  0.603420  0.750660  1.0  -0.107
  C  C335  1  0.626760  0.500760  0.753360  1.0  0.051
  C  C336  1  0.678690  0.416710  0.785830  1.0  -0.0992
  C  C337  1  0.550370  0.578660  0.745640  1.0  -0.0865
  C  C338  1  0.632960  0.575760  0.758100  1.0  -0.1106
  C  C339  1  0.726450  0.193600  0.694100  1.0  0.161
  C  C340  1  0.759740  0.141120  0.701200  1.0  -0.3691
  C  C341  1  0.444870  0.446160  0.542600  1.0  0.6942
  C  C342  1  0.418410  0.409760  0.571540  1.0  -0.138
  C  C343  1  0.309000  0.242600  0.657620  1.0  0.0188
  C  C344  1  0.452400  0.360320  0.560780  1.0  -0.0269
  C  C345  1  0.326530  0.303180  0.702220  1.0  -0.2123
  C  C346  1  0.299100  0.271090  0.730970  1.0  0.233
  C  C347  1  0.336620  0.275190  0.628870  1.0  0.0304
  C  C348  1  0.362490  0.424760  0.609320  1.0  -0.0547
  C  C349  1  0.354010  0.276360  0.577400  1.0  -0.1909
  C  C350  1  0.370880  0.341700  0.624260  1.0  0.0218
  C  C351  1  0.290390  0.241330  0.709510  1.0  -0.0522
  C  C352  1  0.344210  0.305910  0.652630  1.0  -0.0421
  C  C353  1  0.428420  0.326610  0.587970  1.0  -0.1305
  C  C354  1  0.338590  0.390830  0.635390  1.0  -0.1328
  C  C355  1  0.348730  0.246100  0.553900  1.0  0.0363
  C  C356  1  0.301200  0.213530  0.632910  1.0  -0.0764
  C  C357  1  0.445610  0.249460  0.341720  1.0  0.6818
  C  C358  1  0.345460  0.240300  0.475040  1.0  -0.0927
  C  C359  1  0.426040  0.254030  0.471370  1.0  -0.1413
  C  C360  1  0.419130  0.249340  0.396580  1.0  -0.1066
  C  C361  1  0.373240  0.246640  0.499240  1.0  0.05
  C  C362  1  0.321310  0.214170  0.583290  1.0  -0.1007
  C  C363  1  0.449630  0.254360  0.421340  1.0  -0.0863
  C  C364  1  0.367040  0.241900  0.424240  1.0  -0.1104
  C  C365  1  0.273550  0.305900  0.806400  1.0  0.1648
  C  C366  1  0.240260  0.298800  0.858880  1.0  -0.3709
  C  C367  1  0.933630  0.053840  0.957400  1.0  0.6965
  C  C368  1  0.899710  0.090240  0.928460  1.0  -0.1392
  C  C369  1  0.709220  0.257400  0.842380  1.0  0.018
  C  C370  1  0.873500  0.139680  0.939220  1.0  -0.0286
  C  C371  1  0.831930  0.196820  0.797780  1.0  -0.2147
  C  C372  1  0.801160  0.228910  0.769030  1.0  0.2337
  C  C373  1  0.740680  0.224810  0.871130  1.0  0.0285
  C  C374  1  0.896570  0.075240  0.890680  1.0  -0.0544
  C  C375  1  0.707770  0.223640  0.922600  1.0  -0.1889
  C  C376  1  0.836840  0.158300  0.875740  1.0  0.0216
  C  C377  1  0.741230  0.258670  0.790490  1.0  -0.0519
  C  C378  1  0.802750  0.194090  0.847370  1.0  -0.0424
  C  C379  1  0.843000  0.173390  0.912030  1.0  -0.1306
  C  C380  1  0.864810  0.109170  0.864610  1.0  -0.1301
  C  C381  1  0.648730  0.253900  0.946100  1.0  0.0383
  C  C382  1  0.647640  0.286470  0.867090  1.0  -0.078
  C  C383  1  0.536790  0.250540  0.158280  1.0  0.6819
  C  C384  1  0.560800  0.259700  0.024960  1.0  -0.0921
  C  C385  1  0.651440  0.245970  0.028630  1.0  -0.1448
  C  C386  1  0.565050  0.250660  0.103420  1.0  -0.1063
  C  C387  1  0.619120  0.253360  0.000760  1.0  0.0483
  C  C388  1  0.618770  0.285830  0.916710  1.0  -0.0984
  C  C389  1  0.625330  0.245640  0.078660  1.0  -0.0855
  C  C390  1  0.533180  0.258100  0.075760  1.0  -0.1083
  C  C391  1  0.885850  0.194100  0.693600  1.0  0.1681
  C  C392  1  0.897940  0.201200  0.641120  1.0  -0.3707
  C  C393  1  0.933630  0.957400  0.053840  1.0  0.695
  C  C394  1  0.899710  0.928460  0.090240  1.0  -0.1365
  C  C395  1  0.709220  0.842380  0.257400  1.0  0.018
  C  C396  1  0.873500  0.939220  0.139680  1.0  -0.0278
  C  C397  1  0.831930  0.797780  0.196820  1.0  -0.2112
  C  C398  1  0.801160  0.769030  0.228910  1.0  0.2345
  C  C399  1  0.740680  0.871130  0.224810  1.0  0.0284
  C  C400  1  0.896570  0.890680  0.075240  1.0  -0.063
  C  C401  1  0.707770  0.922600  0.223640  1.0  -0.1861
  C  C402  1  0.836840  0.875740  0.158300  1.0  0.0194
  C  C403  1  0.741230  0.790490  0.258670  1.0  -0.0528
  C  C404  1  0.802750  0.847370  0.194090  1.0  -0.0416
  C  C405  1  0.843000  0.912030  0.173390  1.0  -0.1321
  C  C406  1  0.864810  0.864610  0.109170  1.0  -0.1327
  C  C407  1  0.648730  0.946100  0.253900  1.0  0.0399
  C  C408  1  0.647640  0.867090  0.286470  1.0  -0.0773
  C  C409  1  0.536790  0.158280  0.250540  1.0  0.6822
  C  C410  1  0.560800  0.024960  0.259700  1.0  -0.0938
  C  C411  1  0.651440  0.028630  0.245970  1.0  -0.1429
  C  C412  1  0.565050  0.103420  0.250660  1.0  -0.1034
  C  C413  1  0.619120  0.000760  0.253360  1.0  0.0515
  C  C414  1  0.618770  0.916710  0.285830  1.0  -0.0998
  C  C415  1  0.625330  0.078660  0.245640  1.0  -0.0869
  C  C416  1  0.533180  0.075760  0.258100  1.0  -0.1114
  C  C417  1  0.885850  0.693600  0.194100  1.0  0.1669
  C  C418  1  0.897940  0.641120  0.201200  1.0  -0.3686
  C  C419  1  0.444870  0.542600  0.446160  1.0  0.6964
  C  C420  1  0.418410  0.571540  0.409760  1.0  -0.1383
  C  C421  1  0.309000  0.657620  0.242600  1.0  0.0173
  C  C422  1  0.452400  0.560780  0.360320  1.0  -0.0279
  C  C423  1  0.326530  0.702220  0.303180  1.0  -0.2117
  C  C424  1  0.299100  0.730970  0.271090  1.0  0.2361
  C  C425  1  0.336620  0.628870  0.275190  1.0  0.0306
  C  C426  1  0.362490  0.609320  0.424760  1.0  -0.0602
  C  C427  1  0.354010  0.577400  0.276360  1.0  -0.1906
  C  C428  1  0.370880  0.624260  0.341700  1.0  0.0219
  C  C429  1  0.290390  0.709510  0.241330  1.0  -0.0521
  C  C430  1  0.344210  0.652630  0.305910  1.0  -0.039
  C  C431  1  0.428420  0.587970  0.326610  1.0  -0.1311
  C  C432  1  0.338590  0.635390  0.390830  1.0  -0.1319
  C  C433  1  0.348730  0.553900  0.246100  1.0  0.0381
  C  C434  1  0.301200  0.632910  0.213530  1.0  -0.0787
  C  C435  1  0.445610  0.341720  0.249460  1.0  0.6814
  C  C436  1  0.345460  0.475040  0.240300  1.0  -0.0914
  C  C437  1  0.426040  0.471370  0.254030  1.0  -0.1426
  C  C438  1  0.419130  0.396580  0.249340  1.0  -0.1083
  C  C439  1  0.373240  0.499240  0.246640  1.0  0.0509
  C  C440  1  0.321310  0.583290  0.214170  1.0  -0.1013
  C  C441  1  0.449630  0.421340  0.254360  1.0  -0.0862
  C  C442  1  0.367040  0.424240  0.241900  1.0  -0.1114
  C  C443  1  0.273550  0.806400  0.305900  1.0  0.1599
  C  C444  1  0.240260  0.858880  0.298800  1.0  -0.3696
  C  C445  1  0.555130  0.553840  0.457400  1.0  0.6938
  C  C446  1  0.581590  0.590240  0.428460  1.0  -0.1368
  C  C447  1  0.691000  0.757400  0.342380  1.0  0.0191
  C  C448  1  0.547600  0.639680  0.439220  1.0  -0.0279
  C  C449  1  0.673470  0.696820  0.297780  1.0  -0.2139
  C  C450  1  0.700900  0.728910  0.269030  1.0  0.2334
  C  C451  1  0.663380  0.724810  0.371130  1.0  0.0282
  C  C452  1  0.637510  0.575240  0.390680  1.0  -0.0569
  C  C453  1  0.645990  0.723640  0.422600  1.0  -0.1919
  C  C454  1  0.629120  0.658300  0.375740  1.0  0.0228
  C  C455  1  0.709610  0.758670  0.290490  1.0  -0.0518
  C  C456  1  0.655790  0.694090  0.347370  1.0  -0.0416
  C  C457  1  0.571580  0.673390  0.412030  1.0  -0.1305
  C  C458  1  0.661410  0.609170  0.364610  1.0  -0.1325
  C  C459  1  0.651270  0.753900  0.446100  1.0  0.0378
  C  C460  1  0.698800  0.786470  0.367090  1.0  -0.0768
  C  C461  1  0.554390  0.750540  0.658280  1.0  0.6819
  C  C462  1  0.654540  0.759700  0.524960  1.0  -0.092
  C  C463  1  0.573960  0.745970  0.528630  1.0  -0.1435
  C  C464  1  0.580870  0.750660  0.603420  1.0  -0.1089
  C  C465  1  0.626760  0.753360  0.500760  1.0  0.05
  C  C466  1  0.678690  0.785830  0.416710  1.0  -0.102
  C  C467  1  0.550370  0.745640  0.578660  1.0  -0.0873
  C  C468  1  0.632960  0.758100  0.575760  1.0  -0.1107
  C  C469  1  0.726450  0.694100  0.193600  1.0  0.1682
  C  C470  1  0.759740  0.701200  0.141120  1.0  -0.3698
  C  C471  1  0.066370  0.946160  0.042600  1.0  0.6963
  C  C472  1  0.100290  0.909760  0.071540  1.0  -0.1382
  C  C473  1  0.290780  0.742600  0.157620  1.0  0.0179
  C  C474  1  0.126500  0.860320  0.060780  1.0  -0.0281
  C  C475  1  0.168070  0.803180  0.202220  1.0  -0.2129
  C  C476  1  0.198840  0.771090  0.230970  1.0  0.2337
  C  C477  1  0.259320  0.775190  0.128870  1.0  0.0288
  C  C478  1  0.103430  0.924760  0.109320  1.0  -0.0548
  C  C479  1  0.292230  0.776360  0.077400  1.0  -0.1909
  C  C480  1  0.163160  0.841700  0.124260  1.0  0.0235
  C  C481  1  0.258770  0.741330  0.209510  1.0  -0.052
  C  C482  1  0.197250  0.805910  0.152630  1.0  -0.0422
  C  C483  1  0.157000  0.826610  0.087970  1.0  -0.1314
  C  C484  1  0.135190  0.890830  0.135390  1.0  -0.1295
  C  C485  1  0.351270  0.746100  0.053900  1.0  0.0393
  C  C486  1  0.352360  0.713530  0.132910  1.0  -0.0771
  C  C487  1  0.463210  0.749460  0.841720  1.0  0.6821
  C  C488  1  0.439200  0.740300  0.975040  1.0  -0.094
  C  C489  1  0.348560  0.754030  0.971370  1.0  -0.1432
  C  C490  1  0.434950  0.749340  0.896580  1.0  -0.1059
  C  C491  1  0.380880  0.746640  0.999240  1.0  0.0509
  C  C492  1  0.381230  0.714170  0.083290  1.0  -0.0985
  C  C493  1  0.374670  0.754360  0.921340  1.0  -0.0849
  C  C494  1  0.466820  0.741900  0.924240  1.0  -0.1072
  C  C495  1  0.114150  0.805900  0.306400  1.0  0.1682
  C  C496  1  0.102060  0.798800  0.358880  1.0  -0.3716
  C  C497  1  0.512530  0.053840  0.542600  1.0  0.6962
  C  C498  1  0.510050  0.090240  0.571540  1.0  -0.1384
  C  C499  1  0.533380  0.257400  0.657620  1.0  0.0175
  C  C500  1  0.486820  0.139680  0.560780  1.0  -0.0277
  C  C501  1  0.471250  0.196820  0.702220  1.0  -0.2139
  C  C502  1  0.469930  0.228910  0.730970  1.0  0.2339
  C  C503  1  0.534510  0.224810  0.628870  1.0  0.0279
  C  C504  1  0.528190  0.075240  0.609320  1.0  -0.0505
  C  C505  1  0.568590  0.223640  0.577400  1.0  -0.1905
  C  C506  1  0.504860  0.158300  0.624260  1.0  0.023
  C  C507  1  0.500100  0.258670  0.709510  1.0  -0.0517
  C  C508  1  0.503160  0.194090  0.652630  1.0  -0.0426
  C  C509  1  0.483610  0.173390  0.587970  1.0  -0.1315
  C  C510  1  0.526020  0.109170  0.635390  1.0  -0.1315
  C  C511  1  0.597370  0.253900  0.553900  1.0  0.0392
  C  C512  1  0.565890  0.286470  0.632910  1.0  -0.0775
  C  C513  1  0.712670  0.250540  0.341720  1.0  0.683
  C  C514  1  0.679500  0.259700  0.475040  1.0  -0.0896
  C  C515  1  0.602590  0.245970  0.471370  1.0  -0.1439
  C  C516  1  0.684290  0.250660  0.396580  1.0  -0.1115
  C  C517  1  0.627520  0.253360  0.499240  1.0  0.0507
  C  C518  1  0.595400  0.285830  0.583290  1.0  -0.0986
  C  C519  1  0.629030  0.245640  0.421340  1.0  -0.084
  C  C520  1  0.708720  0.258100  0.424240  1.0  -0.1067
  C  C521  1  0.420050  0.194100  0.806400  1.0  0.168
  C  C522  1  0.400860  0.201200  0.858880  1.0  -0.3701
  C  C523  1  0.608970  0.446160  0.957400  1.0  0.6887
  C  C524  1  0.671830  0.409760  0.928460  1.0  -0.1439
  C  C525  1  0.948400  0.242600  0.842380  1.0  0.0193
  C  C526  1  0.687280  0.360320  0.939220  1.0  -0.028
  C  C527  1  0.870290  0.303180  0.797780  1.0  -0.212
  C  C528  1  0.929810  0.271090  0.769030  1.0  0.233
  C  C529  1  0.888190  0.275190  0.871130  1.0  0.0295
  C  C530  1  0.712750  0.424760  0.890680  1.0  -0.0511
  C  C531  1  0.869630  0.276360  0.922600  1.0  -0.1929
  C  C532  1  0.787420  0.341700  0.875740  1.0  0.0228
  C  C533  1  0.968280  0.241330  0.790490  1.0  -0.0519
  C  C534  1  0.849880  0.305910  0.847370  1.0  -0.041
  C  C535  1  0.744970  0.326610  0.912030  1.0  -0.1312
  C  C536  1  0.770580  0.390830  0.864610  1.0  -0.1312
  C  C537  1  0.905170  0.246100  0.946100  1.0  0.0379
  C  C538  1  0.985270  0.213530  0.867090  1.0  -0.0762
  C  C539  1  0.804930  0.249460  0.158280  1.0  0.6809
  C  C540  1  0.914240  0.240300  0.024960  1.0  -0.0889
  C  C541  1  0.819930  0.254030  0.028630  1.0  -0.1427
  C  C542  1  0.831530  0.249340  0.103420  1.0  -0.1133
  C  C543  1  0.880120  0.246640  0.000760  1.0  0.05
  C  C544  1  0.964520  0.214170  0.916710  1.0  -0.1018
  C  C545  1  0.796010  0.254360  0.078660  1.0  -0.0873
  C  C546  1  0.891060  0.241900  0.075760  1.0  -0.1112
  C  C547  1  0.920550  0.305900  0.693600  1.0  0.1684
  C  C548  1  0.960940  0.298800  0.641120  1.0  -0.37
  C  C549  1  0.391030  0.042600  0.553840  1.0  0.6912
  C  C550  1  0.328170  0.071540  0.590240  1.0  -0.1445
  C  C551  1  0.051600  0.157620  0.757400  1.0  0.0179
  C  C552  1  0.312720  0.060780  0.639680  1.0  -0.0286
  C  C553  1  0.129710  0.202220  0.696820  1.0  -0.2111
  C  C554  1  0.070190  0.230970  0.728910  1.0  0.2348
  C  C555  1  0.111810  0.128870  0.724810  1.0  0.0281
  C  C556  1  0.287250  0.109320  0.575240  1.0  -0.0565
  C  C557  1  0.130370  0.077400  0.723640  1.0  -0.1867
  C  C558  1  0.212580  0.124260  0.658300  1.0  0.0196
  C  C559  1  0.031720  0.209510  0.758670  1.0  -0.053
  C  C560  1  0.150120  0.152630  0.694090  1.0  -0.0417
  C  C561  1  0.255030  0.087970  0.673390  1.0  -0.1326
  C  C562  1  0.229420  0.135390  0.609170  1.0  -0.133
  C  C563  1  0.094830  0.053900  0.753900  1.0  0.0383
  C  C564  1  0.014730  0.132910  0.786470  1.0  -0.0764
  C  C565  1  0.195070  0.841720  0.750540  1.0  0.6805
  C  C566  1  0.085760  0.975040  0.759700  1.0  -0.0902
  C  C567  1  0.180070  0.971370  0.745970  1.0  -0.1438
  C  C568  1  0.168470  0.896580  0.750660  1.0  -0.1098
  C  C569  1  0.119880  0.999240  0.753360  1.0  0.0521
  C  C570  1  0.035480  0.083290  0.785830  1.0  -0.1002
  C  C571  1  0.203990  0.921340  0.745640  1.0  -0.0857
  C  C572  1  0.108940  0.924240  0.758100  1.0  -0.1125
  C  C573  1  0.079450  0.306400  0.694100  1.0  0.1679
  C  C574  1  0.039060  0.358880  0.701200  1.0  -0.3698
  C  C575  1  0.487470  0.457400  0.946160  1.0  0.6952
  C  C576  1  0.489950  0.428460  0.909760  1.0  -0.1395
  C  C577  1  0.466620  0.342380  0.742600  1.0  0.0176
  C  C578  1  0.513180  0.439220  0.860320  1.0  -0.0269
  C  C579  1  0.528750  0.297780  0.803180  1.0  -0.2121
  C  C580  1  0.530070  0.269030  0.771090  1.0  0.2363
  C  C581  1  0.465490  0.371130  0.775190  1.0  0.0318
  C  C582  1  0.471810  0.390680  0.924760  1.0  -0.0561
  C  C583  1  0.431410  0.422600  0.776360  1.0  -0.1908
  C  C584  1  0.495140  0.375740  0.841700  1.0  0.023
  C  C585  1  0.499900  0.290490  0.741330  1.0  -0.052
  C  C586  1  0.496840  0.347370  0.805910  1.0  -0.0394
  C  C587  1  0.516390  0.412030  0.826610  1.0  -0.1308
  C  C588  1  0.473980  0.364610  0.890830  1.0  -0.1314
  C  C589  1  0.402630  0.446100  0.746100  1.0  0.0385
  C  C590  1  0.434110  0.367090  0.713530  1.0  -0.0796
  C  C591  1  0.287330  0.658280  0.749460  1.0  0.6833
  C  C592  1  0.320500  0.524960  0.740300  1.0  -0.0881
  C  C593  1  0.397410  0.528630  0.754030  1.0  -0.1424
  C  C594  1  0.315710  0.603420  0.749340  1.0  -0.1105
  C  C595  1  0.372480  0.500760  0.746640  1.0  0.0502
  C  C596  1  0.404600  0.416710  0.714170  1.0  -0.1006
  C  C597  1  0.370970  0.578660  0.754360  1.0  -0.085
  C  C598  1  0.291280  0.575760  0.741900  1.0  -0.1116
  C  C599  1  0.579950  0.193600  0.805900  1.0  0.1585
  C  C600  1  0.599140  0.141120  0.798800  1.0  -0.3683
  C  C601  1  0.487470  0.946160  0.457400  1.0  0.6958
  C  C602  1  0.489950  0.909760  0.428460  1.0  -0.1406
  C  C603  1  0.466620  0.742600  0.342380  1.0  0.0182
  C  C604  1  0.513180  0.860320  0.439220  1.0  -0.0293
  C  C605  1  0.528750  0.803180  0.297780  1.0  -0.2133
  C  C606  1  0.530070  0.771090  0.269030  1.0  0.2334
  C  C607  1  0.465490  0.775190  0.371130  1.0  0.0296
  C  C608  1  0.471810  0.924760  0.390680  1.0  -0.0495
  C  C609  1  0.431410  0.776360  0.422600  1.0  -0.1896
  C  C610  1  0.495140  0.841700  0.375740  1.0  0.0231
  C  C611  1  0.499900  0.741330  0.290490  1.0  -0.052
  C  C612  1  0.496840  0.805910  0.347370  1.0  -0.042
  C  C613  1  0.516390  0.826610  0.412030  1.0  -0.1314
  C  C614  1  0.473980  0.890830  0.364610  1.0  -0.1302
  C  C615  1  0.402630  0.746100  0.446100  1.0  0.0389
  C  C616  1  0.434110  0.713530  0.367090  1.0  -0.0781
  C  C617  1  0.287330  0.749460  0.658280  1.0  0.6827
  C  C618  1  0.320500  0.740300  0.524960  1.0  -0.0888
  C  C619  1  0.397410  0.754030  0.528630  1.0  -0.1446
  C  C620  1  0.315710  0.749340  0.603420  1.0  -0.1131
  C  C621  1  0.372480  0.746640  0.500760  1.0  0.049
  C  C622  1  0.404600  0.714170  0.416710  1.0  -0.099
  C  C623  1  0.370970  0.754360  0.578660  1.0  -0.0845
  C  C624  1  0.291280  0.741900  0.575760  1.0  -0.1092
  C  C625  1  0.579950  0.805900  0.193600  1.0  0.1675
  C  C626  1  0.599140  0.798800  0.141120  1.0  -0.3707
  C  C627  1  0.391030  0.553840  0.042600  1.0  0.6899
  C  C628  1  0.328170  0.590240  0.071540  1.0  -0.1446
  C  C629  1  0.051600  0.757400  0.157620  1.0  0.0184
  C  C630  1  0.312720  0.639680  0.060780  1.0  -0.0274
  C  C631  1  0.129710  0.696820  0.202220  1.0  -0.2131
  C  C632  1  0.070190  0.728910  0.230970  1.0  0.2329
  C  C633  1  0.111810  0.724810  0.128870  1.0  0.0293
  C  C634  1  0.287250  0.575240  0.109320  1.0  -0.0481
  C  C635  1  0.130370  0.723640  0.077400  1.0  -0.1921
  C  C636  1  0.212580  0.658300  0.124260  1.0  0.0212
  C  C637  1  0.031720  0.758670  0.209510  1.0  -0.0521
  C  C638  1  0.150120  0.694090  0.152630  1.0  -0.0421
  C  C639  1  0.255030  0.673390  0.087970  1.0  -0.1305
  C  C640  1  0.229420  0.609170  0.135390  1.0  -0.1329
  C  C641  1  0.094830  0.753900  0.053900  1.0  0.0359
  C  C642  1  0.014730  0.786470  0.132910  1.0  -0.0762
  C  C643  1  0.195070  0.750540  0.841720  1.0  0.681
  C  C644  1  0.085760  0.759700  0.975040  1.0  -0.089
  C  C645  1  0.180070  0.745970  0.971370  1.0  -0.1417
  C  C646  1  0.168470  0.750660  0.896580  1.0  -0.1101
  C  C647  1  0.119880  0.753360  0.999240  1.0  0.0495
  C  C648  1  0.035480  0.785830  0.083290  1.0  -0.0999
  C  C649  1  0.203990  0.745640  0.921340  1.0  -0.0853
  C  C650  1  0.108940  0.758100  0.924240  1.0  -0.1118
  C  C651  1  0.079450  0.694100  0.306400  1.0  0.1655
  C  C652  1  0.039060  0.701200  0.358880  1.0  -0.3693
  C  C653  1  0.608970  0.957400  0.446160  1.0  0.6904
  C  C654  1  0.671830  0.928460  0.409760  1.0  -0.1424
  C  C655  1  0.948400  0.842380  0.242600  1.0  0.0188
  C  C656  1  0.687280  0.939220  0.360320  1.0  -0.0271
  C  C657  1  0.870290  0.797780  0.303180  1.0  -0.2124
  C  C658  1  0.929810  0.769030  0.271090  1.0  0.2361
  C  C659  1  0.888190  0.871130  0.275190  1.0  0.0304
  C  C660  1  0.712750  0.890680  0.424760  1.0  -0.0556
  C  C661  1  0.869630  0.922600  0.276360  1.0  -0.1904
  C  C662  1  0.787420  0.875740  0.341700  1.0  0.0228
  C  C663  1  0.968280  0.790490  0.241330  1.0  -0.0526
  C  C664  1  0.849880  0.847370  0.305910  1.0  -0.04
  C  C665  1  0.744970  0.912030  0.326610  1.0  -0.1301
  C  C666  1  0.770580  0.864610  0.390830  1.0  -0.1358
  C  C667  1  0.905170  0.946100  0.246100  1.0  0.0394
  C  C668  1  0.985270  0.867090  0.213530  1.0  -0.0766
  C  C669  1  0.804930  0.158280  0.249460  1.0  0.6807
  C  C670  1  0.914240  0.024960  0.240300  1.0  -0.0909
  C  C671  1  0.819930  0.028630  0.254030  1.0  -0.1431
  C  C672  1  0.831530  0.103420  0.249340  1.0  -0.1095
  C  C673  1  0.880120  0.000760  0.246640  1.0  0.0519
  C  C674  1  0.964520  0.916710  0.214170  1.0  -0.1
  C  C675  1  0.796010  0.078660  0.254360  1.0  -0.0852
  C  C676  1  0.891060  0.075760  0.241900  1.0  -0.1108
  C  C677  1  0.920550  0.693600  0.305900  1.0  0.1666
  C  C678  1  0.960940  0.641120  0.298800  1.0  -0.3687
  C  C679  1  0.512530  0.542600  0.053840  1.0  0.6964
  C  C680  1  0.510050  0.571540  0.090240  1.0  -0.1386
  C  C681  1  0.533380  0.657620  0.257400  1.0  0.0174
  C  C682  1  0.486820  0.560780  0.139680  1.0  -0.0263
  C  C683  1  0.471250  0.702220  0.196820  1.0  -0.2119
  C  C684  1  0.469930  0.730970  0.228910  1.0  0.2366
  C  C685  1  0.534510  0.628870  0.224810  1.0  0.0303
  C  C686  1  0.528190  0.609320  0.075240  1.0  -0.0559
  C  C687  1  0.568590  0.577400  0.223640  1.0  -0.192
  C  C688  1  0.504860  0.624260  0.158300  1.0  0.0222
  C  C689  1  0.500100  0.709510  0.258670  1.0  -0.0513
  C  C690  1  0.503160  0.652630  0.194090  1.0  -0.0393
  C  C691  1  0.483610  0.587970  0.173390  1.0  -0.13
  C  C692  1  0.526020  0.635390  0.109170  1.0  -0.1322
  C  C693  1  0.597370  0.553900  0.253900  1.0  0.0384
  C  C694  1  0.565890  0.632910  0.286470  1.0  -0.0785
  C  C695  1  0.712670  0.341720  0.250540  1.0  0.6828
  C  C696  1  0.679500  0.475040  0.259700  1.0  -0.0879
  C  C697  1  0.602590  0.471370  0.245970  1.0  -0.1446
  C  C698  1  0.684290  0.396580  0.250660  1.0  -0.1095
  C  C699  1  0.627520  0.499240  0.253360  1.0  0.0518
  C  C700  1  0.595400  0.583290  0.285830  1.0  -0.0998
  C  C701  1  0.629030  0.421340  0.245640  1.0  -0.0854
  C  C702  1  0.708720  0.424240  0.258100  1.0  -0.1094
  C  C703  1  0.420050  0.806400  0.194100  1.0  0.1623
  C  C704  1  0.400860  0.858880  0.201200  1.0  -0.3698
  O  O705  1  0.033270  0.060080  0.987960  1.0  -0.5597
  O  O706  1  0.432940  0.820190  0.749970  1.0  -0.5607
  O  O707  1  0.074030  0.003610  0.930050  1.0  -0.5887
  O  O708  1  0.515020  0.821520  0.749900  1.0  -0.5651
  O  O709  1  0.171190  0.280050  0.767550  1.0  -0.2651
  O  O710  1  0.581310  0.439920  0.512040  1.0  -0.558
  O  O711  1  0.503100  0.679810  0.750030  1.0  -0.5597
  O  O712  1  0.507690  0.496390  0.569950  1.0  -0.5901
  O  O713  1  0.586440  0.678480  0.750100  1.0  -0.5654
  O  O714  1  0.718790  0.219950  0.732450  1.0  -0.2641
  O  O715  1  0.418690  0.487960  0.560080  1.0  -0.5594
  O  O716  1  0.496900  0.249970  0.320190  1.0  -0.5594
  O  O717  1  0.492310  0.430050  0.503610  1.0  -0.5906
  O  O718  1  0.413560  0.249900  0.321520  1.0  -0.5661
  O  O719  1  0.281210  0.267550  0.780050  1.0  -0.2654
  O  O720  1  0.966730  0.012040  0.939920  1.0  -0.5603
  O  O721  1  0.567060  0.250030  0.179810  1.0  -0.5622
  O  O722  1  0.925970  0.069950  0.996390  1.0  -0.5916
  O  O723  1  0.484980  0.250100  0.178480  1.0  -0.5649
  O  O724  1  0.828810  0.232450  0.719950  1.0  -0.2663
  O  O725  1  0.966730  0.939920  0.012040  1.0  -0.5603
  O  O726  1  0.567060  0.179810  0.250030  1.0  -0.5614
  O  O727  1  0.925970  0.996390  0.069950  1.0  -0.5882
  O  O728  1  0.484980  0.178480  0.250100  1.0  -0.5651
  O  O729  1  0.828810  0.719950  0.232450  1.0  -0.2664
  O  O730  1  0.418690  0.560080  0.487960  1.0  -0.5586
  O  O731  1  0.496900  0.320190  0.249970  1.0  -0.5603
  O  O732  1  0.492310  0.503610  0.430050  1.0  -0.5896
  O  O733  1  0.413560  0.321520  0.249900  1.0  -0.5658
  O  O734  1  0.281210  0.780050  0.267550  1.0  -0.2633
  O  O735  1  0.581310  0.512040  0.439920  1.0  -0.5594
  O  O736  1  0.503100  0.750030  0.679810  1.0  -0.5594
  O  O737  1  0.507690  0.569950  0.496390  1.0  -0.5881
  O  O738  1  0.586440  0.750100  0.678480  1.0  -0.5657
  O  O739  1  0.718790  0.732450  0.219950  1.0  -0.2655
  O  O740  1  0.033270  0.987960  0.060080  1.0  -0.5592
  O  O741  1  0.432940  0.749970  0.820190  1.0  -0.5602
  O  O742  1  0.074030  0.930050  0.003610  1.0  -0.5921
  O  O743  1  0.515020  0.749900  0.821520  1.0  -0.5648
  O  O744  1  0.171190  0.767550  0.280050  1.0  -0.2657
  O  O745  1  0.521230  0.012040  0.560080  1.0  -0.5565
  O  O746  1  0.682910  0.250030  0.320190  1.0  -0.5585
  O  O747  1  0.504080  0.069950  0.503610  1.0  -0.5916
  O  O748  1  0.764920  0.250100  0.321520  1.0  -0.5661
  O  O749  1  0.438740  0.232450  0.780050  1.0  -0.266
  O  O750  1  0.593350  0.487960  0.939920  1.0  -0.5531
  O  O751  1  0.753130  0.249970  0.179810  1.0  -0.5594
  O  O752  1  0.577640  0.430050  0.996390  1.0  -0.5949
  O  O753  1  0.836540  0.249900  0.178480  1.0  -0.5663
  O  O754  1  0.951240  0.267550  0.719950  1.0  -0.2649
  O  O755  1  0.406650  0.060080  0.512040  1.0  -0.555
  O  O756  1  0.246870  0.820190  0.750030  1.0  -0.5603
  O  O757  1  0.422360  0.003610  0.569950  1.0  -0.596
  O  O758  1  0.163460  0.821520  0.750100  1.0  -0.5663
  O  O759  1  0.048760  0.280050  0.732450  1.0  -0.2663
  O  O760  1  0.478770  0.439920  0.987960  1.0  -0.5552
  O  O761  1  0.317090  0.679810  0.749970  1.0  -0.5588
  O  O762  1  0.495920  0.496390  0.930050  1.0  -0.5889
  O  O763  1  0.235080  0.678480  0.749900  1.0  -0.5663
  O  O764  1  0.561260  0.219950  0.767550  1.0  -0.2645
  O  O765  1  0.478770  0.987960  0.439920  1.0  -0.5561
  O  O766  1  0.317090  0.749970  0.679810  1.0  -0.5598
  O  O767  1  0.495920  0.930050  0.496390  1.0  -0.5898
  O  O768  1  0.235080  0.749900  0.678480  1.0  -0.5661
  O  O769  1  0.561260  0.767550  0.219950  1.0  -0.266
  O  O770  1  0.406650  0.512040  0.060080  1.0  -0.5531
  O  O771  1  0.246870  0.750030  0.820190  1.0  -0.5591
  O  O772  1  0.422360  0.569950  0.003610  1.0  -0.5993
  O  O773  1  0.163460  0.750100  0.821520  1.0  -0.5668
  O  O774  1  0.048760  0.732450  0.280050  1.0  -0.2655
  O  O775  1  0.593350  0.939920  0.487960  1.0  -0.5536
  O  O776  1  0.753130  0.179810  0.249970  1.0  -0.5595
  O  O777  1  0.577640  0.996390  0.430050  1.0  -0.5967
  O  O778  1  0.836540  0.178480  0.249900  1.0  -0.5665
  O  O779  1  0.951240  0.719950  0.267550  1.0  -0.2661
  O  O780  1  0.521230  0.560080  0.012040  1.0  -0.5553
  O  O781  1  0.682910  0.320190  0.250030  1.0  -0.5585
  O  O782  1  0.504080  0.503610  0.069950  1.0  -0.5904
  O  O783  1  0.764920  0.321520  0.250100  1.0  -0.5658
  O  O784  1  0.438740  0.780050  0.232450  1.0  -0.2643
