# generated using pymatgen
data_ZnH7C11N2O3
_symmetry_space_group_name_H-M   'P 1'
_cell_length_a   26.63000000
_cell_length_b   35.92800000
_cell_length_c   13.00100000
_cell_angle_alpha   90.00000000
_cell_angle_beta   90.00000000
_cell_angle_gamma   90.00000000
_symmetry_Int_Tables_number   1
_chemical_formula_structural   ZnH7C11N2O3
_chemical_formula_sum   'Zn32 H224 C352 N64 O96'
_cell_volume   12438.87108264
_cell_formula_units_Z   32
loop_
 _symmetry_equiv_pos_site_id
 _symmetry_equiv_pos_as_xyz
  1  'x, y, z'
loop_
 _atom_site_type_symbol
 _atom_site_label
 _atom_site_symmetry_multiplicity
 _atom_site_fract_x
 _atom_site_fract_y
 _atom_site_fract_z
 _atom_site_occupancy
 _atom_site_charge
  Zn  Zn1  1  0.354690  0.118940  0.585370  1.0  0.9599
  Zn  Zn2  1  0.226890  0.061100  0.494990  1.0  0.889
  Zn  Zn3  1  0.854690  0.118940  0.085370  1.0  0.9599
  Zn  Zn4  1  0.726890  0.061100  0.994990  1.0  0.889
  Zn  Zn5  1  0.604690  0.131060  0.835370  1.0  0.9655
  Zn  Zn6  1  0.476890  0.188900  0.744990  1.0  0.8892
  Zn  Zn7  1  0.104690  0.131060  0.335370  1.0  0.9655
  Zn  Zn8  1  0.976890  0.188900  0.244990  1.0  0.8892
  Zn  Zn9  1  0.354690  0.618940  0.085370  1.0  0.9599
  Zn  Zn10  1  0.226890  0.561100  0.994990  1.0  0.889
  Zn  Zn11  1  0.854690  0.618940  0.585370  1.0  0.9599
  Zn  Zn12  1  0.726890  0.561100  0.494990  1.0  0.889
  Zn  Zn13  1  0.604690  0.631060  0.335370  1.0  0.9655
  Zn  Zn14  1  0.476890  0.688900  0.244990  1.0  0.8892
  Zn  Zn15  1  0.104690  0.631060  0.835370  1.0  0.9655
  Zn  Zn16  1  0.976890  0.688900  0.744990  1.0  0.8892
  Zn  Zn17  1  0.645310  0.881060  0.585370  1.0  0.9656
  Zn  Zn18  1  0.773110  0.938900  0.494990  1.0  0.8895
  Zn  Zn19  1  0.145310  0.881060  0.085370  1.0  0.9656
  Zn  Zn20  1  0.273110  0.938900  0.994990  1.0  0.8895
  Zn  Zn21  1  0.895310  0.868940  0.335370  1.0  0.9596
  Zn  Zn22  1  0.023110  0.811100  0.244990  1.0  0.8908
  Zn  Zn23  1  0.395310  0.868940  0.835370  1.0  0.9596
  Zn  Zn24  1  0.523110  0.811100  0.744990  1.0  0.8908
  Zn  Zn25  1  0.645310  0.381060  0.085370  1.0  0.9656
  Zn  Zn26  1  0.773110  0.438900  0.994990  1.0  0.8895
  Zn  Zn27  1  0.145310  0.381060  0.585370  1.0  0.9656
  Zn  Zn28  1  0.273110  0.438900  0.494990  1.0  0.8895
  Zn  Zn29  1  0.895310  0.368940  0.835370  1.0  0.9596
  Zn  Zn30  1  0.023110  0.311100  0.744990  1.0  0.8908
  Zn  Zn31  1  0.395310  0.368940  0.335370  1.0  0.9596
  Zn  Zn32  1  0.523110  0.311100  0.244990  1.0  0.8908
  H  H33  1  0.344500  0.124200  0.177800  1.0  0.078
  H  H34  1  0.283400  0.082900  0.116400  1.0  0.0997
  H  H35  1  0.232100  0.052600  0.235100  1.0  0.0786
  H  H36  1  0.351800  0.094300  0.986800  1.0  0.0822
  H  H37  1  0.421800  0.120900  0.067900  1.0  0.1018
  H  H38  1  0.475000  0.158300  0.970200  1.0  0.0653
  H  H39  1  0.156200  0.043000  0.319400  1.0  0.0724
  H  H40  1  0.086700  0.006400  0.285300  1.0  0.1032
  H  H41  1  0.097700  0.964100  0.572900  1.0  0.1101
  H  H42  1  0.169500  0.999400  0.596100  1.0  0.0646
  H  H43  1  0.977000  0.914600  0.229400  1.0  0.0661
  H  H44  1  0.046300  0.952200  0.253100  1.0  0.1112
  H  H45  1  0.011200  0.957900  0.555900  1.0  0.1141
  H  H46  1  0.941900  0.920700  0.522100  1.0  0.0597
  H  H47  1  0.844500  0.124200  0.677800  1.0  0.078
  H  H48  1  0.783400  0.082900  0.616400  1.0  0.0997
  H  H49  1  0.732100  0.052600  0.735100  1.0  0.0786
  H  H50  1  0.851800  0.094300  0.486800  1.0  0.0822
  H  H51  1  0.921800  0.120900  0.567900  1.0  0.1018
  H  H52  1  0.975000  0.158300  0.470200  1.0  0.0653
  H  H53  1  0.656200  0.043000  0.819400  1.0  0.0724
  H  H54  1  0.586700  0.006400  0.785300  1.0  0.1032
  H  H55  1  0.597700  0.964100  0.072900  1.0  0.1101
  H  H56  1  0.669500  0.999400  0.096100  1.0  0.0646
  H  H57  1  0.477000  0.914600  0.729400  1.0  0.0661
  H  H58  1  0.546300  0.952200  0.753100  1.0  0.1112
  H  H59  1  0.511200  0.957900  0.055900  1.0  0.1141
  H  H60  1  0.441900  0.920700  0.022100  1.0  0.0597
  H  H61  1  0.594500  0.125800  0.427800  1.0  0.0778
  H  H62  1  0.533400  0.167100  0.366400  1.0  0.0998
  H  H63  1  0.482100  0.197400  0.485100  1.0  0.0793
  H  H64  1  0.601800  0.155700  0.236800  1.0  0.0821
  H  H65  1  0.671800  0.129100  0.317900  1.0  0.1022
  H  H66  1  0.725000  0.091700  0.220200  1.0  0.0653
  H  H67  1  0.406200  0.207000  0.569400  1.0  0.0725
  H  H68  1  0.336700  0.243600  0.535300  1.0  0.1033
  H  H69  1  0.347700  0.285900  0.822900  1.0  0.1102
  H  H70  1  0.419500  0.250600  0.846100  1.0  0.0649
  H  H71  1  0.227000  0.335400  0.479400  1.0  0.0657
  H  H72  1  0.296300  0.297800  0.503100  1.0  0.1111
  H  H73  1  0.261200  0.292100  0.805900  1.0  0.1142
  H  H74  1  0.191900  0.329300  0.772100  1.0  0.0596
  H  H75  1  0.094500  0.125800  0.927800  1.0  0.0778
  H  H76  1  0.033400  0.167100  0.866400  1.0  0.0998
  H  H77  1  0.982100  0.197400  0.985100  1.0  0.0793
  H  H78  1  0.101800  0.155700  0.736800  1.0  0.0821
  H  H79  1  0.171800  0.129100  0.817900  1.0  0.1022
  H  H80  1  0.225000  0.091700  0.720200  1.0  0.0653
  H  H81  1  0.906200  0.207000  0.069400  1.0  0.0725
  H  H82  1  0.836700  0.243600  0.035300  1.0  0.1033
  H  H83  1  0.847700  0.285900  0.322900  1.0  0.1102
  H  H84  1  0.919500  0.250600  0.346100  1.0  0.0649
  H  H85  1  0.727000  0.335400  0.979400  1.0  0.0657
  H  H86  1  0.796300  0.297800  0.003100  1.0  0.1111
  H  H87  1  0.761200  0.292100  0.305900  1.0  0.1142
  H  H88  1  0.691900  0.329300  0.272100  1.0  0.0596
  H  H89  1  0.344500  0.624200  0.677800  1.0  0.078
  H  H90  1  0.283400  0.582900  0.616400  1.0  0.0997
  H  H91  1  0.232100  0.552600  0.735100  1.0  0.0786
  H  H92  1  0.351800  0.594300  0.486800  1.0  0.0822
  H  H93  1  0.421800  0.620900  0.567900  1.0  0.1018
  H  H94  1  0.475000  0.658300  0.470200  1.0  0.0653
  H  H95  1  0.156200  0.543000  0.819400  1.0  0.0724
  H  H96  1  0.086700  0.506400  0.785300  1.0  0.1032
  H  H97  1  0.097700  0.464100  0.072900  1.0  0.1101
  H  H98  1  0.169500  0.499400  0.096100  1.0  0.0646
  H  H99  1  0.977000  0.414600  0.729400  1.0  0.0661
  H  H100  1  0.046300  0.452200  0.753100  1.0  0.1112
  H  H101  1  0.011200  0.457900  0.055900  1.0  0.1141
  H  H102  1  0.941900  0.420700  0.022100  1.0  0.0597
  H  H103  1  0.844500  0.624200  0.177800  1.0  0.078
  H  H104  1  0.783400  0.582900  0.116400  1.0  0.0997
  H  H105  1  0.732100  0.552600  0.235100  1.0  0.0786
  H  H106  1  0.851800  0.594300  0.986800  1.0  0.0822
  H  H107  1  0.921800  0.620900  0.067900  1.0  0.1018
  H  H108  1  0.975000  0.658300  0.970200  1.0  0.0653
  H  H109  1  0.656200  0.543000  0.319400  1.0  0.0724
  H  H110  1  0.586700  0.506400  0.285300  1.0  0.1032
  H  H111  1  0.597700  0.464100  0.572900  1.0  0.1101
  H  H112  1  0.669500  0.499400  0.596100  1.0  0.0646
  H  H113  1  0.477000  0.414600  0.229400  1.0  0.0661
  H  H114  1  0.546300  0.452200  0.253100  1.0  0.1112
  H  H115  1  0.511200  0.457900  0.555900  1.0  0.1141
  H  H116  1  0.441900  0.420700  0.522100  1.0  0.0597
  H  H117  1  0.594500  0.625800  0.927800  1.0  0.0778
  H  H118  1  0.533400  0.667100  0.866400  1.0  0.0998
  H  H119  1  0.482100  0.697400  0.985100  1.0  0.0793
  H  H120  1  0.601800  0.655700  0.736800  1.0  0.0821
  H  H121  1  0.671800  0.629100  0.817900  1.0  0.1022
  H  H122  1  0.725000  0.591700  0.720200  1.0  0.0653
  H  H123  1  0.406200  0.707000  0.069400  1.0  0.0725
  H  H124  1  0.336700  0.743600  0.035300  1.0  0.1033
  H  H125  1  0.347700  0.785900  0.322900  1.0  0.1102
  H  H126  1  0.419500  0.750600  0.346100  1.0  0.0649
  H  H127  1  0.227000  0.835400  0.979400  1.0  0.0657
  H  H128  1  0.296300  0.797800  0.003100  1.0  0.1111
  H  H129  1  0.261200  0.792100  0.305900  1.0  0.1142
  H  H130  1  0.191900  0.829300  0.272100  1.0  0.0596
  H  H131  1  0.094500  0.625800  0.427800  1.0  0.0778
  H  H132  1  0.033400  0.667100  0.366400  1.0  0.0998
  H  H133  1  0.982100  0.697400  0.485100  1.0  0.0793
  H  H134  1  0.101800  0.655700  0.236800  1.0  0.0821
  H  H135  1  0.171800  0.629100  0.317900  1.0  0.1022
  H  H136  1  0.225000  0.591700  0.220200  1.0  0.0653
  H  H137  1  0.906200  0.707000  0.569400  1.0  0.0725
  H  H138  1  0.836700  0.743600  0.535300  1.0  0.1033
  H  H139  1  0.847700  0.785900  0.822900  1.0  0.1102
  H  H140  1  0.919500  0.750600  0.846100  1.0  0.0649
  H  H141  1  0.727000  0.835400  0.479400  1.0  0.0657
  H  H142  1  0.796300  0.797800  0.503100  1.0  0.1111
  H  H143  1  0.761200  0.792100  0.805900  1.0  0.1142
  H  H144  1  0.691900  0.829300  0.772100  1.0  0.0596
  H  H145  1  0.655500  0.875800  0.177800  1.0  0.0779
  H  H146  1  0.716600  0.917100  0.116400  1.0  0.0999
  H  H147  1  0.767900  0.947400  0.235100  1.0  0.0787
  H  H148  1  0.648200  0.905700  0.986800  1.0  0.0823
  H  H149  1  0.578200  0.879100  0.067900  1.0  0.1018
  H  H150  1  0.525000  0.841700  0.970200  1.0  0.0656
  H  H151  1  0.843800  0.957000  0.319400  1.0  0.0724
  H  H152  1  0.913300  0.993600  0.285300  1.0  0.1052
  H  H153  1  0.902300  0.035900  0.572900  1.0  0.1106
  H  H154  1  0.830500  0.000600  0.596100  1.0  0.0651
  H  H155  1  0.023000  0.085400  0.229400  1.0  0.0657
  H  H156  1  0.953700  0.047800  0.253100  1.0  0.1108
  H  H157  1  0.988800  0.042100  0.555900  1.0  0.1141
  H  H158  1  0.058100  0.079300  0.522100  1.0  0.0584
  H  H159  1  0.155500  0.875800  0.677800  1.0  0.0779
  H  H160  1  0.216600  0.917100  0.616400  1.0  0.0999
  H  H161  1  0.267900  0.947400  0.735100  1.0  0.0787
  H  H162  1  0.148200  0.905700  0.486800  1.0  0.0823
  H  H163  1  0.078200  0.879100  0.567900  1.0  0.1018
  H  H164  1  0.025000  0.841700  0.470200  1.0  0.0656
  H  H165  1  0.343800  0.957000  0.819400  1.0  0.0724
  H  H166  1  0.413300  0.993600  0.785300  1.0  0.1052
  H  H167  1  0.402300  0.035900  0.072900  1.0  0.1106
  H  H168  1  0.330500  0.000600  0.096100  1.0  0.0651
  H  H169  1  0.523000  0.085400  0.729400  1.0  0.0657
  H  H170  1  0.453700  0.047800  0.753100  1.0  0.1108
  H  H171  1  0.488800  0.042100  0.055900  1.0  0.1141
  H  H172  1  0.558100  0.079300  0.022100  1.0  0.0584
  H  H173  1  0.905500  0.874200  0.927800  1.0  0.0783
  H  H174  1  0.966600  0.832900  0.866400  1.0  0.0997
  H  H175  1  0.017900  0.802600  0.985100  1.0  0.0785
  H  H176  1  0.898200  0.844300  0.736800  1.0  0.0823
  H  H177  1  0.828200  0.870900  0.817900  1.0  0.1017
  H  H178  1  0.775000  0.908300  0.720200  1.0  0.0656
  H  H179  1  0.093800  0.793000  0.069400  1.0  0.0723
  H  H180  1  0.163300  0.756400  0.035300  1.0  0.1051
  H  H181  1  0.152300  0.714100  0.322900  1.0  0.1104
  H  H182  1  0.080500  0.749400  0.346100  1.0  0.0649
  H  H183  1  0.273000  0.664600  0.979400  1.0  0.066
  H  H184  1  0.203700  0.702200  0.003100  1.0  0.111
  H  H185  1  0.238800  0.707900  0.305900  1.0  0.1141
  H  H186  1  0.308100  0.670700  0.272100  1.0  0.0584
  H  H187  1  0.405500  0.874200  0.427800  1.0  0.0783
  H  H188  1  0.466600  0.832900  0.366400  1.0  0.0997
  H  H189  1  0.517900  0.802600  0.485100  1.0  0.0785
  H  H190  1  0.398200  0.844300  0.236800  1.0  0.0823
  H  H191  1  0.328200  0.870900  0.317900  1.0  0.1017
  H  H192  1  0.275000  0.908300  0.220200  1.0  0.0656
  H  H193  1  0.593800  0.793000  0.569400  1.0  0.0723
  H  H194  1  0.663300  0.756400  0.535300  1.0  0.1051
  H  H195  1  0.652300  0.714100  0.822900  1.0  0.1104
  H  H196  1  0.580500  0.749400  0.846100  1.0  0.0649
  H  H197  1  0.773000  0.664600  0.479400  1.0  0.066
  H  H198  1  0.703700  0.702200  0.503100  1.0  0.111
  H  H199  1  0.738800  0.707900  0.805900  1.0  0.1141
  H  H200  1  0.808100  0.670700  0.772100  1.0  0.0584
  H  H201  1  0.655500  0.375800  0.677800  1.0  0.0779
  H  H202  1  0.716600  0.417100  0.616400  1.0  0.0999
  H  H203  1  0.767900  0.447400  0.735100  1.0  0.0787
  H  H204  1  0.648200  0.405700  0.486800  1.0  0.0823
  H  H205  1  0.578200  0.379100  0.567900  1.0  0.1018
  H  H206  1  0.525000  0.341700  0.470200  1.0  0.0656
  H  H207  1  0.843800  0.457000  0.819400  1.0  0.0724
  H  H208  1  0.913300  0.493600  0.785300  1.0  0.1052
  H  H209  1  0.902300  0.535900  0.072900  1.0  0.1106
  H  H210  1  0.830500  0.500600  0.096100  1.0  0.0651
  H  H211  1  0.023000  0.585400  0.729400  1.0  0.0657
  H  H212  1  0.953700  0.547800  0.753100  1.0  0.1108
  H  H213  1  0.988800  0.542100  0.055900  1.0  0.1141
  H  H214  1  0.058100  0.579300  0.022100  1.0  0.0584
  H  H215  1  0.155500  0.375800  0.177800  1.0  0.0779
  H  H216  1  0.216600  0.417100  0.116400  1.0  0.0999
  H  H217  1  0.267900  0.447400  0.235100  1.0  0.0787
  H  H218  1  0.148200  0.405700  0.986800  1.0  0.0823
  H  H219  1  0.078200  0.379100  0.067900  1.0  0.1018
  H  H220  1  0.025000  0.341700  0.970200  1.0  0.0656
  H  H221  1  0.343800  0.457000  0.319400  1.0  0.0724
  H  H222  1  0.413300  0.493600  0.285300  1.0  0.1052
  H  H223  1  0.402300  0.535900  0.572900  1.0  0.1106
  H  H224  1  0.330500  0.500600  0.596100  1.0  0.0651
  H  H225  1  0.523000  0.585400  0.229400  1.0  0.0657
  H  H226  1  0.453700  0.547800  0.253100  1.0  0.1108
  H  H227  1  0.488800  0.542100  0.555900  1.0  0.1141
  H  H228  1  0.558100  0.579300  0.522100  1.0  0.0584
  H  H229  1  0.905500  0.374200  0.427800  1.0  0.0783
  H  H230  1  0.966600  0.332900  0.366400  1.0  0.0997
  H  H231  1  0.017900  0.302600  0.485100  1.0  0.0785
  H  H232  1  0.898200  0.344300  0.236800  1.0  0.0823
  H  H233  1  0.828200  0.370900  0.317900  1.0  0.1017
  H  H234  1  0.775000  0.408300  0.220200  1.0  0.0656
  H  H235  1  0.093800  0.293000  0.569400  1.0  0.0723
  H  H236  1  0.163300  0.256400  0.535300  1.0  0.1051
  H  H237  1  0.152300  0.214100  0.822900  1.0  0.1104
  H  H238  1  0.080500  0.249400  0.846100  1.0  0.0649
  H  H239  1  0.273000  0.164600  0.479400  1.0  0.066
  H  H240  1  0.203700  0.202200  0.503100  1.0  0.111
  H  H241  1  0.238800  0.207900  0.805900  1.0  0.1141
  H  H242  1  0.308100  0.170700  0.772100  1.0  0.0584
  H  H243  1  0.405500  0.374200  0.927800  1.0  0.0783
  H  H244  1  0.466600  0.332900  0.866400  1.0  0.0997
  H  H245  1  0.517900  0.302600  0.985100  1.0  0.0785
  H  H246  1  0.398200  0.344300  0.736800  1.0  0.0823
  H  H247  1  0.328200  0.370900  0.817900  1.0  0.1017
  H  H248  1  0.275000  0.408300  0.720200  1.0  0.0656
  H  H249  1  0.593800  0.293000  0.069400  1.0  0.0723
  H  H250  1  0.663300  0.256400  0.035300  1.0  0.1051
  H  H251  1  0.652300  0.214100  0.322900  1.0  0.1104
  H  H252  1  0.580500  0.249400  0.346100  1.0  0.0649
  H  H253  1  0.773000  0.164600  0.979400  1.0  0.066
  H  H254  1  0.703700  0.202200  0.003100  1.0  0.111
  H  H255  1  0.738800  0.207900  0.305900  1.0  0.1141
  H  H256  1  0.808100  0.170700  0.272100  1.0  0.0584
  C  C257  1  0.300100  0.095920  0.398100  1.0  0.4972
  C  C258  1  0.331730  0.116120  0.330500  1.0  -0.1745
  C  C259  1  0.324130  0.110940  0.225200  1.0  -0.0258
  C  C260  1  0.287590  0.086880  0.188100  1.0  -0.1242
  C  C261  1  0.257560  0.068970  0.259100  1.0  0.129
  C  C262  1  0.372040  0.142890  0.366400  1.0  0.6873
  C  C263  1  0.402860  0.133810  0.784700  1.0  0.5298
  C  C264  1  0.368310  0.111550  0.842200  1.0  -0.1207
  C  C265  1  0.375290  0.108170  0.947500  1.0  -0.0366
  C  C266  1  0.415870  0.124570  0.996600  1.0  -0.1267
  C  C267  1  0.447310  0.146430  0.937700  1.0  0.1526
  C  C268  1  0.325250  0.090050  0.795800  1.0  0.7013
  C  C269  1  0.144350  0.026420  0.371000  1.0  0.1451
  C  C270  1  0.102540  0.005050  0.350700  1.0  -0.2199
  C  C271  1  0.083510  0.981380  0.426300  1.0  0.0575
  C  C272  1  0.109240  0.979820  0.519200  1.0  -0.2188
  C  C273  1  0.151810  0.001360  0.532900  1.0  0.1317
  C  C274  1  0.984220  0.923330  0.296700  1.0  0.1624
  C  C275  1  0.025840  0.945740  0.310200  1.0  -0.2122
  C  C276  1  0.037520  0.958750  0.408000  1.0  0.0417
  C  C277  1  0.005120  0.949220  0.488100  1.0  -0.22
  C  C278  1  0.963890  0.926800  0.467100  1.0  0.1561
  C  C279  1  0.800100  0.095920  0.898100  1.0  0.4972
  C  C280  1  0.831730  0.116120  0.830500  1.0  -0.1745
  C  C281  1  0.824130  0.110940  0.725200  1.0  -0.0258
  C  C282  1  0.787590  0.086880  0.688100  1.0  -0.1242
  C  C283  1  0.757560  0.068970  0.759100  1.0  0.129
  C  C284  1  0.872040  0.142890  0.866400  1.0  0.6873
  C  C285  1  0.902860  0.133810  0.284700  1.0  0.5298
  C  C286  1  0.868310  0.111550  0.342200  1.0  -0.1207
  C  C287  1  0.875290  0.108170  0.447500  1.0  -0.0366
  C  C288  1  0.915870  0.124570  0.496600  1.0  -0.1267
  C  C289  1  0.947310  0.146430  0.437700  1.0  0.1526
  C  C290  1  0.825250  0.090050  0.295800  1.0  0.7013
  C  C291  1  0.644350  0.026420  0.871000  1.0  0.1451
  C  C292  1  0.602540  0.005050  0.850700  1.0  -0.2199
  C  C293  1  0.583510  0.981380  0.926300  1.0  0.0575
  C  C294  1  0.609240  0.979820  0.019200  1.0  -0.2188
  C  C295  1  0.651810  0.001360  0.032900  1.0  0.1317
  C  C296  1  0.484220  0.923330  0.796700  1.0  0.1624
  C  C297  1  0.525840  0.945740  0.810200  1.0  -0.2122
  C  C298  1  0.537520  0.958750  0.908000  1.0  0.0417
  C  C299  1  0.505120  0.949220  0.988100  1.0  -0.22
  C  C300  1  0.463890  0.926800  0.967100  1.0  0.1561
  C  C301  1  0.550100  0.154080  0.648100  1.0  0.4967
  C  C302  1  0.581730  0.133880  0.580500  1.0  -0.1744
  C  C303  1  0.574130  0.139060  0.475200  1.0  -0.0268
  C  C304  1  0.537590  0.163120  0.438100  1.0  -0.1244
  C  C305  1  0.507560  0.181030  0.509100  1.0  0.1289
  C  C306  1  0.622040  0.107110  0.616400  1.0  0.6879
  C  C307  1  0.652860  0.116190  0.034700  1.0  0.5296
  C  C308  1  0.618310  0.138450  0.092200  1.0  -0.1206
  C  C309  1  0.625290  0.141830  0.197500  1.0  -0.0363
  C  C310  1  0.665870  0.125430  0.246600  1.0  -0.127
  C  C311  1  0.697310  0.103570  0.187700  1.0  0.1539
  C  C312  1  0.575250  0.159950  0.045800  1.0  0.7015
  C  C313  1  0.394350  0.223580  0.621000  1.0  0.1446
  C  C314  1  0.352540  0.244950  0.600700  1.0  -0.22
  C  C315  1  0.333510  0.268620  0.676300  1.0  0.0572
  C  C316  1  0.359240  0.270180  0.769200  1.0  -0.2191
  C  C317  1  0.401810  0.248640  0.782900  1.0  0.1318
  C  C318  1  0.234220  0.326670  0.546700  1.0  0.1626
  C  C319  1  0.275840  0.304260  0.560200  1.0  -0.2115
  C  C320  1  0.287520  0.291250  0.658000  1.0  0.0418
  C  C321  1  0.255120  0.300780  0.738100  1.0  -0.2201
  C  C322  1  0.213890  0.323200  0.717100  1.0  0.1556
  C  C323  1  0.050100  0.154080  0.148100  1.0  0.4967
  C  C324  1  0.081730  0.133880  0.080500  1.0  -0.1744
  C  C325  1  0.074130  0.139060  0.975200  1.0  -0.0268
  C  C326  1  0.037590  0.163120  0.938100  1.0  -0.1244
  C  C327  1  0.007560  0.181030  0.009100  1.0  0.1289
  C  C328  1  0.122040  0.107110  0.116400  1.0  0.6879
  C  C329  1  0.152860  0.116190  0.534700  1.0  0.5296
  C  C330  1  0.118310  0.138450  0.592200  1.0  -0.1206
  C  C331  1  0.125290  0.141830  0.697500  1.0  -0.0363
  C  C332  1  0.165870  0.125430  0.746600  1.0  -0.127
  C  C333  1  0.197310  0.103570  0.687700  1.0  0.1539
  C  C334  1  0.075250  0.159950  0.545800  1.0  0.7015
  C  C335  1  0.894350  0.223580  0.121000  1.0  0.1446
  C  C336  1  0.852540  0.244950  0.100700  1.0  -0.22
  C  C337  1  0.833510  0.268620  0.176300  1.0  0.0572
  C  C338  1  0.859240  0.270180  0.269200  1.0  -0.2191
  C  C339  1  0.901810  0.248640  0.282900  1.0  0.1318
  C  C340  1  0.734220  0.326670  0.046700  1.0  0.1626
  C  C341  1  0.775840  0.304260  0.060200  1.0  -0.2115
  C  C342  1  0.787520  0.291250  0.158000  1.0  0.0418
  C  C343  1  0.755120  0.300780  0.238100  1.0  -0.2201
  C  C344  1  0.713890  0.323200  0.217100  1.0  0.1556
  C  C345  1  0.300100  0.595920  0.898100  1.0  0.4972
  C  C346  1  0.331730  0.616120  0.830500  1.0  -0.1745
  C  C347  1  0.324130  0.610940  0.725200  1.0  -0.0258
  C  C348  1  0.287590  0.586880  0.688100  1.0  -0.1242
  C  C349  1  0.257560  0.568970  0.759100  1.0  0.129
  C  C350  1  0.372040  0.642890  0.866400  1.0  0.6873
  C  C351  1  0.402860  0.633810  0.284700  1.0  0.5298
  C  C352  1  0.368310  0.611550  0.342200  1.0  -0.1207
  C  C353  1  0.375290  0.608170  0.447500  1.0  -0.0366
  C  C354  1  0.415870  0.624570  0.496600  1.0  -0.1267
  C  C355  1  0.447310  0.646430  0.437700  1.0  0.1526
  C  C356  1  0.325250  0.590050  0.295800  1.0  0.7013
  C  C357  1  0.144350  0.526420  0.871000  1.0  0.1451
  C  C358  1  0.102540  0.505050  0.850700  1.0  -0.2199
  C  C359  1  0.083510  0.481380  0.926300  1.0  0.0575
  C  C360  1  0.109240  0.479820  0.019200  1.0  -0.2188
  C  C361  1  0.151810  0.501360  0.032900  1.0  0.1317
  C  C362  1  0.984220  0.423330  0.796700  1.0  0.1624
  C  C363  1  0.025840  0.445740  0.810200  1.0  -0.2122
  C  C364  1  0.037520  0.458750  0.908000  1.0  0.0417
  C  C365  1  0.005120  0.449220  0.988100  1.0  -0.22
  C  C366  1  0.963890  0.426800  0.967100  1.0  0.1561
  C  C367  1  0.800100  0.595920  0.398100  1.0  0.4972
  C  C368  1  0.831730  0.616120  0.330500  1.0  -0.1745
  C  C369  1  0.824130  0.610940  0.225200  1.0  -0.0258
  C  C370  1  0.787590  0.586880  0.188100  1.0  -0.1242
  C  C371  1  0.757560  0.568970  0.259100  1.0  0.129
  C  C372  1  0.872040  0.642890  0.366400  1.0  0.6873
  C  C373  1  0.902860  0.633810  0.784700  1.0  0.5298
  C  C374  1  0.868310  0.611550  0.842200  1.0  -0.1207
  C  C375  1  0.875290  0.608170  0.947500  1.0  -0.0366
  C  C376  1  0.915870  0.624570  0.996600  1.0  -0.1267
  C  C377  1  0.947310  0.646430  0.937700  1.0  0.1526
  C  C378  1  0.825250  0.590050  0.795800  1.0  0.7013
  C  C379  1  0.644350  0.526420  0.371000  1.0  0.1451
  C  C380  1  0.602540  0.505050  0.350700  1.0  -0.2199
  C  C381  1  0.583510  0.481380  0.426300  1.0  0.0575
  C  C382  1  0.609240  0.479820  0.519200  1.0  -0.2188
  C  C383  1  0.651810  0.501360  0.532900  1.0  0.1317
  C  C384  1  0.484220  0.423330  0.296700  1.0  0.1624
  C  C385  1  0.525840  0.445740  0.310200  1.0  -0.2122
  C  C386  1  0.537520  0.458750  0.408000  1.0  0.0417
  C  C387  1  0.505120  0.449220  0.488100  1.0  -0.22
  C  C388  1  0.463890  0.426800  0.467100  1.0  0.1561
  C  C389  1  0.550100  0.654080  0.148100  1.0  0.4967
  C  C390  1  0.581730  0.633880  0.080500  1.0  -0.1744
  C  C391  1  0.574130  0.639060  0.975200  1.0  -0.0268
  C  C392  1  0.537590  0.663120  0.938100  1.0  -0.1244
  C  C393  1  0.507560  0.681030  0.009100  1.0  0.1289
  C  C394  1  0.622040  0.607110  0.116400  1.0  0.6879
  C  C395  1  0.652860  0.616190  0.534700  1.0  0.5296
  C  C396  1  0.618310  0.638450  0.592200  1.0  -0.1206
  C  C397  1  0.625290  0.641830  0.697500  1.0  -0.0363
  C  C398  1  0.665870  0.625430  0.746600  1.0  -0.127
  C  C399  1  0.697310  0.603570  0.687700  1.0  0.1539
  C  C400  1  0.575250  0.659950  0.545800  1.0  0.7015
  C  C401  1  0.394350  0.723580  0.121000  1.0  0.1446
  C  C402  1  0.352540  0.744950  0.100700  1.0  -0.22
  C  C403  1  0.333510  0.768620  0.176300  1.0  0.0572
  C  C404  1  0.359240  0.770180  0.269200  1.0  -0.2191
  C  C405  1  0.401810  0.748640  0.282900  1.0  0.1318
  C  C406  1  0.234220  0.826670  0.046700  1.0  0.1626
  C  C407  1  0.275840  0.804260  0.060200  1.0  -0.2115
  C  C408  1  0.287520  0.791250  0.158000  1.0  0.0418
  C  C409  1  0.255120  0.800780  0.238100  1.0  -0.2201
  C  C410  1  0.213890  0.823200  0.217100  1.0  0.1556
  C  C411  1  0.050100  0.654080  0.648100  1.0  0.4967
  C  C412  1  0.081730  0.633880  0.580500  1.0  -0.1744
  C  C413  1  0.074130  0.639060  0.475200  1.0  -0.0268
  C  C414  1  0.037590  0.663120  0.438100  1.0  -0.1244
  C  C415  1  0.007560  0.681030  0.509100  1.0  0.1289
  C  C416  1  0.122040  0.607110  0.616400  1.0  0.6879
  C  C417  1  0.152860  0.616190  0.034700  1.0  0.5296
  C  C418  1  0.118310  0.638450  0.092200  1.0  -0.1206
  C  C419  1  0.125290  0.641830  0.197500  1.0  -0.0363
  C  C420  1  0.165870  0.625430  0.246600  1.0  -0.127
  C  C421  1  0.197310  0.603570  0.187700  1.0  0.1539
  C  C422  1  0.075250  0.659950  0.045800  1.0  0.7015
  C  C423  1  0.894350  0.723580  0.621000  1.0  0.1446
  C  C424  1  0.852540  0.744950  0.600700  1.0  -0.22
  C  C425  1  0.833510  0.768620  0.676300  1.0  0.0572
  C  C426  1  0.859240  0.770180  0.769200  1.0  -0.2191
  C  C427  1  0.901810  0.748640  0.782900  1.0  0.1318
  C  C428  1  0.734220  0.826670  0.546700  1.0  0.1626
  C  C429  1  0.775840  0.804260  0.560200  1.0  -0.2115
  C  C430  1  0.787520  0.791250  0.658000  1.0  0.0418
  C  C431  1  0.755120  0.800780  0.738100  1.0  -0.2201
  C  C432  1  0.713890  0.823200  0.717100  1.0  0.1556
  C  C433  1  0.699900  0.904080  0.398100  1.0  0.4966
  C  C434  1  0.668270  0.883880  0.330500  1.0  -0.1744
  C  C435  1  0.675870  0.889060  0.225200  1.0  -0.0271
  C  C436  1  0.712410  0.913120  0.188100  1.0  -0.1239
  C  C437  1  0.742440  0.931030  0.259100  1.0  0.1285
  C  C438  1  0.627960  0.857110  0.366400  1.0  0.6877
  C  C439  1  0.597140  0.866190  0.784700  1.0  0.5299
  C  C440  1  0.631690  0.888450  0.842200  1.0  -0.1198
  C  C441  1  0.624710  0.891830  0.947500  1.0  -0.0362
  C  C442  1  0.584130  0.875430  0.996600  1.0  -0.1278
  C  C443  1  0.552690  0.853570  0.937700  1.0  0.1546
  C  C444  1  0.674750  0.909950  0.795800  1.0  0.7021
  C  C445  1  0.855650  0.973580  0.371000  1.0  0.1437
  C  C446  1  0.897460  0.994950  0.350700  1.0  -0.2205
  C  C447  1  0.916490  0.018620  0.426300  1.0  0.0573
  C  C448  1  0.890760  0.020180  0.519200  1.0  -0.2189
  C  C449  1  0.848190  0.998640  0.532900  1.0  0.1319
  C  C450  1  0.015780  0.076670  0.296700  1.0  0.1621
  C  C451  1  0.974160  0.054260  0.310200  1.0  -0.2111
  C  C452  1  0.962480  0.041250  0.408000  1.0  0.0421
  C  C453  1  0.994880  0.050780  0.488100  1.0  -0.22
  C  C454  1  0.036110  0.073200  0.467100  1.0  0.1558
  C  C455  1  0.199900  0.904080  0.898100  1.0  0.4966
  C  C456  1  0.168270  0.883880  0.830500  1.0  -0.1744
  C  C457  1  0.175870  0.889060  0.725200  1.0  -0.0271
  C  C458  1  0.212410  0.913120  0.688100  1.0  -0.1239
  C  C459  1  0.242440  0.931030  0.759100  1.0  0.1285
  C  C460  1  0.127960  0.857110  0.866400  1.0  0.6877
  C  C461  1  0.097140  0.866190  0.284700  1.0  0.5299
  C  C462  1  0.131690  0.888450  0.342200  1.0  -0.1198
  C  C463  1  0.124710  0.891830  0.447500  1.0  -0.0362
  C  C464  1  0.084130  0.875430  0.496600  1.0  -0.1278
  C  C465  1  0.052690  0.853570  0.437700  1.0  0.1546
  C  C466  1  0.174750  0.909950  0.295800  1.0  0.7021
  C  C467  1  0.355650  0.973580  0.871000  1.0  0.1437
  C  C468  1  0.397460  0.994950  0.850700  1.0  -0.2205
  C  C469  1  0.416490  0.018620  0.926300  1.0  0.0573
  C  C470  1  0.390760  0.020180  0.019200  1.0  -0.2189
  C  C471  1  0.348190  0.998640  0.032900  1.0  0.1319
  C  C472  1  0.515780  0.076670  0.796700  1.0  0.1621
  C  C473  1  0.474160  0.054260  0.810200  1.0  -0.2111
  C  C474  1  0.462480  0.041250  0.908000  1.0  0.0421
  C  C475  1  0.494880  0.050780  0.988100  1.0  -0.22
  C  C476  1  0.536110  0.073200  0.967100  1.0  0.1558
  C  C477  1  0.949900  0.845920  0.148100  1.0  0.4969
  C  C478  1  0.918270  0.866120  0.080500  1.0  -0.1742
  C  C479  1  0.925870  0.860940  0.975200  1.0  -0.0267
  C  C480  1  0.962410  0.836880  0.938100  1.0  -0.1238
  C  C481  1  0.992440  0.818970  0.009100  1.0  0.1286
  C  C482  1  0.877960  0.892890  0.116400  1.0  0.6874
  C  C483  1  0.847140  0.883810  0.534700  1.0  0.53
  C  C484  1  0.881690  0.861550  0.592200  1.0  -0.1196
  C  C485  1  0.874710  0.858170  0.697500  1.0  -0.0363
  C  C486  1  0.834130  0.874570  0.746600  1.0  -0.1273
  C  C487  1  0.802690  0.896430  0.687700  1.0  0.1523
  C  C488  1  0.924750  0.840050  0.545800  1.0  0.7012
  C  C489  1  0.105650  0.776420  0.121000  1.0  0.1441
  C  C490  1  0.147460  0.755050  0.100700  1.0  -0.2204
  C  C491  1  0.166490  0.731380  0.176300  1.0  0.0576
  C  C492  1  0.140760  0.729820  0.269200  1.0  -0.2186
  C  C493  1  0.098190  0.751360  0.282900  1.0  0.1315
  C  C494  1  0.265780  0.673330  0.046700  1.0  0.1617
  C  C495  1  0.224160  0.695740  0.060200  1.0  -0.2119
  C  C496  1  0.212480  0.708750  0.158000  1.0  0.0422
  C  C497  1  0.244880  0.699220  0.238100  1.0  -0.2197
  C  C498  1  0.286110  0.676800  0.217100  1.0  0.1561
  C  C499  1  0.449900  0.845920  0.648100  1.0  0.4969
  C  C500  1  0.418270  0.866120  0.580500  1.0  -0.1742
  C  C501  1  0.425870  0.860940  0.475200  1.0  -0.0267
  C  C502  1  0.462410  0.836880  0.438100  1.0  -0.1238
  C  C503  1  0.492440  0.818970  0.509100  1.0  0.1286
  C  C504  1  0.377960  0.892890  0.616400  1.0  0.6874
  C  C505  1  0.347140  0.883810  0.034700  1.0  0.53
  C  C506  1  0.381690  0.861550  0.092200  1.0  -0.1196
  C  C507  1  0.374710  0.858170  0.197500  1.0  -0.0363
  C  C508  1  0.334130  0.874570  0.246600  1.0  -0.1273
  C  C509  1  0.302690  0.896430  0.187700  1.0  0.1523
  C  C510  1  0.424750  0.840050  0.045800  1.0  0.7012
  C  C511  1  0.605650  0.776420  0.621000  1.0  0.1441
  C  C512  1  0.647460  0.755050  0.600700  1.0  -0.2204
  C  C513  1  0.666490  0.731380  0.676300  1.0  0.0576
  C  C514  1  0.640760  0.729820  0.769200  1.0  -0.2186
  C  C515  1  0.598190  0.751360  0.782900  1.0  0.1315
  C  C516  1  0.765780  0.673330  0.546700  1.0  0.1617
  C  C517  1  0.724160  0.695740  0.560200  1.0  -0.2119
  C  C518  1  0.712480  0.708750  0.658000  1.0  0.0422
  C  C519  1  0.744880  0.699220  0.738100  1.0  -0.2197
  C  C520  1  0.786110  0.676800  0.717100  1.0  0.1561
  C  C521  1  0.699900  0.404080  0.898100  1.0  0.4966
  C  C522  1  0.668270  0.383880  0.830500  1.0  -0.1744
  C  C523  1  0.675870  0.389060  0.725200  1.0  -0.0271
  C  C524  1  0.712410  0.413120  0.688100  1.0  -0.1239
  C  C525  1  0.742440  0.431030  0.759100  1.0  0.1285
  C  C526  1  0.627960  0.357110  0.866400  1.0  0.6877
  C  C527  1  0.597140  0.366190  0.284700  1.0  0.5299
  C  C528  1  0.631690  0.388450  0.342200  1.0  -0.1198
  C  C529  1  0.624710  0.391830  0.447500  1.0  -0.0362
  C  C530  1  0.584130  0.375430  0.496600  1.0  -0.1278
  C  C531  1  0.552690  0.353570  0.437700  1.0  0.1546
  C  C532  1  0.674750  0.409950  0.295800  1.0  0.7021
  C  C533  1  0.855650  0.473580  0.871000  1.0  0.1437
  C  C534  1  0.897460  0.494950  0.850700  1.0  -0.2205
  C  C535  1  0.916490  0.518620  0.926300  1.0  0.0573
  C  C536  1  0.890760  0.520180  0.019200  1.0  -0.2189
  C  C537  1  0.848190  0.498640  0.032900  1.0  0.1319
  C  C538  1  0.015780  0.576670  0.796700  1.0  0.1621
  C  C539  1  0.974160  0.554260  0.810200  1.0  -0.2111
  C  C540  1  0.962480  0.541250  0.908000  1.0  0.0421
  C  C541  1  0.994880  0.550780  0.988100  1.0  -0.22
  C  C542  1  0.036110  0.573200  0.967100  1.0  0.1558
  C  C543  1  0.199900  0.404080  0.398100  1.0  0.4966
  C  C544  1  0.168270  0.383880  0.330500  1.0  -0.1744
  C  C545  1  0.175870  0.389060  0.225200  1.0  -0.0271
  C  C546  1  0.212410  0.413120  0.188100  1.0  -0.1239
  C  C547  1  0.242440  0.431030  0.259100  1.0  0.1285
  C  C548  1  0.127960  0.357110  0.366400  1.0  0.6877
  C  C549  1  0.097140  0.366190  0.784700  1.0  0.5299
  C  C550  1  0.131690  0.388450  0.842200  1.0  -0.1198
  C  C551  1  0.124710  0.391830  0.947500  1.0  -0.0362
  C  C552  1  0.084130  0.375430  0.996600  1.0  -0.1278
  C  C553  1  0.052690  0.353570  0.937700  1.0  0.1546
  C  C554  1  0.174750  0.409950  0.795800  1.0  0.7021
  C  C555  1  0.355650  0.473580  0.371000  1.0  0.1437
  C  C556  1  0.397460  0.494950  0.350700  1.0  -0.2205
  C  C557  1  0.416490  0.518620  0.426300  1.0  0.0573
  C  C558  1  0.390760  0.520180  0.519200  1.0  -0.2189
  C  C559  1  0.348190  0.498640  0.532900  1.0  0.1319
  C  C560  1  0.515780  0.576670  0.296700  1.0  0.1621
  C  C561  1  0.474160  0.554260  0.310200  1.0  -0.2111
  C  C562  1  0.462480  0.541250  0.408000  1.0  0.0421
  C  C563  1  0.494880  0.550780  0.488100  1.0  -0.22
  C  C564  1  0.536110  0.573200  0.467100  1.0  0.1558
  C  C565  1  0.949900  0.345920  0.648100  1.0  0.4969
  C  C566  1  0.918270  0.366120  0.580500  1.0  -0.1742
  C  C567  1  0.925870  0.360940  0.475200  1.0  -0.0267
  C  C568  1  0.962410  0.336880  0.438100  1.0  -0.1238
  C  C569  1  0.992440  0.318970  0.509100  1.0  0.1286
  C  C570  1  0.877960  0.392890  0.616400  1.0  0.6874
  C  C571  1  0.847140  0.383810  0.034700  1.0  0.53
  C  C572  1  0.881690  0.361550  0.092200  1.0  -0.1196
  C  C573  1  0.874710  0.358170  0.197500  1.0  -0.0363
  C  C574  1  0.834130  0.374570  0.246600  1.0  -0.1273
  C  C575  1  0.802690  0.396430  0.187700  1.0  0.1523
  C  C576  1  0.924750  0.340050  0.045800  1.0  0.7012
  C  C577  1  0.105650  0.276420  0.621000  1.0  0.1441
  C  C578  1  0.147460  0.255050  0.600700  1.0  -0.2204
  C  C579  1  0.166490  0.231380  0.676300  1.0  0.0576
  C  C580  1  0.140760  0.229820  0.769200  1.0  -0.2186
  C  C581  1  0.098190  0.251360  0.782900  1.0  0.1315
  C  C582  1  0.265780  0.173330  0.546700  1.0  0.1617
  C  C583  1  0.224160  0.195740  0.560200  1.0  -0.2119
  C  C584  1  0.212480  0.208750  0.658000  1.0  0.0422
  C  C585  1  0.244880  0.199220  0.738100  1.0  -0.2197
  C  C586  1  0.286110  0.176800  0.717100  1.0  0.1561
  C  C587  1  0.449900  0.345920  0.148100  1.0  0.4969
  C  C588  1  0.418270  0.366120  0.080500  1.0  -0.1742
  C  C589  1  0.425870  0.360940  0.975200  1.0  -0.0267
  C  C590  1  0.462410  0.336880  0.938100  1.0  -0.1238
  C  C591  1  0.492440  0.318970  0.009100  1.0  0.1286
  C  C592  1  0.377960  0.392890  0.116400  1.0  0.6874
  C  C593  1  0.347140  0.383810  0.534700  1.0  0.53
  C  C594  1  0.381690  0.361550  0.592200  1.0  -0.1196
  C  C595  1  0.374710  0.358170  0.697500  1.0  -0.0363
  C  C596  1  0.334130  0.374570  0.746600  1.0  -0.1273
  C  C597  1  0.302690  0.396430  0.687700  1.0  0.1523
  C  C598  1  0.424750  0.340050  0.545800  1.0  0.7012
  C  C599  1  0.605650  0.276420  0.121000  1.0  0.1441
  C  C600  1  0.647460  0.255050  0.100700  1.0  -0.2204
  C  C601  1  0.666490  0.231380  0.176300  1.0  0.0576
  C  C602  1  0.640760  0.229820  0.269200  1.0  -0.2186
  C  C603  1  0.598190  0.251360  0.282900  1.0  0.1315
  C  C604  1  0.765780  0.173330  0.046700  1.0  0.1617
  C  C605  1  0.724160  0.195740  0.060200  1.0  -0.2119
  C  C606  1  0.712480  0.208750  0.158000  1.0  0.0422
  C  C607  1  0.744880  0.199220  0.238100  1.0  -0.2197
  C  C608  1  0.786110  0.176800  0.217100  1.0  0.1561
  N  N609  1  0.263040  0.073770  0.360420  1.0  -0.3255
  N  N610  1  0.440530  0.151640  0.836780  1.0  -0.2877
  N  N611  1  0.169090  0.024800  0.461080  1.0  -0.3316
  N  N612  1  0.953470  0.913290  0.373460  1.0  -0.3535
  N  N613  1  0.763040  0.073770  0.860420  1.0  -0.3255
  N  N614  1  0.940530  0.151640  0.336780  1.0  -0.2877
  N  N615  1  0.669090  0.024800  0.961080  1.0  -0.3316
  N  N616  1  0.453470  0.913290  0.873460  1.0  -0.3535
  N  N617  1  0.513040  0.176230  0.610420  1.0  -0.3267
  N  N618  1  0.690530  0.098360  0.086780  1.0  -0.2864
  N  N619  1  0.419090  0.225200  0.711080  1.0  -0.3313
  N  N620  1  0.203470  0.336710  0.623460  1.0  -0.353
  N  N621  1  0.013040  0.176230  0.110420  1.0  -0.3267
  N  N622  1  0.190530  0.098360  0.586780  1.0  -0.2864
  N  N623  1  0.919090  0.225200  0.211080  1.0  -0.3313
  N  N624  1  0.703470  0.336710  0.123460  1.0  -0.353
  N  N625  1  0.263040  0.573770  0.860420  1.0  -0.3255
  N  N626  1  0.440530  0.651640  0.336780  1.0  -0.2877
  N  N627  1  0.169090  0.524800  0.961080  1.0  -0.3316
  N  N628  1  0.953470  0.413290  0.873460  1.0  -0.3535
  N  N629  1  0.763040  0.573770  0.360420  1.0  -0.3255
  N  N630  1  0.940530  0.651640  0.836780  1.0  -0.2877
  N  N631  1  0.669090  0.524800  0.461080  1.0  -0.3316
  N  N632  1  0.453470  0.413290  0.373460  1.0  -0.3535
  N  N633  1  0.513040  0.676230  0.110420  1.0  -0.3267
  N  N634  1  0.690530  0.598360  0.586780  1.0  -0.2864
  N  N635  1  0.419090  0.725200  0.211080  1.0  -0.3313
  N  N636  1  0.203470  0.836710  0.123460  1.0  -0.353
  N  N637  1  0.013040  0.676230  0.610420  1.0  -0.3267
  N  N638  1  0.190530  0.598360  0.086780  1.0  -0.2864
  N  N639  1  0.919090  0.725200  0.711080  1.0  -0.3313
  N  N640  1  0.703470  0.836710  0.623460  1.0  -0.353
  N  N641  1  0.736960  0.926230  0.360420  1.0  -0.3258
  N  N642  1  0.559470  0.848360  0.836780  1.0  -0.2866
  N  N643  1  0.830910  0.975200  0.461080  1.0  -0.3336
  N  N644  1  0.046530  0.086710  0.373460  1.0  -0.353
  N  N645  1  0.236960  0.926230  0.860420  1.0  -0.3258
  N  N646  1  0.059470  0.848360  0.336780  1.0  -0.2866
  N  N647  1  0.330910  0.975200  0.961080  1.0  -0.3336
  N  N648  1  0.546530  0.086710  0.873460  1.0  -0.353
  N  N649  1  0.986960  0.823770  0.110420  1.0  -0.325
  N  N650  1  0.809470  0.901640  0.586780  1.0  -0.2867
  N  N651  1  0.080910  0.774800  0.211080  1.0  -0.3331
  N  N652  1  0.296530  0.663290  0.123460  1.0  -0.3524
  N  N653  1  0.486960  0.823770  0.610420  1.0  -0.325
  N  N654  1  0.309470  0.901640  0.086780  1.0  -0.2867
  N  N655  1  0.580910  0.774800  0.711080  1.0  -0.3331
  N  N656  1  0.796530  0.663290  0.623460  1.0  -0.3524
  N  N657  1  0.736960  0.426230  0.860420  1.0  -0.3258
  N  N658  1  0.559470  0.348360  0.336780  1.0  -0.2866
  N  N659  1  0.830910  0.475200  0.961080  1.0  -0.3336
  N  N660  1  0.046530  0.586710  0.873460  1.0  -0.353
  N  N661  1  0.236960  0.426230  0.360420  1.0  -0.3258
  N  N662  1  0.059470  0.348360  0.836780  1.0  -0.2866
  N  N663  1  0.330910  0.475200  0.461080  1.0  -0.3336
  N  N664  1  0.546530  0.586710  0.373460  1.0  -0.353
  N  N665  1  0.986960  0.323770  0.610420  1.0  -0.325
  N  N666  1  0.809470  0.401640  0.086780  1.0  -0.2867
  N  N667  1  0.080910  0.274800  0.711080  1.0  -0.3331
  N  N668  1  0.296530  0.163290  0.623460  1.0  -0.3524
  N  N669  1  0.486960  0.323770  0.110420  1.0  -0.325
  N  N670  1  0.309470  0.401640  0.586780  1.0  -0.2867
  N  N671  1  0.580910  0.274800  0.211080  1.0  -0.3331
  N  N672  1  0.796530  0.163290  0.123460  1.0  -0.3524
  O  O673  1  0.301140  0.096290  0.496850  1.0  -0.711
  O  O674  1  0.378260  0.149210  0.460580  1.0  -0.6011
  O  O675  1  0.397050  0.158150  0.297100  1.0  -0.5256
  O  O676  1  0.402170  0.139960  0.688270  1.0  -0.6437
  O  O677  1  0.325300  0.083680  0.699620  1.0  -0.6158
  O  O678  1  0.291740  0.078710  0.855030  1.0  -0.5768
  O  O679  1  0.801140  0.096290  0.996850  1.0  -0.711
  O  O680  1  0.878260  0.149210  0.960580  1.0  -0.6011
  O  O681  1  0.897050  0.158150  0.797100  1.0  -0.5256
  O  O682  1  0.902170  0.139960  0.188270  1.0  -0.6437
  O  O683  1  0.825300  0.083680  0.199620  1.0  -0.6158
  O  O684  1  0.791740  0.078710  0.355030  1.0  -0.5768
  O  O685  1  0.551140  0.153710  0.746850  1.0  -0.7122
  O  O686  1  0.628260  0.100790  0.710580  1.0  -0.6014
  O  O687  1  0.647050  0.091850  0.547100  1.0  -0.5255
  O  O688  1  0.652170  0.110040  0.938270  1.0  -0.6434
  O  O689  1  0.575300  0.166320  0.949620  1.0  -0.6139
  O  O690  1  0.541740  0.171290  0.105030  1.0  -0.578
  O  O691  1  0.051140  0.153710  0.246850  1.0  -0.7122
  O  O692  1  0.128260  0.100790  0.210580  1.0  -0.6014
  O  O693  1  0.147050  0.091850  0.047100  1.0  -0.5255
  O  O694  1  0.152170  0.110040  0.438270  1.0  -0.6434
  O  O695  1  0.075300  0.166320  0.449620  1.0  -0.6139
  O  O696  1  0.041740  0.171290  0.605030  1.0  -0.578
  O  O697  1  0.301140  0.596290  0.996850  1.0  -0.711
  O  O698  1  0.378260  0.649210  0.960580  1.0  -0.6011
  O  O699  1  0.397050  0.658150  0.797100  1.0  -0.5256
  O  O700  1  0.402170  0.639960  0.188270  1.0  -0.6437
  O  O701  1  0.325300  0.583680  0.199620  1.0  -0.6158
  O  O702  1  0.291740  0.578710  0.355030  1.0  -0.5768
  O  O703  1  0.801140  0.596290  0.496850  1.0  -0.711
  O  O704  1  0.878260  0.649210  0.460580  1.0  -0.6011
  O  O705  1  0.897050  0.658150  0.297100  1.0  -0.5256
  O  O706  1  0.902170  0.639960  0.688270  1.0  -0.6437
  O  O707  1  0.825300  0.583680  0.699620  1.0  -0.6158
  O  O708  1  0.791740  0.578710  0.855030  1.0  -0.5768
  O  O709  1  0.551140  0.653710  0.246850  1.0  -0.7122
  O  O710  1  0.628260  0.600790  0.210580  1.0  -0.6014
  O  O711  1  0.647050  0.591850  0.047100  1.0  -0.5255
  O  O712  1  0.652170  0.610040  0.438270  1.0  -0.6434
  O  O713  1  0.575300  0.666320  0.449620  1.0  -0.6139
  O  O714  1  0.541740  0.671290  0.605030  1.0  -0.578
  O  O715  1  0.051140  0.653710  0.746850  1.0  -0.7122
  O  O716  1  0.128260  0.600790  0.710580  1.0  -0.6014
  O  O717  1  0.147050  0.591850  0.547100  1.0  -0.5255
  O  O718  1  0.152170  0.610040  0.938270  1.0  -0.6434
  O  O719  1  0.075300  0.666320  0.949620  1.0  -0.6139
  O  O720  1  0.041740  0.671290  0.105030  1.0  -0.578
  O  O721  1  0.698860  0.903710  0.496850  1.0  -0.7118
  O  O722  1  0.621740  0.850790  0.460580  1.0  -0.6009
  O  O723  1  0.602950  0.841850  0.297100  1.0  -0.5264
  O  O724  1  0.597830  0.860040  0.688270  1.0  -0.6428
  O  O725  1  0.674700  0.916320  0.699620  1.0  -0.6138
  O  O726  1  0.708260  0.921290  0.855030  1.0  -0.5783
  O  O727  1  0.198860  0.903710  0.996850  1.0  -0.7118
  O  O728  1  0.121740  0.850790  0.960580  1.0  -0.6009
  O  O729  1  0.102950  0.841850  0.797100  1.0  -0.5264
  O  O730  1  0.097830  0.860040  0.188270  1.0  -0.6428
  O  O731  1  0.174700  0.916320  0.199620  1.0  -0.6138
  O  O732  1  0.208260  0.921290  0.355030  1.0  -0.5783
  O  O733  1  0.948860  0.846290  0.246850  1.0  -0.7106
  O  O734  1  0.871740  0.899210  0.210580  1.0  -0.6007
  O  O735  1  0.852950  0.908150  0.047100  1.0  -0.5267
  O  O736  1  0.847830  0.889960  0.438270  1.0  -0.6433
  O  O737  1  0.924700  0.833680  0.449620  1.0  -0.6158
  O  O738  1  0.958260  0.828710  0.605030  1.0  -0.5778
  O  O739  1  0.448860  0.846290  0.746850  1.0  -0.7106
  O  O740  1  0.371740  0.899210  0.710580  1.0  -0.6007
  O  O741  1  0.352950  0.908150  0.547100  1.0  -0.5267
  O  O742  1  0.347830  0.889960  0.938270  1.0  -0.6433
  O  O743  1  0.424700  0.833680  0.949620  1.0  -0.6158
  O  O744  1  0.458260  0.828710  0.105030  1.0  -0.5778
  O  O745  1  0.698860  0.403710  0.996850  1.0  -0.7118
  O  O746  1  0.621740  0.350790  0.960580  1.0  -0.6009
  O  O747  1  0.602950  0.341850  0.797100  1.0  -0.5264
  O  O748  1  0.597830  0.360040  0.188270  1.0  -0.6428
  O  O749  1  0.674700  0.416320  0.199620  1.0  -0.6138
  O  O750  1  0.708260  0.421290  0.355030  1.0  -0.5783
  O  O751  1  0.198860  0.403710  0.496850  1.0  -0.7118
  O  O752  1  0.121740  0.350790  0.460580  1.0  -0.6009
  O  O753  1  0.102950  0.341850  0.297100  1.0  -0.5264
  O  O754  1  0.097830  0.360040  0.688270  1.0  -0.6428
  O  O755  1  0.174700  0.416320  0.699620  1.0  -0.6138
  O  O756  1  0.208260  0.421290  0.855030  1.0  -0.5783
  O  O757  1  0.948860  0.346290  0.746850  1.0  -0.7106
  O  O758  1  0.871740  0.399210  0.710580  1.0  -0.6007
  O  O759  1  0.852950  0.408150  0.547100  1.0  -0.5267
  O  O760  1  0.847830  0.389960  0.938270  1.0  -0.6433
  O  O761  1  0.924700  0.333680  0.949620  1.0  -0.6158
  O  O762  1  0.958260  0.328710  0.105030  1.0  -0.5778
  O  O763  1  0.448860  0.346290  0.246850  1.0  -0.7106
  O  O764  1  0.371740  0.399210  0.210580  1.0  -0.6007
  O  O765  1  0.352950  0.408150  0.047100  1.0  -0.5267
  O  O766  1  0.347830  0.389960  0.438270  1.0  -0.6433
  O  O767  1  0.424700  0.333680  0.449620  1.0  -0.6158
  O  O768  1  0.458260  0.328710  0.605030  1.0  -0.5778
