# generated using pymatgen
data_Ni15H96C168(N3O19)4
_symmetry_space_group_name_H-M   'P 1'
_cell_length_a   41.46940000
_cell_length_b   41.46940000
_cell_length_c   41.46940000
_cell_angle_alpha   90.00000000
_cell_angle_beta   90.00000000
_cell_angle_gamma   90.00000000
_symmetry_Int_Tables_number   1
_chemical_formula_structural   Ni15H96C168(N3O19)4
_chemical_formula_sum   'Ni120 H768 C1344 N96 O608'
_cell_volume   71315.38899817
_cell_formula_units_Z   8
loop_
 _symmetry_equiv_pos_site_id
 _symmetry_equiv_pos_as_xyz
  1  'x, y, z'
loop_
 _atom_site_type_symbol
 _atom_site_label
 _atom_site_symmetry_multiplicity
 _atom_site_fract_x
 _atom_site_fract_y
 _atom_site_fract_z
 _atom_site_occupancy
 _atom_site_charge
  Ni  Ni1  1  0.187730  0.128990  0.128990  1.0  0.9299
  Ni  Ni2  1  0.187730  0.628990  0.628990  1.0  0.9299
  Ni  Ni3  1  0.687730  0.128990  0.628990  1.0  0.9299
  Ni  Ni4  1  0.687730  0.628990  0.128990  1.0  0.9299
  Ni  Ni5  1  0.812270  0.871010  0.128990  1.0  0.9294
  Ni  Ni6  1  0.812270  0.371010  0.628990  1.0  0.9294
  Ni  Ni7  1  0.312270  0.871010  0.628990  1.0  0.9294
  Ni  Ni8  1  0.312270  0.371010  0.128990  1.0  0.9294
  Ni  Ni9  1  0.812270  0.128990  0.871010  1.0  0.9299
  Ni  Ni10  1  0.812270  0.628990  0.371010  1.0  0.9299
  Ni  Ni11  1  0.312270  0.128990  0.371010  1.0  0.9299
  Ni  Ni12  1  0.312270  0.628990  0.871010  1.0  0.9299
  Ni  Ni13  1  0.187730  0.871010  0.871010  1.0  0.9296
  Ni  Ni14  1  0.187730  0.371010  0.371010  1.0  0.9296
  Ni  Ni15  1  0.687730  0.871010  0.371010  1.0  0.9296
  Ni  Ni16  1  0.687730  0.371010  0.871010  1.0  0.9296
  Ni  Ni17  1  0.128990  0.187730  0.128990  1.0  0.9293
  Ni  Ni18  1  0.128990  0.687730  0.628990  1.0  0.9293
  Ni  Ni19  1  0.628990  0.187730  0.628990  1.0  0.9293
  Ni  Ni20  1  0.628990  0.687730  0.128990  1.0  0.9293
  Ni  Ni21  1  0.128990  0.812270  0.871010  1.0  0.9296
  Ni  Ni22  1  0.128990  0.312270  0.371010  1.0  0.9296
  Ni  Ni23  1  0.628990  0.812270  0.371010  1.0  0.9296
  Ni  Ni24  1  0.628990  0.312270  0.871010  1.0  0.9296
  Ni  Ni25  1  0.871010  0.812270  0.128990  1.0  0.9297
  Ni  Ni26  1  0.871010  0.312270  0.628990  1.0  0.9297
  Ni  Ni27  1  0.371010  0.812270  0.628990  1.0  0.9297
  Ni  Ni28  1  0.371010  0.312270  0.128990  1.0  0.9297
  Ni  Ni29  1  0.871010  0.187730  0.871010  1.0  0.9296
  Ni  Ni30  1  0.871010  0.687730  0.371010  1.0  0.9296
  Ni  Ni31  1  0.371010  0.187730  0.371010  1.0  0.9296
  Ni  Ni32  1  0.371010  0.687730  0.871010  1.0  0.9296
  Ni  Ni33  1  0.128990  0.128990  0.187730  1.0  0.9298
  Ni  Ni34  1  0.128990  0.628990  0.687730  1.0  0.9298
  Ni  Ni35  1  0.628990  0.128990  0.687730  1.0  0.9298
  Ni  Ni36  1  0.628990  0.628990  0.187730  1.0  0.9298
  Ni  Ni37  1  0.871010  0.128990  0.812270  1.0  0.9302
  Ni  Ni38  1  0.871010  0.628990  0.312270  1.0  0.9302
  Ni  Ni39  1  0.371010  0.128990  0.312270  1.0  0.9302
  Ni  Ni40  1  0.371010  0.628990  0.812270  1.0  0.9302
  Ni  Ni41  1  0.128990  0.871010  0.812270  1.0  0.9296
  Ni  Ni42  1  0.128990  0.371010  0.312270  1.0  0.9296
  Ni  Ni43  1  0.628990  0.871010  0.312270  1.0  0.9296
  Ni  Ni44  1  0.628990  0.371010  0.812270  1.0  0.9296
  Ni  Ni45  1  0.871010  0.871010  0.187730  1.0  0.9295
  Ni  Ni46  1  0.871010  0.371010  0.687730  1.0  0.9295
  Ni  Ni47  1  0.371010  0.871010  0.687730  1.0  0.9295
  Ni  Ni48  1  0.371010  0.371010  0.187730  1.0  0.9295
  Ni  Ni49  1  0.128990  0.187730  0.871010  1.0  0.9294
  Ni  Ni50  1  0.128990  0.687730  0.371010  1.0  0.9294
  Ni  Ni51  1  0.628990  0.187730  0.371010  1.0  0.9294
  Ni  Ni52  1  0.628990  0.687730  0.871010  1.0  0.9294
  Ni  Ni53  1  0.871010  0.812270  0.871010  1.0  0.9298
  Ni  Ni54  1  0.871010  0.312270  0.371010  1.0  0.9298
  Ni  Ni55  1  0.371010  0.812270  0.371010  1.0  0.9298
  Ni  Ni56  1  0.371010  0.312270  0.871010  1.0  0.9298
  Ni  Ni57  1  0.128990  0.812270  0.128990  1.0  0.9295
  Ni  Ni58  1  0.128990  0.312270  0.628990  1.0  0.9295
  Ni  Ni59  1  0.628990  0.812270  0.628990  1.0  0.9295
  Ni  Ni60  1  0.628990  0.312270  0.128990  1.0  0.9295
  Ni  Ni61  1  0.871010  0.187730  0.128990  1.0  0.9295
  Ni  Ni62  1  0.871010  0.687730  0.628990  1.0  0.9295
  Ni  Ni63  1  0.371010  0.187730  0.628990  1.0  0.9295
  Ni  Ni64  1  0.371010  0.687730  0.128990  1.0  0.9295
  Ni  Ni65  1  0.187730  0.128990  0.871010  1.0  0.93
  Ni  Ni66  1  0.187730  0.628990  0.371010  1.0  0.93
  Ni  Ni67  1  0.687730  0.128990  0.371010  1.0  0.93
  Ni  Ni68  1  0.687730  0.628990  0.871010  1.0  0.93
  Ni  Ni69  1  0.812270  0.128990  0.128990  1.0  0.9298
  Ni  Ni70  1  0.812270  0.628990  0.628990  1.0  0.9298
  Ni  Ni71  1  0.312270  0.128990  0.628990  1.0  0.9298
  Ni  Ni72  1  0.312270  0.628990  0.128990  1.0  0.9298
  Ni  Ni73  1  0.812270  0.871010  0.871010  1.0  0.9295
  Ni  Ni74  1  0.812270  0.371010  0.371010  1.0  0.9295
  Ni  Ni75  1  0.312270  0.871010  0.371010  1.0  0.9295
  Ni  Ni76  1  0.312270  0.371010  0.871010  1.0  0.9295
  Ni  Ni77  1  0.187730  0.871010  0.128990  1.0  0.9295
  Ni  Ni78  1  0.187730  0.371010  0.628990  1.0  0.9295
  Ni  Ni79  1  0.687730  0.871010  0.628990  1.0  0.9295
  Ni  Ni80  1  0.687730  0.371010  0.128990  1.0  0.9295
  Ni  Ni81  1  0.128990  0.128990  0.812270  1.0  0.93
  Ni  Ni82  1  0.128990  0.628990  0.312270  1.0  0.93
  Ni  Ni83  1  0.628990  0.128990  0.312270  1.0  0.93
  Ni  Ni84  1  0.628990  0.628990  0.812270  1.0  0.93
  Ni  Ni85  1  0.128990  0.871010  0.187730  1.0  0.9293
  Ni  Ni86  1  0.128990  0.371010  0.687730  1.0  0.9293
  Ni  Ni87  1  0.628990  0.871010  0.687730  1.0  0.9293
  Ni  Ni88  1  0.628990  0.371010  0.187730  1.0  0.9293
  Ni  Ni89  1  0.871010  0.128990  0.187730  1.0  0.93
  Ni  Ni90  1  0.871010  0.628990  0.687730  1.0  0.93
  Ni  Ni91  1  0.371010  0.128990  0.687730  1.0  0.93
  Ni  Ni92  1  0.371010  0.628990  0.187730  1.0  0.93
  Ni  Ni93  1  0.871010  0.871010  0.812270  1.0  0.9298
  Ni  Ni94  1  0.871010  0.371010  0.312270  1.0  0.9298
  Ni  Ni95  1  0.371010  0.871010  0.312270  1.0  0.9298
  Ni  Ni96  1  0.371010  0.371010  0.812270  1.0  0.9298
  Ni  Ni97  1  0.272200  0.000000  0.000000  1.0  0.6807
  Ni  Ni98  1  0.272200  0.500000  0.500000  1.0  0.6807
  Ni  Ni99  1  0.772200  0.000000  0.500000  1.0  0.6807
  Ni  Ni100  1  0.772200  0.500000  0.000000  1.0  0.6807
  Ni  Ni101  1  0.727800  0.000000  0.000000  1.0  0.681
  Ni  Ni102  1  0.727800  0.500000  0.500000  1.0  0.681
  Ni  Ni103  1  0.227800  0.000000  0.500000  1.0  0.681
  Ni  Ni104  1  0.227800  0.500000  0.000000  1.0  0.681
  Ni  Ni105  1  0.000000  0.272200  0.000000  1.0  0.6774
  Ni  Ni106  1  0.000000  0.772200  0.500000  1.0  0.6774
  Ni  Ni107  1  0.500000  0.272200  0.500000  1.0  0.6774
  Ni  Ni108  1  0.500000  0.772200  0.000000  1.0  0.6774
  Ni  Ni109  1  0.000000  0.727800  0.000000  1.0  0.6812
  Ni  Ni110  1  0.000000  0.227800  0.500000  1.0  0.6812
  Ni  Ni111  1  0.500000  0.727800  0.500000  1.0  0.6812
  Ni  Ni112  1  0.500000  0.227800  0.000000  1.0  0.6812
  Ni  Ni113  1  0.000000  0.000000  0.272200  1.0  0.6761
  Ni  Ni114  1  0.000000  0.500000  0.772200  1.0  0.6761
  Ni  Ni115  1  0.500000  0.000000  0.772200  1.0  0.6761
  Ni  Ni116  1  0.500000  0.500000  0.272200  1.0  0.6761
  Ni  Ni117  1  0.000000  0.000000  0.727800  1.0  0.6781
  Ni  Ni118  1  0.000000  0.500000  0.227800  1.0  0.6781
  Ni  Ni119  1  0.500000  0.000000  0.227800  1.0  0.6781
  Ni  Ni120  1  0.500000  0.500000  0.727800  1.0  0.6781
  H  H121  1  0.183000  0.114100  0.028000  1.0  0.1316
  H  H122  1  0.196500  0.123700  0.263700  1.0  0.1295
  H  H123  1  0.183000  0.614100  0.528000  1.0  0.1316
  H  H124  1  0.196500  0.623700  0.763700  1.0  0.1295
  H  H125  1  0.683000  0.114100  0.528000  1.0  0.1316
  H  H126  1  0.696500  0.123700  0.763700  1.0  0.1295
  H  H127  1  0.683000  0.614100  0.028000  1.0  0.1316
  H  H128  1  0.696500  0.623700  0.263700  1.0  0.1295
  H  H129  1  0.817000  0.885900  0.028000  1.0  0.132
  H  H130  1  0.803500  0.876300  0.263700  1.0  0.1288
  H  H131  1  0.817000  0.385900  0.528000  1.0  0.132
  H  H132  1  0.803500  0.376300  0.763700  1.0  0.1288
  H  H133  1  0.317000  0.885900  0.528000  1.0  0.132
  H  H134  1  0.303500  0.876300  0.763700  1.0  0.1288
  H  H135  1  0.317000  0.385900  0.028000  1.0  0.132
  H  H136  1  0.303500  0.376300  0.263700  1.0  0.1288
  H  H137  1  0.817000  0.114100  0.972000  1.0  0.1319
  H  H138  1  0.803500  0.123700  0.736300  1.0  0.1284
  H  H139  1  0.817000  0.614100  0.472000  1.0  0.1319
  H  H140  1  0.803500  0.623700  0.236300  1.0  0.1284
  H  H141  1  0.317000  0.114100  0.472000  1.0  0.1319
  H  H142  1  0.303500  0.123700  0.236300  1.0  0.1284
  H  H143  1  0.317000  0.614100  0.972000  1.0  0.1319
  H  H144  1  0.303500  0.623700  0.736300  1.0  0.1284
  H  H145  1  0.183000  0.885900  0.972000  1.0  0.1317
  H  H146  1  0.196500  0.876300  0.736300  1.0  0.1295
  H  H147  1  0.183000  0.385900  0.472000  1.0  0.1317
  H  H148  1  0.196500  0.376300  0.236300  1.0  0.1295
  H  H149  1  0.683000  0.885900  0.472000  1.0  0.1317
  H  H150  1  0.696500  0.876300  0.236300  1.0  0.1295
  H  H151  1  0.683000  0.385900  0.972000  1.0  0.1317
  H  H152  1  0.696500  0.376300  0.736300  1.0  0.1295
  H  H153  1  0.028000  0.183000  0.114100  1.0  0.132
  H  H154  1  0.263700  0.196500  0.123700  1.0  0.128
  H  H155  1  0.028000  0.683000  0.614100  1.0  0.132
  H  H156  1  0.263700  0.696500  0.623700  1.0  0.128
  H  H157  1  0.528000  0.183000  0.614100  1.0  0.132
  H  H158  1  0.763700  0.196500  0.623700  1.0  0.128
  H  H159  1  0.528000  0.683000  0.114100  1.0  0.132
  H  H160  1  0.763700  0.696500  0.123700  1.0  0.128
  H  H161  1  0.028000  0.817000  0.885900  1.0  0.1324
  H  H162  1  0.263700  0.803500  0.876300  1.0  0.1279
  H  H163  1  0.028000  0.317000  0.385900  1.0  0.1324
  H  H164  1  0.263700  0.303500  0.376300  1.0  0.1279
  H  H165  1  0.528000  0.817000  0.385900  1.0  0.1324
  H  H166  1  0.763700  0.803500  0.376300  1.0  0.1279
  H  H167  1  0.528000  0.317000  0.885900  1.0  0.1324
  H  H168  1  0.763700  0.303500  0.876300  1.0  0.1279
  H  H169  1  0.972000  0.817000  0.114100  1.0  0.1323
  H  H170  1  0.736300  0.803500  0.123700  1.0  0.1284
  H  H171  1  0.972000  0.317000  0.614100  1.0  0.1323
  H  H172  1  0.736300  0.303500  0.623700  1.0  0.1284
  H  H173  1  0.472000  0.817000  0.614100  1.0  0.1323
  H  H174  1  0.236300  0.803500  0.623700  1.0  0.1284
  H  H175  1  0.472000  0.317000  0.114100  1.0  0.1323
  H  H176  1  0.236300  0.303500  0.123700  1.0  0.1284
  H  H177  1  0.972000  0.183000  0.885900  1.0  0.1323
  H  H178  1  0.736300  0.196500  0.876300  1.0  0.1279
  H  H179  1  0.972000  0.683000  0.385900  1.0  0.1323
  H  H180  1  0.736300  0.696500  0.376300  1.0  0.1279
  H  H181  1  0.472000  0.183000  0.385900  1.0  0.1323
  H  H182  1  0.236300  0.196500  0.376300  1.0  0.1279
  H  H183  1  0.472000  0.683000  0.885900  1.0  0.1323
  H  H184  1  0.236300  0.696500  0.876300  1.0  0.1279
  H  H185  1  0.114100  0.028000  0.183000  1.0  0.1316
  H  H186  1  0.123700  0.263700  0.196500  1.0  0.1285
  H  H187  1  0.114100  0.528000  0.683000  1.0  0.1316
  H  H188  1  0.123700  0.763700  0.696500  1.0  0.1285
  H  H189  1  0.614100  0.028000  0.683000  1.0  0.1316
  H  H190  1  0.623700  0.263700  0.696500  1.0  0.1285
  H  H191  1  0.614100  0.528000  0.183000  1.0  0.1316
  H  H192  1  0.623700  0.763700  0.196500  1.0  0.1285
  H  H193  1  0.885900  0.028000  0.817000  1.0  0.1321
  H  H194  1  0.876300  0.263700  0.803500  1.0  0.1276
  H  H195  1  0.885900  0.528000  0.317000  1.0  0.1321
  H  H196  1  0.876300  0.763700  0.303500  1.0  0.1276
  H  H197  1  0.385900  0.028000  0.317000  1.0  0.1321
  H  H198  1  0.376300  0.263700  0.303500  1.0  0.1276
  H  H199  1  0.385900  0.528000  0.817000  1.0  0.1321
  H  H200  1  0.376300  0.763700  0.803500  1.0  0.1276
  H  H201  1  0.114100  0.972000  0.817000  1.0  0.1319
  H  H202  1  0.123700  0.736300  0.803500  1.0  0.128
  H  H203  1  0.114100  0.472000  0.317000  1.0  0.1319
  H  H204  1  0.123700  0.236300  0.303500  1.0  0.128
  H  H205  1  0.614100  0.972000  0.317000  1.0  0.1319
  H  H206  1  0.623700  0.736300  0.303500  1.0  0.128
  H  H207  1  0.614100  0.472000  0.817000  1.0  0.1319
  H  H208  1  0.623700  0.236300  0.803500  1.0  0.128
  H  H209  1  0.885900  0.972000  0.183000  1.0  0.1318
  H  H210  1  0.876300  0.736300  0.196500  1.0  0.1281
  H  H211  1  0.885900  0.472000  0.683000  1.0  0.1318
  H  H212  1  0.876300  0.236300  0.696500  1.0  0.1281
  H  H213  1  0.385900  0.972000  0.683000  1.0  0.1318
  H  H214  1  0.376300  0.736300  0.696500  1.0  0.1281
  H  H215  1  0.385900  0.472000  0.183000  1.0  0.1318
  H  H216  1  0.376300  0.236300  0.196500  1.0  0.1281
  H  H217  1  0.114100  0.183000  0.972000  1.0  0.132
  H  H218  1  0.123700  0.196500  0.736300  1.0  0.1279
  H  H219  1  0.114100  0.683000  0.472000  1.0  0.132
  H  H220  1  0.123700  0.696500  0.236300  1.0  0.1279
  H  H221  1  0.614100  0.183000  0.472000  1.0  0.132
  H  H222  1  0.623700  0.196500  0.236300  1.0  0.1279
  H  H223  1  0.614100  0.683000  0.972000  1.0  0.132
  H  H224  1  0.623700  0.696500  0.736300  1.0  0.1279
  H  H225  1  0.885900  0.817000  0.972000  1.0  0.1322
  H  H226  1  0.876300  0.803500  0.736300  1.0  0.128
  H  H227  1  0.885900  0.317000  0.472000  1.0  0.1322
  H  H228  1  0.876300  0.303500  0.236300  1.0  0.128
  H  H229  1  0.385900  0.817000  0.472000  1.0  0.1322
  H  H230  1  0.376300  0.803500  0.236300  1.0  0.128
  H  H231  1  0.385900  0.317000  0.972000  1.0  0.1322
  H  H232  1  0.376300  0.303500  0.736300  1.0  0.128
  H  H233  1  0.114100  0.817000  0.028000  1.0  0.1319
  H  H234  1  0.123700  0.803500  0.263700  1.0  0.1284
  H  H235  1  0.114100  0.317000  0.528000  1.0  0.1319
  H  H236  1  0.123700  0.303500  0.763700  1.0  0.1284
  H  H237  1  0.614100  0.817000  0.528000  1.0  0.1319
  H  H238  1  0.623700  0.803500  0.763700  1.0  0.1284
  H  H239  1  0.614100  0.317000  0.028000  1.0  0.1319
  H  H240  1  0.623700  0.303500  0.263700  1.0  0.1284
  H  H241  1  0.885900  0.183000  0.028000  1.0  0.1322
  H  H242  1  0.876300  0.196500  0.263700  1.0  0.1281
  H  H243  1  0.885900  0.683000  0.528000  1.0  0.1322
  H  H244  1  0.876300  0.696500  0.763700  1.0  0.1281
  H  H245  1  0.385900  0.183000  0.528000  1.0  0.1322
  H  H246  1  0.376300  0.196500  0.763700  1.0  0.1281
  H  H247  1  0.385900  0.683000  0.028000  1.0  0.1322
  H  H248  1  0.376300  0.696500  0.263700  1.0  0.1281
  H  H249  1  0.183000  0.028000  0.885900  1.0  0.132
  H  H250  1  0.196500  0.263700  0.876300  1.0  0.1285
  H  H251  1  0.183000  0.528000  0.385900  1.0  0.132
  H  H252  1  0.196500  0.763700  0.376300  1.0  0.1285
  H  H253  1  0.683000  0.028000  0.385900  1.0  0.132
  H  H254  1  0.696500  0.263700  0.376300  1.0  0.1285
  H  H255  1  0.683000  0.528000  0.885900  1.0  0.132
  H  H256  1  0.696500  0.763700  0.876300  1.0  0.1285
  H  H257  1  0.817000  0.028000  0.114100  1.0  0.1319
  H  H258  1  0.803500  0.263700  0.123700  1.0  0.1286
  H  H259  1  0.817000  0.528000  0.614100  1.0  0.1319
  H  H260  1  0.803500  0.763700  0.623700  1.0  0.1286
  H  H261  1  0.317000  0.028000  0.614100  1.0  0.1319
  H  H262  1  0.303500  0.263700  0.623700  1.0  0.1286
  H  H263  1  0.317000  0.528000  0.114100  1.0  0.1319
  H  H264  1  0.303500  0.763700  0.123700  1.0  0.1286
  H  H265  1  0.817000  0.972000  0.885900  1.0  0.1323
  H  H266  1  0.803500  0.736300  0.876300  1.0  0.1284
  H  H267  1  0.817000  0.472000  0.385900  1.0  0.1323
  H  H268  1  0.803500  0.236300  0.376300  1.0  0.1284
  H  H269  1  0.317000  0.972000  0.385900  1.0  0.1323
  H  H270  1  0.303500  0.736300  0.376300  1.0  0.1284
  H  H271  1  0.317000  0.472000  0.885900  1.0  0.1323
  H  H272  1  0.303500  0.236300  0.876300  1.0  0.1284
  H  H273  1  0.183000  0.972000  0.114100  1.0  0.1315
  H  H274  1  0.196500  0.736300  0.123700  1.0  0.1289
  H  H275  1  0.183000  0.472000  0.614100  1.0  0.1315
  H  H276  1  0.196500  0.236300  0.623700  1.0  0.1289
  H  H277  1  0.683000  0.972000  0.614100  1.0  0.1315
  H  H278  1  0.696500  0.736300  0.623700  1.0  0.1289
  H  H279  1  0.683000  0.472000  0.114100  1.0  0.1315
  H  H280  1  0.696500  0.236300  0.123700  1.0  0.1289
  H  H281  1  0.028000  0.114100  0.817000  1.0  0.1322
  H  H282  1  0.263700  0.123700  0.803500  1.0  0.128
  H  H283  1  0.028000  0.614100  0.317000  1.0  0.1322
  H  H284  1  0.263700  0.623700  0.303500  1.0  0.128
  H  H285  1  0.528000  0.114100  0.317000  1.0  0.1322
  H  H286  1  0.763700  0.123700  0.303500  1.0  0.128
  H  H287  1  0.528000  0.614100  0.817000  1.0  0.1322
  H  H288  1  0.763700  0.623700  0.803500  1.0  0.128
  H  H289  1  0.028000  0.885900  0.183000  1.0  0.1317
  H  H290  1  0.263700  0.876300  0.196500  1.0  0.1287
  H  H291  1  0.028000  0.385900  0.683000  1.0  0.1317
  H  H292  1  0.263700  0.376300  0.696500  1.0  0.1287
  H  H293  1  0.528000  0.885900  0.683000  1.0  0.1317
  H  H294  1  0.763700  0.876300  0.696500  1.0  0.1287
  H  H295  1  0.528000  0.385900  0.183000  1.0  0.1317
  H  H296  1  0.763700  0.376300  0.196500  1.0  0.1287
  H  H297  1  0.972000  0.114100  0.183000  1.0  0.132
  H  H298  1  0.736300  0.123700  0.196500  1.0  0.1288
  H  H299  1  0.972000  0.614100  0.683000  1.0  0.132
  H  H300  1  0.736300  0.623700  0.696500  1.0  0.1288
  H  H301  1  0.472000  0.114100  0.683000  1.0  0.132
  H  H302  1  0.236300  0.123700  0.696500  1.0  0.1288
  H  H303  1  0.472000  0.614100  0.183000  1.0  0.132
  H  H304  1  0.236300  0.623700  0.196500  1.0  0.1288
  H  H305  1  0.972000  0.885900  0.817000  1.0  0.1323
  H  H306  1  0.736300  0.876300  0.803500  1.0  0.1282
  H  H307  1  0.972000  0.385900  0.317000  1.0  0.1323
  H  H308  1  0.736300  0.376300  0.303500  1.0  0.1282
  H  H309  1  0.472000  0.885900  0.317000  1.0  0.1323
  H  H310  1  0.236300  0.876300  0.303500  1.0  0.1282
  H  H311  1  0.472000  0.385900  0.817000  1.0  0.1323
  H  H312  1  0.236300  0.376300  0.803500  1.0  0.1282
  H  H313  1  0.817000  0.885900  0.972000  1.0  0.1319
  H  H314  1  0.803500  0.876300  0.736300  1.0  0.1284
  H  H315  1  0.817000  0.385900  0.472000  1.0  0.1319
  H  H316  1  0.803500  0.376300  0.236300  1.0  0.1284
  H  H317  1  0.317000  0.885900  0.472000  1.0  0.1319
  H  H318  1  0.303500  0.876300  0.236300  1.0  0.1284
  H  H319  1  0.317000  0.385900  0.972000  1.0  0.1319
  H  H320  1  0.303500  0.376300  0.736300  1.0  0.1284
  H  H321  1  0.183000  0.114100  0.972000  1.0  0.1315
  H  H322  1  0.196500  0.123700  0.736300  1.0  0.1294
  H  H323  1  0.183000  0.614100  0.472000  1.0  0.1315
  H  H324  1  0.196500  0.623700  0.236300  1.0  0.1294
  H  H325  1  0.683000  0.114100  0.472000  1.0  0.1315
  H  H326  1  0.696500  0.123700  0.236300  1.0  0.1294
  H  H327  1  0.683000  0.614100  0.972000  1.0  0.1315
  H  H328  1  0.696500  0.623700  0.736300  1.0  0.1294
  H  H329  1  0.183000  0.885900  0.028000  1.0  0.1319
  H  H330  1  0.196500  0.876300  0.263700  1.0  0.1295
  H  H331  1  0.183000  0.385900  0.528000  1.0  0.1319
  H  H332  1  0.196500  0.376300  0.763700  1.0  0.1295
  H  H333  1  0.683000  0.885900  0.528000  1.0  0.1319
  H  H334  1  0.696500  0.876300  0.763700  1.0  0.1295
  H  H335  1  0.683000  0.385900  0.028000  1.0  0.1319
  H  H336  1  0.696500  0.376300  0.263700  1.0  0.1295
  H  H337  1  0.817000  0.114100  0.028000  1.0  0.132
  H  H338  1  0.803500  0.123700  0.263700  1.0  0.1289
  H  H339  1  0.817000  0.614100  0.528000  1.0  0.132
  H  H340  1  0.803500  0.623700  0.763700  1.0  0.1289
  H  H341  1  0.317000  0.114100  0.528000  1.0  0.132
  H  H342  1  0.303500  0.123700  0.763700  1.0  0.1289
  H  H343  1  0.317000  0.614100  0.028000  1.0  0.132
  H  H344  1  0.303500  0.623700  0.263700  1.0  0.1289
  H  H345  1  0.972000  0.817000  0.885900  1.0  0.1326
  H  H346  1  0.736300  0.803500  0.876300  1.0  0.1283
  H  H347  1  0.972000  0.317000  0.385900  1.0  0.1326
  H  H348  1  0.736300  0.303500  0.376300  1.0  0.1283
  H  H349  1  0.472000  0.817000  0.385900  1.0  0.1326
  H  H350  1  0.236300  0.803500  0.376300  1.0  0.1283
  H  H351  1  0.472000  0.317000  0.885900  1.0  0.1326
  H  H352  1  0.236300  0.303500  0.876300  1.0  0.1283
  H  H353  1  0.972000  0.183000  0.114100  1.0  0.1322
  H  H354  1  0.736300  0.196500  0.123700  1.0  0.1277
  H  H355  1  0.972000  0.683000  0.614100  1.0  0.1322
  H  H356  1  0.736300  0.696500  0.623700  1.0  0.1277
  H  H357  1  0.472000  0.183000  0.614100  1.0  0.1322
  H  H358  1  0.236300  0.196500  0.623700  1.0  0.1277
  H  H359  1  0.472000  0.683000  0.114100  1.0  0.1322
  H  H360  1  0.236300  0.696500  0.123700  1.0  0.1277
  H  H361  1  0.028000  0.183000  0.885900  1.0  0.1321
  H  H362  1  0.263700  0.196500  0.876300  1.0  0.128
  H  H363  1  0.028000  0.683000  0.385900  1.0  0.1321
  H  H364  1  0.263700  0.696500  0.376300  1.0  0.128
  H  H365  1  0.528000  0.183000  0.385900  1.0  0.1321
  H  H366  1  0.763700  0.196500  0.376300  1.0  0.128
  H  H367  1  0.528000  0.683000  0.885900  1.0  0.1321
  H  H368  1  0.763700  0.696500  0.876300  1.0  0.128
  H  H369  1  0.028000  0.817000  0.114100  1.0  0.1322
  H  H370  1  0.263700  0.803500  0.123700  1.0  0.128
  H  H371  1  0.028000  0.317000  0.614100  1.0  0.1322
  H  H372  1  0.263700  0.303500  0.623700  1.0  0.128
  H  H373  1  0.528000  0.817000  0.614100  1.0  0.1322
  H  H374  1  0.763700  0.803500  0.623700  1.0  0.128
  H  H375  1  0.528000  0.317000  0.114100  1.0  0.1322
  H  H376  1  0.763700  0.303500  0.123700  1.0  0.128
  H  H377  1  0.885900  0.972000  0.817000  1.0  0.1322
  H  H378  1  0.876300  0.736300  0.803500  1.0  0.1277
  H  H379  1  0.885900  0.472000  0.317000  1.0  0.1322
  H  H380  1  0.876300  0.236300  0.303500  1.0  0.1277
  H  H381  1  0.385900  0.972000  0.317000  1.0  0.1322
  H  H382  1  0.376300  0.736300  0.303500  1.0  0.1277
  H  H383  1  0.385900  0.472000  0.817000  1.0  0.1322
  H  H384  1  0.376300  0.236300  0.803500  1.0  0.1277
  H  H385  1  0.114100  0.972000  0.183000  1.0  0.1314
  H  H386  1  0.123700  0.736300  0.196500  1.0  0.1283
  H  H387  1  0.114100  0.472000  0.683000  1.0  0.1314
  H  H388  1  0.123700  0.236300  0.696500  1.0  0.1283
  H  H389  1  0.614100  0.972000  0.683000  1.0  0.1314
  H  H390  1  0.623700  0.736300  0.696500  1.0  0.1283
  H  H391  1  0.614100  0.472000  0.183000  1.0  0.1314
  H  H392  1  0.623700  0.236300  0.196500  1.0  0.1283
  H  H393  1  0.885900  0.028000  0.183000  1.0  0.1318
  H  H394  1  0.876300  0.263700  0.196500  1.0  0.1283
  H  H395  1  0.885900  0.528000  0.683000  1.0  0.1318
  H  H396  1  0.876300  0.763700  0.696500  1.0  0.1283
  H  H397  1  0.385900  0.028000  0.683000  1.0  0.1318
  H  H398  1  0.376300  0.263700  0.696500  1.0  0.1283
  H  H399  1  0.385900  0.528000  0.183000  1.0  0.1318
  H  H400  1  0.376300  0.763700  0.196500  1.0  0.1283
  H  H401  1  0.114100  0.028000  0.817000  1.0  0.132
  H  H402  1  0.123700  0.263700  0.803500  1.0  0.1278
  H  H403  1  0.114100  0.528000  0.317000  1.0  0.132
  H  H404  1  0.123700  0.763700  0.303500  1.0  0.1278
  H  H405  1  0.614100  0.028000  0.317000  1.0  0.132
  H  H406  1  0.623700  0.263700  0.303500  1.0  0.1278
  H  H407  1  0.614100  0.528000  0.817000  1.0  0.132
  H  H408  1  0.623700  0.763700  0.803500  1.0  0.1278
  H  H409  1  0.885900  0.817000  0.028000  1.0  0.1324
  H  H410  1  0.876300  0.803500  0.263700  1.0  0.1281
  H  H411  1  0.885900  0.317000  0.528000  1.0  0.1324
  H  H412  1  0.876300  0.303500  0.763700  1.0  0.1281
  H  H413  1  0.385900  0.817000  0.528000  1.0  0.1324
  H  H414  1  0.376300  0.803500  0.763700  1.0  0.1281
  H  H415  1  0.385900  0.317000  0.028000  1.0  0.1324
  H  H416  1  0.376300  0.303500  0.263700  1.0  0.1281
  H  H417  1  0.114100  0.183000  0.028000  1.0  0.1321
  H  H418  1  0.123700  0.196500  0.263700  1.0  0.1281
  H  H419  1  0.114100  0.683000  0.528000  1.0  0.1321
  H  H420  1  0.123700  0.696500  0.763700  1.0  0.1281
  H  H421  1  0.614100  0.183000  0.528000  1.0  0.1321
  H  H422  1  0.623700  0.196500  0.763700  1.0  0.1281
  H  H423  1  0.614100  0.683000  0.028000  1.0  0.1321
  H  H424  1  0.623700  0.696500  0.263700  1.0  0.1281
  H  H425  1  0.885900  0.183000  0.972000  1.0  0.132
  H  H426  1  0.876300  0.196500  0.736300  1.0  0.1281
  H  H427  1  0.885900  0.683000  0.472000  1.0  0.132
  H  H428  1  0.876300  0.696500  0.236300  1.0  0.1281
  H  H429  1  0.385900  0.183000  0.472000  1.0  0.132
  H  H430  1  0.376300  0.196500  0.236300  1.0  0.1281
  H  H431  1  0.385900  0.683000  0.972000  1.0  0.132
  H  H432  1  0.376300  0.696500  0.736300  1.0  0.1281
  H  H433  1  0.114100  0.817000  0.972000  1.0  0.1319
  H  H434  1  0.123700  0.803500  0.736300  1.0  0.1282
  H  H435  1  0.114100  0.317000  0.472000  1.0  0.1319
  H  H436  1  0.123700  0.303500  0.236300  1.0  0.1282
  H  H437  1  0.614100  0.817000  0.472000  1.0  0.1319
  H  H438  1  0.623700  0.803500  0.236300  1.0  0.1282
  H  H439  1  0.614100  0.317000  0.972000  1.0  0.1319
  H  H440  1  0.623700  0.303500  0.736300  1.0  0.1282
  H  H441  1  0.817000  0.972000  0.114100  1.0  0.1318
  H  H442  1  0.803500  0.736300  0.123700  1.0  0.1285
  H  H443  1  0.817000  0.472000  0.614100  1.0  0.1318
  H  H444  1  0.803500  0.236300  0.623700  1.0  0.1285
  H  H445  1  0.317000  0.972000  0.614100  1.0  0.1318
  H  H446  1  0.303500  0.736300  0.623700  1.0  0.1285
  H  H447  1  0.317000  0.472000  0.114100  1.0  0.1318
  H  H448  1  0.303500  0.236300  0.123700  1.0  0.1285
  H  H449  1  0.183000  0.972000  0.885900  1.0  0.1318
  H  H450  1  0.196500  0.736300  0.876300  1.0  0.1289
  H  H451  1  0.183000  0.472000  0.385900  1.0  0.1318
  H  H452  1  0.196500  0.236300  0.376300  1.0  0.1289
  H  H453  1  0.683000  0.972000  0.385900  1.0  0.1318
  H  H454  1  0.696500  0.736300  0.376300  1.0  0.1289
  H  H455  1  0.683000  0.472000  0.885900  1.0  0.1318
  H  H456  1  0.696500  0.236300  0.876300  1.0  0.1289
  H  H457  1  0.183000  0.028000  0.114100  1.0  0.1318
  H  H458  1  0.196500  0.263700  0.123700  1.0  0.1285
  H  H459  1  0.183000  0.528000  0.614100  1.0  0.1318
  H  H460  1  0.196500  0.763700  0.623700  1.0  0.1285
  H  H461  1  0.683000  0.028000  0.614100  1.0  0.1318
  H  H462  1  0.696500  0.263700  0.623700  1.0  0.1285
  H  H463  1  0.683000  0.528000  0.114100  1.0  0.1318
  H  H464  1  0.696500  0.763700  0.123700  1.0  0.1285
  H  H465  1  0.817000  0.028000  0.885900  1.0  0.1323
  H  H466  1  0.803500  0.263700  0.876300  1.0  0.1285
  H  H467  1  0.817000  0.528000  0.385900  1.0  0.1323
  H  H468  1  0.803500  0.763700  0.376300  1.0  0.1285
  H  H469  1  0.317000  0.028000  0.385900  1.0  0.1323
  H  H470  1  0.303500  0.263700  0.376300  1.0  0.1285
  H  H471  1  0.317000  0.528000  0.885900  1.0  0.1323
  H  H472  1  0.303500  0.763700  0.876300  1.0  0.1285
  H  H473  1  0.972000  0.885900  0.183000  1.0  0.132
  H  H474  1  0.736300  0.876300  0.196500  1.0  0.1289
  H  H475  1  0.972000  0.385900  0.683000  1.0  0.132
  H  H476  1  0.736300  0.376300  0.696500  1.0  0.1289
  H  H477  1  0.472000  0.885900  0.683000  1.0  0.132
  H  H478  1  0.236300  0.876300  0.696500  1.0  0.1289
  H  H479  1  0.472000  0.385900  0.183000  1.0  0.132
  H  H480  1  0.236300  0.376300  0.196500  1.0  0.1289
  H  H481  1  0.972000  0.114100  0.817000  1.0  0.1324
  H  H482  1  0.736300  0.123700  0.803500  1.0  0.1282
  H  H483  1  0.972000  0.614100  0.317000  1.0  0.1324
  H  H484  1  0.736300  0.623700  0.303500  1.0  0.1282
  H  H485  1  0.472000  0.114100  0.317000  1.0  0.1324
  H  H486  1  0.236300  0.123700  0.303500  1.0  0.1282
  H  H487  1  0.472000  0.614100  0.817000  1.0  0.1324
  H  H488  1  0.236300  0.623700  0.803500  1.0  0.1282
  H  H489  1  0.028000  0.885900  0.817000  1.0  0.132
  H  H490  1  0.263700  0.876300  0.803500  1.0  0.128
  H  H491  1  0.028000  0.385900  0.317000  1.0  0.132
  H  H492  1  0.263700  0.376300  0.303500  1.0  0.128
  H  H493  1  0.528000  0.885900  0.317000  1.0  0.132
  H  H494  1  0.763700  0.876300  0.303500  1.0  0.128
  H  H495  1  0.528000  0.385900  0.817000  1.0  0.132
  H  H496  1  0.763700  0.376300  0.803500  1.0  0.128
  H  H497  1  0.028000  0.114100  0.183000  1.0  0.1319
  H  H498  1  0.263700  0.123700  0.196500  1.0  0.1286
  H  H499  1  0.028000  0.614100  0.683000  1.0  0.1319
  H  H500  1  0.263700  0.623700  0.696500  1.0  0.1286
  H  H501  1  0.528000  0.114100  0.683000  1.0  0.1319
  H  H502  1  0.763700  0.123700  0.696500  1.0  0.1286
  H  H503  1  0.528000  0.614100  0.183000  1.0  0.1319
  H  H504  1  0.763700  0.623700  0.196500  1.0  0.1286
  H  H505  1  0.300600  0.070200  0.070200  1.0  0.1423
  H  H506  1  0.204400  0.078300  0.078300  1.0  0.1336
  H  H507  1  0.307000  0.109100  0.109100  1.0  0.1404
  H  H508  1  0.262900  0.132900  0.132900  1.0  0.1291
  H  H509  1  0.300600  0.570200  0.570200  1.0  0.1423
  H  H510  1  0.204400  0.578300  0.578300  1.0  0.1336
  H  H511  1  0.307000  0.609100  0.609100  1.0  0.1404
  H  H512  1  0.262900  0.632900  0.632900  1.0  0.1291
  H  H513  1  0.800600  0.070200  0.570200  1.0  0.1423
  H  H514  1  0.704400  0.078300  0.578300  1.0  0.1336
  H  H515  1  0.807000  0.109100  0.609100  1.0  0.1404
  H  H516  1  0.762900  0.132900  0.632900  1.0  0.1291
  H  H517  1  0.800600  0.570200  0.070200  1.0  0.1423
  H  H518  1  0.704400  0.578300  0.078300  1.0  0.1336
  H  H519  1  0.807000  0.609100  0.109100  1.0  0.1404
  H  H520  1  0.762900  0.632900  0.132900  1.0  0.1291
  H  H521  1  0.699400  0.929800  0.070200  1.0  0.1421
  H  H522  1  0.795600  0.921700  0.078300  1.0  0.1332
  H  H523  1  0.693000  0.890900  0.109100  1.0  0.1397
  H  H524  1  0.737100  0.867100  0.132900  1.0  0.1308
  H  H525  1  0.699400  0.429800  0.570200  1.0  0.1421
  H  H526  1  0.795600  0.421700  0.578300  1.0  0.1332
  H  H527  1  0.693000  0.390900  0.609100  1.0  0.1397
  H  H528  1  0.737100  0.367100  0.632900  1.0  0.1308
  H  H529  1  0.199400  0.929800  0.570200  1.0  0.1421
  H  H530  1  0.295600  0.921700  0.578300  1.0  0.1332
  H  H531  1  0.193000  0.890900  0.609100  1.0  0.1397
  H  H532  1  0.237100  0.867100  0.632900  1.0  0.1308
  H  H533  1  0.199400  0.429800  0.070200  1.0  0.1421
  H  H534  1  0.295600  0.421700  0.078300  1.0  0.1332
  H  H535  1  0.193000  0.390900  0.109100  1.0  0.1397
  H  H536  1  0.237100  0.367100  0.132900  1.0  0.1308
  H  H537  1  0.699400  0.070200  0.929800  1.0  0.1419
  H  H538  1  0.795600  0.078300  0.921700  1.0  0.1337
  H  H539  1  0.693000  0.109100  0.890900  1.0  0.1397
  H  H540  1  0.737100  0.132900  0.867100  1.0  0.1308
  H  H541  1  0.699400  0.570200  0.429800  1.0  0.1419
  H  H542  1  0.795600  0.578300  0.421700  1.0  0.1337
  H  H543  1  0.693000  0.609100  0.390900  1.0  0.1397
  H  H544  1  0.737100  0.632900  0.367100  1.0  0.1308
  H  H545  1  0.199400  0.070200  0.429800  1.0  0.1419
  H  H546  1  0.295600  0.078300  0.421700  1.0  0.1337
  H  H547  1  0.193000  0.109100  0.390900  1.0  0.1397
  H  H548  1  0.237100  0.132900  0.367100  1.0  0.1308
  H  H549  1  0.199400  0.570200  0.929800  1.0  0.1419
  H  H550  1  0.295600  0.578300  0.921700  1.0  0.1337
  H  H551  1  0.193000  0.609100  0.890900  1.0  0.1397
  H  H552  1  0.237100  0.632900  0.867100  1.0  0.1308
  H  H553  1  0.300600  0.929800  0.929800  1.0  0.142
  H  H554  1  0.204400  0.921700  0.921700  1.0  0.134
  H  H555  1  0.307000  0.890900  0.890900  1.0  0.141
  H  H556  1  0.262900  0.867100  0.867100  1.0  0.13
  H  H557  1  0.300600  0.429800  0.429800  1.0  0.142
  H  H558  1  0.204400  0.421700  0.421700  1.0  0.134
  H  H559  1  0.307000  0.390900  0.390900  1.0  0.141
  H  H560  1  0.262900  0.367100  0.367100  1.0  0.13
  H  H561  1  0.800600  0.929800  0.429800  1.0  0.142
  H  H562  1  0.704400  0.921700  0.421700  1.0  0.134
  H  H563  1  0.807000  0.890900  0.390900  1.0  0.141
  H  H564  1  0.762900  0.867100  0.367100  1.0  0.13
  H  H565  1  0.800600  0.429800  0.929800  1.0  0.142
  H  H566  1  0.704400  0.421700  0.921700  1.0  0.134
  H  H567  1  0.807000  0.390900  0.890900  1.0  0.141
  H  H568  1  0.762900  0.367100  0.867100  1.0  0.13
  H  H569  1  0.070200  0.300600  0.070200  1.0  0.14
  H  H570  1  0.078300  0.204400  0.078300  1.0  0.1347
  H  H571  1  0.109100  0.307000  0.109100  1.0  0.1399
  H  H572  1  0.132900  0.262900  0.132900  1.0  0.1315
  H  H573  1  0.070200  0.800600  0.570200  1.0  0.14
  H  H574  1  0.078300  0.704400  0.578300  1.0  0.1347
  H  H575  1  0.109100  0.807000  0.609100  1.0  0.1399
  H  H576  1  0.132900  0.762900  0.632900  1.0  0.1315
  H  H577  1  0.570200  0.300600  0.570200  1.0  0.14
  H  H578  1  0.578300  0.204400  0.578300  1.0  0.1347
  H  H579  1  0.609100  0.307000  0.609100  1.0  0.1399
  H  H580  1  0.632900  0.262900  0.632900  1.0  0.1315
  H  H581  1  0.570200  0.800600  0.070200  1.0  0.14
  H  H582  1  0.578300  0.704400  0.078300  1.0  0.1347
  H  H583  1  0.609100  0.807000  0.109100  1.0  0.1399
  H  H584  1  0.632900  0.762900  0.132900  1.0  0.1315
  H  H585  1  0.070200  0.699400  0.929800  1.0  0.1396
  H  H586  1  0.078300  0.795600  0.921700  1.0  0.1353
  H  H587  1  0.109100  0.693000  0.890900  1.0  0.1409
  H  H588  1  0.132900  0.737100  0.867100  1.0  0.1315
  H  H589  1  0.070200  0.199400  0.429800  1.0  0.1396
  H  H590  1  0.078300  0.295600  0.421700  1.0  0.1353
  H  H591  1  0.109100  0.193000  0.390900  1.0  0.1409
  H  H592  1  0.132900  0.237100  0.367100  1.0  0.1315
  H  H593  1  0.570200  0.699400  0.429800  1.0  0.1396
  H  H594  1  0.578300  0.795600  0.421700  1.0  0.1353
  H  H595  1  0.609100  0.693000  0.390900  1.0  0.1409
  H  H596  1  0.632900  0.737100  0.367100  1.0  0.1315
  H  H597  1  0.570200  0.199400  0.929800  1.0  0.1396
  H  H598  1  0.578300  0.295600  0.921700  1.0  0.1353
  H  H599  1  0.609100  0.193000  0.890900  1.0  0.1409
  H  H600  1  0.632900  0.237100  0.867100  1.0  0.1315
  H  H601  1  0.929800  0.699400  0.070200  1.0  0.1393
  H  H602  1  0.921700  0.795600  0.078300  1.0  0.1345
  H  H603  1  0.890900  0.693000  0.109100  1.0  0.1408
  H  H604  1  0.867100  0.737100  0.132900  1.0  0.1312
  H  H605  1  0.929800  0.199400  0.570200  1.0  0.1393
  H  H606  1  0.921700  0.295600  0.578300  1.0  0.1345
  H  H607  1  0.890900  0.193000  0.609100  1.0  0.1408
  H  H608  1  0.867100  0.237100  0.632900  1.0  0.1312
  H  H609  1  0.429800  0.699400  0.570200  1.0  0.1393
  H  H610  1  0.421700  0.795600  0.578300  1.0  0.1345
  H  H611  1  0.390900  0.693000  0.609100  1.0  0.1408
  H  H612  1  0.367100  0.737100  0.632900  1.0  0.1312
  H  H613  1  0.429800  0.199400  0.070200  1.0  0.1393
  H  H614  1  0.421700  0.295600  0.078300  1.0  0.1345
  H  H615  1  0.390900  0.193000  0.109100  1.0  0.1408
  H  H616  1  0.367100  0.237100  0.132900  1.0  0.1312
  H  H617  1  0.929800  0.300600  0.929800  1.0  0.1396
  H  H618  1  0.921700  0.204400  0.921700  1.0  0.1349
  H  H619  1  0.890900  0.307000  0.890900  1.0  0.1398
  H  H620  1  0.867100  0.262900  0.867100  1.0  0.1313
  H  H621  1  0.929800  0.800600  0.429800  1.0  0.1396
  H  H622  1  0.921700  0.704400  0.421700  1.0  0.1349
  H  H623  1  0.890900  0.807000  0.390900  1.0  0.1398
  H  H624  1  0.867100  0.762900  0.367100  1.0  0.1313
  H  H625  1  0.429800  0.300600  0.429800  1.0  0.1396
  H  H626  1  0.421700  0.204400  0.421700  1.0  0.1349
  H  H627  1  0.390900  0.307000  0.390900  1.0  0.1398
  H  H628  1  0.367100  0.262900  0.367100  1.0  0.1313
  H  H629  1  0.429800  0.800600  0.929800  1.0  0.1396
  H  H630  1  0.421700  0.704400  0.921700  1.0  0.1349
  H  H631  1  0.390900  0.807000  0.890900  1.0  0.1398
  H  H632  1  0.367100  0.762900  0.867100  1.0  0.1313
  H  H633  1  0.070200  0.070200  0.300600  1.0  0.1405
  H  H634  1  0.078300  0.078300  0.204400  1.0  0.1357
  H  H635  1  0.109100  0.109100  0.307000  1.0  0.1384
  H  H636  1  0.132900  0.132900  0.262900  1.0  0.1323
  H  H637  1  0.070200  0.570200  0.800600  1.0  0.1405
  H  H638  1  0.078300  0.578300  0.704400  1.0  0.1357
  H  H639  1  0.109100  0.609100  0.807000  1.0  0.1384
  H  H640  1  0.132900  0.632900  0.762900  1.0  0.1323
  H  H641  1  0.570200  0.070200  0.800600  1.0  0.1405
  H  H642  1  0.578300  0.078300  0.704400  1.0  0.1357
  H  H643  1  0.609100  0.109100  0.807000  1.0  0.1384
  H  H644  1  0.632900  0.132900  0.762900  1.0  0.1323
  H  H645  1  0.570200  0.570200  0.300600  1.0  0.1405
  H  H646  1  0.578300  0.578300  0.204400  1.0  0.1357
  H  H647  1  0.609100  0.609100  0.307000  1.0  0.1384
  H  H648  1  0.632900  0.632900  0.262900  1.0  0.1323
  H  H649  1  0.929800  0.070200  0.699400  1.0  0.1411
  H  H650  1  0.921700  0.078300  0.795600  1.0  0.1352
  H  H651  1  0.890900  0.109100  0.693000  1.0  0.1381
  H  H652  1  0.867100  0.132900  0.737100  1.0  0.1318
  H  H653  1  0.929800  0.570200  0.199400  1.0  0.1411
  H  H654  1  0.921700  0.578300  0.295600  1.0  0.1352
  H  H655  1  0.890900  0.609100  0.193000  1.0  0.1381
  H  H656  1  0.867100  0.632900  0.237100  1.0  0.1318
  H  H657  1  0.429800  0.070200  0.199400  1.0  0.1411
  H  H658  1  0.421700  0.078300  0.295600  1.0  0.1352
  H  H659  1  0.390900  0.109100  0.193000  1.0  0.1381
  H  H660  1  0.367100  0.132900  0.237100  1.0  0.1318
  H  H661  1  0.429800  0.570200  0.699400  1.0  0.1411
  H  H662  1  0.421700  0.578300  0.795600  1.0  0.1352
  H  H663  1  0.390900  0.609100  0.693000  1.0  0.1381
  H  H664  1  0.367100  0.632900  0.737100  1.0  0.1318
  H  H665  1  0.070200  0.929800  0.699400  1.0  0.1413
  H  H666  1  0.078300  0.921700  0.795600  1.0  0.1357
  H  H667  1  0.109100  0.890900  0.693000  1.0  0.1385
  H  H668  1  0.132900  0.867100  0.737100  1.0  0.1321
  H  H669  1  0.070200  0.429800  0.199400  1.0  0.1413
  H  H670  1  0.078300  0.421700  0.295600  1.0  0.1357
  H  H671  1  0.109100  0.390900  0.193000  1.0  0.1385
  H  H672  1  0.132900  0.367100  0.237100  1.0  0.1321
  H  H673  1  0.570200  0.929800  0.199400  1.0  0.1413
  H  H674  1  0.578300  0.921700  0.295600  1.0  0.1357
  H  H675  1  0.609100  0.890900  0.193000  1.0  0.1385
  H  H676  1  0.632900  0.867100  0.237100  1.0  0.1321
  H  H677  1  0.570200  0.429800  0.699400  1.0  0.1413
  H  H678  1  0.578300  0.421700  0.795600  1.0  0.1357
  H  H679  1  0.609100  0.390900  0.693000  1.0  0.1385
  H  H680  1  0.632900  0.367100  0.737100  1.0  0.1321
  H  H681  1  0.929800  0.929800  0.300600  1.0  0.1403
  H  H682  1  0.921700  0.921700  0.204400  1.0  0.1351
  H  H683  1  0.890900  0.890900  0.307000  1.0  0.1385
  H  H684  1  0.867100  0.867100  0.262900  1.0  0.1322
  H  H685  1  0.929800  0.429800  0.800600  1.0  0.1403
  H  H686  1  0.921700  0.421700  0.704400  1.0  0.1351
  H  H687  1  0.890900  0.390900  0.807000  1.0  0.1385
  H  H688  1  0.867100  0.367100  0.762900  1.0  0.1322
  H  H689  1  0.429800  0.929800  0.800600  1.0  0.1403
  H  H690  1  0.421700  0.921700  0.704400  1.0  0.1351
  H  H691  1  0.390900  0.890900  0.807000  1.0  0.1385
  H  H692  1  0.367100  0.867100  0.762900  1.0  0.1322
  H  H693  1  0.429800  0.429800  0.300600  1.0  0.1403
  H  H694  1  0.421700  0.421700  0.204400  1.0  0.1351
  H  H695  1  0.390900  0.390900  0.307000  1.0  0.1385
  H  H696  1  0.367100  0.367100  0.262900  1.0  0.1322
  H  H697  1  0.070200  0.300600  0.929800  1.0  0.1396
  H  H698  1  0.078300  0.204400  0.921700  1.0  0.1352
  H  H699  1  0.109100  0.307000  0.890900  1.0  0.1398
  H  H700  1  0.132900  0.262900  0.867100  1.0  0.1316
  H  H701  1  0.070200  0.800600  0.429800  1.0  0.1396
  H  H702  1  0.078300  0.704400  0.421700  1.0  0.1352
  H  H703  1  0.109100  0.807000  0.390900  1.0  0.1398
  H  H704  1  0.132900  0.762900  0.367100  1.0  0.1316
  H  H705  1  0.570200  0.300600  0.429800  1.0  0.1396
  H  H706  1  0.578300  0.204400  0.421700  1.0  0.1352
  H  H707  1  0.609100  0.307000  0.390900  1.0  0.1398
  H  H708  1  0.632900  0.262900  0.367100  1.0  0.1316
  H  H709  1  0.570200  0.800600  0.929800  1.0  0.1396
  H  H710  1  0.578300  0.704400  0.921700  1.0  0.1352
  H  H711  1  0.609100  0.807000  0.890900  1.0  0.1398
  H  H712  1  0.632900  0.762900  0.867100  1.0  0.1316
  H  H713  1  0.929800  0.699400  0.929800  1.0  0.1394
  H  H714  1  0.921700  0.795600  0.921700  1.0  0.1345
  H  H715  1  0.890900  0.693000  0.890900  1.0  0.1409
  H  H716  1  0.867100  0.737100  0.867100  1.0  0.1311
  H  H717  1  0.929800  0.199400  0.429800  1.0  0.1394
  H  H718  1  0.921700  0.295600  0.421700  1.0  0.1345
  H  H719  1  0.890900  0.193000  0.390900  1.0  0.1409
  H  H720  1  0.867100  0.237100  0.367100  1.0  0.1311
  H  H721  1  0.429800  0.699400  0.429800  1.0  0.1394
  H  H722  1  0.421700  0.795600  0.421700  1.0  0.1345
  H  H723  1  0.390900  0.693000  0.390900  1.0  0.1409
  H  H724  1  0.367100  0.737100  0.367100  1.0  0.1311
  H  H725  1  0.429800  0.199400  0.929800  1.0  0.1394
  H  H726  1  0.421700  0.295600  0.921700  1.0  0.1345
  H  H727  1  0.390900  0.193000  0.890900  1.0  0.1409
  H  H728  1  0.367100  0.237100  0.867100  1.0  0.1311
  H  H729  1  0.070200  0.699400  0.070200  1.0  0.1396
  H  H730  1  0.078300  0.795600  0.078300  1.0  0.1351
  H  H731  1  0.109100  0.693000  0.109100  1.0  0.1408
  H  H732  1  0.132900  0.737100  0.132900  1.0  0.1317
  H  H733  1  0.070200  0.199400  0.570200  1.0  0.1396
  H  H734  1  0.078300  0.295600  0.578300  1.0  0.1351
  H  H735  1  0.109100  0.193000  0.609100  1.0  0.1408
  H  H736  1  0.132900  0.237100  0.632900  1.0  0.1317
  H  H737  1  0.570200  0.699400  0.570200  1.0  0.1396
  H  H738  1  0.578300  0.795600  0.578300  1.0  0.1351
  H  H739  1  0.609100  0.693000  0.609100  1.0  0.1408
  H  H740  1  0.632900  0.737100  0.632900  1.0  0.1317
  H  H741  1  0.570200  0.199400  0.070200  1.0  0.1396
  H  H742  1  0.578300  0.295600  0.078300  1.0  0.1351
  H  H743  1  0.609100  0.193000  0.109100  1.0  0.1408
  H  H744  1  0.632900  0.237100  0.132900  1.0  0.1317
  H  H745  1  0.929800  0.300600  0.070200  1.0  0.14
  H  H746  1  0.921700  0.204400  0.078300  1.0  0.1345
  H  H747  1  0.890900  0.307000  0.109100  1.0  0.1399
  H  H748  1  0.867100  0.262900  0.132900  1.0  0.1311
  H  H749  1  0.929800  0.800600  0.570200  1.0  0.14
  H  H750  1  0.921700  0.704400  0.578300  1.0  0.1345
  H  H751  1  0.890900  0.807000  0.609100  1.0  0.1399
  H  H752  1  0.867100  0.762900  0.632900  1.0  0.1311
  H  H753  1  0.429800  0.300600  0.570200  1.0  0.14
  H  H754  1  0.421700  0.204400  0.578300  1.0  0.1345
  H  H755  1  0.390900  0.307000  0.609100  1.0  0.1399
  H  H756  1  0.367100  0.262900  0.632900  1.0  0.1311
  H  H757  1  0.429800  0.800600  0.070200  1.0  0.14
  H  H758  1  0.421700  0.704400  0.078300  1.0  0.1345
  H  H759  1  0.390900  0.807000  0.109100  1.0  0.1399
  H  H760  1  0.367100  0.762900  0.132900  1.0  0.1311
  H  H761  1  0.300600  0.070200  0.929800  1.0  0.1419
  H  H762  1  0.204400  0.078300  0.921700  1.0  0.1342
  H  H763  1  0.307000  0.109100  0.890900  1.0  0.1406
  H  H764  1  0.262900  0.132900  0.867100  1.0  0.1302
  H  H765  1  0.300600  0.570200  0.429800  1.0  0.1419
  H  H766  1  0.204400  0.578300  0.421700  1.0  0.1342
  H  H767  1  0.307000  0.609100  0.390900  1.0  0.1406
  H  H768  1  0.262900  0.632900  0.367100  1.0  0.1302
  H  H769  1  0.800600  0.070200  0.429800  1.0  0.1419
  H  H770  1  0.704400  0.078300  0.421700  1.0  0.1342
  H  H771  1  0.807000  0.109100  0.390900  1.0  0.1406
  H  H772  1  0.762900  0.132900  0.367100  1.0  0.1302
  H  H773  1  0.800600  0.570200  0.929800  1.0  0.1419
  H  H774  1  0.704400  0.578300  0.921700  1.0  0.1342
  H  H775  1  0.807000  0.609100  0.890900  1.0  0.1406
  H  H776  1  0.762900  0.632900  0.867100  1.0  0.1302
  H  H777  1  0.699400  0.070200  0.070200  1.0  0.1419
  H  H778  1  0.795600  0.078300  0.078300  1.0  0.1331
  H  H779  1  0.693000  0.109100  0.109100  1.0  0.1395
  H  H780  1  0.737100  0.132900  0.132900  1.0  0.1306
  H  H781  1  0.699400  0.570200  0.570200  1.0  0.1419
  H  H782  1  0.795600  0.578300  0.578300  1.0  0.1331
  H  H783  1  0.693000  0.609100  0.609100  1.0  0.1395
  H  H784  1  0.737100  0.632900  0.632900  1.0  0.1306
  H  H785  1  0.199400  0.070200  0.570200  1.0  0.1419
  H  H786  1  0.295600  0.078300  0.578300  1.0  0.1331
  H  H787  1  0.193000  0.109100  0.609100  1.0  0.1395
  H  H788  1  0.237100  0.132900  0.632900  1.0  0.1306
  H  H789  1  0.199400  0.570200  0.070200  1.0  0.1419
  H  H790  1  0.295600  0.578300  0.078300  1.0  0.1331
  H  H791  1  0.193000  0.609100  0.109100  1.0  0.1395
  H  H792  1  0.237100  0.632900  0.132900  1.0  0.1306
  H  H793  1  0.699400  0.929800  0.929800  1.0  0.1415
  H  H794  1  0.795600  0.921700  0.921700  1.0  0.1334
  H  H795  1  0.693000  0.890900  0.890900  1.0  0.1398
  H  H796  1  0.737100  0.867100  0.867100  1.0  0.1304
  H  H797  1  0.699400  0.429800  0.429800  1.0  0.1415
  H  H798  1  0.795600  0.421700  0.421700  1.0  0.1334
  H  H799  1  0.693000  0.390900  0.390900  1.0  0.1398
  H  H800  1  0.737100  0.367100  0.367100  1.0  0.1304
  H  H801  1  0.199400  0.929800  0.429800  1.0  0.1415
  H  H802  1  0.295600  0.921700  0.421700  1.0  0.1334
  H  H803  1  0.193000  0.890900  0.390900  1.0  0.1398
  H  H804  1  0.237100  0.867100  0.367100  1.0  0.1304
  H  H805  1  0.199400  0.429800  0.929800  1.0  0.1415
  H  H806  1  0.295600  0.421700  0.921700  1.0  0.1334
  H  H807  1  0.193000  0.390900  0.890900  1.0  0.1398
  H  H808  1  0.237100  0.367100  0.867100  1.0  0.1304
  H  H809  1  0.300600  0.929800  0.070200  1.0  0.1429
  H  H810  1  0.204400  0.921700  0.078300  1.0  0.1338
  H  H811  1  0.307000  0.890900  0.109100  1.0  0.1409
  H  H812  1  0.262900  0.867100  0.132900  1.0  0.1294
  H  H813  1  0.300600  0.429800  0.570200  1.0  0.1429
  H  H814  1  0.204400  0.421700  0.578300  1.0  0.1338
  H  H815  1  0.307000  0.390900  0.609100  1.0  0.1409
  H  H816  1  0.262900  0.367100  0.632900  1.0  0.1294
  H  H817  1  0.800600  0.929800  0.570200  1.0  0.1429
  H  H818  1  0.704400  0.921700  0.578300  1.0  0.1338
  H  H819  1  0.807000  0.890900  0.609100  1.0  0.1409
  H  H820  1  0.762900  0.867100  0.632900  1.0  0.1294
  H  H821  1  0.800600  0.429800  0.070200  1.0  0.1429
  H  H822  1  0.704400  0.421700  0.078300  1.0  0.1338
  H  H823  1  0.807000  0.390900  0.109100  1.0  0.1409
  H  H824  1  0.762900  0.367100  0.132900  1.0  0.1294
  H  H825  1  0.070200  0.070200  0.699400  1.0  0.1412
  H  H826  1  0.078300  0.078300  0.795600  1.0  0.1358
  H  H827  1  0.109100  0.109100  0.693000  1.0  0.1382
  H  H828  1  0.132900  0.132900  0.737100  1.0  0.132
  H  H829  1  0.070200  0.570200  0.199400  1.0  0.1412
  H  H830  1  0.078300  0.578300  0.295600  1.0  0.1358
  H  H831  1  0.109100  0.609100  0.193000  1.0  0.1382
  H  H832  1  0.132900  0.632900  0.237100  1.0  0.132
  H  H833  1  0.570200  0.070200  0.199400  1.0  0.1412
  H  H834  1  0.578300  0.078300  0.295600  1.0  0.1358
  H  H835  1  0.609100  0.109100  0.193000  1.0  0.1382
  H  H836  1  0.632900  0.132900  0.237100  1.0  0.132
  H  H837  1  0.570200  0.570200  0.699400  1.0  0.1412
  H  H838  1  0.578300  0.578300  0.795600  1.0  0.1358
  H  H839  1  0.609100  0.609100  0.693000  1.0  0.1382
  H  H840  1  0.632900  0.632900  0.737100  1.0  0.132
  H  H841  1  0.070200  0.929800  0.300600  1.0  0.1406
  H  H842  1  0.078300  0.921700  0.204400  1.0  0.1358
  H  H843  1  0.109100  0.890900  0.307000  1.0  0.1387
  H  H844  1  0.132900  0.867100  0.262900  1.0  0.1326
  H  H845  1  0.070200  0.429800  0.800600  1.0  0.1406
  H  H846  1  0.078300  0.421700  0.704400  1.0  0.1358
  H  H847  1  0.109100  0.390900  0.807000  1.0  0.1387
  H  H848  1  0.132900  0.367100  0.762900  1.0  0.1326
  H  H849  1  0.570200  0.929800  0.800600  1.0  0.1406
  H  H850  1  0.578300  0.921700  0.704400  1.0  0.1358
  H  H851  1  0.609100  0.890900  0.807000  1.0  0.1387
  H  H852  1  0.632900  0.867100  0.762900  1.0  0.1326
  H  H853  1  0.570200  0.429800  0.300600  1.0  0.1406
  H  H854  1  0.578300  0.421700  0.204400  1.0  0.1358
  H  H855  1  0.609100  0.390900  0.307000  1.0  0.1387
  H  H856  1  0.632900  0.367100  0.262900  1.0  0.1326
  H  H857  1  0.929800  0.070200  0.300600  1.0  0.1402
  H  H858  1  0.921700  0.078300  0.204400  1.0  0.1352
  H  H859  1  0.890900  0.109100  0.307000  1.0  0.1383
  H  H860  1  0.867100  0.132900  0.262900  1.0  0.1321
  H  H861  1  0.929800  0.570200  0.800600  1.0  0.1402
  H  H862  1  0.921700  0.578300  0.704400  1.0  0.1352
  H  H863  1  0.890900  0.609100  0.807000  1.0  0.1383
  H  H864  1  0.867100  0.632900  0.762900  1.0  0.1321
  H  H865  1  0.429800  0.070200  0.800600  1.0  0.1402
  H  H866  1  0.421700  0.078300  0.704400  1.0  0.1352
  H  H867  1  0.390900  0.109100  0.807000  1.0  0.1383
  H  H868  1  0.367100  0.132900  0.762900  1.0  0.1321
  H  H869  1  0.429800  0.570200  0.300600  1.0  0.1402
  H  H870  1  0.421700  0.578300  0.204400  1.0  0.1352
  H  H871  1  0.390900  0.609100  0.307000  1.0  0.1383
  H  H872  1  0.367100  0.632900  0.262900  1.0  0.1321
  H  H873  1  0.929800  0.929800  0.699400  1.0  0.1413
  H  H874  1  0.921700  0.921700  0.795600  1.0  0.135
  H  H875  1  0.890900  0.890900  0.693000  1.0  0.1382
  H  H876  1  0.867100  0.867100  0.737100  1.0  0.1317
  H  H877  1  0.929800  0.429800  0.199400  1.0  0.1413
  H  H878  1  0.921700  0.421700  0.295600  1.0  0.135
  H  H879  1  0.890900  0.390900  0.193000  1.0  0.1382
  H  H880  1  0.867100  0.367100  0.237100  1.0  0.1317
  H  H881  1  0.429800  0.929800  0.199400  1.0  0.1413
  H  H882  1  0.421700  0.921700  0.295600  1.0  0.135
  H  H883  1  0.390900  0.890900  0.193000  1.0  0.1382
  H  H884  1  0.367100  0.867100  0.237100  1.0  0.1317
  H  H885  1  0.429800  0.429800  0.699400  1.0  0.1413
  H  H886  1  0.421700  0.421700  0.795600  1.0  0.135
  H  H887  1  0.390900  0.390900  0.693000  1.0  0.1382
  H  H888  1  0.367100  0.367100  0.737100  1.0  0.1317
  C  C889  1  0.169680  0.128190  0.016770  1.0  -0.0145
  C  C890  1  0.218200  0.123300  0.257700  1.0  -0.03
  C  C891  1  0.169680  0.628190  0.516770  1.0  -0.0145
  C  C892  1  0.218200  0.623300  0.757700  1.0  -0.0309
  C  C893  1  0.669680  0.128190  0.516770  1.0  -0.0145
  C  C894  1  0.718200  0.123300  0.757700  1.0  -0.0309
  C  C895  1  0.669680  0.628190  0.016770  1.0  -0.0145
  C  C896  1  0.718200  0.623300  0.257700  1.0  -0.0309
  C  C897  1  0.830320  0.871810  0.016770  1.0  -0.0146
  C  C898  1  0.781800  0.876700  0.257700  1.0  -0.03
  C  C899  1  0.830320  0.371810  0.516770  1.0  -0.0146
  C  C900  1  0.781800  0.376700  0.757700  1.0  -0.0307
  C  C901  1  0.330320  0.871810  0.516770  1.0  -0.0146
  C  C902  1  0.281800  0.876700  0.757700  1.0  -0.03
  C  C903  1  0.330320  0.371810  0.016770  1.0  -0.0146
  C  C904  1  0.281800  0.376700  0.257700  1.0  -0.03
  C  C905  1  0.830320  0.128190  0.983230  1.0  -0.0141
  C  C906  1  0.781800  0.123300  0.742300  1.0  -0.0302
  C  C907  1  0.830320  0.628190  0.483230  1.0  -0.0141
  C  C908  1  0.781800  0.623300  0.242300  1.0  -0.0302
  C  C909  1  0.330320  0.128190  0.483230  1.0  -0.0141
  C  C910  1  0.281800  0.123300  0.242300  1.0  -0.0302
  C  C911  1  0.330320  0.628190  0.983230  1.0  -0.0141
  C  C912  1  0.281800  0.623300  0.742300  1.0  -0.0302
  C  C913  1  0.169680  0.871810  0.983230  1.0  -0.0152
  C  C914  1  0.218200  0.876700  0.742300  1.0  -0.0342
  C  C915  1  0.169680  0.371810  0.483230  1.0  -0.0152
  C  C916  1  0.218200  0.376700  0.242300  1.0  -0.0342
  C  C917  1  0.669680  0.871810  0.483230  1.0  -0.0152
  C  C918  1  0.718200  0.876700  0.242300  1.0  -0.0342
  C  C919  1  0.669680  0.371810  0.983230  1.0  -0.0152
  C  C920  1  0.718200  0.376700  0.742300  1.0  -0.0342
  C  C921  1  0.016770  0.169680  0.128190  1.0  -0.0169
  C  C922  1  0.257700  0.218200  0.123300  1.0  -0.0302
  C  C923  1  0.016770  0.669680  0.628190  1.0  -0.0169
  C  C924  1  0.257700  0.718200  0.623300  1.0  -0.0302
  C  C925  1  0.516770  0.169680  0.628190  1.0  -0.0169
  C  C926  1  0.757700  0.218200  0.623300  1.0  -0.0292
  C  C927  1  0.516770  0.669680  0.128190  1.0  -0.0169
  C  C928  1  0.757700  0.718200  0.123300  1.0  -0.0292
  C  C929  1  0.016770  0.830320  0.871810  1.0  -0.0166
  C  C930  1  0.257700  0.781800  0.876700  1.0  -0.0324
  C  C931  1  0.016770  0.330320  0.371810  1.0  -0.0166
  C  C932  1  0.257700  0.281800  0.376700  1.0  -0.0324
  C  C933  1  0.516770  0.830320  0.371810  1.0  -0.0166
  C  C934  1  0.757700  0.781800  0.376700  1.0  -0.0333
  C  C935  1  0.516770  0.330320  0.871810  1.0  -0.0166
  C  C936  1  0.757700  0.281800  0.876700  1.0  -0.0324
  C  C937  1  0.983230  0.830320  0.128190  1.0  -0.0168
  C  C938  1  0.742300  0.781800  0.123300  1.0  -0.036
  C  C939  1  0.983230  0.330320  0.628190  1.0  -0.0168
  C  C940  1  0.742300  0.281800  0.623300  1.0  -0.036
  C  C941  1  0.483230  0.830320  0.628190  1.0  -0.0168
  C  C942  1  0.242300  0.781800  0.623300  1.0  -0.0324
  C  C943  1  0.483230  0.330320  0.128190  1.0  -0.0168
  C  C944  1  0.242300  0.281800  0.123300  1.0  -0.0324
  C  C945  1  0.983230  0.169680  0.871810  1.0  -0.0161
  C  C946  1  0.742300  0.218200  0.876700  1.0  -0.0302
  C  C947  1  0.983230  0.669680  0.371810  1.0  -0.0161
  C  C948  1  0.742300  0.718200  0.376700  1.0  -0.0302
  C  C949  1  0.483230  0.169680  0.371810  1.0  -0.0161
  C  C950  1  0.242300  0.218200  0.376700  1.0  -0.0329
  C  C951  1  0.483230  0.669680  0.871810  1.0  -0.0161
  C  C952  1  0.242300  0.718200  0.876700  1.0  -0.0329
  C  C953  1  0.128190  0.016770  0.169680  1.0  -0.0171
  C  C954  1  0.123300  0.257700  0.218200  1.0  -0.0313
  C  C955  1  0.128190  0.516770  0.669680  1.0  -0.0171
  C  C956  1  0.123300  0.757700  0.718200  1.0  -0.0306
  C  C957  1  0.628190  0.016770  0.669680  1.0  -0.0171
  C  C958  1  0.623300  0.257700  0.718200  1.0  -0.0306
  C  C959  1  0.628190  0.516770  0.169680  1.0  -0.0171
  C  C960  1  0.623300  0.757700  0.218200  1.0  -0.0313
  C  C961  1  0.871810  0.016770  0.830320  1.0  -0.017
  C  C962  1  0.876700  0.257700  0.781800  1.0  -0.0325
  C  C963  1  0.871810  0.516770  0.330320  1.0  -0.017
  C  C964  1  0.876700  0.757700  0.281800  1.0  -0.0325
  C  C965  1  0.371810  0.016770  0.330320  1.0  -0.017
  C  C966  1  0.376700  0.257700  0.281800  1.0  -0.0333
  C  C967  1  0.371810  0.516770  0.830320  1.0  -0.017
  C  C968  1  0.376700  0.757700  0.781800  1.0  -0.0325
  C  C969  1  0.128190  0.983230  0.830320  1.0  -0.017
  C  C970  1  0.123300  0.742300  0.781800  1.0  -0.0333
  C  C971  1  0.128190  0.483230  0.330320  1.0  -0.017
  C  C972  1  0.123300  0.242300  0.281800  1.0  -0.0359
  C  C973  1  0.628190  0.983230  0.330320  1.0  -0.017
  C  C974  1  0.623300  0.742300  0.281800  1.0  -0.0333
  C  C975  1  0.628190  0.483230  0.830320  1.0  -0.017
  C  C976  1  0.623300  0.242300  0.781800  1.0  -0.0333
  C  C977  1  0.871810  0.983230  0.169680  1.0  -0.0165
  C  C978  1  0.876700  0.742300  0.218200  1.0  -0.0341
  C  C979  1  0.871810  0.483230  0.669680  1.0  -0.0165
  C  C980  1  0.876700  0.242300  0.718200  1.0  -0.0307
  C  C981  1  0.371810  0.983230  0.669680  1.0  -0.0165
  C  C982  1  0.376700  0.742300  0.718200  1.0  -0.0307
  C  C983  1  0.371810  0.483230  0.169680  1.0  -0.0165
  C  C984  1  0.376700  0.242300  0.218200  1.0  -0.0307
  C  C985  1  0.128190  0.169680  0.983230  1.0  -0.0151
  C  C986  1  0.123300  0.218200  0.742300  1.0  -0.0291
  C  C987  1  0.128190  0.669680  0.483230  1.0  -0.0151
  C  C988  1  0.123300  0.718200  0.242300  1.0  -0.0299
  C  C989  1  0.628190  0.169680  0.483230  1.0  -0.0151
  C  C990  1  0.623300  0.218200  0.242300  1.0  -0.0299
  C  C991  1  0.628190  0.669680  0.983230  1.0  -0.0151
  C  C992  1  0.623300  0.718200  0.742300  1.0  -0.0299
  C  C993  1  0.871810  0.830320  0.983230  1.0  -0.0155
  C  C994  1  0.876700  0.781800  0.742300  1.0  -0.032
  C  C995  1  0.871810  0.330320  0.483230  1.0  -0.0155
  C  C996  1  0.876700  0.281800  0.242300  1.0  -0.0311
  C  C997  1  0.371810  0.830320  0.483230  1.0  -0.0155
  C  C998  1  0.376700  0.781800  0.242300  1.0  -0.0311
  C  C999  1  0.371810  0.330320  0.983230  1.0  -0.0155
  C  C1000  1  0.376700  0.281800  0.742300  1.0  -0.032
  C  C1001  1  0.128190  0.830320  0.016770  1.0  -0.015
  C  C1002  1  0.123300  0.781800  0.257700  1.0  -0.0319
  C  C1003  1  0.128190  0.330320  0.516770  1.0  -0.015
  C  C1004  1  0.123300  0.281800  0.757700  1.0  -0.0354
  C  C1005  1  0.628190  0.830320  0.516770  1.0  -0.015
  C  C1006  1  0.623300  0.781800  0.757700  1.0  -0.0319
  C  C1007  1  0.628190  0.330320  0.016770  1.0  -0.015
  C  C1008  1  0.623300  0.281800  0.257700  1.0  -0.0319
  C  C1009  1  0.871810  0.169680  0.016770  1.0  -0.0148
  C  C1010  1  0.876700  0.218200  0.257700  1.0  -0.0322
  C  C1011  1  0.871810  0.669680  0.516770  1.0  -0.0148
  C  C1012  1  0.876700  0.718200  0.757700  1.0  -0.0294
  C  C1013  1  0.371810  0.169680  0.516770  1.0  -0.0148
  C  C1014  1  0.376700  0.218200  0.757700  1.0  -0.0294
  C  C1015  1  0.371810  0.669680  0.016770  1.0  -0.0148
  C  C1016  1  0.376700  0.718200  0.257700  1.0  -0.0322
  C  C1017  1  0.169680  0.016770  0.871810  1.0  -0.017
  C  C1018  1  0.218200  0.257700  0.876700  1.0  -0.0317
  C  C1019  1  0.169680  0.516770  0.371810  1.0  -0.017
  C  C1020  1  0.218200  0.757700  0.376700  1.0  -0.0309
  C  C1021  1  0.669680  0.016770  0.371810  1.0  -0.017
  C  C1022  1  0.718200  0.257700  0.376700  1.0  -0.0317
  C  C1023  1  0.669680  0.516770  0.871810  1.0  -0.017
  C  C1024  1  0.718200  0.757700  0.876700  1.0  -0.0317
  C  C1025  1  0.830320  0.016770  0.128190  1.0  -0.0168
  C  C1026  1  0.781800  0.257700  0.123300  1.0  -0.0306
  C  C1027  1  0.830320  0.516770  0.628190  1.0  -0.0168
  C  C1028  1  0.781800  0.757700  0.623300  1.0  -0.03
  C  C1029  1  0.330320  0.016770  0.628190  1.0  -0.0168
  C  C1030  1  0.281800  0.257700  0.623300  1.0  -0.03
  C  C1031  1  0.330320  0.516770  0.128190  1.0  -0.0168
  C  C1032  1  0.281800  0.757700  0.123300  1.0  -0.0306
  C  C1033  1  0.830320  0.983230  0.871810  1.0  -0.0163
  C  C1034  1  0.781800  0.742300  0.876700  1.0  -0.0306
  C  C1035  1  0.830320  0.483230  0.371810  1.0  -0.0163
  C  C1036  1  0.781800  0.242300  0.376700  1.0  -0.0337
  C  C1037  1  0.330320  0.983230  0.371810  1.0  -0.0163
  C  C1038  1  0.281800  0.742300  0.376700  1.0  -0.0337
  C  C1039  1  0.330320  0.483230  0.871810  1.0  -0.0163
  C  C1040  1  0.281800  0.242300  0.876700  1.0  -0.0306
  C  C1041  1  0.169680  0.983230  0.128190  1.0  -0.0173
  C  C1042  1  0.218200  0.742300  0.123300  1.0  -0.031
  C  C1043  1  0.169680  0.483230  0.628190  1.0  -0.0173
  C  C1044  1  0.218200  0.242300  0.623300  1.0  -0.0337
  C  C1045  1  0.669680  0.983230  0.628190  1.0  -0.0173
  C  C1046  1  0.718200  0.742300  0.623300  1.0  -0.0337
  C  C1047  1  0.669680  0.483230  0.128190  1.0  -0.0173
  C  C1048  1  0.718200  0.242300  0.123300  1.0  -0.0337
  C  C1049  1  0.016770  0.128190  0.830320  1.0  -0.0164
  C  C1050  1  0.257700  0.123300  0.781800  1.0  -0.0331
  C  C1051  1  0.016770  0.628190  0.330320  1.0  -0.0164
  C  C1052  1  0.257700  0.623300  0.281800  1.0  -0.0331
  C  C1053  1  0.516770  0.128190  0.330320  1.0  -0.0164
  C  C1054  1  0.757700  0.123300  0.281800  1.0  -0.0339
  C  C1055  1  0.516770  0.628190  0.830320  1.0  -0.0164
  C  C1056  1  0.757700  0.623300  0.781800  1.0  -0.0339
  C  C1057  1  0.016770  0.871810  0.169680  1.0  -0.0163
  C  C1058  1  0.257700  0.876700  0.218200  1.0  -0.0317
  C  C1059  1  0.016770  0.371810  0.669680  1.0  -0.0163
  C  C1060  1  0.257700  0.376700  0.718200  1.0  -0.0317
  C  C1061  1  0.516770  0.871810  0.669680  1.0  -0.0163
  C  C1062  1  0.757700  0.876700  0.718200  1.0  -0.0317
  C  C1063  1  0.516770  0.371810  0.169680  1.0  -0.0163
  C  C1064  1  0.757700  0.376700  0.218200  1.0  -0.0317
  C  C1065  1  0.983230  0.128190  0.169680  1.0  -0.0155
  C  C1066  1  0.742300  0.123300  0.218200  1.0  -0.0312
  C  C1067  1  0.983230  0.628190  0.669680  1.0  -0.0155
  C  C1068  1  0.742300  0.623300  0.718200  1.0  -0.0312
  C  C1069  1  0.483230  0.128190  0.669680  1.0  -0.0155
  C  C1070  1  0.242300  0.123300  0.718200  1.0  -0.0341
  C  C1071  1  0.483230  0.628190  0.169680  1.0  -0.0155
  C  C1072  1  0.242300  0.623300  0.218200  1.0  -0.0341
  C  C1073  1  0.983230  0.871810  0.830320  1.0  -0.0162
  C  C1074  1  0.742300  0.876700  0.781800  1.0  -0.0339
  C  C1075  1  0.983230  0.371810  0.330320  1.0  -0.0162
  C  C1076  1  0.742300  0.376700  0.281800  1.0  -0.0339
  C  C1077  1  0.483230  0.871810  0.330320  1.0  -0.0162
  C  C1078  1  0.242300  0.876700  0.281800  1.0  -0.0339
  C  C1079  1  0.483230  0.371810  0.830320  1.0  -0.0162
  C  C1080  1  0.242300  0.376700  0.781800  1.0  -0.0339
  C  C1081  1  0.830320  0.871810  0.983230  1.0  -0.0148
  C  C1082  1  0.781800  0.876700  0.742300  1.0  -0.0302
  C  C1083  1  0.830320  0.371810  0.483230  1.0  -0.0148
  C  C1084  1  0.781800  0.376700  0.242300  1.0  -0.0302
  C  C1085  1  0.330320  0.871810  0.483230  1.0  -0.0148
  C  C1086  1  0.281800  0.876700  0.242300  1.0  -0.0264
  C  C1087  1  0.330320  0.371810  0.983230  1.0  -0.0148
  C  C1088  1  0.281800  0.376700  0.742300  1.0  -0.0302
  C  C1089  1  0.169680  0.128190  0.983230  1.0  -0.0148
  C  C1090  1  0.218200  0.123300  0.742300  1.0  -0.0312
  C  C1091  1  0.169680  0.628190  0.483230  1.0  -0.0148
  C  C1092  1  0.218200  0.623300  0.242300  1.0  -0.0302
  C  C1093  1  0.669680  0.128190  0.483230  1.0  -0.0148
  C  C1094  1  0.718200  0.123300  0.242300  1.0  -0.0302
  C  C1095  1  0.669680  0.628190  0.983230  1.0  -0.0148
  C  C1096  1  0.718200  0.623300  0.742300  1.0  -0.0302
  C  C1097  1  0.169680  0.871810  0.016770  1.0  -0.015
  C  C1098  1  0.218200  0.876700  0.257700  1.0  -0.0301
  C  C1099  1  0.169680  0.371810  0.516770  1.0  -0.015
  C  C1100  1  0.218200  0.376700  0.757700  1.0  -0.0311
  C  C1101  1  0.669680  0.871810  0.516770  1.0  -0.015
  C  C1102  1  0.718200  0.876700  0.757700  1.0  -0.0311
  C  C1103  1  0.669680  0.371810  0.016770  1.0  -0.015
  C  C1104  1  0.718200  0.376700  0.257700  1.0  -0.0301
  C  C1105  1  0.830320  0.128190  0.016770  1.0  -0.0138
  C  C1106  1  0.781800  0.123300  0.257700  1.0  -0.0267
  C  C1107  1  0.830320  0.628190  0.516770  1.0  -0.0138
  C  C1108  1  0.781800  0.623300  0.757700  1.0  -0.0267
  C  C1109  1  0.330320  0.128190  0.516770  1.0  -0.0138
  C  C1110  1  0.281800  0.123300  0.757700  1.0  -0.0306
  C  C1111  1  0.330320  0.628190  0.016770  1.0  -0.0138
  C  C1112  1  0.281800  0.623300  0.257700  1.0  -0.0267
  C  C1113  1  0.983230  0.830320  0.871810  1.0  -0.0164
  C  C1114  1  0.742300  0.781800  0.876700  1.0  -0.0324
  C  C1115  1  0.983230  0.330320  0.371810  1.0  -0.0164
  C  C1116  1  0.742300  0.281800  0.376700  1.0  -0.0324
  C  C1117  1  0.483230  0.830320  0.371810  1.0  -0.0164
  C  C1118  1  0.242300  0.781800  0.376700  1.0  -0.0285
  C  C1119  1  0.483230  0.330320  0.871810  1.0  -0.0164
  C  C1120  1  0.242300  0.281800  0.876700  1.0  -0.0285
  C  C1121  1  0.983230  0.169680  0.128190  1.0  -0.0165
  C  C1122  1  0.742300  0.218200  0.123300  1.0  -0.0305
  C  C1123  1  0.983230  0.669680  0.628190  1.0  -0.0165
  C  C1124  1  0.742300  0.718200  0.623300  1.0  -0.0305
  C  C1125  1  0.483230  0.169680  0.628190  1.0  -0.0165
  C  C1126  1  0.242300  0.218200  0.623300  1.0  -0.0297
  C  C1127  1  0.483230  0.669680  0.128190  1.0  -0.0165
  C  C1128  1  0.242300  0.718200  0.123300  1.0  -0.0297
  C  C1129  1  0.016770  0.169680  0.871810  1.0  -0.0165
  C  C1130  1  0.257700  0.218200  0.876700  1.0  -0.0292
  C  C1131  1  0.016770  0.669680  0.371810  1.0  -0.0165
  C  C1132  1  0.257700  0.718200  0.376700  1.0  -0.0292
  C  C1133  1  0.516770  0.169680  0.371810  1.0  -0.0165
  C  C1134  1  0.757700  0.218200  0.376700  1.0  -0.03
  C  C1135  1  0.516770  0.669680  0.871810  1.0  -0.0165
  C  C1136  1  0.757700  0.718200  0.876700  1.0  -0.03
  C  C1137  1  0.016770  0.830320  0.128190  1.0  -0.0172
  C  C1138  1  0.257700  0.781800  0.123300  1.0  -0.0295
  C  C1139  1  0.016770  0.330320  0.628190  1.0  -0.0172
  C  C1140  1  0.257700  0.281800  0.623300  1.0  -0.0295
  C  C1141  1  0.516770  0.830320  0.628190  1.0  -0.0172
  C  C1142  1  0.757700  0.781800  0.623300  1.0  -0.0334
  C  C1143  1  0.516770  0.330320  0.128190  1.0  -0.0172
  C  C1144  1  0.757700  0.281800  0.123300  1.0  -0.0295
  C  C1145  1  0.871810  0.983230  0.830320  1.0  -0.017
  C  C1146  1  0.876700  0.742300  0.781800  1.0  -0.0324
  C  C1147  1  0.871810  0.483230  0.330320  1.0  -0.017
  C  C1148  1  0.876700  0.242300  0.281800  1.0  -0.0324
  C  C1149  1  0.371810  0.983230  0.330320  1.0  -0.017
  C  C1150  1  0.376700  0.742300  0.281800  1.0  -0.033
  C  C1151  1  0.371810  0.483230  0.830320  1.0  -0.017
  C  C1152  1  0.376700  0.242300  0.781800  1.0  -0.0324
  C  C1153  1  0.128190  0.983230  0.169680  1.0  -0.0167
  C  C1154  1  0.123300  0.742300  0.218200  1.0  -0.0307
  C  C1155  1  0.128190  0.483230  0.669680  1.0  -0.0167
  C  C1156  1  0.123300  0.242300  0.718200  1.0  -0.027
  C  C1157  1  0.628190  0.983230  0.669680  1.0  -0.0167
  C  C1158  1  0.623300  0.742300  0.718200  1.0  -0.027
  C  C1159  1  0.628190  0.483230  0.169680  1.0  -0.0167
  C  C1160  1  0.623300  0.242300  0.218200  1.0  -0.027
  C  C1161  1  0.871810  0.016770  0.169680  1.0  -0.0169
  C  C1162  1  0.876700  0.257700  0.218200  1.0  -0.0273
  C  C1163  1  0.871810  0.516770  0.669680  1.0  -0.0169
  C  C1164  1  0.876700  0.757700  0.718200  1.0  -0.0273
  C  C1165  1  0.371810  0.016770  0.669680  1.0  -0.0169
  C  C1166  1  0.376700  0.257700  0.718200  1.0  -0.0273
  C  C1167  1  0.371810  0.516770  0.169680  1.0  -0.0169
  C  C1168  1  0.376700  0.757700  0.218200  1.0  -0.031
  C  C1169  1  0.128190  0.016770  0.830320  1.0  -0.017
  C  C1170  1  0.123300  0.257700  0.781800  1.0  -0.0331
  C  C1171  1  0.128190  0.516770  0.330320  1.0  -0.017
  C  C1172  1  0.123300  0.757700  0.281800  1.0  -0.0337
  C  C1173  1  0.628190  0.016770  0.330320  1.0  -0.017
  C  C1174  1  0.623300  0.257700  0.281800  1.0  -0.0331
  C  C1175  1  0.628190  0.516770  0.830320  1.0  -0.017
  C  C1176  1  0.623300  0.757700  0.781800  1.0  -0.0337
  C  C1177  1  0.871810  0.830320  0.016770  1.0  -0.0152
  C  C1178  1  0.876700  0.781800  0.257700  1.0  -0.0277
  C  C1179  1  0.871810  0.330320  0.516770  1.0  -0.0152
  C  C1180  1  0.876700  0.281800  0.757700  1.0  -0.0277
  C  C1181  1  0.371810  0.830320  0.516770  1.0  -0.0152
  C  C1182  1  0.376700  0.781800  0.757700  1.0  -0.0277
  C  C1183  1  0.371810  0.330320  0.016770  1.0  -0.0152
  C  C1184  1  0.376700  0.281800  0.257700  1.0  -0.0277
  C  C1185  1  0.128190  0.169680  0.016770  1.0  -0.015
  C  C1186  1  0.123300  0.218200  0.257700  1.0  -0.0297
  C  C1187  1  0.128190  0.669680  0.516770  1.0  -0.015
  C  C1188  1  0.123300  0.718200  0.757700  1.0  -0.029
  C  C1189  1  0.628190  0.169680  0.516770  1.0  -0.015
  C  C1190  1  0.623300  0.218200  0.757700  1.0  -0.029
  C  C1191  1  0.628190  0.669680  0.016770  1.0  -0.015
  C  C1192  1  0.623300  0.718200  0.257700  1.0  -0.029
  C  C1193  1  0.871810  0.169680  0.983230  1.0  -0.0152
  C  C1194  1  0.876700  0.218200  0.742300  1.0  -0.0288
  C  C1195  1  0.871810  0.669680  0.483230  1.0  -0.0152
  C  C1196  1  0.876700  0.718200  0.242300  1.0  -0.0288
  C  C1197  1  0.371810  0.169680  0.483230  1.0  -0.0152
  C  C1198  1  0.376700  0.218200  0.242300  1.0  -0.0288
  C  C1199  1  0.371810  0.669680  0.983230  1.0  -0.0152
  C  C1200  1  0.376700  0.718200  0.742300  1.0  -0.0288
  C  C1201  1  0.128190  0.830320  0.983230  1.0  -0.0152
  C  C1202  1  0.123300  0.781800  0.742300  1.0  -0.0281
  C  C1203  1  0.128190  0.330320  0.483230  1.0  -0.0152
  C  C1204  1  0.123300  0.281800  0.242300  1.0  -0.0281
  C  C1205  1  0.628190  0.830320  0.483230  1.0  -0.0152
  C  C1206  1  0.623300  0.781800  0.242300  1.0  -0.0281
  C  C1207  1  0.628190  0.330320  0.983230  1.0  -0.0152
  C  C1208  1  0.623300  0.281800  0.742300  1.0  -0.0281
  C  C1209  1  0.830320  0.983230  0.128190  1.0  -0.0166
  C  C1210  1  0.781800  0.742300  0.123300  1.0  -0.0264
  C  C1211  1  0.830320  0.483230  0.628190  1.0  -0.0166
  C  C1212  1  0.781800  0.242300  0.623300  1.0  -0.0303
  C  C1213  1  0.330320  0.983230  0.628190  1.0  -0.0166
  C  C1214  1  0.281800  0.742300  0.623300  1.0  -0.0303
  C  C1215  1  0.330320  0.483230  0.128190  1.0  -0.0166
  C  C1216  1  0.281800  0.242300  0.123300  1.0  -0.0264
  C  C1217  1  0.169680  0.983230  0.871810  1.0  -0.0168
  C  C1218  1  0.218200  0.742300  0.876700  1.0  -0.0308
  C  C1219  1  0.169680  0.483230  0.371810  1.0  -0.0168
  C  C1220  1  0.218200  0.242300  0.376700  1.0  -0.0299
  C  C1221  1  0.669680  0.983230  0.371810  1.0  -0.0168
  C  C1222  1  0.718200  0.742300  0.376700  1.0  -0.0299
  C  C1223  1  0.669680  0.483230  0.871810  1.0  -0.0168
  C  C1224  1  0.718200  0.242300  0.876700  1.0  -0.0299
  C  C1225  1  0.169680  0.016770  0.128190  1.0  -0.0175
  C  C1226  1  0.218200  0.257700  0.123300  1.0  -0.0308
  C  C1227  1  0.169680  0.516770  0.628190  1.0  -0.0175
  C  C1228  1  0.218200  0.757700  0.623300  1.0  -0.0317
  C  C1229  1  0.669680  0.016770  0.628190  1.0  -0.0175
  C  C1230  1  0.718200  0.257700  0.623300  1.0  -0.0308
  C  C1231  1  0.669680  0.516770  0.128190  1.0  -0.0175
  C  C1232  1  0.718200  0.757700  0.123300  1.0  -0.0308
  C  C1233  1  0.830320  0.016770  0.871810  1.0  -0.0164
  C  C1234  1  0.781800  0.257700  0.876700  1.0  -0.031
  C  C1235  1  0.830320  0.516770  0.371810  1.0  -0.0164
  C  C1236  1  0.781800  0.757700  0.376700  1.0  -0.027
  C  C1237  1  0.330320  0.016770  0.371810  1.0  -0.0164
  C  C1238  1  0.281800  0.257700  0.376700  1.0  -0.027
  C  C1239  1  0.330320  0.516770  0.871810  1.0  -0.0164
  C  C1240  1  0.281800  0.757700  0.876700  1.0  -0.031
  C  C1241  1  0.983230  0.871810  0.169680  1.0  -0.0163
  C  C1242  1  0.742300  0.876700  0.218200  1.0  -0.031
  C  C1243  1  0.983230  0.371810  0.669680  1.0  -0.0163
  C  C1244  1  0.742300  0.376700  0.718200  1.0  -0.0303
  C  C1245  1  0.483230  0.871810  0.669680  1.0  -0.0163
  C  C1246  1  0.242300  0.876700  0.718200  1.0  -0.0303
  C  C1247  1  0.483230  0.371810  0.169680  1.0  -0.0163
  C  C1248  1  0.242300  0.376700  0.218200  1.0  -0.0303
  C  C1249  1  0.983230  0.128190  0.830320  1.0  -0.016
  C  C1250  1  0.742300  0.123300  0.781800  1.0  -0.0337
  C  C1251  1  0.983230  0.628190  0.330320  1.0  -0.016
  C  C1252  1  0.742300  0.623300  0.281800  1.0  -0.0337
  C  C1253  1  0.483230  0.128190  0.330320  1.0  -0.016
  C  C1254  1  0.242300  0.123300  0.281800  1.0  -0.0296
  C  C1255  1  0.483230  0.628190  0.830320  1.0  -0.016
  C  C1256  1  0.242300  0.623300  0.781800  1.0  -0.0337
  C  C1257  1  0.016770  0.871810  0.830320  1.0  -0.0162
  C  C1258  1  0.257700  0.876700  0.781800  1.0  -0.0341
  C  C1259  1  0.016770  0.371810  0.330320  1.0  -0.0162
  C  C1260  1  0.257700  0.376700  0.281800  1.0  -0.0301
  C  C1261  1  0.516770  0.871810  0.330320  1.0  -0.0162
  C  C1262  1  0.757700  0.876700  0.281800  1.0  -0.0341
  C  C1263  1  0.516770  0.371810  0.830320  1.0  -0.0162
  C  C1264  1  0.757700  0.376700  0.781800  1.0  -0.0341
  C  C1265  1  0.016770  0.128190  0.169680  1.0  -0.0158
  C  C1266  1  0.257700  0.123300  0.218200  1.0  -0.0317
  C  C1267  1  0.016770  0.628190  0.669680  1.0  -0.0158
  C  C1268  1  0.257700  0.623300  0.718200  1.0  -0.0309
  C  C1269  1  0.516770  0.128190  0.669680  1.0  -0.0158
  C  C1270  1  0.757700  0.123300  0.718200  1.0  -0.0309
  C  C1271  1  0.516770  0.628190  0.169680  1.0  -0.0158
  C  C1272  1  0.757700  0.623300  0.218200  1.0  -0.0317
  C  C1273  1  0.282500  0.079600  0.079600  1.0  -0.0419
  C  C1274  1  0.225100  0.084500  0.084500  1.0  0.1091
  C  C1275  1  0.252000  0.069900  0.069900  1.0  0.1512
  C  C1276  1  0.248300  0.050000  0.050000  1.0  0.3204
  C  C1277  1  0.286400  0.102900  0.102900  1.0  -0.0653
  C  C1278  1  0.259900  0.117100  0.117100  1.0  0.1486
  C  C1279  1  0.282500  0.579600  0.579600  1.0  -0.0419
  C  C1280  1  0.225100  0.584500  0.584500  1.0  0.1091
  C  C1281  1  0.252000  0.569900  0.569900  1.0  0.1512
  C  C1282  1  0.248300  0.550000  0.550000  1.0  0.3204
  C  C1283  1  0.286400  0.602900  0.602900  1.0  -0.0653
  C  C1284  1  0.259900  0.617100  0.617100  1.0  0.1486
  C  C1285  1  0.782500  0.079600  0.579600  1.0  -0.0419
  C  C1286  1  0.725100  0.084500  0.584500  1.0  0.1091
  C  C1287  1  0.752000  0.069900  0.569900  1.0  0.1512
  C  C1288  1  0.748300  0.050000  0.550000  1.0  0.3204
  C  C1289  1  0.786400  0.102900  0.602900  1.0  -0.0653
  C  C1290  1  0.759900  0.117100  0.617100  1.0  0.1486
  C  C1291  1  0.782500  0.579600  0.079600  1.0  -0.0419
  C  C1292  1  0.725100  0.584500  0.084500  1.0  0.1091
  C  C1293  1  0.752000  0.569900  0.069900  1.0  0.1512
  C  C1294  1  0.748300  0.550000  0.050000  1.0  0.3204
  C  C1295  1  0.786400  0.602900  0.102900  1.0  -0.0653
  C  C1296  1  0.759900  0.617100  0.117100  1.0  0.1486
  C  C1297  1  0.717500  0.920400  0.079600  1.0  -0.0406
  C  C1298  1  0.774900  0.915500  0.084500  1.0  0.1075
  C  C1299  1  0.748000  0.930100  0.069900  1.0  0.1499
  C  C1300  1  0.751700  0.950000  0.050000  1.0  0.3201
  C  C1301  1  0.713600  0.897100  0.102900  1.0  -0.068
  C  C1302  1  0.740100  0.882900  0.117100  1.0  0.149
  C  C1303  1  0.717500  0.420400  0.579600  1.0  -0.0406
  C  C1304  1  0.774900  0.415500  0.584500  1.0  0.1075
  C  C1305  1  0.748000  0.430100  0.569900  1.0  0.1499
  C  C1306  1  0.751700  0.450000  0.550000  1.0  0.3201
  C  C1307  1  0.713600  0.397100  0.602900  1.0  -0.068
  C  C1308  1  0.740100  0.382900  0.617100  1.0  0.149
  C  C1309  1  0.217500  0.920400  0.579600  1.0  -0.0406
  C  C1310  1  0.274900  0.915500  0.584500  1.0  0.1075
  C  C1311  1  0.248000  0.930100  0.569900  1.0  0.1499
  C  C1312  1  0.251700  0.950000  0.550000  1.0  0.3201
  C  C1313  1  0.213600  0.897100  0.602900  1.0  -0.068
  C  C1314  1  0.240100  0.882900  0.617100  1.0  0.149
  C  C1315  1  0.217500  0.420400  0.079600  1.0  -0.0406
  C  C1316  1  0.274900  0.415500  0.084500  1.0  0.1075
  C  C1317  1  0.248000  0.430100  0.069900  1.0  0.1499
  C  C1318  1  0.251700  0.450000  0.050000  1.0  0.3201
  C  C1319  1  0.213600  0.397100  0.102900  1.0  -0.068
  C  C1320  1  0.240100  0.382900  0.117100  1.0  0.149
  C  C1321  1  0.717500  0.079600  0.920400  1.0  -0.0409
  C  C1322  1  0.774900  0.084500  0.915500  1.0  0.1076
  C  C1323  1  0.748000  0.069900  0.930100  1.0  0.1511
  C  C1324  1  0.751700  0.050000  0.950000  1.0  0.3195
  C  C1325  1  0.713600  0.102900  0.897100  1.0  -0.0678
  C  C1326  1  0.740100  0.117100  0.882900  1.0  0.1496
  C  C1327  1  0.717500  0.579600  0.420400  1.0  -0.0409
  C  C1328  1  0.774900  0.584500  0.415500  1.0  0.1076
  C  C1329  1  0.748000  0.569900  0.430100  1.0  0.1511
  C  C1330  1  0.751700  0.550000  0.450000  1.0  0.3195
  C  C1331  1  0.713600  0.602900  0.397100  1.0  -0.0678
  C  C1332  1  0.740100  0.617100  0.382900  1.0  0.1496
  C  C1333  1  0.217500  0.079600  0.420400  1.0  -0.0409
  C  C1334  1  0.274900  0.084500  0.415500  1.0  0.1076
  C  C1335  1  0.248000  0.069900  0.430100  1.0  0.1511
  C  C1336  1  0.251700  0.050000  0.450000  1.0  0.3195
  C  C1337  1  0.213600  0.102900  0.397100  1.0  -0.0678
  C  C1338  1  0.240100  0.117100  0.382900  1.0  0.1496
  C  C1339  1  0.217500  0.579600  0.920400  1.0  -0.0409
  C  C1340  1  0.274900  0.584500  0.915500  1.0  0.1076
  C  C1341  1  0.248000  0.569900  0.930100  1.0  0.1511
  C  C1342  1  0.251700  0.550000  0.950000  1.0  0.3195
  C  C1343  1  0.213600  0.602900  0.897100  1.0  -0.0678
  C  C1344  1  0.240100  0.617100  0.882900  1.0  0.1496
  C  C1345  1  0.282500  0.920400  0.920400  1.0  -0.041
  C  C1346  1  0.225100  0.915500  0.915500  1.0  0.1087
  C  C1347  1  0.252000  0.930100  0.930100  1.0  0.1502
  C  C1348  1  0.248300  0.950000  0.950000  1.0  0.3193
  C  C1349  1  0.286400  0.897100  0.897100  1.0  -0.0672
  C  C1350  1  0.259900  0.882900  0.882900  1.0  0.1483
  C  C1351  1  0.282500  0.420400  0.420400  1.0  -0.041
  C  C1352  1  0.225100  0.415500  0.415500  1.0  0.1087
  C  C1353  1  0.252000  0.430100  0.430100  1.0  0.1502
  C  C1354  1  0.248300  0.450000  0.450000  1.0  0.3193
  C  C1355  1  0.286400  0.397100  0.397100  1.0  -0.0672
  C  C1356  1  0.259900  0.382900  0.382900  1.0  0.1483
  C  C1357  1  0.782500  0.920400  0.420400  1.0  -0.041
  C  C1358  1  0.725100  0.915500  0.415500  1.0  0.1087
  C  C1359  1  0.752000  0.930100  0.430100  1.0  0.1502
  C  C1360  1  0.748300  0.950000  0.450000  1.0  0.3193
  C  C1361  1  0.786400  0.897100  0.397100  1.0  -0.0672
  C  C1362  1  0.759900  0.882900  0.382900  1.0  0.1483
  C  C1363  1  0.782500  0.420400  0.920400  1.0  -0.041
  C  C1364  1  0.725100  0.415500  0.915500  1.0  0.1087
  C  C1365  1  0.752000  0.430100  0.930100  1.0  0.1502
  C  C1366  1  0.748300  0.450000  0.950000  1.0  0.3193
  C  C1367  1  0.786400  0.397100  0.897100  1.0  -0.0672
  C  C1368  1  0.759900  0.382900  0.882900  1.0  0.1483
  C  C1369  1  0.079600  0.282500  0.079600  1.0  -0.0427
  C  C1370  1  0.084500  0.225100  0.084500  1.0  0.1083
  C  C1371  1  0.069900  0.252000  0.069900  1.0  0.1486
  C  C1372  1  0.050000  0.248300  0.050000  1.0  0.3197
  C  C1373  1  0.102900  0.286400  0.102900  1.0  -0.0634
  C  C1374  1  0.117100  0.259900  0.117100  1.0  0.1455
  C  C1375  1  0.079600  0.782500  0.579600  1.0  -0.0427
  C  C1376  1  0.084500  0.725100  0.584500  1.0  0.1083
  C  C1377  1  0.069900  0.752000  0.569900  1.0  0.1486
  C  C1378  1  0.050000  0.748300  0.550000  1.0  0.3197
  C  C1379  1  0.102900  0.786400  0.602900  1.0  -0.0634
  C  C1380  1  0.117100  0.759900  0.617100  1.0  0.1455
  C  C1381  1  0.579600  0.282500  0.579600  1.0  -0.0427
  C  C1382  1  0.584500  0.225100  0.584500  1.0  0.1083
  C  C1383  1  0.569900  0.252000  0.569900  1.0  0.1486
  C  C1384  1  0.550000  0.248300  0.550000  1.0  0.3197
  C  C1385  1  0.602900  0.286400  0.602900  1.0  -0.0634
  C  C1386  1  0.617100  0.259900  0.617100  1.0  0.1455
  C  C1387  1  0.579600  0.782500  0.079600  1.0  -0.0427
  C  C1388  1  0.584500  0.725100  0.084500  1.0  0.1083
  C  C1389  1  0.569900  0.752000  0.069900  1.0  0.1486
  C  C1390  1  0.550000  0.748300  0.050000  1.0  0.3197
  C  C1391  1  0.602900  0.786400  0.102900  1.0  -0.0634
  C  C1392  1  0.617100  0.759900  0.117100  1.0  0.1455
  C  C1393  1  0.079600  0.717500  0.920400  1.0  -0.0435
  C  C1394  1  0.084500  0.774900  0.915500  1.0  0.1082
  C  C1395  1  0.069900  0.748000  0.930100  1.0  0.1488
  C  C1396  1  0.050000  0.751700  0.950000  1.0  0.3193
  C  C1397  1  0.102900  0.713600  0.897100  1.0  -0.0657
  C  C1398  1  0.117100  0.740100  0.882900  1.0  0.1458
  C  C1399  1  0.079600  0.217500  0.420400  1.0  -0.0435
  C  C1400  1  0.084500  0.274900  0.415500  1.0  0.1082
  C  C1401  1  0.069900  0.248000  0.430100  1.0  0.1488
  C  C1402  1  0.050000  0.251700  0.450000  1.0  0.3193
  C  C1403  1  0.102900  0.213600  0.397100  1.0  -0.0657
  C  C1404  1  0.117100  0.240100  0.382900  1.0  0.1458
  C  C1405  1  0.579600  0.717500  0.420400  1.0  -0.0435
  C  C1406  1  0.584500  0.774900  0.415500  1.0  0.1082
  C  C1407  1  0.569900  0.748000  0.430100  1.0  0.1488
  C  C1408  1  0.550000  0.751700  0.450000  1.0  0.3193
  C  C1409  1  0.602900  0.713600  0.397100  1.0  -0.0657
  C  C1410  1  0.617100  0.740100  0.382900  1.0  0.1458
  C  C1411  1  0.579600  0.217500  0.920400  1.0  -0.0435
  C  C1412  1  0.584500  0.274900  0.915500  1.0  0.1082
  C  C1413  1  0.569900  0.248000  0.930100  1.0  0.1488
  C  C1414  1  0.550000  0.251700  0.950000  1.0  0.3193
  C  C1415  1  0.602900  0.213600  0.897100  1.0  -0.0657
  C  C1416  1  0.617100  0.240100  0.882900  1.0  0.1458
  C  C1417  1  0.920400  0.717500  0.079600  1.0  -0.0427
  C  C1418  1  0.915500  0.774900  0.084500  1.0  0.1081
  C  C1419  1  0.930100  0.748000  0.069900  1.0  0.1492
  C  C1420  1  0.950000  0.751700  0.050000  1.0  0.3218
  C  C1421  1  0.897100  0.713600  0.102900  1.0  -0.0663
  C  C1422  1  0.882900  0.740100  0.117100  1.0  0.1467
  C  C1423  1  0.920400  0.217500  0.579600  1.0  -0.0427
  C  C1424  1  0.915500  0.274900  0.584500  1.0  0.1081
  C  C1425  1  0.930100  0.248000  0.569900  1.0  0.1492
  C  C1426  1  0.950000  0.251700  0.550000  1.0  0.3218
  C  C1427  1  0.897100  0.213600  0.602900  1.0  -0.0663
  C  C1428  1  0.882900  0.240100  0.617100  1.0  0.1467
  C  C1429  1  0.420400  0.717500  0.579600  1.0  -0.0427
  C  C1430  1  0.415500  0.774900  0.584500  1.0  0.1081
  C  C1431  1  0.430100  0.748000  0.569900  1.0  0.1492
  C  C1432  1  0.450000  0.751700  0.550000  1.0  0.3218
  C  C1433  1  0.397100  0.713600  0.602900  1.0  -0.0663
  C  C1434  1  0.382900  0.740100  0.617100  1.0  0.1467
  C  C1435  1  0.420400  0.217500  0.079600  1.0  -0.0427
  C  C1436  1  0.415500  0.274900  0.084500  1.0  0.1081
  C  C1437  1  0.430100  0.248000  0.069900  1.0  0.1492
  C  C1438  1  0.450000  0.251700  0.050000  1.0  0.3218
  C  C1439  1  0.397100  0.213600  0.102900  1.0  -0.0663
  C  C1440  1  0.382900  0.240100  0.117100  1.0  0.1467
  C  C1441  1  0.920400  0.282500  0.920400  1.0  -0.0427
  C  C1442  1  0.915500  0.225100  0.915500  1.0  0.1073
  C  C1443  1  0.930100  0.252000  0.930100  1.0  0.1492
  C  C1444  1  0.950000  0.248300  0.950000  1.0  0.3199
  C  C1445  1  0.897100  0.286400  0.897100  1.0  -0.0636
  C  C1446  1  0.882900  0.259900  0.882900  1.0  0.1469
  C  C1447  1  0.920400  0.782500  0.420400  1.0  -0.0427
  C  C1448  1  0.915500  0.725100  0.415500  1.0  0.1073
  C  C1449  1  0.930100  0.752000  0.430100  1.0  0.1492
  C  C1450  1  0.950000  0.748300  0.450000  1.0  0.3199
  C  C1451  1  0.897100  0.786400  0.397100  1.0  -0.0636
  C  C1452  1  0.882900  0.759900  0.382900  1.0  0.1469
  C  C1453  1  0.420400  0.282500  0.420400  1.0  -0.0427
  C  C1454  1  0.415500  0.225100  0.415500  1.0  0.1073
  C  C1455  1  0.430100  0.252000  0.430100  1.0  0.1492
  C  C1456  1  0.450000  0.248300  0.450000  1.0  0.3199
  C  C1457  1  0.397100  0.286400  0.397100  1.0  -0.0636
  C  C1458  1  0.382900  0.259900  0.382900  1.0  0.1469
  C  C1459  1  0.420400  0.782500  0.920400  1.0  -0.0427
  C  C1460  1  0.415500  0.725100  0.915500  1.0  0.1073
  C  C1461  1  0.430100  0.752000  0.930100  1.0  0.1492
  C  C1462  1  0.450000  0.748300  0.950000  1.0  0.3199
  C  C1463  1  0.397100  0.786400  0.897100  1.0  -0.0636
  C  C1464  1  0.382900  0.759900  0.882900  1.0  0.1469
  C  C1465  1  0.079600  0.079600  0.282500  1.0  -0.041
  C  C1466  1  0.084500  0.084500  0.225100  1.0  0.1099
  C  C1467  1  0.069900  0.069900  0.252000  1.0  0.1497
  C  C1468  1  0.050000  0.050000  0.248300  1.0  0.3192
  C  C1469  1  0.102900  0.102900  0.286400  1.0  -0.0649
  C  C1470  1  0.117100  0.117100  0.259900  1.0  0.1451
  C  C1471  1  0.079600  0.579600  0.782500  1.0  -0.041
  C  C1472  1  0.084500  0.584500  0.725100  1.0  0.1099
  C  C1473  1  0.069900  0.569900  0.752000  1.0  0.1497
  C  C1474  1  0.050000  0.550000  0.748300  1.0  0.3192
  C  C1475  1  0.102900  0.602900  0.786400  1.0  -0.0649
  C  C1476  1  0.117100  0.617100  0.759900  1.0  0.1451
  C  C1477  1  0.579600  0.079600  0.782500  1.0  -0.041
  C  C1478  1  0.584500  0.084500  0.725100  1.0  0.1099
  C  C1479  1  0.569900  0.069900  0.752000  1.0  0.1497
  C  C1480  1  0.550000  0.050000  0.748300  1.0  0.3192
  C  C1481  1  0.602900  0.102900  0.786400  1.0  -0.0649
  C  C1482  1  0.617100  0.117100  0.759900  1.0  0.1451
  C  C1483  1  0.579600  0.579600  0.282500  1.0  -0.041
  C  C1484  1  0.584500  0.584500  0.225100  1.0  0.1099
  C  C1485  1  0.569900  0.569900  0.252000  1.0  0.1497
  C  C1486  1  0.550000  0.550000  0.248300  1.0  0.3192
  C  C1487  1  0.602900  0.602900  0.286400  1.0  -0.0649
  C  C1488  1  0.617100  0.617100  0.259900  1.0  0.1451
  C  C1489  1  0.920400  0.079600  0.717500  1.0  -0.0394
  C  C1490  1  0.915500  0.084500  0.774900  1.0  0.1101
  C  C1491  1  0.930100  0.069900  0.748000  1.0  0.1512
  C  C1492  1  0.950000  0.050000  0.751700  1.0  0.3214
  C  C1493  1  0.897100  0.102900  0.713600  1.0  -0.0646
  C  C1494  1  0.882900  0.117100  0.740100  1.0  0.1469
  C  C1495  1  0.920400  0.579600  0.217500  1.0  -0.0394
  C  C1496  1  0.915500  0.584500  0.274900  1.0  0.1101
  C  C1497  1  0.930100  0.569900  0.248000  1.0  0.1512
  C  C1498  1  0.950000  0.550000  0.251700  1.0  0.3214
  C  C1499  1  0.897100  0.602900  0.213600  1.0  -0.0646
  C  C1500  1  0.882900  0.617100  0.240100  1.0  0.1469
  C  C1501  1  0.420400  0.079600  0.217500  1.0  -0.0394
  C  C1502  1  0.415500  0.084500  0.274900  1.0  0.1101
  C  C1503  1  0.430100  0.069900  0.248000  1.0  0.1512
  C  C1504  1  0.450000  0.050000  0.251700  1.0  0.3214
  C  C1505  1  0.397100  0.102900  0.213600  1.0  -0.0646
  C  C1506  1  0.382900  0.117100  0.240100  1.0  0.1469
  C  C1507  1  0.420400  0.579600  0.717500  1.0  -0.0394
  C  C1508  1  0.415500  0.584500  0.774900  1.0  0.1101
  C  C1509  1  0.430100  0.569900  0.748000  1.0  0.1512
  C  C1510  1  0.450000  0.550000  0.751700  1.0  0.3214
  C  C1511  1  0.397100  0.602900  0.713600  1.0  -0.0646
  C  C1512  1  0.382900  0.617100  0.740100  1.0  0.1469
  C  C1513  1  0.079600  0.920400  0.717500  1.0  -0.0402
  C  C1514  1  0.084500  0.915500  0.774900  1.0  0.1098
  C  C1515  1  0.069900  0.930100  0.748000  1.0  0.1494
  C  C1516  1  0.050000  0.950000  0.751700  1.0  0.3198
  C  C1517  1  0.102900  0.897100  0.713600  1.0  -0.0654
  C  C1518  1  0.117100  0.882900  0.740100  1.0  0.1452
  C  C1519  1  0.079600  0.420400  0.217500  1.0  -0.0402
  C  C1520  1  0.084500  0.415500  0.274900  1.0  0.1098
  C  C1521  1  0.069900  0.430100  0.248000  1.0  0.1494
  C  C1522  1  0.050000  0.450000  0.251700  1.0  0.3198
  C  C1523  1  0.102900  0.397100  0.213600  1.0  -0.0654
  C  C1524  1  0.117100  0.382900  0.240100  1.0  0.1452
  C  C1525  1  0.579600  0.920400  0.217500  1.0  -0.0402
  C  C1526  1  0.584500  0.915500  0.274900  1.0  0.1098
  C  C1527  1  0.569900  0.930100  0.248000  1.0  0.1494
  C  C1528  1  0.550000  0.950000  0.251700  1.0  0.3198
  C  C1529  1  0.602900  0.897100  0.213600  1.0  -0.0654
  C  C1530  1  0.617100  0.882900  0.240100  1.0  0.1452
  C  C1531  1  0.579600  0.420400  0.717500  1.0  -0.0402
  C  C1532  1  0.584500  0.415500  0.774900  1.0  0.1098
  C  C1533  1  0.569900  0.430100  0.748000  1.0  0.1494
  C  C1534  1  0.550000  0.450000  0.751700  1.0  0.3198
  C  C1535  1  0.602900  0.397100  0.713600  1.0  -0.0654
  C  C1536  1  0.617100  0.382900  0.740100  1.0  0.1452
  C  C1537  1  0.920400  0.920400  0.282500  1.0  -0.0402
  C  C1538  1  0.915500  0.915500  0.225100  1.0  0.1089
  C  C1539  1  0.930100  0.930100  0.252000  1.0  0.1497
  C  C1540  1  0.950000  0.950000  0.248300  1.0  0.3202
  C  C1541  1  0.897100  0.897100  0.286400  1.0  -0.0655
  C  C1542  1  0.882900  0.882900  0.259900  1.0  0.145
  C  C1543  1  0.920400  0.420400  0.782500  1.0  -0.0402
  C  C1544  1  0.915500  0.415500  0.725100  1.0  0.1089
  C  C1545  1  0.930100  0.430100  0.752000  1.0  0.1497
  C  C1546  1  0.950000  0.450000  0.748300  1.0  0.3202
  C  C1547  1  0.897100  0.397100  0.786400  1.0  -0.0655
  C  C1548  1  0.882900  0.382900  0.759900  1.0  0.145
  C  C1549  1  0.420400  0.920400  0.782500  1.0  -0.0402
  C  C1550  1  0.415500  0.915500  0.725100  1.0  0.1089
  C  C1551  1  0.430100  0.930100  0.752000  1.0  0.1497
  C  C1552  1  0.450000  0.950000  0.748300  1.0  0.3202
  C  C1553  1  0.397100  0.897100  0.786400  1.0  -0.0655
  C  C1554  1  0.382900  0.882900  0.759900  1.0  0.145
  C  C1555  1  0.420400  0.420400  0.282500  1.0  -0.0402
  C  C1556  1  0.415500  0.415500  0.225100  1.0  0.1089
  C  C1557  1  0.430100  0.430100  0.252000  1.0  0.1497
  C  C1558  1  0.450000  0.450000  0.248300  1.0  0.3202
  C  C1559  1  0.397100  0.397100  0.286400  1.0  -0.0655
  C  C1560  1  0.382900  0.382900  0.259900  1.0  0.145
  C  C1561  1  0.079600  0.282500  0.920400  1.0  -0.0429
  C  C1562  1  0.084500  0.225100  0.915500  1.0  0.1076
  C  C1563  1  0.069900  0.252000  0.930100  1.0  0.1484
  C  C1564  1  0.050000  0.248300  0.950000  1.0  0.3186
  C  C1565  1  0.102900  0.286400  0.897100  1.0  -0.0629
  C  C1566  1  0.117100  0.259900  0.882900  1.0  0.1463
  C  C1567  1  0.079600  0.782500  0.420400  1.0  -0.0429
  C  C1568  1  0.084500  0.725100  0.415500  1.0  0.1076
  C  C1569  1  0.069900  0.752000  0.430100  1.0  0.1484
  C  C1570  1  0.050000  0.748300  0.450000  1.0  0.3186
  C  C1571  1  0.102900  0.786400  0.397100  1.0  -0.0629
  C  C1572  1  0.117100  0.759900  0.382900  1.0  0.1463
  C  C1573  1  0.579600  0.282500  0.420400  1.0  -0.0429
  C  C1574  1  0.584500  0.225100  0.415500  1.0  0.1076
  C  C1575  1  0.569900  0.252000  0.430100  1.0  0.1484
  C  C1576  1  0.550000  0.248300  0.450000  1.0  0.3186
  C  C1577  1  0.602900  0.286400  0.397100  1.0  -0.0629
  C  C1578  1  0.617100  0.259900  0.382900  1.0  0.1463
  C  C1579  1  0.579600  0.782500  0.920400  1.0  -0.0429
  C  C1580  1  0.584500  0.725100  0.915500  1.0  0.1076
  C  C1581  1  0.569900  0.752000  0.930100  1.0  0.1484
  C  C1582  1  0.550000  0.748300  0.950000  1.0  0.3186
  C  C1583  1  0.602900  0.786400  0.897100  1.0  -0.0629
  C  C1584  1  0.617100  0.759900  0.882900  1.0  0.1463
  C  C1585  1  0.920400  0.717500  0.920400  1.0  -0.0432
  C  C1586  1  0.915500  0.774900  0.915500  1.0  0.108
  C  C1587  1  0.930100  0.748000  0.930100  1.0  0.1491
  C  C1588  1  0.950000  0.751700  0.950000  1.0  0.3207
  C  C1589  1  0.897100  0.713600  0.897100  1.0  -0.066
  C  C1590  1  0.882900  0.740100  0.882900  1.0  0.1464
  C  C1591  1  0.920400  0.217500  0.420400  1.0  -0.0432
  C  C1592  1  0.915500  0.274900  0.415500  1.0  0.108
  C  C1593  1  0.930100  0.248000  0.430100  1.0  0.1491
  C  C1594  1  0.950000  0.251700  0.450000  1.0  0.3207
  C  C1595  1  0.897100  0.213600  0.397100  1.0  -0.066
  C  C1596  1  0.882900  0.240100  0.382900  1.0  0.1464
  C  C1597  1  0.420400  0.717500  0.420400  1.0  -0.0432
  C  C1598  1  0.415500  0.774900  0.415500  1.0  0.108
  C  C1599  1  0.430100  0.748000  0.430100  1.0  0.1491
  C  C1600  1  0.450000  0.751700  0.450000  1.0  0.3207
  C  C1601  1  0.397100  0.713600  0.397100  1.0  -0.066
  C  C1602  1  0.382900  0.740100  0.382900  1.0  0.1464
  C  C1603  1  0.420400  0.217500  0.920400  1.0  -0.0432
  C  C1604  1  0.415500  0.274900  0.915500  1.0  0.108
  C  C1605  1  0.430100  0.248000  0.930100  1.0  0.1491
  C  C1606  1  0.450000  0.251700  0.950000  1.0  0.3207
  C  C1607  1  0.397100  0.213600  0.897100  1.0  -0.066
  C  C1608  1  0.382900  0.240100  0.882900  1.0  0.1464
  C  C1609  1  0.079600  0.717500  0.079600  1.0  -0.0428
  C  C1610  1  0.084500  0.774900  0.084500  1.0  0.1086
  C  C1611  1  0.069900  0.748000  0.069900  1.0  0.1488
  C  C1612  1  0.050000  0.751700  0.050000  1.0  0.3203
  C  C1613  1  0.102900  0.713600  0.102900  1.0  -0.0656
  C  C1614  1  0.117100  0.740100  0.117100  1.0  0.146
  C  C1615  1  0.079600  0.217500  0.579600  1.0  -0.0428
  C  C1616  1  0.084500  0.274900  0.584500  1.0  0.1086
  C  C1617  1  0.069900  0.248000  0.569900  1.0  0.1488
  C  C1618  1  0.050000  0.251700  0.550000  1.0  0.3203
  C  C1619  1  0.102900  0.213600  0.602900  1.0  -0.0656
  C  C1620  1  0.117100  0.240100  0.617100  1.0  0.146
  C  C1621  1  0.579600  0.717500  0.579600  1.0  -0.0428
  C  C1622  1  0.584500  0.774900  0.584500  1.0  0.1086
  C  C1623  1  0.569900  0.748000  0.569900  1.0  0.1488
  C  C1624  1  0.550000  0.751700  0.550000  1.0  0.3203
  C  C1625  1  0.602900  0.713600  0.602900  1.0  -0.0656
  C  C1626  1  0.617100  0.740100  0.617100  1.0  0.146
  C  C1627  1  0.579600  0.217500  0.079600  1.0  -0.0428
  C  C1628  1  0.584500  0.274900  0.084500  1.0  0.1086
  C  C1629  1  0.569900  0.248000  0.069900  1.0  0.1488
  C  C1630  1  0.550000  0.251700  0.050000  1.0  0.3203
  C  C1631  1  0.602900  0.213600  0.102900  1.0  -0.0656
  C  C1632  1  0.617100  0.240100  0.117100  1.0  0.146
  C  C1633  1  0.920400  0.282500  0.079600  1.0  -0.0426
  C  C1634  1  0.915500  0.225100  0.084500  1.0  0.1078
  C  C1635  1  0.930100  0.252000  0.069900  1.0  0.1494
  C  C1636  1  0.950000  0.248300  0.050000  1.0  0.3211
  C  C1637  1  0.897100  0.286400  0.102900  1.0  -0.0644
  C  C1638  1  0.882900  0.259900  0.117100  1.0  0.1461
  C  C1639  1  0.920400  0.782500  0.579600  1.0  -0.0426
  C  C1640  1  0.915500  0.725100  0.584500  1.0  0.1078
  C  C1641  1  0.930100  0.752000  0.569900  1.0  0.1494
  C  C1642  1  0.950000  0.748300  0.550000  1.0  0.3211
  C  C1643  1  0.897100  0.786400  0.602900  1.0  -0.0644
  C  C1644  1  0.882900  0.759900  0.617100  1.0  0.1461
  C  C1645  1  0.420400  0.282500  0.579600  1.0  -0.0426
  C  C1646  1  0.415500  0.225100  0.584500  1.0  0.1078
  C  C1647  1  0.430100  0.252000  0.569900  1.0  0.1494
  C  C1648  1  0.450000  0.248300  0.550000  1.0  0.3211
  C  C1649  1  0.397100  0.286400  0.602900  1.0  -0.0644
  C  C1650  1  0.382900  0.259900  0.617100  1.0  0.1461
  C  C1651  1  0.420400  0.782500  0.079600  1.0  -0.0426
  C  C1652  1  0.415500  0.725100  0.084500  1.0  0.1078
  C  C1653  1  0.430100  0.752000  0.069900  1.0  0.1494
  C  C1654  1  0.450000  0.748300  0.050000  1.0  0.3211
  C  C1655  1  0.397100  0.786400  0.102900  1.0  -0.0644
  C  C1656  1  0.382900  0.759900  0.117100  1.0  0.1461
  C  C1657  1  0.282500  0.079600  0.920400  1.0  -0.0411
  C  C1658  1  0.225100  0.084500  0.915500  1.0  0.109
  C  C1659  1  0.252000  0.069900  0.930100  1.0  0.1514
  C  C1660  1  0.248300  0.050000  0.950000  1.0  0.3197
  C  C1661  1  0.286400  0.102900  0.897100  1.0  -0.067
  C  C1662  1  0.259900  0.117100  0.882900  1.0  0.1493
  C  C1663  1  0.282500  0.579600  0.420400  1.0  -0.0411
  C  C1664  1  0.225100  0.584500  0.415500  1.0  0.109
  C  C1665  1  0.252000  0.569900  0.430100  1.0  0.1514
  C  C1666  1  0.248300  0.550000  0.450000  1.0  0.3197
  C  C1667  1  0.286400  0.602900  0.397100  1.0  -0.067
  C  C1668  1  0.259900  0.617100  0.382900  1.0  0.1493
  C  C1669  1  0.782500  0.079600  0.420400  1.0  -0.0411
  C  C1670  1  0.725100  0.084500  0.415500  1.0  0.109
  C  C1671  1  0.752000  0.069900  0.430100  1.0  0.1514
  C  C1672  1  0.748300  0.050000  0.450000  1.0  0.3197
  C  C1673  1  0.786400  0.102900  0.397100  1.0  -0.067
  C  C1674  1  0.759900  0.117100  0.382900  1.0  0.1493
  C  C1675  1  0.782500  0.579600  0.920400  1.0  -0.0411
  C  C1676  1  0.725100  0.584500  0.915500  1.0  0.109
  C  C1677  1  0.752000  0.569900  0.930100  1.0  0.1514
  C  C1678  1  0.748300  0.550000  0.950000  1.0  0.3197
  C  C1679  1  0.786400  0.602900  0.897100  1.0  -0.067
  C  C1680  1  0.759900  0.617100  0.882900  1.0  0.1493
  C  C1681  1  0.717500  0.079600  0.079600  1.0  -0.0407
  C  C1682  1  0.774900  0.084500  0.084500  1.0  0.1077
  C  C1683  1  0.748000  0.069900  0.069900  1.0  0.151
  C  C1684  1  0.751700  0.050000  0.050000  1.0  0.32
  C  C1685  1  0.713600  0.102900  0.102900  1.0  -0.068
  C  C1686  1  0.740100  0.117100  0.117100  1.0  0.1491
  C  C1687  1  0.717500  0.579600  0.579600  1.0  -0.0407
  C  C1688  1  0.774900  0.584500  0.584500  1.0  0.1077
  C  C1689  1  0.748000  0.569900  0.569900  1.0  0.151
  C  C1690  1  0.751700  0.550000  0.550000  1.0  0.32
  C  C1691  1  0.713600  0.602900  0.602900  1.0  -0.068
  C  C1692  1  0.740100  0.617100  0.617100  1.0  0.1491
  C  C1693  1  0.217500  0.079600  0.579600  1.0  -0.0407
  C  C1694  1  0.274900  0.084500  0.584500  1.0  0.1077
  C  C1695  1  0.248000  0.069900  0.569900  1.0  0.151
  C  C1696  1  0.251700  0.050000  0.550000  1.0  0.32
  C  C1697  1  0.213600  0.102900  0.602900  1.0  -0.068
  C  C1698  1  0.240100  0.117100  0.617100  1.0  0.1491
  C  C1699  1  0.217500  0.579600  0.079600  1.0  -0.0407
  C  C1700  1  0.274900  0.584500  0.084500  1.0  0.1077
  C  C1701  1  0.248000  0.569900  0.069900  1.0  0.151
  C  C1702  1  0.251700  0.550000  0.050000  1.0  0.32
  C  C1703  1  0.213600  0.602900  0.102900  1.0  -0.068
  C  C1704  1  0.240100  0.617100  0.117100  1.0  0.1491
  C  C1705  1  0.717500  0.920400  0.920400  1.0  -0.0411
  C  C1706  1  0.774900  0.915500  0.915500  1.0  0.1072
  C  C1707  1  0.748000  0.930100  0.930100  1.0  0.1501
  C  C1708  1  0.751700  0.950000  0.950000  1.0  0.3192
  C  C1709  1  0.713600  0.897100  0.897100  1.0  -0.0679
  C  C1710  1  0.740100  0.882900  0.882900  1.0  0.1488
  C  C1711  1  0.717500  0.420400  0.420400  1.0  -0.0411
  C  C1712  1  0.774900  0.415500  0.415500  1.0  0.1072
  C  C1713  1  0.748000  0.430100  0.430100  1.0  0.1501
  C  C1714  1  0.751700  0.450000  0.450000  1.0  0.3192
  C  C1715  1  0.713600  0.397100  0.397100  1.0  -0.0679
  C  C1716  1  0.740100  0.382900  0.382900  1.0  0.1488
  C  C1717  1  0.217500  0.920400  0.420400  1.0  -0.0411
  C  C1718  1  0.274900  0.915500  0.415500  1.0  0.1072
  C  C1719  1  0.248000  0.930100  0.430100  1.0  0.1501
  C  C1720  1  0.251700  0.950000  0.450000  1.0  0.3192
  C  C1721  1  0.213600  0.897100  0.397100  1.0  -0.0679
  C  C1722  1  0.240100  0.882900  0.382900  1.0  0.1488
  C  C1723  1  0.217500  0.420400  0.920400  1.0  -0.0411
  C  C1724  1  0.274900  0.415500  0.915500  1.0  0.1072
  C  C1725  1  0.248000  0.430100  0.930100  1.0  0.1501
  C  C1726  1  0.251700  0.450000  0.950000  1.0  0.3192
  C  C1727  1  0.213600  0.397100  0.897100  1.0  -0.0679
  C  C1728  1  0.240100  0.382900  0.882900  1.0  0.1488
  C  C1729  1  0.282500  0.920400  0.079600  1.0  -0.0415
  C  C1730  1  0.225100  0.915500  0.084500  1.0  0.1089
  C  C1731  1  0.252000  0.930100  0.069900  1.0  0.1498
  C  C1732  1  0.248300  0.950000  0.050000  1.0  0.3203
  C  C1733  1  0.286400  0.897100  0.102900  1.0  -0.0655
  C  C1734  1  0.259900  0.882900  0.117100  1.0  0.1481
  C  C1735  1  0.282500  0.420400  0.579600  1.0  -0.0415
  C  C1736  1  0.225100  0.415500  0.584500  1.0  0.1089
  C  C1737  1  0.252000  0.430100  0.569900  1.0  0.1498
  C  C1738  1  0.248300  0.450000  0.550000  1.0  0.3203
  C  C1739  1  0.286400  0.397100  0.602900  1.0  -0.0655
  C  C1740  1  0.259900  0.382900  0.617100  1.0  0.1481
  C  C1741  1  0.782500  0.920400  0.579600  1.0  -0.0415
  C  C1742  1  0.725100  0.915500  0.584500  1.0  0.1089
  C  C1743  1  0.752000  0.930100  0.569900  1.0  0.1498
  C  C1744  1  0.748300  0.950000  0.550000  1.0  0.3203
  C  C1745  1  0.786400  0.897100  0.602900  1.0  -0.0655
  C  C1746  1  0.759900  0.882900  0.617100  1.0  0.1481
  C  C1747  1  0.782500  0.420400  0.079600  1.0  -0.0415
  C  C1748  1  0.725100  0.415500  0.084500  1.0  0.1089
  C  C1749  1  0.752000  0.430100  0.069900  1.0  0.1498
  C  C1750  1  0.748300  0.450000  0.050000  1.0  0.3203
  C  C1751  1  0.786400  0.397100  0.102900  1.0  -0.0655
  C  C1752  1  0.759900  0.382900  0.117100  1.0  0.1481
  C  C1753  1  0.079600  0.079600  0.717500  1.0  -0.0396
  C  C1754  1  0.084500  0.084500  0.774900  1.0  0.1102
  C  C1755  1  0.069900  0.069900  0.748000  1.0  0.1506
  C  C1756  1  0.050000  0.050000  0.751700  1.0  0.3201
  C  C1757  1  0.102900  0.102900  0.713600  1.0  -0.0653
  C  C1758  1  0.117100  0.117100  0.740100  1.0  0.1463
  C  C1759  1  0.079600  0.579600  0.217500  1.0  -0.0396
  C  C1760  1  0.084500  0.584500  0.274900  1.0  0.1102
  C  C1761  1  0.069900  0.569900  0.248000  1.0  0.1506
  C  C1762  1  0.050000  0.550000  0.251700  1.0  0.3201
  C  C1763  1  0.102900  0.602900  0.213600  1.0  -0.0653
  C  C1764  1  0.117100  0.617100  0.240100  1.0  0.1463
  C  C1765  1  0.579600  0.079600  0.217500  1.0  -0.0396
  C  C1766  1  0.584500  0.084500  0.274900  1.0  0.1102
  C  C1767  1  0.569900  0.069900  0.248000  1.0  0.1506
  C  C1768  1  0.550000  0.050000  0.251700  1.0  0.3201
  C  C1769  1  0.602900  0.102900  0.213600  1.0  -0.0653
  C  C1770  1  0.617100  0.117100  0.240100  1.0  0.1463
  C  C1771  1  0.579600  0.579600  0.717500  1.0  -0.0396
  C  C1772  1  0.584500  0.584500  0.774900  1.0  0.1102
  C  C1773  1  0.569900  0.569900  0.748000  1.0  0.1506
  C  C1774  1  0.550000  0.550000  0.751700  1.0  0.3201
  C  C1775  1  0.602900  0.602900  0.713600  1.0  -0.0653
  C  C1776  1  0.617100  0.617100  0.740100  1.0  0.1463
  C  C1777  1  0.079600  0.920400  0.282500  1.0  -0.0409
  C  C1778  1  0.084500  0.915500  0.225100  1.0  0.1098
  C  C1779  1  0.069900  0.930100  0.252000  1.0  0.1486
  C  C1780  1  0.050000  0.950000  0.248300  1.0  0.3191
  C  C1781  1  0.102900  0.897100  0.286400  1.0  -0.0648
  C  C1782  1  0.117100  0.882900  0.259900  1.0  0.1449
  C  C1783  1  0.079600  0.420400  0.782500  1.0  -0.0409
  C  C1784  1  0.084500  0.415500  0.725100  1.0  0.1098
  C  C1785  1  0.069900  0.430100  0.752000  1.0  0.1486
  C  C1786  1  0.050000  0.450000  0.748300  1.0  0.3191
  C  C1787  1  0.102900  0.397100  0.786400  1.0  -0.0648
  C  C1788  1  0.117100  0.382900  0.759900  1.0  0.1449
  C  C1789  1  0.579600  0.920400  0.782500  1.0  -0.0409
  C  C1790  1  0.584500  0.915500  0.725100  1.0  0.1098
  C  C1791  1  0.569900  0.930100  0.752000  1.0  0.1486
  C  C1792  1  0.550000  0.950000  0.748300  1.0  0.3191
  C  C1793  1  0.602900  0.897100  0.786400  1.0  -0.0648
  C  C1794  1  0.617100  0.882900  0.759900  1.0  0.1449
  C  C1795  1  0.579600  0.420400  0.282500  1.0  -0.0409
  C  C1796  1  0.584500  0.415500  0.225100  1.0  0.1098
  C  C1797  1  0.569900  0.430100  0.252000  1.0  0.1486
  C  C1798  1  0.550000  0.450000  0.248300  1.0  0.3191
  C  C1799  1  0.602900  0.397100  0.286400  1.0  -0.0648
  C  C1800  1  0.617100  0.382900  0.259900  1.0  0.1449
  C  C1801  1  0.920400  0.079600  0.282500  1.0  -0.0402
  C  C1802  1  0.915500  0.084500  0.225100  1.0  0.1093
  C  C1803  1  0.930100  0.069900  0.252000  1.0  0.1506
  C  C1804  1  0.950000  0.050000  0.248300  1.0  0.3203
  C  C1805  1  0.897100  0.102900  0.286400  1.0  -0.0655
  C  C1806  1  0.882900  0.117100  0.259900  1.0  0.1452
  C  C1807  1  0.920400  0.579600  0.782500  1.0  -0.0402
  C  C1808  1  0.915500  0.584500  0.725100  1.0  0.1093
  C  C1809  1  0.930100  0.569900  0.752000  1.0  0.1506
  C  C1810  1  0.950000  0.550000  0.748300  1.0  0.3203
  C  C1811  1  0.897100  0.602900  0.786400  1.0  -0.0655
  C  C1812  1  0.882900  0.617100  0.759900  1.0  0.1452
  C  C1813  1  0.420400  0.079600  0.782500  1.0  -0.0402
  C  C1814  1  0.415500  0.084500  0.725100  1.0  0.1093
  C  C1815  1  0.430100  0.069900  0.752000  1.0  0.1506
  C  C1816  1  0.450000  0.050000  0.748300  1.0  0.3203
  C  C1817  1  0.397100  0.102900  0.786400  1.0  -0.0655
  C  C1818  1  0.382900  0.117100  0.759900  1.0  0.1452
  C  C1819  1  0.420400  0.579600  0.282500  1.0  -0.0402
  C  C1820  1  0.415500  0.584500  0.225100  1.0  0.1093
  C  C1821  1  0.430100  0.569900  0.252000  1.0  0.1506
  C  C1822  1  0.450000  0.550000  0.248300  1.0  0.3203
  C  C1823  1  0.397100  0.602900  0.286400  1.0  -0.0655
  C  C1824  1  0.382900  0.617100  0.259900  1.0  0.1452
  C  C1825  1  0.920400  0.920400  0.717500  1.0  -0.0402
  C  C1826  1  0.915500  0.915500  0.774900  1.0  0.1095
  C  C1827  1  0.930100  0.930100  0.748000  1.0  0.1501
  C  C1828  1  0.950000  0.950000  0.751700  1.0  0.3212
  C  C1829  1  0.897100  0.897100  0.713600  1.0  -0.0647
  C  C1830  1  0.882900  0.882900  0.740100  1.0  0.1458
  C  C1831  1  0.920400  0.420400  0.217500  1.0  -0.0402
  C  C1832  1  0.915500  0.415500  0.274900  1.0  0.1095
  C  C1833  1  0.930100  0.430100  0.248000  1.0  0.1501
  C  C1834  1  0.950000  0.450000  0.251700  1.0  0.3212
  C  C1835  1  0.897100  0.397100  0.213600  1.0  -0.0647
  C  C1836  1  0.882900  0.382900  0.240100  1.0  0.1458
  C  C1837  1  0.420400  0.920400  0.217500  1.0  -0.0402
  C  C1838  1  0.415500  0.915500  0.274900  1.0  0.1095
  C  C1839  1  0.430100  0.930100  0.248000  1.0  0.1501
  C  C1840  1  0.450000  0.950000  0.251700  1.0  0.3212
  C  C1841  1  0.397100  0.897100  0.213600  1.0  -0.0647
  C  C1842  1  0.382900  0.882900  0.240100  1.0  0.1458
  C  C1843  1  0.420400  0.420400  0.717500  1.0  -0.0402
  C  C1844  1  0.415500  0.415500  0.774900  1.0  0.1095
  C  C1845  1  0.430100  0.430100  0.748000  1.0  0.1501
  C  C1846  1  0.450000  0.450000  0.751700  1.0  0.3212
  C  C1847  1  0.397100  0.397100  0.713600  1.0  -0.0647
  C  C1848  1  0.382900  0.382900  0.740100  1.0  0.1458
  C  C1849  1  0.149490  0.149490  0.033490  1.0  -0.0982
  C  C1850  1  0.150340  0.150340  0.069830  1.0  0.7681
  C  C1851  1  0.149490  0.649490  0.533490  1.0  -0.0982
  C  C1852  1  0.150340  0.650340  0.569830  1.0  0.7681
  C  C1853  1  0.649490  0.149490  0.533490  1.0  -0.0982
  C  C1854  1  0.650340  0.150340  0.569830  1.0  0.7681
  C  C1855  1  0.649490  0.649490  0.033490  1.0  -0.0982
  C  C1856  1  0.650340  0.650340  0.069830  1.0  0.7681
  C  C1857  1  0.850510  0.850510  0.033490  1.0  -0.0985
  C  C1858  1  0.849660  0.849660  0.069830  1.0  0.7685
  C  C1859  1  0.850510  0.350510  0.533490  1.0  -0.0985
  C  C1860  1  0.849660  0.349660  0.569830  1.0  0.7685
  C  C1861  1  0.350510  0.850510  0.533490  1.0  -0.0985
  C  C1862  1  0.349660  0.849660  0.569830  1.0  0.7685
  C  C1863  1  0.350510  0.350510  0.033490  1.0  -0.0985
  C  C1864  1  0.349660  0.349660  0.069830  1.0  0.7685
  C  C1865  1  0.850510  0.149490  0.966510  1.0  -0.0998
  C  C1866  1  0.849660  0.150340  0.930170  1.0  0.7687
  C  C1867  1  0.850510  0.649490  0.466510  1.0  -0.0998
  C  C1868  1  0.849660  0.650340  0.430170  1.0  0.7687
  C  C1869  1  0.350510  0.149490  0.466510  1.0  -0.0998
  C  C1870  1  0.349660  0.150340  0.430170  1.0  0.7687
  C  C1871  1  0.350510  0.649490  0.966510  1.0  -0.0998
  C  C1872  1  0.349660  0.650340  0.930170  1.0  0.7687
  C  C1873  1  0.149490  0.850510  0.966510  1.0  -0.0995
  C  C1874  1  0.150340  0.849660  0.930170  1.0  0.7674
  C  C1875  1  0.149490  0.350510  0.466510  1.0  -0.0995
  C  C1876  1  0.150340  0.349660  0.430170  1.0  0.7674
  C  C1877  1  0.649490  0.850510  0.466510  1.0  -0.0995
  C  C1878  1  0.650340  0.849660  0.430170  1.0  0.7674
  C  C1879  1  0.649490  0.350510  0.966510  1.0  -0.0995
  C  C1880  1  0.650340  0.349660  0.930170  1.0  0.7674
  C  C1881  1  0.033490  0.149490  0.149490  1.0  -0.0983
  C  C1882  1  0.069830  0.150340  0.150340  1.0  0.7692
  C  C1883  1  0.033490  0.649490  0.649490  1.0  -0.0983
  C  C1884  1  0.069830  0.650340  0.650340  1.0  0.7692
  C  C1885  1  0.533490  0.149490  0.649490  1.0  -0.0983
  C  C1886  1  0.569830  0.150340  0.650340  1.0  0.7692
  C  C1887  1  0.533490  0.649490  0.149490  1.0  -0.0983
  C  C1888  1  0.569830  0.650340  0.150340  1.0  0.7692
  C  C1889  1  0.033490  0.850510  0.850510  1.0  -0.0984
  C  C1890  1  0.069830  0.849660  0.849660  1.0  0.769
  C  C1891  1  0.033490  0.350510  0.350510  1.0  -0.0984
  C  C1892  1  0.069830  0.349660  0.349660  1.0  0.769
  C  C1893  1  0.533490  0.850510  0.350510  1.0  -0.0984
  C  C1894  1  0.569830  0.849660  0.349660  1.0  0.769
  C  C1895  1  0.533490  0.350510  0.850510  1.0  -0.0984
  C  C1896  1  0.569830  0.349660  0.849660  1.0  0.769
  C  C1897  1  0.966510  0.850510  0.149490  1.0  -0.0992
  C  C1898  1  0.930170  0.849660  0.150340  1.0  0.7707
  C  C1899  1  0.966510  0.350510  0.649490  1.0  -0.0992
  C  C1900  1  0.930170  0.349660  0.650340  1.0  0.7707
  C  C1901  1  0.466510  0.850510  0.649490  1.0  -0.0992
  C  C1902  1  0.430170  0.849660  0.650340  1.0  0.7707
  C  C1903  1  0.466510  0.350510  0.149490  1.0  -0.0992
  C  C1904  1  0.430170  0.349660  0.150340  1.0  0.7707
  C  C1905  1  0.966510  0.149490  0.850510  1.0  -0.0991
  C  C1906  1  0.930170  0.150340  0.849660  1.0  0.771
  C  C1907  1  0.966510  0.649490  0.350510  1.0  -0.0991
  C  C1908  1  0.930170  0.650340  0.349660  1.0  0.771
  C  C1909  1  0.466510  0.149490  0.350510  1.0  -0.0991
  C  C1910  1  0.430170  0.150340  0.349660  1.0  0.771
  C  C1911  1  0.466510  0.649490  0.850510  1.0  -0.0991
  C  C1912  1  0.430170  0.650340  0.849660  1.0  0.771
  C  C1913  1  0.149490  0.033490  0.149490  1.0  -0.0961
  C  C1914  1  0.150340  0.069830  0.150340  1.0  0.7683
  C  C1915  1  0.149490  0.533490  0.649490  1.0  -0.0961
  C  C1916  1  0.150340  0.569830  0.650340  1.0  0.7683
  C  C1917  1  0.649490  0.033490  0.649490  1.0  -0.0961
  C  C1918  1  0.650340  0.069830  0.650340  1.0  0.7683
  C  C1919  1  0.649490  0.533490  0.149490  1.0  -0.0961
  C  C1920  1  0.650340  0.569830  0.150340  1.0  0.7683
  C  C1921  1  0.850510  0.033490  0.850510  1.0  -0.0965
  C  C1922  1  0.849660  0.069830  0.849660  1.0  0.7688
  C  C1923  1  0.850510  0.533490  0.350510  1.0  -0.0965
  C  C1924  1  0.849660  0.569830  0.349660  1.0  0.7688
  C  C1925  1  0.350510  0.033490  0.350510  1.0  -0.0965
  C  C1926  1  0.349660  0.069830  0.349660  1.0  0.7688
  C  C1927  1  0.350510  0.533490  0.850510  1.0  -0.0965
  C  C1928  1  0.349660  0.569830  0.849660  1.0  0.7688
  C  C1929  1  0.149490  0.966510  0.850510  1.0  -0.0965
  C  C1930  1  0.150340  0.930170  0.849660  1.0  0.7674
  C  C1931  1  0.149490  0.466510  0.350510  1.0  -0.0965
  C  C1932  1  0.150340  0.430170  0.349660  1.0  0.7674
  C  C1933  1  0.649490  0.966510  0.350510  1.0  -0.0965
  C  C1934  1  0.650340  0.930170  0.349660  1.0  0.7674
  C  C1935  1  0.649490  0.466510  0.850510  1.0  -0.0965
  C  C1936  1  0.650340  0.430170  0.849660  1.0  0.7674
  C  C1937  1  0.850510  0.966510  0.149490  1.0  -0.0968
  C  C1938  1  0.849660  0.930170  0.150340  1.0  0.7684
  C  C1939  1  0.850510  0.466510  0.649490  1.0  -0.0968
  C  C1940  1  0.849660  0.430170  0.650340  1.0  0.7684
  C  C1941  1  0.350510  0.966510  0.649490  1.0  -0.0968
  C  C1942  1  0.349660  0.930170  0.650340  1.0  0.7684
  C  C1943  1  0.350510  0.466510  0.149490  1.0  -0.0968
  C  C1944  1  0.349660  0.430170  0.150340  1.0  0.7684
  C  C1945  1  0.149490  0.149490  0.966510  1.0  -0.0995
  C  C1946  1  0.150340  0.150340  0.930170  1.0  0.7681
  C  C1947  1  0.149490  0.649490  0.466510  1.0  -0.0995
  C  C1948  1  0.150340  0.650340  0.430170  1.0  0.7681
  C  C1949  1  0.649490  0.149490  0.466510  1.0  -0.0995
  C  C1950  1  0.650340  0.150340  0.430170  1.0  0.7681
  C  C1951  1  0.649490  0.649490  0.966510  1.0  -0.0995
  C  C1952  1  0.650340  0.650340  0.930170  1.0  0.7681
  C  C1953  1  0.850510  0.850510  0.966510  1.0  -0.0997
  C  C1954  1  0.849660  0.849660  0.930170  1.0  0.7681
  C  C1955  1  0.850510  0.350510  0.466510  1.0  -0.0997
  C  C1956  1  0.849660  0.349660  0.430170  1.0  0.7681
  C  C1957  1  0.350510  0.850510  0.466510  1.0  -0.0997
  C  C1958  1  0.349660  0.849660  0.430170  1.0  0.7681
  C  C1959  1  0.350510  0.350510  0.966510  1.0  -0.0997
  C  C1960  1  0.349660  0.349660  0.930170  1.0  0.7681
  C  C1961  1  0.149490  0.850510  0.033490  1.0  -0.0982
  C  C1962  1  0.150340  0.849660  0.069830  1.0  0.7677
  C  C1963  1  0.149490  0.350510  0.533490  1.0  -0.0982
  C  C1964  1  0.150340  0.349660  0.569830  1.0  0.7677
  C  C1965  1  0.649490  0.850510  0.533490  1.0  -0.0982
  C  C1966  1  0.650340  0.849660  0.569830  1.0  0.7677
  C  C1967  1  0.649490  0.350510  0.033490  1.0  -0.0982
  C  C1968  1  0.650340  0.349660  0.069830  1.0  0.7677
  C  C1969  1  0.850510  0.149490  0.033490  1.0  -0.0986
  C  C1970  1  0.849660  0.150340  0.069830  1.0  0.7689
  C  C1971  1  0.850510  0.649490  0.533490  1.0  -0.0986
  C  C1972  1  0.849660  0.650340  0.569830  1.0  0.7689
  C  C1973  1  0.350510  0.149490  0.533490  1.0  -0.0986
  C  C1974  1  0.349660  0.150340  0.569830  1.0  0.7689
  C  C1975  1  0.350510  0.649490  0.033490  1.0  -0.0986
  C  C1976  1  0.349660  0.650340  0.069830  1.0  0.7689
  C  C1977  1  0.149490  0.033490  0.850510  1.0  -0.096
  C  C1978  1  0.150340  0.069830  0.849660  1.0  0.7681
  C  C1979  1  0.149490  0.533490  0.350510  1.0  -0.096
  C  C1980  1  0.150340  0.569830  0.349660  1.0  0.7681
  C  C1981  1  0.649490  0.033490  0.350510  1.0  -0.096
  C  C1982  1  0.650340  0.069830  0.349660  1.0  0.7681
  C  C1983  1  0.649490  0.533490  0.850510  1.0  -0.096
  C  C1984  1  0.650340  0.569830  0.849660  1.0  0.7681
  C  C1985  1  0.850510  0.033490  0.149490  1.0  -0.0965
  C  C1986  1  0.849660  0.069830  0.150340  1.0  0.7689
  C  C1987  1  0.850510  0.533490  0.649490  1.0  -0.0965
  C  C1988  1  0.849660  0.569830  0.650340  1.0  0.7689
  C  C1989  1  0.350510  0.033490  0.649490  1.0  -0.0965
  C  C1990  1  0.349660  0.069830  0.650340  1.0  0.7689
  C  C1991  1  0.350510  0.533490  0.149490  1.0  -0.0965
  C  C1992  1  0.349660  0.569830  0.150340  1.0  0.7689
  C  C1993  1  0.850510  0.966510  0.850510  1.0  -0.0968
  C  C1994  1  0.849660  0.930170  0.849660  1.0  0.7682
  C  C1995  1  0.850510  0.466510  0.350510  1.0  -0.0968
  C  C1996  1  0.849660  0.430170  0.349660  1.0  0.7682
  C  C1997  1  0.350510  0.966510  0.350510  1.0  -0.0968
  C  C1998  1  0.349660  0.930170  0.349660  1.0  0.7682
  C  C1999  1  0.350510  0.466510  0.850510  1.0  -0.0968
  C  C2000  1  0.349660  0.430170  0.849660  1.0  0.7682
  C  C2001  1  0.149490  0.966510  0.149490  1.0  -0.0965
  C  C2002  1  0.150340  0.930170  0.150340  1.0  0.7676
  C  C2003  1  0.149490  0.466510  0.649490  1.0  -0.0965
  C  C2004  1  0.150340  0.430170  0.650340  1.0  0.7676
  C  C2005  1  0.649490  0.966510  0.649490  1.0  -0.0965
  C  C2006  1  0.650340  0.930170  0.650340  1.0  0.7676
  C  C2007  1  0.649490  0.466510  0.149490  1.0  -0.0965
  C  C2008  1  0.650340  0.430170  0.150340  1.0  0.7676
  C  C2009  1  0.033490  0.149490  0.850510  1.0  -0.0982
  C  C2010  1  0.069830  0.150340  0.849660  1.0  0.7693
  C  C2011  1  0.033490  0.649490  0.350510  1.0  -0.0982
  C  C2012  1  0.069830  0.650340  0.349660  1.0  0.7693
  C  C2013  1  0.533490  0.149490  0.350510  1.0  -0.0982
  C  C2014  1  0.569830  0.150340  0.349660  1.0  0.7693
  C  C2015  1  0.533490  0.649490  0.850510  1.0  -0.0982
  C  C2016  1  0.569830  0.650340  0.849660  1.0  0.7693
  C  C2017  1  0.033490  0.850510  0.149490  1.0  -0.0984
  C  C2018  1  0.069830  0.849660  0.150340  1.0  0.7691
  C  C2019  1  0.033490  0.350510  0.649490  1.0  -0.0984
  C  C2020  1  0.069830  0.349660  0.650340  1.0  0.7691
  C  C2021  1  0.533490  0.850510  0.649490  1.0  -0.0984
  C  C2022  1  0.569830  0.849660  0.650340  1.0  0.7691
  C  C2023  1  0.533490  0.350510  0.149490  1.0  -0.0984
  C  C2024  1  0.569830  0.349660  0.150340  1.0  0.7691
  C  C2025  1  0.966510  0.149490  0.149490  1.0  -0.0991
  C  C2026  1  0.930170  0.150340  0.150340  1.0  0.7711
  C  C2027  1  0.966510  0.649490  0.649490  1.0  -0.0991
  C  C2028  1  0.930170  0.650340  0.650340  1.0  0.7711
  C  C2029  1  0.466510  0.149490  0.649490  1.0  -0.0991
  C  C2030  1  0.430170  0.150340  0.650340  1.0  0.7711
  C  C2031  1  0.466510  0.649490  0.149490  1.0  -0.0991
  C  C2032  1  0.430170  0.650340  0.150340  1.0  0.7711
  C  C2033  1  0.966510  0.850510  0.850510  1.0  -0.0993
  C  C2034  1  0.930170  0.849660  0.849660  1.0  0.7704
  C  C2035  1  0.966510  0.350510  0.350510  1.0  -0.0993
  C  C2036  1  0.930170  0.349660  0.349660  1.0  0.7704
  C  C2037  1  0.466510  0.850510  0.350510  1.0  -0.0993
  C  C2038  1  0.430170  0.849660  0.349660  1.0  0.7704
  C  C2039  1  0.466510  0.350510  0.850510  1.0  -0.0993
  C  C2040  1  0.430170  0.349660  0.849660  1.0  0.7704
  C  C2041  1  0.199540  0.124000  0.199540  1.0  0.757
  C  C2042  1  0.226180  0.122700  0.226180  1.0  -0.0615
  C  C2043  1  0.199540  0.624000  0.699540  1.0  0.757
  C  C2044  1  0.226180  0.622700  0.726180  1.0  -0.0615
  C  C2045  1  0.699540  0.124000  0.699540  1.0  0.757
  C  C2046  1  0.726180  0.122700  0.726180  1.0  -0.0615
  C  C2047  1  0.699540  0.624000  0.199540  1.0  0.757
  C  C2048  1  0.726180  0.622700  0.226180  1.0  -0.0615
  C  C2049  1  0.800460  0.876000  0.199540  1.0  0.7552
  C  C2050  1  0.773820  0.877300  0.226180  1.0  -0.0618
  C  C2051  1  0.800460  0.376000  0.699540  1.0  0.7552
  C  C2052  1  0.773820  0.377300  0.726180  1.0  -0.0618
  C  C2053  1  0.300460  0.876000  0.699540  1.0  0.7552
  C  C2054  1  0.273820  0.877300  0.726180  1.0  -0.0618
  C  C2055  1  0.300460  0.376000  0.199540  1.0  0.7552
  C  C2056  1  0.273820  0.377300  0.226180  1.0  -0.0618
  C  C2057  1  0.800460  0.124000  0.800460  1.0  0.7559
  C  C2058  1  0.773820  0.122700  0.773820  1.0  -0.0611
  C  C2059  1  0.800460  0.624000  0.300460  1.0  0.7559
  C  C2060  1  0.773820  0.622700  0.273820  1.0  -0.0611
  C  C2061  1  0.300460  0.124000  0.300460  1.0  0.7559
  C  C2062  1  0.273820  0.122700  0.273820  1.0  -0.0611
  C  C2063  1  0.300460  0.624000  0.800460  1.0  0.7559
  C  C2064  1  0.273820  0.622700  0.773820  1.0  -0.0611
  C  C2065  1  0.199540  0.876000  0.800460  1.0  0.7574
  C  C2066  1  0.226180  0.877300  0.773820  1.0  -0.0618
  C  C2067  1  0.199540  0.376000  0.300460  1.0  0.7574
  C  C2068  1  0.226180  0.377300  0.273820  1.0  -0.0618
  C  C2069  1  0.699540  0.876000  0.300460  1.0  0.7574
  C  C2070  1  0.726180  0.877300  0.273820  1.0  -0.0618
  C  C2071  1  0.699540  0.376000  0.800460  1.0  0.7574
  C  C2072  1  0.726180  0.377300  0.773820  1.0  -0.0618
  C  C2073  1  0.199540  0.199540  0.124000  1.0  0.7567
  C  C2074  1  0.226180  0.226180  0.122700  1.0  -0.0603
  C  C2075  1  0.199540  0.699540  0.624000  1.0  0.7567
  C  C2076  1  0.226180  0.726180  0.622700  1.0  -0.0603
  C  C2077  1  0.699540  0.199540  0.624000  1.0  0.7567
  C  C2078  1  0.726180  0.226180  0.622700  1.0  -0.0603
  C  C2079  1  0.699540  0.699540  0.124000  1.0  0.7567
  C  C2080  1  0.726180  0.726180  0.122700  1.0  -0.0603
  C  C2081  1  0.199540  0.800460  0.876000  1.0  0.7577
  C  C2082  1  0.226180  0.773820  0.877300  1.0  -0.0608
  C  C2083  1  0.199540  0.300460  0.376000  1.0  0.7577
  C  C2084  1  0.226180  0.273820  0.377300  1.0  -0.0608
  C  C2085  1  0.699540  0.800460  0.376000  1.0  0.7577
  C  C2086  1  0.726180  0.773820  0.377300  1.0  -0.0608
  C  C2087  1  0.699540  0.300460  0.876000  1.0  0.7577
  C  C2088  1  0.726180  0.273820  0.877300  1.0  -0.0608
  C  C2089  1  0.800460  0.800460  0.124000  1.0  0.7559
  C  C2090  1  0.773820  0.773820  0.122700  1.0  -0.0605
  C  C2091  1  0.800460  0.300460  0.624000  1.0  0.7559
  C  C2092  1  0.773820  0.273820  0.622700  1.0  -0.0605
  C  C2093  1  0.300460  0.800460  0.624000  1.0  0.7559
  C  C2094  1  0.273820  0.773820  0.622700  1.0  -0.0605
  C  C2095  1  0.300460  0.300460  0.124000  1.0  0.7559
  C  C2096  1  0.273820  0.273820  0.122700  1.0  -0.0605
  C  C2097  1  0.800460  0.199540  0.876000  1.0  0.7547
  C  C2098  1  0.773820  0.226180  0.877300  1.0  -0.0602
  C  C2099  1  0.800460  0.699540  0.376000  1.0  0.7547
  C  C2100  1  0.773820  0.726180  0.377300  1.0  -0.0602
  C  C2101  1  0.300460  0.199540  0.376000  1.0  0.7547
  C  C2102  1  0.273820  0.226180  0.377300  1.0  -0.0602
  C  C2103  1  0.300460  0.699540  0.876000  1.0  0.7547
  C  C2104  1  0.273820  0.726180  0.877300  1.0  -0.0602
  C  C2105  1  0.124000  0.199540  0.199540  1.0  0.7564
  C  C2106  1  0.122700  0.226180  0.226180  1.0  -0.0606
  C  C2107  1  0.124000  0.699540  0.699540  1.0  0.7564
  C  C2108  1  0.122700  0.726180  0.726180  1.0  -0.0606
  C  C2109  1  0.624000  0.199540  0.699540  1.0  0.7564
  C  C2110  1  0.622700  0.226180  0.726180  1.0  -0.0606
  C  C2111  1  0.624000  0.699540  0.199540  1.0  0.7564
  C  C2112  1  0.622700  0.726180  0.226180  1.0  -0.0606
  C  C2113  1  0.876000  0.199540  0.800460  1.0  0.7562
  C  C2114  1  0.877300  0.226180  0.773820  1.0  -0.0597
  C  C2115  1  0.876000  0.699540  0.300460  1.0  0.7562
  C  C2116  1  0.877300  0.726180  0.273820  1.0  -0.0597
  C  C2117  1  0.376000  0.199540  0.300460  1.0  0.7562
  C  C2118  1  0.377300  0.226180  0.273820  1.0  -0.0597
  C  C2119  1  0.376000  0.699540  0.800460  1.0  0.7562
  C  C2120  1  0.377300  0.726180  0.773820  1.0  -0.0597
  C  C2121  1  0.124000  0.800460  0.800460  1.0  0.7577
  C  C2122  1  0.122700  0.773820  0.773820  1.0  -0.0605
  C  C2123  1  0.124000  0.300460  0.300460  1.0  0.7577
  C  C2124  1  0.122700  0.273820  0.273820  1.0  -0.0605
  C  C2125  1  0.624000  0.800460  0.300460  1.0  0.7577
  C  C2126  1  0.622700  0.773820  0.273820  1.0  -0.0605
  C  C2127  1  0.624000  0.300460  0.800460  1.0  0.7577
  C  C2128  1  0.622700  0.273820  0.773820  1.0  -0.0605
  C  C2129  1  0.876000  0.800460  0.199540  1.0  0.7566
  C  C2130  1  0.877300  0.773820  0.226180  1.0  -0.0603
  C  C2131  1  0.876000  0.300460  0.699540  1.0  0.7566
  C  C2132  1  0.877300  0.273820  0.726180  1.0  -0.0603
  C  C2133  1  0.376000  0.800460  0.699540  1.0  0.7566
  C  C2134  1  0.377300  0.773820  0.726180  1.0  -0.0603
  C  C2135  1  0.376000  0.300460  0.199540  1.0  0.7566
  C  C2136  1  0.377300  0.273820  0.226180  1.0  -0.0603
  C  C2137  1  0.124000  0.199540  0.800460  1.0  0.7567
  C  C2138  1  0.122700  0.226180  0.773820  1.0  -0.0602
  C  C2139  1  0.124000  0.699540  0.300460  1.0  0.7567
  C  C2140  1  0.122700  0.726180  0.273820  1.0  -0.0602
  C  C2141  1  0.624000  0.199540  0.300460  1.0  0.7567
  C  C2142  1  0.622700  0.226180  0.273820  1.0  -0.0602
  C  C2143  1  0.624000  0.699540  0.800460  1.0  0.7567
  C  C2144  1  0.622700  0.726180  0.773820  1.0  -0.0602
  C  C2145  1  0.876000  0.800460  0.800460  1.0  0.7571
  C  C2146  1  0.877300  0.773820  0.773820  1.0  -0.06
  C  C2147  1  0.876000  0.300460  0.300460  1.0  0.7571
  C  C2148  1  0.877300  0.273820  0.273820  1.0  -0.06
  C  C2149  1  0.376000  0.800460  0.300460  1.0  0.7571
  C  C2150  1  0.377300  0.773820  0.273820  1.0  -0.06
  C  C2151  1  0.376000  0.300460  0.800460  1.0  0.7571
  C  C2152  1  0.377300  0.273820  0.773820  1.0  -0.06
  C  C2153  1  0.124000  0.800460  0.199540  1.0  0.7573
  C  C2154  1  0.122700  0.773820  0.226180  1.0  -0.0613
  C  C2155  1  0.124000  0.300460  0.699540  1.0  0.7573
  C  C2156  1  0.122700  0.273820  0.726180  1.0  -0.0613
  C  C2157  1  0.624000  0.800460  0.699540  1.0  0.7573
  C  C2158  1  0.622700  0.773820  0.726180  1.0  -0.0613
  C  C2159  1  0.624000  0.300460  0.199540  1.0  0.7573
  C  C2160  1  0.622700  0.273820  0.226180  1.0  -0.0613
  C  C2161  1  0.876000  0.199540  0.199540  1.0  0.7558
  C  C2162  1  0.877300  0.226180  0.226180  1.0  -0.0596
  C  C2163  1  0.876000  0.699540  0.699540  1.0  0.7558
  C  C2164  1  0.877300  0.726180  0.726180  1.0  -0.0596
  C  C2165  1  0.376000  0.199540  0.699540  1.0  0.7558
  C  C2166  1  0.377300  0.226180  0.726180  1.0  -0.0596
  C  C2167  1  0.376000  0.699540  0.199540  1.0  0.7558
  C  C2168  1  0.377300  0.726180  0.226180  1.0  -0.0596
  C  C2169  1  0.199540  0.199540  0.876000  1.0  0.7567
  C  C2170  1  0.226180  0.226180  0.877300  1.0  -0.0603
  C  C2171  1  0.199540  0.699540  0.376000  1.0  0.7567
  C  C2172  1  0.226180  0.726180  0.377300  1.0  -0.0603
  C  C2173  1  0.699540  0.199540  0.376000  1.0  0.7567
  C  C2174  1  0.726180  0.226180  0.377300  1.0  -0.0603
  C  C2175  1  0.699540  0.699540  0.876000  1.0  0.7567
  C  C2176  1  0.726180  0.726180  0.877300  1.0  -0.0603
  C  C2177  1  0.800460  0.199540  0.124000  1.0  0.7546
  C  C2178  1  0.773820  0.226180  0.122700  1.0  -0.0598
  C  C2179  1  0.800460  0.699540  0.624000  1.0  0.7546
  C  C2180  1  0.773820  0.726180  0.622700  1.0  -0.0598
  C  C2181  1  0.300460  0.199540  0.624000  1.0  0.7546
  C  C2182  1  0.273820  0.226180  0.622700  1.0  -0.0598
  C  C2183  1  0.300460  0.699540  0.124000  1.0  0.7546
  C  C2184  1  0.273820  0.726180  0.122700  1.0  -0.0598
  C  C2185  1  0.800460  0.800460  0.876000  1.0  0.756
  C  C2186  1  0.773820  0.773820  0.877300  1.0  -0.0609
  C  C2187  1  0.800460  0.300460  0.376000  1.0  0.756
  C  C2188  1  0.773820  0.273820  0.377300  1.0  -0.0609
  C  C2189  1  0.300460  0.800460  0.376000  1.0  0.756
  C  C2190  1  0.273820  0.773820  0.377300  1.0  -0.0609
  C  C2191  1  0.300460  0.300460  0.876000  1.0  0.756
  C  C2192  1  0.273820  0.273820  0.877300  1.0  -0.0609
  C  C2193  1  0.199540  0.800460  0.124000  1.0  0.7576
  C  C2194  1  0.226180  0.773820  0.122700  1.0  -0.0608
  C  C2195  1  0.199540  0.300460  0.624000  1.0  0.7576
  C  C2196  1  0.226180  0.273820  0.622700  1.0  -0.0608
  C  C2197  1  0.699540  0.800460  0.624000  1.0  0.7576
  C  C2198  1  0.726180  0.773820  0.622700  1.0  -0.0608
  C  C2199  1  0.699540  0.300460  0.124000  1.0  0.7576
  C  C2200  1  0.726180  0.273820  0.122700  1.0  -0.0608
  C  C2201  1  0.199540  0.124000  0.800460  1.0  0.7578
  C  C2202  1  0.226180  0.122700  0.773820  1.0  -0.0616
  C  C2203  1  0.199540  0.624000  0.300460  1.0  0.7578
  C  C2204  1  0.226180  0.622700  0.273820  1.0  -0.0616
  C  C2205  1  0.699540  0.124000  0.300460  1.0  0.7578
  C  C2206  1  0.726180  0.122700  0.273820  1.0  -0.0616
  C  C2207  1  0.699540  0.624000  0.800460  1.0  0.7578
  C  C2208  1  0.726180  0.622700  0.773820  1.0  -0.0616
  C  C2209  1  0.199540  0.876000  0.199540  1.0  0.7567
  C  C2210  1  0.226180  0.877300  0.226180  1.0  -0.0615
  C  C2211  1  0.199540  0.376000  0.699540  1.0  0.7567
  C  C2212  1  0.226180  0.377300  0.726180  1.0  -0.0615
  C  C2213  1  0.699540  0.876000  0.699540  1.0  0.7567
  C  C2214  1  0.726180  0.877300  0.726180  1.0  -0.0615
  C  C2215  1  0.699540  0.376000  0.199540  1.0  0.7567
  C  C2216  1  0.726180  0.377300  0.226180  1.0  -0.0615
  C  C2217  1  0.800460  0.124000  0.199540  1.0  0.7555
  C  C2218  1  0.773820  0.122700  0.226180  1.0  -0.0619
  C  C2219  1  0.800460  0.624000  0.699540  1.0  0.7555
  C  C2220  1  0.773820  0.622700  0.726180  1.0  -0.0619
  C  C2221  1  0.300460  0.124000  0.699540  1.0  0.7555
  C  C2222  1  0.273820  0.122700  0.726180  1.0  -0.0619
  C  C2223  1  0.300460  0.624000  0.199540  1.0  0.7555
  C  C2224  1  0.273820  0.622700  0.226180  1.0  -0.0619
  C  C2225  1  0.800460  0.876000  0.800460  1.0  0.7555
  C  C2226  1  0.773820  0.877300  0.773820  1.0  -0.0612
  C  C2227  1  0.800460  0.376000  0.300460  1.0  0.7555
  C  C2228  1  0.773820  0.377300  0.273820  1.0  -0.0612
  C  C2229  1  0.300460  0.876000  0.300460  1.0  0.7555
  C  C2230  1  0.273820  0.877300  0.273820  1.0  -0.0612
  C  C2231  1  0.300460  0.376000  0.800460  1.0  0.7555
  C  C2232  1  0.273820  0.377300  0.773820  1.0  -0.0612
  N  N2233  1  0.229100  0.108400  0.108400  1.0  -0.3292
  N  N2234  1  0.229100  0.608400  0.608400  1.0  -0.3292
  N  N2235  1  0.729100  0.108400  0.608400  1.0  -0.3292
  N  N2236  1  0.729100  0.608400  0.108400  1.0  -0.3292
  N  N2237  1  0.770900  0.891600  0.108400  1.0  -0.327
  N  N2238  1  0.770900  0.391600  0.608400  1.0  -0.327
  N  N2239  1  0.270900  0.891600  0.608400  1.0  -0.327
  N  N2240  1  0.270900  0.391600  0.108400  1.0  -0.327
  N  N2241  1  0.770900  0.108400  0.891600  1.0  -0.3263
  N  N2242  1  0.770900  0.608400  0.391600  1.0  -0.3263
  N  N2243  1  0.270900  0.108400  0.391600  1.0  -0.3263
  N  N2244  1  0.270900  0.608400  0.891600  1.0  -0.3263
  N  N2245  1  0.229100  0.891600  0.891600  1.0  -0.3282
  N  N2246  1  0.229100  0.391600  0.391600  1.0  -0.3282
  N  N2247  1  0.729100  0.891600  0.391600  1.0  -0.3282
  N  N2248  1  0.729100  0.391600  0.891600  1.0  -0.3282
  N  N2249  1  0.108400  0.229100  0.108400  1.0  -0.329
  N  N2250  1  0.108400  0.729100  0.608400  1.0  -0.329
  N  N2251  1  0.608400  0.229100  0.608400  1.0  -0.329
  N  N2252  1  0.608400  0.729100  0.108400  1.0  -0.329
  N  N2253  1  0.108400  0.770900  0.891600  1.0  -0.3277
  N  N2254  1  0.108400  0.270900  0.391600  1.0  -0.3277
  N  N2255  1  0.608400  0.770900  0.391600  1.0  -0.3277
  N  N2256  1  0.608400  0.270900  0.891600  1.0  -0.3277
  N  N2257  1  0.891600  0.770900  0.108400  1.0  -0.329
  N  N2258  1  0.891600  0.270900  0.608400  1.0  -0.329
  N  N2259  1  0.391600  0.770900  0.608400  1.0  -0.329
  N  N2260  1  0.391600  0.270900  0.108400  1.0  -0.329
  N  N2261  1  0.891600  0.229100  0.891600  1.0  -0.3281
  N  N2262  1  0.891600  0.729100  0.391600  1.0  -0.3281
  N  N2263  1  0.391600  0.229100  0.391600  1.0  -0.3281
  N  N2264  1  0.391600  0.729100  0.891600  1.0  -0.3281
  N  N2265  1  0.108400  0.108400  0.229100  1.0  -0.3284
  N  N2266  1  0.108400  0.608400  0.729100  1.0  -0.3284
  N  N2267  1  0.608400  0.108400  0.729100  1.0  -0.3284
  N  N2268  1  0.608400  0.608400  0.229100  1.0  -0.3284
  N  N2269  1  0.891600  0.108400  0.770900  1.0  -0.3294
  N  N2270  1  0.891600  0.608400  0.270900  1.0  -0.3294
  N  N2271  1  0.391600  0.108400  0.270900  1.0  -0.3294
  N  N2272  1  0.391600  0.608400  0.770900  1.0  -0.3294
  N  N2273  1  0.108400  0.891600  0.770900  1.0  -0.3287
  N  N2274  1  0.108400  0.391600  0.270900  1.0  -0.3287
  N  N2275  1  0.608400  0.891600  0.270900  1.0  -0.3287
  N  N2276  1  0.608400  0.391600  0.770900  1.0  -0.3287
  N  N2277  1  0.891600  0.891600  0.229100  1.0  -0.3286
  N  N2278  1  0.891600  0.391600  0.729100  1.0  -0.3286
  N  N2279  1  0.391600  0.891600  0.729100  1.0  -0.3286
  N  N2280  1  0.391600  0.391600  0.229100  1.0  -0.3286
  N  N2281  1  0.108400  0.229100  0.891600  1.0  -0.3284
  N  N2282  1  0.108400  0.729100  0.391600  1.0  -0.3284
  N  N2283  1  0.608400  0.229100  0.391600  1.0  -0.3284
  N  N2284  1  0.608400  0.729100  0.891600  1.0  -0.3284
  N  N2285  1  0.891600  0.770900  0.891600  1.0  -0.3278
  N  N2286  1  0.891600  0.270900  0.391600  1.0  -0.3278
  N  N2287  1  0.391600  0.770900  0.391600  1.0  -0.3278
  N  N2288  1  0.391600  0.270900  0.891600  1.0  -0.3278
  N  N2289  1  0.108400  0.770900  0.108400  1.0  -0.3285
  N  N2290  1  0.108400  0.270900  0.608400  1.0  -0.3285
  N  N2291  1  0.608400  0.770900  0.608400  1.0  -0.3285
  N  N2292  1  0.608400  0.270900  0.108400  1.0  -0.3285
  N  N2293  1  0.891600  0.229100  0.108400  1.0  -0.3288
  N  N2294  1  0.891600  0.729100  0.608400  1.0  -0.3288
  N  N2295  1  0.391600  0.229100  0.608400  1.0  -0.3288
  N  N2296  1  0.391600  0.729100  0.108400  1.0  -0.3288
  N  N2297  1  0.229100  0.108400  0.891600  1.0  -0.3283
  N  N2298  1  0.229100  0.608400  0.391600  1.0  -0.3283
  N  N2299  1  0.729100  0.108400  0.391600  1.0  -0.3283
  N  N2300  1  0.729100  0.608400  0.891600  1.0  -0.3283
  N  N2301  1  0.770900  0.108400  0.108400  1.0  -0.327
  N  N2302  1  0.770900  0.608400  0.608400  1.0  -0.327
  N  N2303  1  0.270900  0.108400  0.608400  1.0  -0.327
  N  N2304  1  0.270900  0.608400  0.108400  1.0  -0.327
  N  N2305  1  0.770900  0.891600  0.891600  1.0  -0.3265
  N  N2306  1  0.770900  0.391600  0.391600  1.0  -0.3265
  N  N2307  1  0.270900  0.891600  0.391600  1.0  -0.3265
  N  N2308  1  0.270900  0.391600  0.891600  1.0  -0.3265
  N  N2309  1  0.229100  0.891600  0.108400  1.0  -0.329
  N  N2310  1  0.229100  0.391600  0.608400  1.0  -0.329
  N  N2311  1  0.729100  0.891600  0.608400  1.0  -0.329
  N  N2312  1  0.729100  0.391600  0.108400  1.0  -0.329
  N  N2313  1  0.108400  0.108400  0.770900  1.0  -0.3291
  N  N2314  1  0.108400  0.608400  0.270900  1.0  -0.3291
  N  N2315  1  0.608400  0.108400  0.270900  1.0  -0.3291
  N  N2316  1  0.608400  0.608400  0.770900  1.0  -0.3291
  N  N2317  1  0.108400  0.891600  0.229100  1.0  -0.3287
  N  N2318  1  0.108400  0.391600  0.729100  1.0  -0.3287
  N  N2319  1  0.608400  0.891600  0.729100  1.0  -0.3287
  N  N2320  1  0.608400  0.391600  0.229100  1.0  -0.3287
  N  N2321  1  0.891600  0.108400  0.229100  1.0  -0.3282
  N  N2322  1  0.891600  0.608400  0.729100  1.0  -0.3282
  N  N2323  1  0.391600  0.108400  0.729100  1.0  -0.3282
  N  N2324  1  0.391600  0.608400  0.229100  1.0  -0.3282
  N  N2325  1  0.891600  0.891600  0.770900  1.0  -0.329
  N  N2326  1  0.891600  0.391600  0.270900  1.0  -0.329
  N  N2327  1  0.391600  0.891600  0.270900  1.0  -0.329
  N  N2328  1  0.391600  0.391600  0.770900  1.0  -0.329
  O  O2329  1  0.170050  0.132080  0.083370  1.0  -0.6137
  O  O2330  1  0.209800  0.124060  0.172640  1.0  -0.5636
  O  O2331  1  0.170050  0.632080  0.583370  1.0  -0.6137
  O  O2332  1  0.209800  0.624060  0.672640  1.0  -0.5636
  O  O2333  1  0.670050  0.132080  0.583370  1.0  -0.6137
  O  O2334  1  0.709800  0.124060  0.672640  1.0  -0.5636
  O  O2335  1  0.670050  0.632080  0.083370  1.0  -0.6137
  O  O2336  1  0.709800  0.624060  0.172640  1.0  -0.5636
  O  O2337  1  0.829950  0.867920  0.083370  1.0  -0.6146
  O  O2338  1  0.790200  0.875940  0.172640  1.0  -0.5635
  O  O2339  1  0.829950  0.367920  0.583370  1.0  -0.6146
  O  O2340  1  0.790200  0.375940  0.672640  1.0  -0.5635
  O  O2341  1  0.329950  0.867920  0.583370  1.0  -0.6146
  O  O2342  1  0.290200  0.875940  0.672640  1.0  -0.5635
  O  O2343  1  0.329950  0.367920  0.083370  1.0  -0.6146
  O  O2344  1  0.290200  0.375940  0.172640  1.0  -0.5635
  O  O2345  1  0.829950  0.132080  0.916630  1.0  -0.6132
  O  O2346  1  0.790200  0.124060  0.827360  1.0  -0.5638
  O  O2347  1  0.829950  0.632080  0.416630  1.0  -0.6132
  O  O2348  1  0.790200  0.624060  0.327360  1.0  -0.5638
  O  O2349  1  0.329950  0.132080  0.416630  1.0  -0.6132
  O  O2350  1  0.290200  0.124060  0.327360  1.0  -0.5638
  O  O2351  1  0.329950  0.632080  0.916630  1.0  -0.6132
  O  O2352  1  0.290200  0.624060  0.827360  1.0  -0.5638
  O  O2353  1  0.170050  0.867920  0.916630  1.0  -0.6141
  O  O2354  1  0.209800  0.875940  0.827360  1.0  -0.5632
  O  O2355  1  0.170050  0.367920  0.416630  1.0  -0.6141
  O  O2356  1  0.209800  0.375940  0.327360  1.0  -0.5632
  O  O2357  1  0.670050  0.867920  0.416630  1.0  -0.6141
  O  O2358  1  0.709800  0.875940  0.327360  1.0  -0.5632
  O  O2359  1  0.670050  0.367920  0.916630  1.0  -0.6141
  O  O2360  1  0.709800  0.375940  0.827360  1.0  -0.5632
  O  O2361  1  0.083370  0.170050  0.132080  1.0  -0.6138
  O  O2362  1  0.172640  0.209800  0.124060  1.0  -0.5641
  O  O2363  1  0.083370  0.670050  0.632080  1.0  -0.6138
  O  O2364  1  0.172640  0.709800  0.624060  1.0  -0.5641
  O  O2365  1  0.583370  0.170050  0.632080  1.0  -0.6138
  O  O2366  1  0.672640  0.209800  0.624060  1.0  -0.5641
  O  O2367  1  0.583370  0.670050  0.132080  1.0  -0.6138
  O  O2368  1  0.672640  0.709800  0.124060  1.0  -0.5641
  O  O2369  1  0.083370  0.829950  0.867920  1.0  -0.615
  O  O2370  1  0.172640  0.790200  0.875940  1.0  -0.5647
  O  O2371  1  0.083370  0.329950  0.367920  1.0  -0.615
  O  O2372  1  0.172640  0.290200  0.375940  1.0  -0.5647
  O  O2373  1  0.583370  0.829950  0.367920  1.0  -0.615
  O  O2374  1  0.672640  0.790200  0.375940  1.0  -0.5647
  O  O2375  1  0.583370  0.329950  0.867920  1.0  -0.615
  O  O2376  1  0.672640  0.290200  0.875940  1.0  -0.5647
  O  O2377  1  0.916630  0.829950  0.132080  1.0  -0.6135
  O  O2378  1  0.827360  0.790200  0.124060  1.0  -0.5655
  O  O2379  1  0.916630  0.329950  0.632080  1.0  -0.6135
  O  O2380  1  0.827360  0.290200  0.624060  1.0  -0.5655
  O  O2381  1  0.416630  0.829950  0.632080  1.0  -0.6135
  O  O2382  1  0.327360  0.790200  0.624060  1.0  -0.5655
  O  O2383  1  0.416630  0.329950  0.132080  1.0  -0.6135
  O  O2384  1  0.327360  0.290200  0.124060  1.0  -0.5655
  O  O2385  1  0.916630  0.170050  0.867920  1.0  -0.6151
  O  O2386  1  0.827360  0.209800  0.875940  1.0  -0.566
  O  O2387  1  0.916630  0.670050  0.367920  1.0  -0.6151
  O  O2388  1  0.827360  0.709800  0.375940  1.0  -0.566
  O  O2389  1  0.416630  0.170050  0.367920  1.0  -0.6151
  O  O2390  1  0.327360  0.209800  0.375940  1.0  -0.566
  O  O2391  1  0.416630  0.670050  0.867920  1.0  -0.6151
  O  O2392  1  0.327360  0.709800  0.875940  1.0  -0.566
  O  O2393  1  0.132080  0.083370  0.170050  1.0  -0.6158
  O  O2394  1  0.124060  0.172640  0.209800  1.0  -0.5645
  O  O2395  1  0.132080  0.583370  0.670050  1.0  -0.6158
  O  O2396  1  0.124060  0.672640  0.709800  1.0  -0.5645
  O  O2397  1  0.632080  0.083370  0.670050  1.0  -0.6158
  O  O2398  1  0.624060  0.172640  0.709800  1.0  -0.5645
  O  O2399  1  0.632080  0.583370  0.170050  1.0  -0.6158
  O  O2400  1  0.624060  0.672640  0.209800  1.0  -0.5645
  O  O2401  1  0.867920  0.083370  0.829950  1.0  -0.6134
  O  O2402  1  0.875940  0.172640  0.790200  1.0  -0.5637
  O  O2403  1  0.867920  0.583370  0.329950  1.0  -0.6134
  O  O2404  1  0.875940  0.672640  0.290200  1.0  -0.5637
  O  O2405  1  0.367920  0.083370  0.329950  1.0  -0.6134
  O  O2406  1  0.375940  0.172640  0.290200  1.0  -0.5637
  O  O2407  1  0.367920  0.583370  0.829950  1.0  -0.6134
  O  O2408  1  0.375940  0.672640  0.790200  1.0  -0.5637
  O  O2409  1  0.132080  0.916630  0.829950  1.0  -0.613
  O  O2410  1  0.124060  0.827360  0.790200  1.0  -0.5656
  O  O2411  1  0.132080  0.416630  0.329950  1.0  -0.613
  O  O2412  1  0.124060  0.327360  0.290200  1.0  -0.5656
  O  O2413  1  0.632080  0.916630  0.329950  1.0  -0.613
  O  O2414  1  0.624060  0.827360  0.290200  1.0  -0.5656
  O  O2415  1  0.632080  0.416630  0.829950  1.0  -0.613
  O  O2416  1  0.624060  0.327360  0.790200  1.0  -0.5656
  O  O2417  1  0.867920  0.916630  0.170050  1.0  -0.6143
  O  O2418  1  0.875940  0.827360  0.209800  1.0  -0.5652
  O  O2419  1  0.867920  0.416630  0.670050  1.0  -0.6143
  O  O2420  1  0.875940  0.327360  0.709800  1.0  -0.5652
  O  O2421  1  0.367920  0.916630  0.670050  1.0  -0.6143
  O  O2422  1  0.375940  0.827360  0.709800  1.0  -0.5652
  O  O2423  1  0.367920  0.416630  0.170050  1.0  -0.6143
  O  O2424  1  0.375940  0.327360  0.209800  1.0  -0.5652
  O  O2425  1  0.132080  0.170050  0.916630  1.0  -0.6152
  O  O2426  1  0.124060  0.209800  0.827360  1.0  -0.5651
  O  O2427  1  0.132080  0.670050  0.416630  1.0  -0.6152
  O  O2428  1  0.124060  0.709800  0.327360  1.0  -0.5651
  O  O2429  1  0.632080  0.170050  0.416630  1.0  -0.6152
  O  O2430  1  0.624060  0.209800  0.327360  1.0  -0.5651
  O  O2431  1  0.632080  0.670050  0.916630  1.0  -0.6152
  O  O2432  1  0.624060  0.709800  0.827360  1.0  -0.5651
  O  O2433  1  0.867920  0.829950  0.916630  1.0  -0.615
  O  O2434  1  0.875940  0.790200  0.827360  1.0  -0.5644
  O  O2435  1  0.867920  0.329950  0.416630  1.0  -0.615
  O  O2436  1  0.875940  0.290200  0.327360  1.0  -0.5644
  O  O2437  1  0.367920  0.829950  0.416630  1.0  -0.615
  O  O2438  1  0.375940  0.790200  0.327360  1.0  -0.5644
  O  O2439  1  0.367920  0.329950  0.916630  1.0  -0.615
  O  O2440  1  0.375940  0.290200  0.827360  1.0  -0.5644
  O  O2441  1  0.132080  0.829950  0.083370  1.0  -0.6148
  O  O2442  1  0.124060  0.790200  0.172640  1.0  -0.5651
  O  O2443  1  0.132080  0.329950  0.583370  1.0  -0.6148
  O  O2444  1  0.124060  0.290200  0.672640  1.0  -0.5651
  O  O2445  1  0.632080  0.829950  0.583370  1.0  -0.6148
  O  O2446  1  0.624060  0.790200  0.672640  1.0  -0.5651
  O  O2447  1  0.632080  0.329950  0.083370  1.0  -0.6148
  O  O2448  1  0.624060  0.290200  0.172640  1.0  -0.5651
  O  O2449  1  0.867920  0.170050  0.083370  1.0  -0.6144
  O  O2450  1  0.875940  0.209800  0.172640  1.0  -0.5645
  O  O2451  1  0.867920  0.670050  0.583370  1.0  -0.6144
  O  O2452  1  0.875940  0.709800  0.672640  1.0  -0.5645
  O  O2453  1  0.367920  0.170050  0.583370  1.0  -0.6144
  O  O2454  1  0.375940  0.209800  0.672640  1.0  -0.5645
  O  O2455  1  0.367920  0.670050  0.083370  1.0  -0.6144
  O  O2456  1  0.375940  0.709800  0.172640  1.0  -0.5645
  O  O2457  1  0.170050  0.083370  0.867920  1.0  -0.613
  O  O2458  1  0.209800  0.172640  0.875940  1.0  -0.5638
  O  O2459  1  0.170050  0.583370  0.367920  1.0  -0.613
  O  O2460  1  0.209800  0.672640  0.375940  1.0  -0.5638
  O  O2461  1  0.670050  0.083370  0.367920  1.0  -0.613
  O  O2462  1  0.709800  0.172640  0.375940  1.0  -0.5638
  O  O2463  1  0.670050  0.583370  0.867920  1.0  -0.613
  O  O2464  1  0.709800  0.672640  0.875940  1.0  -0.5638
  O  O2465  1  0.829950  0.083370  0.132080  1.0  -0.6118
  O  O2466  1  0.790200  0.172640  0.124060  1.0  -0.5638
  O  O2467  1  0.829950  0.583370  0.632080  1.0  -0.6118
  O  O2468  1  0.790200  0.672640  0.624060  1.0  -0.5638
  O  O2469  1  0.329950  0.083370  0.632080  1.0  -0.6118
  O  O2470  1  0.290200  0.172640  0.624060  1.0  -0.5638
  O  O2471  1  0.329950  0.583370  0.132080  1.0  -0.6118
  O  O2472  1  0.290200  0.672640  0.124060  1.0  -0.5638
  O  O2473  1  0.829950  0.916630  0.867920  1.0  -0.6125
  O  O2474  1  0.790200  0.827360  0.875940  1.0  -0.5653
  O  O2475  1  0.829950  0.416630  0.367920  1.0  -0.6125
  O  O2476  1  0.790200  0.327360  0.375940  1.0  -0.5653
  O  O2477  1  0.329950  0.916630  0.367920  1.0  -0.6125
  O  O2478  1  0.290200  0.827360  0.375940  1.0  -0.5653
  O  O2479  1  0.329950  0.416630  0.867920  1.0  -0.6125
  O  O2480  1  0.290200  0.327360  0.875940  1.0  -0.5653
  O  O2481  1  0.170050  0.916630  0.132080  1.0  -0.6109
  O  O2482  1  0.209800  0.827360  0.124060  1.0  -0.565
  O  O2483  1  0.170050  0.416630  0.632080  1.0  -0.6109
  O  O2484  1  0.209800  0.327360  0.624060  1.0  -0.565
  O  O2485  1  0.670050  0.916630  0.632080  1.0  -0.6109
  O  O2486  1  0.709800  0.827360  0.624060  1.0  -0.565
  O  O2487  1  0.670050  0.416630  0.132080  1.0  -0.6109
  O  O2488  1  0.709800  0.327360  0.124060  1.0  -0.565
  O  O2489  1  0.083370  0.132080  0.829950  1.0  -0.6144
  O  O2490  1  0.172640  0.124060  0.790200  1.0  -0.5631
  O  O2491  1  0.083370  0.632080  0.329950  1.0  -0.6144
  O  O2492  1  0.172640  0.624060  0.290200  1.0  -0.5631
  O  O2493  1  0.583370  0.132080  0.329950  1.0  -0.6144
  O  O2494  1  0.672640  0.124060  0.290200  1.0  -0.5631
  O  O2495  1  0.583370  0.632080  0.829950  1.0  -0.6144
  O  O2496  1  0.672640  0.624060  0.790200  1.0  -0.5631
  O  O2497  1  0.083370  0.867920  0.170050  1.0  -0.6163
  O  O2498  1  0.172640  0.875940  0.209800  1.0  -0.5635
  O  O2499  1  0.083370  0.367920  0.670050  1.0  -0.6163
  O  O2500  1  0.172640  0.375940  0.709800  1.0  -0.5635
  O  O2501  1  0.583370  0.867920  0.670050  1.0  -0.6163
  O  O2502  1  0.672640  0.875940  0.709800  1.0  -0.5635
  O  O2503  1  0.583370  0.367920  0.170050  1.0  -0.6163
  O  O2504  1  0.672640  0.375940  0.209800  1.0  -0.5635
  O  O2505  1  0.916630  0.132080  0.170050  1.0  -0.6157
  O  O2506  1  0.827360  0.124060  0.209800  1.0  -0.5647
  O  O2507  1  0.916630  0.632080  0.670050  1.0  -0.6157
  O  O2508  1  0.827360  0.624060  0.709800  1.0  -0.5647
  O  O2509  1  0.416630  0.132080  0.670050  1.0  -0.6157
  O  O2510  1  0.327360  0.124060  0.709800  1.0  -0.5647
  O  O2511  1  0.416630  0.632080  0.170050  1.0  -0.6157
  O  O2512  1  0.327360  0.624060  0.209800  1.0  -0.5647
  O  O2513  1  0.916630  0.867920  0.829950  1.0  -0.6151
  O  O2514  1  0.827360  0.875940  0.790200  1.0  -0.5646
  O  O2515  1  0.916630  0.367920  0.329950  1.0  -0.6151
  O  O2516  1  0.827360  0.375940  0.290200  1.0  -0.5646
  O  O2517  1  0.416630  0.867920  0.329950  1.0  -0.6151
  O  O2518  1  0.327360  0.875940  0.290200  1.0  -0.5646
  O  O2519  1  0.416630  0.367920  0.829950  1.0  -0.6151
  O  O2520  1  0.327360  0.375940  0.790200  1.0  -0.5646
  O  O2521  1  0.829950  0.867920  0.916630  1.0  -0.6143
  O  O2522  1  0.790200  0.875940  0.827360  1.0  -0.5637
  O  O2523  1  0.829950  0.367920  0.416630  1.0  -0.6143
  O  O2524  1  0.790200  0.375940  0.327360  1.0  -0.5637
  O  O2525  1  0.329950  0.867920  0.416630  1.0  -0.6143
  O  O2526  1  0.290200  0.875940  0.327360  1.0  -0.5637
  O  O2527  1  0.329950  0.367920  0.916630  1.0  -0.6143
  O  O2528  1  0.290200  0.375940  0.827360  1.0  -0.5637
  O  O2529  1  0.170050  0.132080  0.916630  1.0  -0.6132
  O  O2530  1  0.209800  0.124060  0.827360  1.0  -0.5633
  O  O2531  1  0.170050  0.632080  0.416630  1.0  -0.6132
  O  O2532  1  0.209800  0.624060  0.327360  1.0  -0.5633
  O  O2533  1  0.670050  0.132080  0.416630  1.0  -0.6132
  O  O2534  1  0.709800  0.124060  0.327360  1.0  -0.5633
  O  O2535  1  0.670050  0.632080  0.916630  1.0  -0.6132
  O  O2536  1  0.709800  0.624060  0.827360  1.0  -0.5633
  O  O2537  1  0.170050  0.867920  0.083370  1.0  -0.6142
  O  O2538  1  0.209800  0.875940  0.172640  1.0  -0.5636
  O  O2539  1  0.170050  0.367920  0.583370  1.0  -0.6142
  O  O2540  1  0.209800  0.375940  0.672640  1.0  -0.5636
  O  O2541  1  0.670050  0.867920  0.583370  1.0  -0.6142
  O  O2542  1  0.709800  0.875940  0.672640  1.0  -0.5636
  O  O2543  1  0.670050  0.367920  0.083370  1.0  -0.6142
  O  O2544  1  0.709800  0.375940  0.172640  1.0  -0.5636
  O  O2545  1  0.829950  0.132080  0.083370  1.0  -0.6138
  O  O2546  1  0.790200  0.124060  0.172640  1.0  -0.5635
  O  O2547  1  0.829950  0.632080  0.583370  1.0  -0.6138
  O  O2548  1  0.790200  0.624060  0.672640  1.0  -0.5635
  O  O2549  1  0.329950  0.132080  0.583370  1.0  -0.6138
  O  O2550  1  0.290200  0.124060  0.672640  1.0  -0.5635
  O  O2551  1  0.329950  0.632080  0.083370  1.0  -0.6138
  O  O2552  1  0.290200  0.624060  0.172640  1.0  -0.5635
  O  O2553  1  0.916630  0.829950  0.867920  1.0  -0.615
  O  O2554  1  0.827360  0.790200  0.875940  1.0  -0.5656
  O  O2555  1  0.916630  0.329950  0.367920  1.0  -0.615
  O  O2556  1  0.827360  0.290200  0.375940  1.0  -0.5656
  O  O2557  1  0.416630  0.829950  0.367920  1.0  -0.615
  O  O2558  1  0.327360  0.790200  0.375940  1.0  -0.5656
  O  O2559  1  0.416630  0.329950  0.867920  1.0  -0.615
  O  O2560  1  0.327360  0.290200  0.875940  1.0  -0.5656
  O  O2561  1  0.916630  0.170050  0.132080  1.0  -0.6139
  O  O2562  1  0.827360  0.209800  0.124060  1.0  -0.5658
  O  O2563  1  0.916630  0.670050  0.632080  1.0  -0.6139
  O  O2564  1  0.827360  0.709800  0.624060  1.0  -0.5658
  O  O2565  1  0.416630  0.170050  0.632080  1.0  -0.6139
  O  O2566  1  0.327360  0.209800  0.624060  1.0  -0.5658
  O  O2567  1  0.416630  0.670050  0.132080  1.0  -0.6139
  O  O2568  1  0.327360  0.709800  0.124060  1.0  -0.5658
  O  O2569  1  0.083370  0.170050  0.867920  1.0  -0.6149
  O  O2570  1  0.172640  0.209800  0.875940  1.0  -0.5643
  O  O2571  1  0.083370  0.670050  0.367920  1.0  -0.6149
  O  O2572  1  0.172640  0.709800  0.375940  1.0  -0.5643
  O  O2573  1  0.583370  0.170050  0.367920  1.0  -0.6149
  O  O2574  1  0.672640  0.209800  0.375940  1.0  -0.5643
  O  O2575  1  0.583370  0.670050  0.867920  1.0  -0.6149
  O  O2576  1  0.672640  0.709800  0.875940  1.0  -0.5643
  O  O2577  1  0.083370  0.829950  0.132080  1.0  -0.6136
  O  O2578  1  0.172640  0.790200  0.124060  1.0  -0.5645
  O  O2579  1  0.083370  0.329950  0.632080  1.0  -0.6136
  O  O2580  1  0.172640  0.290200  0.624060  1.0  -0.5645
  O  O2581  1  0.583370  0.829950  0.632080  1.0  -0.6136
  O  O2582  1  0.672640  0.790200  0.624060  1.0  -0.5645
  O  O2583  1  0.583370  0.329950  0.132080  1.0  -0.6136
  O  O2584  1  0.672640  0.290200  0.124060  1.0  -0.5645
  O  O2585  1  0.867920  0.916630  0.829950  1.0  -0.6129
  O  O2586  1  0.875940  0.827360  0.790200  1.0  -0.5652
  O  O2587  1  0.867920  0.416630  0.329950  1.0  -0.6129
  O  O2588  1  0.875940  0.327360  0.290200  1.0  -0.5652
  O  O2589  1  0.367920  0.916630  0.329950  1.0  -0.6129
  O  O2590  1  0.375940  0.827360  0.290200  1.0  -0.5652
  O  O2591  1  0.367920  0.416630  0.829950  1.0  -0.6129
  O  O2592  1  0.375940  0.327360  0.790200  1.0  -0.5652
  O  O2593  1  0.132080  0.916630  0.170050  1.0  -0.6146
  O  O2594  1  0.124060  0.827360  0.209800  1.0  -0.5656
  O  O2595  1  0.132080  0.416630  0.670050  1.0  -0.6146
  O  O2596  1  0.124060  0.327360  0.709800  1.0  -0.5656
  O  O2597  1  0.632080  0.916630  0.670050  1.0  -0.6146
  O  O2598  1  0.624060  0.827360  0.709800  1.0  -0.5656
  O  O2599  1  0.632080  0.416630  0.170050  1.0  -0.6146
  O  O2600  1  0.624060  0.327360  0.209800  1.0  -0.5656
  O  O2601  1  0.867920  0.083370  0.170050  1.0  -0.615
  O  O2602  1  0.875940  0.172640  0.209800  1.0  -0.5639
  O  O2603  1  0.867920  0.583370  0.670050  1.0  -0.615
  O  O2604  1  0.875940  0.672640  0.709800  1.0  -0.5639
  O  O2605  1  0.367920  0.083370  0.670050  1.0  -0.615
  O  O2606  1  0.375940  0.172640  0.709800  1.0  -0.5639
  O  O2607  1  0.367920  0.583370  0.170050  1.0  -0.615
  O  O2608  1  0.375940  0.672640  0.209800  1.0  -0.5639
  O  O2609  1  0.132080  0.083370  0.829950  1.0  -0.614
  O  O2610  1  0.124060  0.172640  0.790200  1.0  -0.5642
  O  O2611  1  0.132080  0.583370  0.329950  1.0  -0.614
  O  O2612  1  0.124060  0.672640  0.290200  1.0  -0.5642
  O  O2613  1  0.632080  0.083370  0.329950  1.0  -0.614
  O  O2614  1  0.624060  0.172640  0.290200  1.0  -0.5642
  O  O2615  1  0.632080  0.583370  0.829950  1.0  -0.614
  O  O2616  1  0.624060  0.672640  0.790200  1.0  -0.5642
  O  O2617  1  0.867920  0.829950  0.083370  1.0  -0.6147
  O  O2618  1  0.875940  0.790200  0.172640  1.0  -0.5645
  O  O2619  1  0.867920  0.329950  0.583370  1.0  -0.6147
  O  O2620  1  0.875940  0.290200  0.672640  1.0  -0.5645
  O  O2621  1  0.367920  0.829950  0.583370  1.0  -0.6147
  O  O2622  1  0.375940  0.790200  0.672640  1.0  -0.5645
  O  O2623  1  0.367920  0.329950  0.083370  1.0  -0.6147
  O  O2624  1  0.375940  0.290200  0.172640  1.0  -0.5645
  O  O2625  1  0.132080  0.170050  0.083370  1.0  -0.615
  O  O2626  1  0.124060  0.209800  0.172640  1.0  -0.565
  O  O2627  1  0.132080  0.670050  0.583370  1.0  -0.615
  O  O2628  1  0.124060  0.709800  0.672640  1.0  -0.565
  O  O2629  1  0.632080  0.170050  0.583370  1.0  -0.615
  O  O2630  1  0.624060  0.209800  0.672640  1.0  -0.565
  O  O2631  1  0.632080  0.670050  0.083370  1.0  -0.615
  O  O2632  1  0.624060  0.709800  0.172640  1.0  -0.565
  O  O2633  1  0.867920  0.170050  0.916630  1.0  -0.6148
  O  O2634  1  0.875940  0.209800  0.827360  1.0  -0.5642
  O  O2635  1  0.867920  0.670050  0.416630  1.0  -0.6148
  O  O2636  1  0.875940  0.709800  0.327360  1.0  -0.5642
  O  O2637  1  0.367920  0.170050  0.416630  1.0  -0.6148
  O  O2638  1  0.375940  0.209800  0.327360  1.0  -0.5642
  O  O2639  1  0.367920  0.670050  0.916630  1.0  -0.6148
  O  O2640  1  0.375940  0.709800  0.827360  1.0  -0.5642
  O  O2641  1  0.132080  0.829950  0.916630  1.0  -0.6151
  O  O2642  1  0.124060  0.790200  0.827360  1.0  -0.5653
  O  O2643  1  0.132080  0.329950  0.416630  1.0  -0.6151
  O  O2644  1  0.124060  0.290200  0.327360  1.0  -0.5653
  O  O2645  1  0.632080  0.829950  0.416630  1.0  -0.6151
  O  O2646  1  0.624060  0.790200  0.327360  1.0  -0.5653
  O  O2647  1  0.632080  0.329950  0.916630  1.0  -0.6151
  O  O2648  1  0.624060  0.290200  0.827360  1.0  -0.5653
  O  O2649  1  0.829950  0.916630  0.132080  1.0  -0.6105
  O  O2650  1  0.790200  0.827360  0.124060  1.0  -0.5652
  O  O2651  1  0.829950  0.416630  0.632080  1.0  -0.6105
  O  O2652  1  0.790200  0.327360  0.624060  1.0  -0.5652
  O  O2653  1  0.329950  0.916630  0.632080  1.0  -0.6105
  O  O2654  1  0.290200  0.827360  0.624060  1.0  -0.5652
  O  O2655  1  0.329950  0.416630  0.132080  1.0  -0.6105
  O  O2656  1  0.290200  0.327360  0.124060  1.0  -0.5652
  O  O2657  1  0.170050  0.916630  0.867920  1.0  -0.6125
  O  O2658  1  0.209800  0.827360  0.875940  1.0  -0.5652
  O  O2659  1  0.170050  0.416630  0.367920  1.0  -0.6125
  O  O2660  1  0.209800  0.327360  0.375940  1.0  -0.5652
  O  O2661  1  0.670050  0.916630  0.367920  1.0  -0.6125
  O  O2662  1  0.709800  0.827360  0.375940  1.0  -0.5652
  O  O2663  1  0.670050  0.416630  0.867920  1.0  -0.6125
  O  O2664  1  0.709800  0.327360  0.875940  1.0  -0.5652
  O  O2665  1  0.170050  0.083370  0.132080  1.0  -0.6115
  O  O2666  1  0.209800  0.172640  0.124060  1.0  -0.5635
  O  O2667  1  0.170050  0.583370  0.632080  1.0  -0.6115
  O  O2668  1  0.209800  0.672640  0.624060  1.0  -0.5635
  O  O2669  1  0.670050  0.083370  0.632080  1.0  -0.6115
  O  O2670  1  0.709800  0.172640  0.624060  1.0  -0.5635
  O  O2671  1  0.670050  0.583370  0.132080  1.0  -0.6115
  O  O2672  1  0.709800  0.672640  0.124060  1.0  -0.5635
  O  O2673  1  0.829950  0.083370  0.867920  1.0  -0.6133
  O  O2674  1  0.790200  0.172640  0.875940  1.0  -0.5641
  O  O2675  1  0.829950  0.583370  0.367920  1.0  -0.6133
  O  O2676  1  0.790200  0.672640  0.375940  1.0  -0.5641
  O  O2677  1  0.329950  0.083370  0.367920  1.0  -0.6133
  O  O2678  1  0.290200  0.172640  0.375940  1.0  -0.5641
  O  O2679  1  0.329950  0.583370  0.867920  1.0  -0.6133
  O  O2680  1  0.290200  0.672640  0.875940  1.0  -0.5641
  O  O2681  1  0.916630  0.867920  0.170050  1.0  -0.6165
  O  O2682  1  0.827360  0.875940  0.209800  1.0  -0.5648
  O  O2683  1  0.916630  0.367920  0.670050  1.0  -0.6165
  O  O2684  1  0.827360  0.375940  0.709800  1.0  -0.5648
  O  O2685  1  0.416630  0.867920  0.670050  1.0  -0.6165
  O  O2686  1  0.327360  0.875940  0.709800  1.0  -0.5648
  O  O2687  1  0.416630  0.367920  0.170050  1.0  -0.6165
  O  O2688  1  0.327360  0.375940  0.209800  1.0  -0.5648
  O  O2689  1  0.916630  0.132080  0.829950  1.0  -0.6142
  O  O2690  1  0.827360  0.124060  0.790200  1.0  -0.5647
  O  O2691  1  0.916630  0.632080  0.329950  1.0  -0.6142
  O  O2692  1  0.827360  0.624060  0.290200  1.0  -0.5647
  O  O2693  1  0.416630  0.132080  0.329950  1.0  -0.6142
  O  O2694  1  0.327360  0.124060  0.290200  1.0  -0.5647
  O  O2695  1  0.416630  0.632080  0.829950  1.0  -0.6142
  O  O2696  1  0.327360  0.624060  0.790200  1.0  -0.5647
  O  O2697  1  0.083370  0.867920  0.829950  1.0  -0.6154
  O  O2698  1  0.172640  0.875940  0.790200  1.0  -0.563
  O  O2699  1  0.083370  0.367920  0.329950  1.0  -0.6154
  O  O2700  1  0.172640  0.375940  0.290200  1.0  -0.563
  O  O2701  1  0.583370  0.867920  0.329950  1.0  -0.6154
  O  O2702  1  0.672640  0.875940  0.290200  1.0  -0.563
  O  O2703  1  0.583370  0.367920  0.829950  1.0  -0.6154
  O  O2704  1  0.672640  0.375940  0.790200  1.0  -0.563
  O  O2705  1  0.083370  0.132080  0.170050  1.0  -0.6154
  O  O2706  1  0.172640  0.124060  0.209800  1.0  -0.5635
  O  O2707  1  0.083370  0.632080  0.670050  1.0  -0.6154
  O  O2708  1  0.172640  0.624060  0.709800  1.0  -0.5635
  O  O2709  1  0.583370  0.132080  0.670050  1.0  -0.6154
  O  O2710  1  0.672640  0.124060  0.709800  1.0  -0.5635
  O  O2711  1  0.583370  0.632080  0.170050  1.0  -0.6154
  O  O2712  1  0.672640  0.624060  0.209800  1.0  -0.5635
  O  O2713  1  0.221900  0.037800  0.037800  1.0  -0.5137
  O  O2714  1  0.268900  0.033000  0.033000  1.0  -0.613
  O  O2715  1  0.221900  0.537800  0.537800  1.0  -0.5137
  O  O2716  1  0.268900  0.533000  0.533000  1.0  -0.613
  O  O2717  1  0.721900  0.037800  0.537800  1.0  -0.5137
  O  O2718  1  0.768900  0.033000  0.533000  1.0  -0.613
  O  O2719  1  0.721900  0.537800  0.037800  1.0  -0.5137
  O  O2720  1  0.768900  0.533000  0.033000  1.0  -0.613
  O  O2721  1  0.778100  0.962200  0.037800  1.0  -0.5098
  O  O2722  1  0.731100  0.967000  0.033000  1.0  -0.6154
  O  O2723  1  0.778100  0.462200  0.537800  1.0  -0.5098
  O  O2724  1  0.731100  0.467000  0.533000  1.0  -0.616
  O  O2725  1  0.278100  0.962200  0.537800  1.0  -0.5098
  O  O2726  1  0.231100  0.967000  0.533000  1.0  -0.616
  O  O2727  1  0.278100  0.462200  0.037800  1.0  -0.5098
  O  O2728  1  0.231100  0.467000  0.033000  1.0  -0.6154
  O  O2729  1  0.778100  0.037800  0.962200  1.0  -0.5133
  O  O2730  1  0.731100  0.033000  0.967000  1.0  -0.6154
  O  O2731  1  0.778100  0.537800  0.462200  1.0  -0.5133
  O  O2732  1  0.731100  0.533000  0.467000  1.0  -0.6154
  O  O2733  1  0.278100  0.037800  0.462200  1.0  -0.5133
  O  O2734  1  0.231100  0.033000  0.467000  1.0  -0.6154
  O  O2735  1  0.278100  0.537800  0.962200  1.0  -0.5133
  O  O2736  1  0.231100  0.533000  0.967000  1.0  -0.6154
  O  O2737  1  0.221900  0.962200  0.962200  1.0  -0.5128
  O  O2738  1  0.268900  0.967000  0.967000  1.0  -0.6131
  O  O2739  1  0.221900  0.462200  0.462200  1.0  -0.5128
  O  O2740  1  0.268900  0.467000  0.467000  1.0  -0.6131
  O  O2741  1  0.721900  0.962200  0.462200  1.0  -0.5128
  O  O2742  1  0.768900  0.967000  0.467000  1.0  -0.6131
  O  O2743  1  0.721900  0.462200  0.962200  1.0  -0.5128
  O  O2744  1  0.768900  0.467000  0.967000  1.0  -0.6131
  O  O2745  1  0.037800  0.221900  0.037800  1.0  -0.5039
  O  O2746  1  0.033000  0.268900  0.033000  1.0  -0.6189
  O  O2747  1  0.037800  0.721900  0.537800  1.0  -0.5039
  O  O2748  1  0.033000  0.768900  0.533000  1.0  -0.6189
  O  O2749  1  0.537800  0.221900  0.537800  1.0  -0.5039
  O  O2750  1  0.533000  0.268900  0.533000  1.0  -0.6189
  O  O2751  1  0.537800  0.721900  0.037800  1.0  -0.5039
  O  O2752  1  0.533000  0.768900  0.033000  1.0  -0.6189
  O  O2753  1  0.037800  0.778100  0.962200  1.0  -0.5063
  O  O2754  1  0.033000  0.731100  0.967000  1.0  -0.616
  O  O2755  1  0.037800  0.278100  0.462200  1.0  -0.5063
  O  O2756  1  0.033000  0.231100  0.467000  1.0  -0.616
  O  O2757  1  0.537800  0.778100  0.462200  1.0  -0.5063
  O  O2758  1  0.533000  0.731100  0.467000  1.0  -0.616
  O  O2759  1  0.537800  0.278100  0.962200  1.0  -0.5063
  O  O2760  1  0.533000  0.231100  0.967000  1.0  -0.616
  O  O2761  1  0.962200  0.778100  0.037800  1.0  -0.5053
  O  O2762  1  0.967000  0.731100  0.033000  1.0  -0.6153
  O  O2763  1  0.962200  0.278100  0.537800  1.0  -0.5053
  O  O2764  1  0.967000  0.231100  0.533000  1.0  -0.6158
  O  O2765  1  0.462200  0.778100  0.537800  1.0  -0.5053
  O  O2766  1  0.467000  0.731100  0.533000  1.0  -0.6158
  O  O2767  1  0.462200  0.278100  0.037800  1.0  -0.5053
  O  O2768  1  0.467000  0.231100  0.033000  1.0  -0.6153
  O  O2769  1  0.962200  0.221900  0.962200  1.0  -0.5036
  O  O2770  1  0.967000  0.268900  0.967000  1.0  -0.6181
  O  O2771  1  0.962200  0.721900  0.462200  1.0  -0.5036
  O  O2772  1  0.967000  0.768900  0.467000  1.0  -0.6181
  O  O2773  1  0.462200  0.221900  0.462200  1.0  -0.5036
  O  O2774  1  0.467000  0.268900  0.467000  1.0  -0.6181
  O  O2775  1  0.462200  0.721900  0.962200  1.0  -0.5036
  O  O2776  1  0.467000  0.768900  0.967000  1.0  -0.6181
  O  O2777  1  0.037800  0.037800  0.221900  1.0  -0.5096
  O  O2778  1  0.033000  0.033000  0.268900  1.0  -0.6136
  O  O2779  1  0.037800  0.537800  0.721900  1.0  -0.5096
  O  O2780  1  0.033000  0.533000  0.768900  1.0  -0.6136
  O  O2781  1  0.537800  0.037800  0.721900  1.0  -0.5096
  O  O2782  1  0.533000  0.033000  0.768900  1.0  -0.6136
  O  O2783  1  0.537800  0.537800  0.221900  1.0  -0.5096
  O  O2784  1  0.533000  0.533000  0.268900  1.0  -0.6136
  O  O2785  1  0.962200  0.037800  0.778100  1.0  -0.5105
  O  O2786  1  0.967000  0.033000  0.731100  1.0  -0.6135
  O  O2787  1  0.962200  0.537800  0.278100  1.0  -0.5105
  O  O2788  1  0.967000  0.533000  0.231100  1.0  -0.6129
  O  O2789  1  0.462200  0.037800  0.278100  1.0  -0.5105
  O  O2790  1  0.467000  0.033000  0.231100  1.0  -0.6135
  O  O2791  1  0.462200  0.537800  0.778100  1.0  -0.5105
  O  O2792  1  0.467000  0.533000  0.731100  1.0  -0.6135
  O  O2793  1  0.037800  0.962200  0.778100  1.0  -0.5102
  O  O2794  1  0.033000  0.967000  0.731100  1.0  -0.6127
  O  O2795  1  0.037800  0.462200  0.278100  1.0  -0.5102
  O  O2796  1  0.033000  0.467000  0.231100  1.0  -0.6127
  O  O2797  1  0.537800  0.962200  0.278100  1.0  -0.5102
  O  O2798  1  0.533000  0.967000  0.231100  1.0  -0.6133
  O  O2799  1  0.537800  0.462200  0.778100  1.0  -0.5102
  O  O2800  1  0.533000  0.467000  0.731100  1.0  -0.6133
  O  O2801  1  0.962200  0.962200  0.221900  1.0  -0.509
  O  O2802  1  0.967000  0.967000  0.268900  1.0  -0.6123
  O  O2803  1  0.962200  0.462200  0.721900  1.0  -0.509
  O  O2804  1  0.967000  0.467000  0.768900  1.0  -0.6123
  O  O2805  1  0.462200  0.962200  0.721900  1.0  -0.509
  O  O2806  1  0.467000  0.967000  0.768900  1.0  -0.6123
  O  O2807  1  0.462200  0.462200  0.221900  1.0  -0.509
  O  O2808  1  0.467000  0.467000  0.268900  1.0  -0.6123
  O  O2809  1  0.037800  0.221900  0.962200  1.0  -0.5033
  O  O2810  1  0.033000  0.268900  0.967000  1.0  -0.6182
  O  O2811  1  0.037800  0.721900  0.462200  1.0  -0.5033
  O  O2812  1  0.033000  0.768900  0.467000  1.0  -0.6182
  O  O2813  1  0.537800  0.221900  0.462200  1.0  -0.5033
  O  O2814  1  0.533000  0.268900  0.467000  1.0  -0.6182
  O  O2815  1  0.537800  0.721900  0.962200  1.0  -0.5033
  O  O2816  1  0.533000  0.768900  0.967000  1.0  -0.6182
  O  O2817  1  0.962200  0.778100  0.962200  1.0  -0.506
  O  O2818  1  0.967000  0.731100  0.967000  1.0  -0.6147
  O  O2819  1  0.962200  0.278100  0.462200  1.0  -0.506
  O  O2820  1  0.967000  0.231100  0.467000  1.0  -0.6147
  O  O2821  1  0.462200  0.778100  0.462200  1.0  -0.506
  O  O2822  1  0.467000  0.731100  0.467000  1.0  -0.6147
  O  O2823  1  0.462200  0.278100  0.962200  1.0  -0.506
  O  O2824  1  0.467000  0.231100  0.967000  1.0  -0.6147
  O  O2825  1  0.037800  0.778100  0.037800  1.0  -0.5057
  O  O2826  1  0.033000  0.731100  0.033000  1.0  -0.6159
  O  O2827  1  0.037800  0.278100  0.537800  1.0  -0.5057
  O  O2828  1  0.033000  0.231100  0.533000  1.0  -0.6159
  O  O2829  1  0.537800  0.778100  0.537800  1.0  -0.5057
  O  O2830  1  0.533000  0.731100  0.533000  1.0  -0.6159
  O  O2831  1  0.537800  0.278100  0.037800  1.0  -0.5057
  O  O2832  1  0.533000  0.231100  0.033000  1.0  -0.6159
  O  O2833  1  0.962200  0.221900  0.037800  1.0  -0.5038
  O  O2834  1  0.967000  0.268900  0.033000  1.0  -0.6173
  O  O2835  1  0.962200  0.721900  0.537800  1.0  -0.5038
  O  O2836  1  0.967000  0.768900  0.533000  1.0  -0.6174
  O  O2837  1  0.462200  0.221900  0.537800  1.0  -0.5038
  O  O2838  1  0.467000  0.268900  0.533000  1.0  -0.6174
  O  O2839  1  0.462200  0.721900  0.037800  1.0  -0.5038
  O  O2840  1  0.467000  0.768900  0.033000  1.0  -0.6173
  O  O2841  1  0.221900  0.037800  0.962200  1.0  -0.5137
  O  O2842  1  0.268900  0.033000  0.967000  1.0  -0.6128
  O  O2843  1  0.221900  0.537800  0.462200  1.0  -0.5137
  O  O2844  1  0.268900  0.533000  0.467000  1.0  -0.6128
  O  O2845  1  0.721900  0.037800  0.462200  1.0  -0.5137
  O  O2846  1  0.768900  0.033000  0.467000  1.0  -0.6128
  O  O2847  1  0.721900  0.537800  0.962200  1.0  -0.5137
  O  O2848  1  0.768900  0.533000  0.967000  1.0  -0.6128
  O  O2849  1  0.778100  0.037800  0.037800  1.0  -0.5122
  O  O2850  1  0.731100  0.033000  0.033000  1.0  -0.6155
  O  O2851  1  0.778100  0.537800  0.537800  1.0  -0.5122
  O  O2852  1  0.731100  0.533000  0.533000  1.0  -0.6155
  O  O2853  1  0.278100  0.037800  0.537800  1.0  -0.5122
  O  O2854  1  0.231100  0.033000  0.533000  1.0  -0.6155
  O  O2855  1  0.278100  0.537800  0.037800  1.0  -0.5122
  O  O2856  1  0.231100  0.533000  0.033000  1.0  -0.6155
  O  O2857  1  0.778100  0.962200  0.962200  1.0  -0.5115
  O  O2858  1  0.731100  0.967000  0.967000  1.0  -0.6144
  O  O2859  1  0.778100  0.462200  0.462200  1.0  -0.5115
  O  O2860  1  0.731100  0.467000  0.467000  1.0  -0.6144
  O  O2861  1  0.278100  0.962200  0.462200  1.0  -0.5115
  O  O2862  1  0.231100  0.967000  0.467000  1.0  -0.6144
  O  O2863  1  0.278100  0.462200  0.962200  1.0  -0.5115
  O  O2864  1  0.231100  0.467000  0.967000  1.0  -0.6144
  O  O2865  1  0.221900  0.962200  0.037800  1.0  -0.512
  O  O2866  1  0.268900  0.967000  0.033000  1.0  -0.6121
  O  O2867  1  0.221900  0.462200  0.537800  1.0  -0.512
  O  O2868  1  0.268900  0.467000  0.533000  1.0  -0.6123
  O  O2869  1  0.721900  0.962200  0.537800  1.0  -0.512
  O  O2870  1  0.768900  0.967000  0.533000  1.0  -0.6123
  O  O2871  1  0.721900  0.462200  0.037800  1.0  -0.512
  O  O2872  1  0.768900  0.467000  0.033000  1.0  -0.6121
  O  O2873  1  0.037800  0.037800  0.778100  1.0  -0.511
  O  O2874  1  0.033000  0.033000  0.731100  1.0  -0.6128
  O  O2875  1  0.037800  0.537800  0.278100  1.0  -0.511
  O  O2876  1  0.033000  0.533000  0.231100  1.0  -0.6128
  O  O2877  1  0.537800  0.037800  0.278100  1.0  -0.511
  O  O2878  1  0.533000  0.033000  0.231100  1.0  -0.6128
  O  O2879  1  0.537800  0.537800  0.778100  1.0  -0.511
  O  O2880  1  0.533000  0.533000  0.731100  1.0  -0.6128
  O  O2881  1  0.037800  0.962200  0.221900  1.0  -0.5086
  O  O2882  1  0.033000  0.967000  0.268900  1.0  -0.6127
  O  O2883  1  0.037800  0.462200  0.721900  1.0  -0.5086
  O  O2884  1  0.033000  0.467000  0.768900  1.0  -0.6127
  O  O2885  1  0.537800  0.962200  0.721900  1.0  -0.5086
  O  O2886  1  0.533000  0.967000  0.768900  1.0  -0.6129
  O  O2887  1  0.537800  0.462200  0.221900  1.0  -0.5086
  O  O2888  1  0.533000  0.467000  0.268900  1.0  -0.6129
  O  O2889  1  0.962200  0.037800  0.221900  1.0  -0.51
  O  O2890  1  0.967000  0.033000  0.268900  1.0  -0.6117
  O  O2891  1  0.962200  0.537800  0.721900  1.0  -0.51
  O  O2892  1  0.967000  0.533000  0.768900  1.0  -0.6116
  O  O2893  1  0.462200  0.037800  0.721900  1.0  -0.51
  O  O2894  1  0.467000  0.033000  0.768900  1.0  -0.6117
  O  O2895  1  0.462200  0.537800  0.221900  1.0  -0.51
  O  O2896  1  0.467000  0.533000  0.268900  1.0  -0.6117
  O  O2897  1  0.962200  0.962200  0.778100  1.0  -0.5096
  O  O2898  1  0.967000  0.967000  0.731100  1.0  -0.6124
  O  O2899  1  0.962200  0.462200  0.278100  1.0  -0.5096
  O  O2900  1  0.967000  0.467000  0.231100  1.0  -0.6124
  O  O2901  1  0.462200  0.962200  0.278100  1.0  -0.5096
  O  O2902  1  0.467000  0.967000  0.231100  1.0  -0.6124
  O  O2903  1  0.462200  0.462200  0.778100  1.0  -0.5096
  O  O2904  1  0.467000  0.467000  0.731100  1.0  -0.6124
  O  O2905  1  0.146590  0.146590  0.146590  1.0  -0.746
  O  O2906  1  0.146590  0.646590  0.646590  1.0  -0.746
  O  O2907  1  0.646590  0.146590  0.646590  1.0  -0.746
  O  O2908  1  0.646590  0.646590  0.146590  1.0  -0.746
  O  O2909  1  0.853410  0.853410  0.146590  1.0  -0.7453
  O  O2910  1  0.853410  0.353410  0.646590  1.0  -0.7453
  O  O2911  1  0.353410  0.853410  0.646590  1.0  -0.7453
  O  O2912  1  0.353410  0.353410  0.146590  1.0  -0.7453
  O  O2913  1  0.853410  0.146590  0.853410  1.0  -0.7451
  O  O2914  1  0.853410  0.646590  0.353410  1.0  -0.7451
  O  O2915  1  0.353410  0.146590  0.353410  1.0  -0.7451
  O  O2916  1  0.353410  0.646590  0.853410  1.0  -0.7451
  O  O2917  1  0.146590  0.853410  0.853410  1.0  -0.7451
  O  O2918  1  0.146590  0.353410  0.353410  1.0  -0.7451
  O  O2919  1  0.646590  0.853410  0.353410  1.0  -0.7451
  O  O2920  1  0.646590  0.353410  0.853410  1.0  -0.7451
  O  O2921  1  0.146590  0.146590  0.853410  1.0  -0.7455
  O  O2922  1  0.146590  0.646590  0.353410  1.0  -0.7455
  O  O2923  1  0.646590  0.146590  0.353410  1.0  -0.7455
  O  O2924  1  0.646590  0.646590  0.853410  1.0  -0.7455
  O  O2925  1  0.853410  0.853410  0.853410  1.0  -0.7448
  O  O2926  1  0.853410  0.353410  0.353410  1.0  -0.7448
  O  O2927  1  0.353410  0.853410  0.353410  1.0  -0.7448
  O  O2928  1  0.353410  0.353410  0.853410  1.0  -0.7448
  O  O2929  1  0.146590  0.853410  0.146590  1.0  -0.7455
  O  O2930  1  0.146590  0.353410  0.646590  1.0  -0.7455
  O  O2931  1  0.646590  0.853410  0.646590  1.0  -0.7455
  O  O2932  1  0.646590  0.353410  0.146590  1.0  -0.7455
  O  O2933  1  0.853410  0.146590  0.146590  1.0  -0.7457
  O  O2934  1  0.853410  0.646590  0.646590  1.0  -0.7457
  O  O2935  1  0.353410  0.146590  0.646590  1.0  -0.7457
  O  O2936  1  0.353410  0.646590  0.146590  1.0  -0.7457
