# generated using pymatgen
data_Mg5H24(C8O3)6
_symmetry_space_group_name_H-M   'P 1'
_cell_length_a   53.59800000
_cell_length_b   16.40900000
_cell_length_c   21.67200000
_cell_angle_alpha   90.00000000
_cell_angle_beta   113.85000000
_cell_angle_gamma   90.00000000
_symmetry_Int_Tables_number   1
_chemical_formula_structural   Mg5H24(C8O3)6
_chemical_formula_sum   'Mg40 H192 C384 O144'
_cell_volume   17432.68522092
_cell_formula_units_Z   8
loop_
 _symmetry_equiv_pos_site_id
 _symmetry_equiv_pos_as_xyz
  1  'x, y, z'
loop_
 _atom_site_type_symbol
 _atom_site_label
 _atom_site_symmetry_multiplicity
 _atom_site_fract_x
 _atom_site_fract_y
 _atom_site_fract_z
 _atom_site_occupancy
 _atom_site_charge
  Mg  Mg1  1  0.052050  0.862300  0.807820  1.0  1.5608
  Mg  Mg2  1  0.059540  0.655110  0.797590  1.0  1.5916
  Mg  Mg3  1  0.190000  0.643640  0.428200  1.0  1.5661
  Mg  Mg4  1  0.196850  0.851880  0.449340  1.0  1.5804
  Mg  Mg5  1  0.552050  0.362300  0.807820  1.0  1.5608
  Mg  Mg6  1  0.559540  0.155110  0.797590  1.0  1.5916
  Mg  Mg7  1  0.690000  0.143640  0.428200  1.0  1.5661
  Mg  Mg8  1  0.696850  0.351880  0.449340  1.0  1.5804
  Mg  Mg9  1  0.947950  0.862300  0.692180  1.0  1.5601
  Mg  Mg10  1  0.940460  0.655110  0.702410  1.0  1.5943
  Mg  Mg11  1  0.810000  0.643640  0.071800  1.0  1.5665
  Mg  Mg12  1  0.803150  0.851880  0.050660  1.0  1.5798
  Mg  Mg13  1  0.447950  0.362300  0.692180  1.0  1.5601
  Mg  Mg14  1  0.440460  0.155110  0.702410  1.0  1.5943
  Mg  Mg15  1  0.310000  0.143640  0.071800  1.0  1.5665
  Mg  Mg16  1  0.303150  0.351880  0.050660  1.0  1.5798
  Mg  Mg17  1  0.947950  0.137700  0.192180  1.0  1.5597
  Mg  Mg18  1  0.940460  0.344890  0.202410  1.0  1.5916
  Mg  Mg19  1  0.810000  0.356360  0.571800  1.0  1.5674
  Mg  Mg20  1  0.803150  0.148120  0.550660  1.0  1.58
  Mg  Mg21  1  0.447950  0.637700  0.192180  1.0  1.5597
  Mg  Mg22  1  0.440460  0.844890  0.202410  1.0  1.5916
  Mg  Mg23  1  0.310000  0.856360  0.571800  1.0  1.5674
  Mg  Mg24  1  0.303150  0.648120  0.550660  1.0  1.58
  Mg  Mg25  1  0.052050  0.137700  0.307820  1.0  1.5596
  Mg  Mg26  1  0.059540  0.344890  0.297590  1.0  1.5904
  Mg  Mg27  1  0.190000  0.356360  0.928200  1.0  1.5669
  Mg  Mg28  1  0.196850  0.148120  0.949340  1.0  1.5804
  Mg  Mg29  1  0.552050  0.637700  0.307820  1.0  1.5596
  Mg  Mg30  1  0.559540  0.844890  0.297590  1.0  1.5904
  Mg  Mg31  1  0.690000  0.856360  0.928200  1.0  1.5669
  Mg  Mg32  1  0.696850  0.648120  0.949340  1.0  1.5804
  Mg  Mg33  1  0.000000  0.752880  0.750000  1.0  1.5281
  Mg  Mg34  1  0.500000  0.252880  0.750000  1.0  1.5281
  Mg  Mg35  1  0.000000  0.247120  0.250000  1.0  1.5287
  Mg  Mg36  1  0.500000  0.747120  0.250000  1.0  1.5287
  Mg  Mg37  1  0.250000  0.750000  0.500000  1.0  1.5274
  Mg  Mg38  1  0.750000  0.750000  0.000000  1.0  1.5274
  Mg  Mg39  1  0.750000  0.250000  0.500000  1.0  1.5274
  Mg  Mg40  1  0.250000  0.250000  0.000000  1.0  1.5274
  H  H41  1  0.164400  0.608000  0.590200  1.0  0.1148
  H  H42  1  0.156700  0.853400  0.581500  1.0  0.0986
  H  H43  1  0.119400  0.668300  0.725700  1.0  0.102
  H  H44  1  0.137300  0.662300  0.230000  1.0  0.0994
  H  H45  1  0.117400  0.920700  0.137700  1.0  0.1136
  H  H46  1  0.093400  0.859000  0.021800  1.0  0.0933
  H  H47  1  0.090500  0.620000  0.003100  1.0  0.0744
  H  H48  1  0.035100  0.979400  0.626400  1.0  0.089
  H  H49  1  0.960800  0.879300  0.557800  1.0  0.1108
  H  H50  1  0.952700  0.929300  0.452300  1.0  0.0828
  H  H51  1  0.140600  0.604400  0.662400  1.0  0.0877
  H  H52  1  0.133400  0.919000  0.646800  1.0  0.0936
  H  H53  1  0.108300  0.910900  0.714100  1.0  0.1055
  H  H54  1  0.139400  0.901800  0.251600  1.0  0.0895
  H  H55  1  0.113100  0.600600  0.115900  1.0  0.1204
  H  H56  1  0.035000  0.492700  0.127300  1.0  0.107
  H  H57  1  0.034200  0.636300  0.940400  1.0  0.0789
  H  H58  1  0.046300  0.589400  0.051900  1.0  0.1149
  H  H59  1  0.299800  0.568400  0.307600  1.0  0.1042
  H  H60  1  0.288500  0.476900  0.206000  1.0  0.1049
  H  H61  1  0.290400  0.613700  0.392700  1.0  0.0709
  H  H62  1  0.219900  0.344000  0.147700  1.0  0.0845
  H  H63  1  0.220500  0.490000  0.328800  1.0  0.0993
  H  H64  1  0.212000  0.391300  0.234400  1.0  0.0887
  H  H65  1  0.664400  0.108000  0.590200  1.0  0.1148
  H  H66  1  0.656700  0.353400  0.581500  1.0  0.0986
  H  H67  1  0.619400  0.168300  0.725700  1.0  0.102
  H  H68  1  0.637300  0.162300  0.230000  1.0  0.0994
  H  H69  1  0.617400  0.420700  0.137700  1.0  0.1136
  H  H70  1  0.593400  0.359000  0.021800  1.0  0.0933
  H  H71  1  0.590500  0.120000  0.003100  1.0  0.0744
  H  H72  1  0.535100  0.479400  0.626400  1.0  0.089
  H  H73  1  0.460800  0.379300  0.557800  1.0  0.1108
  H  H74  1  0.452700  0.429300  0.452300  1.0  0.0828
  H  H75  1  0.640600  0.104400  0.662400  1.0  0.0877
  H  H76  1  0.633400  0.419000  0.646800  1.0  0.0936
  H  H77  1  0.608300  0.410900  0.714100  1.0  0.1055
  H  H78  1  0.639400  0.401800  0.251600  1.0  0.0895
  H  H79  1  0.613100  0.100600  0.115900  1.0  0.1204
  H  H80  1  0.535000  0.992700  0.127300  1.0  0.1066
  H  H81  1  0.534200  0.136300  0.940400  1.0  0.0789
  H  H82  1  0.546300  0.089400  0.051900  1.0  0.1149
  H  H83  1  0.799800  0.068400  0.307600  1.0  0.1042
  H  H84  1  0.788500  0.976900  0.206000  1.0  0.1049
  H  H85  1  0.790400  0.113700  0.392700  1.0  0.0709
  H  H86  1  0.719900  0.844000  0.147700  1.0  0.0845
  H  H87  1  0.720500  0.990000  0.328800  1.0  0.0993
  H  H88  1  0.712000  0.891300  0.234400  1.0  0.0887
  H  H89  1  0.835600  0.608000  0.909800  1.0  0.115
  H  H90  1  0.843300  0.853400  0.918500  1.0  0.0983
  H  H91  1  0.880600  0.668300  0.774300  1.0  0.1024
  H  H92  1  0.862700  0.662300  0.270000  1.0  0.0994
  H  H93  1  0.882600  0.920700  0.362300  1.0  0.1136
  H  H94  1  0.906600  0.859000  0.478200  1.0  0.0925
  H  H95  1  0.909500  0.620000  0.496900  1.0  0.0746
  H  H96  1  0.964900  0.979400  0.873600  1.0  0.0883
  H  H97  1  0.039200  0.879300  0.942200  1.0  0.1107
  H  H98  1  0.047300  0.929300  0.047700  1.0  0.0829
  H  H99  1  0.859400  0.604400  0.837600  1.0  0.0879
  H  H100  1  0.866600  0.919000  0.853200  1.0  0.0932
  H  H101  1  0.891700  0.910900  0.785900  1.0  0.1052
  H  H102  1  0.860600  0.901800  0.248400  1.0  0.0896
  H  H103  1  0.886900  0.600600  0.384100  1.0  0.1202
  H  H104  1  0.965000  0.492700  0.372700  1.0  0.1064
  H  H105  1  0.965800  0.636300  0.559600  1.0  0.0788
  H  H106  1  0.953700  0.589400  0.448100  1.0  0.116
  H  H107  1  0.700200  0.568400  0.192400  1.0  0.1041
  H  H108  1  0.711500  0.476900  0.294000  1.0  0.1052
  H  H109  1  0.709600  0.613700  0.107300  1.0  0.0715
  H  H110  1  0.780100  0.344000  0.352300  1.0  0.0848
  H  H111  1  0.779500  0.490000  0.171200  1.0  0.0994
  H  H112  1  0.788000  0.391300  0.265600  1.0  0.0882
  H  H113  1  0.335600  0.108000  0.909800  1.0  0.115
  H  H114  1  0.343300  0.353400  0.918500  1.0  0.0983
  H  H115  1  0.380600  0.168300  0.774300  1.0  0.1024
  H  H116  1  0.362700  0.162300  0.270000  1.0  0.0994
  H  H117  1  0.382600  0.420700  0.362300  1.0  0.1136
  H  H118  1  0.406600  0.359000  0.478200  1.0  0.0925
  H  H119  1  0.409500  0.120000  0.496900  1.0  0.0746
  H  H120  1  0.464900  0.479400  0.873600  1.0  0.0883
  H  H121  1  0.539200  0.379300  0.942200  1.0  0.1107
  H  H122  1  0.547300  0.429300  0.047700  1.0  0.0829
  H  H123  1  0.359400  0.104400  0.837600  1.0  0.0879
  H  H124  1  0.366600  0.419000  0.853200  1.0  0.0932
  H  H125  1  0.391700  0.410900  0.785900  1.0  0.1052
  H  H126  1  0.360600  0.401800  0.248400  1.0  0.0896
  H  H127  1  0.386900  0.100600  0.384100  1.0  0.1202
  H  H128  1  0.465000  0.992700  0.372700  1.0  0.1061
  H  H129  1  0.465800  0.136300  0.559600  1.0  0.0788
  H  H130  1  0.453700  0.089400  0.448100  1.0  0.116
  H  H131  1  0.200200  0.068400  0.192400  1.0  0.1041
  H  H132  1  0.211500  0.976900  0.294000  1.0  0.1052
  H  H133  1  0.209600  0.113700  0.107300  1.0  0.0715
  H  H134  1  0.280100  0.844000  0.352300  1.0  0.0848
  H  H135  1  0.279500  0.990000  0.171200  1.0  0.0994
  H  H136  1  0.288000  0.891300  0.265600  1.0  0.0882
  H  H137  1  0.835600  0.392000  0.409800  1.0  0.115
  H  H138  1  0.843300  0.146600  0.418500  1.0  0.0982
  H  H139  1  0.880600  0.331700  0.274300  1.0  0.1025
  H  H140  1  0.862700  0.337700  0.770000  1.0  0.0997
  H  H141  1  0.882600  0.079300  0.862300  1.0  0.1134
  H  H142  1  0.906600  0.141000  0.978200  1.0  0.0925
  H  H143  1  0.909500  0.380000  0.996900  1.0  0.0741
  H  H144  1  0.964900  0.020600  0.373600  1.0  0.088
  H  H145  1  0.039200  0.120700  0.442200  1.0  0.1106
  H  H146  1  0.047300  0.070700  0.547700  1.0  0.0828
  H  H147  1  0.859400  0.395600  0.337600  1.0  0.0877
  H  H148  1  0.866600  0.081000  0.353200  1.0  0.0934
  H  H149  1  0.891700  0.089100  0.285900  1.0  0.1052
  H  H150  1  0.860600  0.098200  0.748400  1.0  0.0893
  H  H151  1  0.886900  0.399400  0.884100  1.0  0.12
  H  H152  1  0.965000  0.507300  0.872700  1.0  0.1062
  H  H153  1  0.965800  0.363700  0.059600  1.0  0.0791
  H  H154  1  0.953700  0.410600  0.948100  1.0  0.1156
  H  H155  1  0.700200  0.431600  0.692400  1.0  0.1041
  H  H156  1  0.711500  0.523100  0.794000  1.0  0.1048
  H  H157  1  0.709600  0.386300  0.607300  1.0  0.0717
  H  H158  1  0.780100  0.656000  0.852300  1.0  0.0843
  H  H159  1  0.779500  0.510000  0.671200  1.0  0.0998
  H  H160  1  0.788000  0.608700  0.765600  1.0  0.0886
  H  H161  1  0.335600  0.892000  0.409800  1.0  0.115
  H  H162  1  0.343300  0.646600  0.418500  1.0  0.0982
  H  H163  1  0.380600  0.831700  0.274300  1.0  0.1025
  H  H164  1  0.362700  0.837700  0.770000  1.0  0.0997
  H  H165  1  0.382600  0.579300  0.862300  1.0  0.1134
  H  H166  1  0.406600  0.641000  0.978200  1.0  0.0925
  H  H167  1  0.409500  0.880000  0.996900  1.0  0.0741
  H  H168  1  0.464900  0.520600  0.373600  1.0  0.088
  H  H169  1  0.539200  0.620700  0.442200  1.0  0.1106
  H  H170  1  0.547300  0.570700  0.547700  1.0  0.0828
  H  H171  1  0.359400  0.895600  0.337600  1.0  0.0877
  H  H172  1  0.366600  0.581000  0.353200  1.0  0.0934
  H  H173  1  0.391700  0.589100  0.285900  1.0  0.1052
  H  H174  1  0.360600  0.598200  0.748400  1.0  0.0893
  H  H175  1  0.386900  0.899400  0.884100  1.0  0.12
  H  H176  1  0.465000  0.007300  0.872700  1.0  0.1059
  H  H177  1  0.465800  0.863700  0.059600  1.0  0.0791
  H  H178  1  0.453700  0.910600  0.948100  1.0  0.1156
  H  H179  1  0.200200  0.931600  0.692400  1.0  0.1041
  H  H180  1  0.211500  0.023100  0.794000  1.0  0.1048
  H  H181  1  0.209600  0.886300  0.607300  1.0  0.0717
  H  H182  1  0.280100  0.156000  0.852300  1.0  0.0843
  H  H183  1  0.279500  0.010000  0.671200  1.0  0.0998
  H  H184  1  0.288000  0.108700  0.765600  1.0  0.0886
  H  H185  1  0.164400  0.392000  0.090200  1.0  0.1149
  H  H186  1  0.156700  0.146600  0.081500  1.0  0.0985
  H  H187  1  0.119400  0.331700  0.225700  1.0  0.1025
  H  H188  1  0.137300  0.337700  0.730000  1.0  0.0996
  H  H189  1  0.117400  0.079300  0.637700  1.0  0.1135
  H  H190  1  0.093400  0.141000  0.521800  1.0  0.0928
  H  H191  1  0.090500  0.380000  0.503100  1.0  0.0743
  H  H192  1  0.035100  0.020600  0.126400  1.0  0.0888
  H  H193  1  0.960800  0.120700  0.057800  1.0  0.1108
  H  H194  1  0.952700  0.070700  0.952300  1.0  0.0828
  H  H195  1  0.140600  0.395600  0.162400  1.0  0.0871
  H  H196  1  0.133400  0.081000  0.146800  1.0  0.0936
  H  H197  1  0.108300  0.089100  0.214100  1.0  0.1053
  H  H198  1  0.139400  0.098200  0.751600  1.0  0.0895
  H  H199  1  0.113100  0.399400  0.615900  1.0  0.1198
  H  H200  1  0.035000  0.507300  0.627300  1.0  0.1065
  H  H201  1  0.034200  0.363700  0.440400  1.0  0.0795
  H  H202  1  0.046300  0.410600  0.551900  1.0  0.115
  H  H203  1  0.299800  0.431600  0.807600  1.0  0.1043
  H  H204  1  0.288500  0.523100  0.706000  1.0  0.1046
  H  H205  1  0.290400  0.386300  0.892700  1.0  0.0711
  H  H206  1  0.219900  0.656000  0.647700  1.0  0.0844
  H  H207  1  0.220500  0.510000  0.828800  1.0  0.0996
  H  H208  1  0.212000  0.608700  0.734400  1.0  0.0888
  H  H209  1  0.664400  0.892000  0.090200  1.0  0.1149
  H  H210  1  0.656700  0.646600  0.081500  1.0  0.0985
  H  H211  1  0.619400  0.831700  0.225700  1.0  0.1025
  H  H212  1  0.637300  0.837700  0.730000  1.0  0.0996
  H  H213  1  0.617400  0.579300  0.637700  1.0  0.1135
  H  H214  1  0.593400  0.641000  0.521800  1.0  0.0928
  H  H215  1  0.590500  0.880000  0.503100  1.0  0.0743
  H  H216  1  0.535100  0.520600  0.126400  1.0  0.0888
  H  H217  1  0.460800  0.620700  0.057800  1.0  0.1108
  H  H218  1  0.452700  0.570700  0.952300  1.0  0.0828
  H  H219  1  0.640600  0.895600  0.162400  1.0  0.0871
  H  H220  1  0.633400  0.581000  0.146800  1.0  0.0936
  H  H221  1  0.608300  0.589100  0.214100  1.0  0.1053
  H  H222  1  0.639400  0.598200  0.751600  1.0  0.0895
  H  H223  1  0.613100  0.899400  0.615900  1.0  0.1198
  H  H224  1  0.535000  0.007300  0.627300  1.0  0.1061
  H  H225  1  0.534200  0.863700  0.440400  1.0  0.0795
  H  H226  1  0.546300  0.910600  0.551900  1.0  0.115
  H  H227  1  0.799800  0.931600  0.807600  1.0  0.1043
  H  H228  1  0.788500  0.023100  0.706000  1.0  0.1046
  H  H229  1  0.790400  0.886300  0.892700  1.0  0.0711
  H  H230  1  0.719900  0.156000  0.647700  1.0  0.0844
  H  H231  1  0.720500  0.010000  0.828800  1.0  0.0996
  H  H232  1  0.712000  0.108700  0.734400  1.0  0.0888
  C  C233  1  0.111240  0.788400  0.723400  1.0  -0.1463
  C  C234  1  0.006790  0.895300  0.672300  1.0  0.6869
  C  C235  1  0.092730  0.775400  0.761600  1.0  0.6605
  C  C236  1  0.999000  0.929400  0.601600  1.0  -0.1716
  C  C237  1  0.157060  0.768400  0.326600  1.0  0.6931
  C  C238  1  0.157960  0.655700  0.601800  1.0  -0.1501
  C  C239  1  0.135460  0.720300  0.668400  1.0  0.0639
  C  C240  1  0.174080  0.734300  0.524400  1.0  0.6962
  C  C241  1  0.153430  0.803200  0.596700  1.0  -0.0642
  C  C242  1  0.161410  0.732300  0.576200  1.0  -0.1383
  C  C243  1  0.139600  0.798600  0.642800  1.0  -0.0653
  C  C244  1  0.140130  0.782100  0.249700  1.0  -0.1646
  C  C245  1  0.121840  0.717900  0.708100  1.0  -0.1033
  C  C246  1  0.132370  0.713400  0.210200  1.0  -0.1131
  C  C247  1  0.117050  0.719400  0.140200  1.0  0.0267
  C  C248  1  0.111250  0.799800  0.113100  1.0  0.0375
  C  C249  1  0.120570  0.868400  0.155700  1.0  -0.1527
  C  C250  1  0.076520  0.746300  0.925700  1.0  0.7022
  C  C251  1  0.090020  0.740800  0.001600  1.0  -0.1327
  C  C252  1  0.097370  0.807500  0.041200  1.0  -0.0428
  C  C253  1  0.095960  0.665500  0.031000  1.0  -0.0486
  C  C254  1  0.018070  0.972400  0.591300  1.0  -0.0836
  C  C255  1  0.012380  0.008400  0.525800  1.0  -0.0422
  C  C256  1  0.973730  0.910800  0.550200  1.0  -0.1315
  C  C257  1  0.969130  0.941900  0.487900  1.0  -0.0508
  C  C258  1  0.143800  0.654700  0.647400  1.0  -0.1141
  C  C259  1  0.130010  0.868500  0.661300  1.0  -0.0716
  C  C260  1  0.115160  0.864300  0.702100  1.0  -0.0759
  C  C261  1  0.134160  0.856800  0.223200  1.0  -0.0276
  C  C262  1  0.109300  0.653100  0.098400  1.0  -0.2078
  C  C263  1  0.990400  0.624500  0.830500  1.0  0.6765
  C  C264  1  0.998600  0.576400  0.898700  1.0  -0.107
  C  C265  1  0.019300  0.475500  0.091500  1.0  -0.0278
  C  C266  1  0.012900  0.503000  0.023500  1.0  -0.0737
  C  C267  1  0.022900  0.599900  0.949900  1.0  -0.0502
  C  C268  1  0.031100  0.569900  0.015800  1.0  -0.1209
  C  C269  1  0.262100  0.370600  0.112200  1.0  0.6978
  C  C270  1  0.284210  0.550200  0.312200  1.0  -0.1247
  C  C271  1  0.273100  0.459600  0.212100  1.0  -0.0372
  C  C272  1  0.278090  0.578200  0.361800  1.0  -0.0539
  C  C273  1  0.232330  0.379800  0.178000  1.0  -0.0675
  C  C274  1  0.245400  0.599800  0.418000  1.0  0.7344
  C  C275  1  0.236870  0.503000  0.326100  1.0  -0.0537
  C  C276  1  0.266870  0.492500  0.266000  1.0  -0.0635
  C  C277  1  0.244010  0.465800  0.275100  1.0  0.0348
  C  C278  1  0.255810  0.401600  0.169400  1.0  -0.2167
  C  C279  1  0.254600  0.558300  0.371000  1.0  -0.2111
  C  C280  1  0.227420  0.409400  0.229200  1.0  -0.0702
  C  C281  1  0.611240  0.288400  0.723400  1.0  -0.1463
  C  C282  1  0.506790  0.395300  0.672300  1.0  0.6869
  C  C283  1  0.592730  0.275400  0.761600  1.0  0.6605
  C  C284  1  0.499000  0.429400  0.601600  1.0  -0.1716
  C  C285  1  0.657060  0.268400  0.326600  1.0  0.6931
  C  C286  1  0.657960  0.155700  0.601800  1.0  -0.1501
  C  C287  1  0.635460  0.220300  0.668400  1.0  0.0639
  C  C288  1  0.674080  0.234300  0.524400  1.0  0.6962
  C  C289  1  0.653430  0.303200  0.596700  1.0  -0.0642
  C  C290  1  0.661410  0.232300  0.576200  1.0  -0.1383
  C  C291  1  0.639600  0.298600  0.642800  1.0  -0.0653
  C  C292  1  0.640130  0.282100  0.249700  1.0  -0.1646
  C  C293  1  0.621840  0.217900  0.708100  1.0  -0.1033
  C  C294  1  0.632370  0.213400  0.210200  1.0  -0.1131
  C  C295  1  0.617050  0.219400  0.140200  1.0  0.0267
  C  C296  1  0.611250  0.299800  0.113100  1.0  0.0375
  C  C297  1  0.620570  0.368400  0.155700  1.0  -0.1527
  C  C298  1  0.576520  0.246300  0.925700  1.0  0.7022
  C  C299  1  0.590020  0.240800  0.001600  1.0  -0.1327
  C  C300  1  0.597370  0.307500  0.041200  1.0  -0.0428
  C  C301  1  0.595960  0.165500  0.031000  1.0  -0.0486
  C  C302  1  0.518070  0.472400  0.591300  1.0  -0.0836
  C  C303  1  0.512380  0.508400  0.525800  1.0  -0.0422
  C  C304  1  0.473730  0.410800  0.550200  1.0  -0.1315
  C  C305  1  0.469130  0.441900  0.487900  1.0  -0.0508
  C  C306  1  0.643800  0.154700  0.647400  1.0  -0.1141
  C  C307  1  0.630010  0.368500  0.661300  1.0  -0.0716
  C  C308  1  0.615160  0.364300  0.702100  1.0  -0.0759
  C  C309  1  0.634160  0.356800  0.223200  1.0  -0.0276
  C  C310  1  0.609300  0.153100  0.098400  1.0  -0.2078
  C  C311  1  0.490400  0.124500  0.830500  1.0  0.6765
  C  C312  1  0.498600  0.076400  0.898700  1.0  -0.107
  C  C313  1  0.519300  0.975500  0.091500  1.0  -0.0214
  C  C314  1  0.512900  0.003000  0.023500  1.0  -0.0737
  C  C315  1  0.522900  0.099900  0.949900  1.0  -0.0502
  C  C316  1  0.531100  0.069900  0.015800  1.0  -0.1209
  C  C317  1  0.762100  0.870600  0.112200  1.0  0.6978
  C  C318  1  0.784210  0.050200  0.312200  1.0  -0.1247
  C  C319  1  0.773100  0.959600  0.212100  1.0  -0.0372
  C  C320  1  0.778090  0.078200  0.361800  1.0  -0.0539
  C  C321  1  0.732330  0.879800  0.178000  1.0  -0.0675
  C  C322  1  0.745400  0.099800  0.418000  1.0  0.7344
  C  C323  1  0.736870  0.003000  0.326100  1.0  -0.0537
  C  C324  1  0.766870  0.992500  0.266000  1.0  -0.0635
  C  C325  1  0.744010  0.965800  0.275100  1.0  0.0348
  C  C326  1  0.755810  0.901600  0.169400  1.0  -0.2167
  C  C327  1  0.754600  0.058300  0.371000  1.0  -0.2111
  C  C328  1  0.727420  0.909400  0.229200  1.0  -0.0702
  C  C329  1  0.888760  0.788400  0.776600  1.0  -0.1452
  C  C330  1  0.993210  0.895300  0.827700  1.0  0.6855
  C  C331  1  0.907270  0.775400  0.738400  1.0  0.6604
  C  C332  1  0.001000  0.929400  0.898400  1.0  -0.172
  C  C333  1  0.842940  0.768400  0.173400  1.0  0.694
  C  C334  1  0.842040  0.655700  0.898200  1.0  -0.1506
  C  C335  1  0.864540  0.720300  0.831600  1.0  0.0641
  C  C336  1  0.825920  0.734300  0.975600  1.0  0.6978
  C  C337  1  0.846570  0.803200  0.903300  1.0  -0.0647
  C  C338  1  0.838590  0.732300  0.923800  1.0  -0.1367
  C  C339  1  0.860400  0.798600  0.857200  1.0  -0.0652
  C  C340  1  0.859870  0.782100  0.250300  1.0  -0.1663
  C  C341  1  0.878160  0.717900  0.791900  1.0  -0.1033
  C  C342  1  0.867630  0.713400  0.289800  1.0  -0.1149
  C  C343  1  0.882950  0.719400  0.359800  1.0  0.0256
  C  C344  1  0.888750  0.799800  0.386900  1.0  0.0374
  C  C345  1  0.879430  0.868400  0.344300  1.0  -0.153
  C  C346  1  0.923480  0.746300  0.574300  1.0  0.7007
  C  C347  1  0.909980  0.740800  0.498400  1.0  -0.1329
  C  C348  1  0.902630  0.807500  0.458800  1.0  -0.0408
  C  C349  1  0.904040  0.665500  0.469000  1.0  -0.0501
  C  C350  1  0.981930  0.972400  0.908700  1.0  -0.0847
  C  C351  1  0.987620  0.008400  0.974200  1.0  -0.0416
  C  C352  1  0.026270  0.910800  0.949800  1.0  -0.1321
  C  C353  1  0.030870  0.941900  0.012100  1.0  -0.0515
  C  C354  1  0.856200  0.654700  0.852600  1.0  -0.1135
  C  C355  1  0.869990  0.868500  0.838700  1.0  -0.0718
  C  C356  1  0.884840  0.864300  0.797900  1.0  -0.0755
  C  C357  1  0.865840  0.856800  0.276800  1.0  -0.0275
  C  C358  1  0.890700  0.653100  0.401600  1.0  -0.2081
  C  C359  1  0.009600  0.624500  0.669500  1.0  0.6787
  C  C360  1  0.001400  0.576400  0.601300  1.0  -0.1081
  C  C361  1  0.980700  0.475500  0.408500  1.0  -0.0273
  C  C362  1  0.987100  0.503000  0.476500  1.0  -0.0737
  C  C363  1  0.977100  0.599900  0.550100  1.0  -0.0499
  C  C364  1  0.968900  0.569900  0.484200  1.0  -0.1215
  C  C365  1  0.737900  0.370600  0.387800  1.0  0.6981
  C  C366  1  0.715790  0.550200  0.187800  1.0  -0.1258
  C  C367  1  0.726900  0.459600  0.287900  1.0  -0.0381
  C  C368  1  0.721910  0.578200  0.138200  1.0  -0.0525
  C  C369  1  0.767670  0.379800  0.322000  1.0  -0.0681
  C  C370  1  0.754600  0.599800  0.082000  1.0  0.7351
  C  C371  1  0.763130  0.503000  0.173900  1.0  -0.0522
  C  C372  1  0.733130  0.492500  0.234000  1.0  -0.0629
  C  C373  1  0.755990  0.465800  0.224900  1.0  0.0336
  C  C374  1  0.744190  0.401600  0.330600  1.0  -0.2164
  C  C375  1  0.745400  0.558300  0.129000  1.0  -0.2073
  C  C376  1  0.772580  0.409400  0.270800  1.0  -0.0706
  C  C377  1  0.388760  0.288400  0.776600  1.0  -0.1452
  C  C378  1  0.493210  0.395300  0.827700  1.0  0.6855
  C  C379  1  0.407270  0.275400  0.738400  1.0  0.6604
  C  C380  1  0.501000  0.429400  0.898400  1.0  -0.172
  C  C381  1  0.342940  0.268400  0.173400  1.0  0.694
  C  C382  1  0.342040  0.155700  0.898200  1.0  -0.1506
  C  C383  1  0.364540  0.220300  0.831600  1.0  0.0641
  C  C384  1  0.325920  0.234300  0.975600  1.0  0.6978
  C  C385  1  0.346570  0.303200  0.903300  1.0  -0.0647
  C  C386  1  0.338590  0.232300  0.923800  1.0  -0.1367
  C  C387  1  0.360400  0.298600  0.857200  1.0  -0.0652
  C  C388  1  0.359870  0.282100  0.250300  1.0  -0.1663
  C  C389  1  0.378160  0.217900  0.791900  1.0  -0.1033
  C  C390  1  0.367630  0.213400  0.289800  1.0  -0.1149
  C  C391  1  0.382950  0.219400  0.359800  1.0  0.0256
  C  C392  1  0.388750  0.299800  0.386900  1.0  0.0374
  C  C393  1  0.379430  0.368400  0.344300  1.0  -0.153
  C  C394  1  0.423480  0.246300  0.574300  1.0  0.7007
  C  C395  1  0.409980  0.240800  0.498400  1.0  -0.1329
  C  C396  1  0.402630  0.307500  0.458800  1.0  -0.0408
  C  C397  1  0.404040  0.165500  0.469000  1.0  -0.0501
  C  C398  1  0.481930  0.472400  0.908700  1.0  -0.0847
  C  C399  1  0.487620  0.508400  0.974200  1.0  -0.0416
  C  C400  1  0.526270  0.410800  0.949800  1.0  -0.1321
  C  C401  1  0.530870  0.441900  0.012100  1.0  -0.0515
  C  C402  1  0.356200  0.154700  0.852600  1.0  -0.1135
  C  C403  1  0.369990  0.368500  0.838700  1.0  -0.0718
  C  C404  1  0.384840  0.364300  0.797900  1.0  -0.0755
  C  C405  1  0.365840  0.356800  0.276800  1.0  -0.0275
  C  C406  1  0.390700  0.153100  0.401600  1.0  -0.2081
  C  C407  1  0.509600  0.124500  0.669500  1.0  0.6787
  C  C408  1  0.501400  0.076400  0.601300  1.0  -0.1081
  C  C409  1  0.480700  0.975500  0.408500  1.0  -0.0206
  C  C410  1  0.487100  0.003000  0.476500  1.0  -0.0737
  C  C411  1  0.477100  0.099900  0.550100  1.0  -0.0499
  C  C412  1  0.468900  0.069900  0.484200  1.0  -0.1215
  C  C413  1  0.237900  0.870600  0.387800  1.0  0.6981
  C  C414  1  0.215790  0.050200  0.187800  1.0  -0.1258
  C  C415  1  0.226900  0.959600  0.287900  1.0  -0.0381
  C  C416  1  0.221910  0.078200  0.138200  1.0  -0.0525
  C  C417  1  0.267670  0.879800  0.322000  1.0  -0.0681
  C  C418  1  0.254600  0.099800  0.082000  1.0  0.7351
  C  C419  1  0.263130  0.003000  0.173900  1.0  -0.0517
  C  C420  1  0.233130  0.992500  0.234000  1.0  -0.0629
  C  C421  1  0.255990  0.965800  0.224900  1.0  0.0336
  C  C422  1  0.244190  0.901600  0.330600  1.0  -0.2164
  C  C423  1  0.245400  0.058300  0.129000  1.0  -0.2086
  C  C424  1  0.272580  0.909400  0.270800  1.0  -0.0706
  C  C425  1  0.888760  0.211600  0.276600  1.0  -0.1453
  C  C426  1  0.993210  0.104700  0.327700  1.0  0.6857
  C  C427  1  0.907270  0.224600  0.238400  1.0  0.6605
  C  C428  1  0.001000  0.070600  0.398400  1.0  -0.1721
  C  C429  1  0.842940  0.231600  0.673400  1.0  0.694
  C  C430  1  0.842040  0.344300  0.398200  1.0  -0.1525
  C  C431  1  0.864540  0.279700  0.331600  1.0  0.0647
  C  C432  1  0.825920  0.265700  0.475600  1.0  0.6977
  C  C433  1  0.846570  0.196800  0.403300  1.0  -0.0621
  C  C434  1  0.838590  0.267700  0.423800  1.0  -0.1372
  C  C435  1  0.860400  0.201400  0.357200  1.0  -0.0643
  C  C436  1  0.859870  0.217900  0.750300  1.0  -0.1655
  C  C437  1  0.878160  0.282100  0.291900  1.0  -0.1035
  C  C438  1  0.867630  0.286600  0.789800  1.0  -0.1144
  C  C439  1  0.882950  0.280600  0.859800  1.0  0.0267
  C  C440  1  0.888750  0.200200  0.886900  1.0  0.0372
  C  C441  1  0.879430  0.131600  0.844300  1.0  -0.1512
  C  C442  1  0.923480  0.253700  0.074300  1.0  0.7007
  C  C443  1  0.909980  0.259200  0.998400  1.0  -0.133
  C  C444  1  0.902630  0.192500  0.958800  1.0  -0.0415
  C  C445  1  0.904040  0.334500  0.969000  1.0  -0.0496
  C  C446  1  0.981930  0.027600  0.408700  1.0  -0.0831
  C  C447  1  0.987620  0.991600  0.474200  1.0  -0.0417
  C  C448  1  0.026270  0.089200  0.449800  1.0  -0.1316
  C  C449  1  0.030870  0.058100  0.512100  1.0  -0.0516
  C  C450  1  0.856200  0.345300  0.352600  1.0  -0.1134
  C  C451  1  0.869990  0.131500  0.338700  1.0  -0.0706
  C  C452  1  0.884840  0.135700  0.297900  1.0  -0.0751
  C  C453  1  0.865840  0.143200  0.776800  1.0  -0.0273
  C  C454  1  0.890700  0.346900  0.901600  1.0  -0.2092
  C  C455  1  0.009600  0.375500  0.169500  1.0  0.6781
  C  C456  1  0.001400  0.423600  0.101300  1.0  -0.1075
  C  C457  1  0.980700  0.524500  0.908500  1.0  -0.0272
  C  C458  1  0.987100  0.497000  0.976500  1.0  -0.0736
  C  C459  1  0.977100  0.400100  0.050100  1.0  -0.0496
  C  C460  1  0.968900  0.430100  0.984200  1.0  -0.123
  C  C461  1  0.737900  0.629400  0.887800  1.0  0.6984
  C  C462  1  0.715790  0.449800  0.687800  1.0  -0.1256
  C  C463  1  0.726900  0.540400  0.787900  1.0  -0.0378
  C  C464  1  0.721910  0.421800  0.638200  1.0  -0.0532
  C  C465  1  0.767670  0.620200  0.822000  1.0  -0.0686
  C  C466  1  0.754600  0.400200  0.582000  1.0  0.7363
  C  C467  1  0.763130  0.497000  0.673900  1.0  -0.052
  C  C468  1  0.733130  0.507500  0.734000  1.0  -0.063
  C  C469  1  0.755990  0.534200  0.724900  1.0  0.0335
  C  C470  1  0.744190  0.598400  0.830600  1.0  -0.2166
  C  C471  1  0.745400  0.441700  0.629000  1.0  -0.2073
  C  C472  1  0.772580  0.590600  0.770800  1.0  -0.0717
  C  C473  1  0.388760  0.711600  0.276600  1.0  -0.1453
  C  C474  1  0.493210  0.604700  0.327700  1.0  0.6857
  C  C475  1  0.407270  0.724600  0.238400  1.0  0.6605
  C  C476  1  0.501000  0.570600  0.398400  1.0  -0.1721
  C  C477  1  0.342940  0.731600  0.673400  1.0  0.694
  C  C478  1  0.342040  0.844300  0.398200  1.0  -0.1525
  C  C479  1  0.364540  0.779700  0.331600  1.0  0.0647
  C  C480  1  0.325920  0.765700  0.475600  1.0  0.6977
  C  C481  1  0.346570  0.696800  0.403300  1.0  -0.0621
  C  C482  1  0.338590  0.767700  0.423800  1.0  -0.1372
  C  C483  1  0.360400  0.701400  0.357200  1.0  -0.0643
  C  C484  1  0.359870  0.717900  0.750300  1.0  -0.1655
  C  C485  1  0.378160  0.782100  0.291900  1.0  -0.1035
  C  C486  1  0.367630  0.786600  0.789800  1.0  -0.1144
  C  C487  1  0.382950  0.780600  0.859800  1.0  0.0267
  C  C488  1  0.388750  0.700200  0.886900  1.0  0.0372
  C  C489  1  0.379430  0.631600  0.844300  1.0  -0.1512
  C  C490  1  0.423480  0.753700  0.074300  1.0  0.7007
  C  C491  1  0.409980  0.759200  0.998400  1.0  -0.133
  C  C492  1  0.402630  0.692500  0.958800  1.0  -0.0415
  C  C493  1  0.404040  0.834500  0.969000  1.0  -0.0496
  C  C494  1  0.481930  0.527600  0.408700  1.0  -0.0831
  C  C495  1  0.487620  0.491600  0.474200  1.0  -0.0417
  C  C496  1  0.526270  0.589200  0.449800  1.0  -0.1316
  C  C497  1  0.530870  0.558100  0.512100  1.0  -0.0516
  C  C498  1  0.356200  0.845300  0.352600  1.0  -0.1134
  C  C499  1  0.369990  0.631500  0.338700  1.0  -0.0706
  C  C500  1  0.384840  0.635700  0.297900  1.0  -0.0751
  C  C501  1  0.365840  0.643200  0.776800  1.0  -0.0273
  C  C502  1  0.390700  0.846900  0.901600  1.0  -0.2092
  C  C503  1  0.509600  0.875500  0.169500  1.0  0.6781
  C  C504  1  0.501400  0.923600  0.101300  1.0  -0.1075
  C  C505  1  0.480700  0.024500  0.908500  1.0  -0.0203
  C  C506  1  0.487100  0.997000  0.976500  1.0  -0.0736
  C  C507  1  0.477100  0.900100  0.050100  1.0  -0.0496
  C  C508  1  0.468900  0.930100  0.984200  1.0  -0.123
  C  C509  1  0.237900  0.129400  0.887800  1.0  0.6984
  C  C510  1  0.215790  0.949800  0.687800  1.0  -0.1256
  C  C511  1  0.226900  0.040400  0.787900  1.0  -0.0378
  C  C512  1  0.221910  0.921800  0.638200  1.0  -0.0532
  C  C513  1  0.267670  0.120200  0.822000  1.0  -0.0686
  C  C514  1  0.254600  0.900200  0.582000  1.0  0.7363
  C  C515  1  0.263130  0.997000  0.673900  1.0  -0.052
  C  C516  1  0.233130  0.007500  0.734000  1.0  -0.063
  C  C517  1  0.255990  0.034200  0.724900  1.0  0.0335
  C  C518  1  0.244190  0.098400  0.830600  1.0  -0.2166
  C  C519  1  0.245400  0.941700  0.629000  1.0  -0.2073
  C  C520  1  0.272580  0.090600  0.770800  1.0  -0.0717
  C  C521  1  0.111240  0.211600  0.223400  1.0  -0.1463
  C  C522  1  0.006790  0.104700  0.172300  1.0  0.6866
  C  C523  1  0.092730  0.224600  0.261600  1.0  0.6607
  C  C524  1  0.999000  0.070600  0.101600  1.0  -0.1718
  C  C525  1  0.157060  0.231600  0.826600  1.0  0.693
  C  C526  1  0.157960  0.344300  0.101800  1.0  -0.1513
  C  C527  1  0.135460  0.279700  0.168400  1.0  0.0642
  C  C528  1  0.174080  0.265700  0.024400  1.0  0.6963
  C  C529  1  0.153430  0.196800  0.096700  1.0  -0.0622
  C  C530  1  0.161410  0.267700  0.076200  1.0  -0.1383
  C  C531  1  0.139600  0.201400  0.142800  1.0  -0.0643
  C  C532  1  0.140130  0.217900  0.749700  1.0  -0.1647
  C  C533  1  0.121840  0.282100  0.208100  1.0  -0.1039
  C  C534  1  0.132370  0.286600  0.710200  1.0  -0.1129
  C  C535  1  0.117050  0.280600  0.640200  1.0  0.0277
  C  C536  1  0.111250  0.200200  0.613100  1.0  0.0374
  C  C537  1  0.120570  0.131600  0.655700  1.0  -0.1514
  C  C538  1  0.076520  0.253700  0.425700  1.0  0.7023
  C  C539  1  0.090020  0.259200  0.501600  1.0  -0.1331
  C  C540  1  0.097370  0.192500  0.541200  1.0  -0.0427
  C  C541  1  0.095960  0.334500  0.531000  1.0  -0.0492
  C  C542  1  0.018070  0.027600  0.091300  1.0  -0.0822
  C  C543  1  0.012380  0.991600  0.025800  1.0  -0.0422
  C  C544  1  0.973730  0.089200  0.050200  1.0  -0.131
  C  C545  1  0.969130  0.058100  0.987900  1.0  -0.0512
  C  C546  1  0.143800  0.345300  0.147400  1.0  -0.1152
  C  C547  1  0.130010  0.131500  0.161300  1.0  -0.0703
  C  C548  1  0.115160  0.135700  0.202100  1.0  -0.0749
  C  C549  1  0.134160  0.143200  0.723200  1.0  -0.0261
  C  C550  1  0.109300  0.346900  0.598400  1.0  -0.2083
  C  C551  1  0.990400  0.375500  0.330500  1.0  0.676
  C  C552  1  0.998600  0.423600  0.398700  1.0  -0.1071
  C  C553  1  0.019300  0.524500  0.591500  1.0  -0.0276
  C  C554  1  0.012900  0.497000  0.523500  1.0  -0.0739
  C  C555  1  0.022900  0.400100  0.449900  1.0  -0.0498
  C  C556  1  0.031100  0.430100  0.515800  1.0  -0.123
  C  C557  1  0.262100  0.629400  0.612200  1.0  0.6977
  C  C558  1  0.284210  0.449800  0.812200  1.0  -0.1245
  C  C559  1  0.273100  0.540400  0.712100  1.0  -0.0374
  C  C560  1  0.278090  0.421800  0.861800  1.0  -0.0541
  C  C561  1  0.232330  0.620200  0.678000  1.0  -0.0679
  C  C562  1  0.245400  0.400200  0.918000  1.0  0.7348
  C  C563  1  0.236870  0.497000  0.826100  1.0  -0.054
  C  C564  1  0.266870  0.507500  0.766000  1.0  -0.0637
  C  C565  1  0.244010  0.534200  0.775100  1.0  0.0342
  C  C566  1  0.255810  0.598400  0.669400  1.0  -0.2159
  C  C567  1  0.254600  0.441700  0.871000  1.0  -0.211
  C  C568  1  0.227420  0.590600  0.729200  1.0  -0.0711
  C  C569  1  0.611240  0.711600  0.223400  1.0  -0.1463
  C  C570  1  0.506790  0.604700  0.172300  1.0  0.6866
  C  C571  1  0.592730  0.724600  0.261600  1.0  0.6607
  C  C572  1  0.499000  0.570600  0.101600  1.0  -0.1718
  C  C573  1  0.657060  0.731600  0.826600  1.0  0.693
  C  C574  1  0.657960  0.844300  0.101800  1.0  -0.1513
  C  C575  1  0.635460  0.779700  0.168400  1.0  0.0642
  C  C576  1  0.674080  0.765700  0.024400  1.0  0.6963
  C  C577  1  0.653430  0.696800  0.096700  1.0  -0.0622
  C  C578  1  0.661410  0.767700  0.076200  1.0  -0.1383
  C  C579  1  0.639600  0.701400  0.142800  1.0  -0.0643
  C  C580  1  0.640130  0.717900  0.749700  1.0  -0.1647
  C  C581  1  0.621840  0.782100  0.208100  1.0  -0.1039
  C  C582  1  0.632370  0.786600  0.710200  1.0  -0.1129
  C  C583  1  0.617050  0.780600  0.640200  1.0  0.0277
  C  C584  1  0.611250  0.700200  0.613100  1.0  0.0374
  C  C585  1  0.620570  0.631600  0.655700  1.0  -0.1514
  C  C586  1  0.576520  0.753700  0.425700  1.0  0.7023
  C  C587  1  0.590020  0.759200  0.501600  1.0  -0.1331
  C  C588  1  0.597370  0.692500  0.541200  1.0  -0.0427
  C  C589  1  0.595960  0.834500  0.531000  1.0  -0.0492
  C  C590  1  0.518070  0.527600  0.091300  1.0  -0.0822
  C  C591  1  0.512380  0.491600  0.025800  1.0  -0.0422
  C  C592  1  0.473730  0.589200  0.050200  1.0  -0.131
  C  C593  1  0.469130  0.558100  0.987900  1.0  -0.0512
  C  C594  1  0.643800  0.845300  0.147400  1.0  -0.1152
  C  C595  1  0.630010  0.631500  0.161300  1.0  -0.0703
  C  C596  1  0.615160  0.635700  0.202100  1.0  -0.0749
  C  C597  1  0.634160  0.643200  0.723200  1.0  -0.0261
  C  C598  1  0.609300  0.846900  0.598400  1.0  -0.2083
  C  C599  1  0.490400  0.875500  0.330500  1.0  0.676
  C  C600  1  0.498600  0.923600  0.398700  1.0  -0.1071
  C  C601  1  0.519300  0.024500  0.591500  1.0  -0.0209
  C  C602  1  0.512900  0.997000  0.523500  1.0  -0.0739
  C  C603  1  0.522900  0.900100  0.449900  1.0  -0.0498
  C  C604  1  0.531100  0.930100  0.515800  1.0  -0.123
  C  C605  1  0.762100  0.129400  0.612200  1.0  0.6977
  C  C606  1  0.784210  0.949800  0.812200  1.0  -0.1245
  C  C607  1  0.773100  0.040400  0.712100  1.0  -0.0374
  C  C608  1  0.778090  0.921800  0.861800  1.0  -0.0541
  C  C609  1  0.732330  0.120200  0.678000  1.0  -0.0679
  C  C610  1  0.745400  0.900200  0.918000  1.0  0.7348
  C  C611  1  0.736870  0.997000  0.826100  1.0  -0.0529
  C  C612  1  0.766870  0.007500  0.766000  1.0  -0.0637
  C  C613  1  0.744010  0.034200  0.775100  1.0  0.0342
  C  C614  1  0.755810  0.098400  0.669400  1.0  -0.2159
  C  C615  1  0.754600  0.941700  0.871000  1.0  -0.2125
  C  C616  1  0.727420  0.090600  0.729200  1.0  -0.0711
  O  O617  1  0.006270  0.670500  0.823600  1.0  -0.5868
  O  O618  1  0.084090  0.844600  0.778300  1.0  -0.6446
  O  O619  1  0.965890  0.604300  0.787900  1.0  -0.683
  O  O620  1  0.071930  0.817900  0.902300  1.0  -0.6137
  O  O621  1  0.087760  0.705500  0.775800  1.0  -0.6361
  O  O622  1  0.071290  0.679100  0.893600  1.0  -0.6192
  O  O623  1  0.988090  0.849100  0.679100  1.0  -0.6933
  O  O624  1  0.028920  0.910600  0.716100  1.0  -0.6093
  O  O625  1  0.038260  0.756200  0.770560  1.0  -1.0204
  O  O626  1  0.163650  0.831200  0.361400  1.0  -0.6371
  O  O627  1  0.163160  0.694200  0.344500  1.0  -0.635
  O  O628  1  0.178760  0.805900  0.508600  1.0  -0.6087
  O  O629  1  0.178030  0.668000  0.501900  1.0  -0.6504
  O  O630  1  0.211590  0.741600  0.446280  1.0  -1.0186
  O  O631  1  0.221730  0.588400  0.413600  1.0  -0.7083
  O  O632  1  0.245740  0.319200  0.075500  1.0  -0.6051
  O  O633  1  0.283540  0.396500  0.106800  1.0  -0.6307
  O  O634  1  0.262690  0.646900  0.462400  1.0  -0.6937
  O  O635  1  0.506270  0.170500  0.823600  1.0  -0.5868
  O  O636  1  0.584090  0.344600  0.778300  1.0  -0.6446
  O  O637  1  0.465890  0.104300  0.787900  1.0  -0.683
  O  O638  1  0.571930  0.317900  0.902300  1.0  -0.6137
  O  O639  1  0.587760  0.205500  0.775800  1.0  -0.6361
  O  O640  1  0.571290  0.179100  0.893600  1.0  -0.6192
  O  O641  1  0.488090  0.349100  0.679100  1.0  -0.6933
  O  O642  1  0.528920  0.410600  0.716100  1.0  -0.6093
  O  O643  1  0.538260  0.256200  0.770560  1.0  -1.0204
  O  O644  1  0.663650  0.331200  0.361400  1.0  -0.6371
  O  O645  1  0.663160  0.194200  0.344500  1.0  -0.635
  O  O646  1  0.678760  0.305900  0.508600  1.0  -0.6087
  O  O647  1  0.678030  0.168000  0.501900  1.0  -0.6504
  O  O648  1  0.711590  0.241600  0.446280  1.0  -1.0186
  O  O649  1  0.721730  0.088400  0.413600  1.0  -0.7083
  O  O650  1  0.745740  0.819200  0.075500  1.0  -0.6051
  O  O651  1  0.783540  0.896500  0.106800  1.0  -0.6307
  O  O652  1  0.762690  0.146900  0.462400  1.0  -0.6937
  O  O653  1  0.993730  0.670500  0.676400  1.0  -0.5863
  O  O654  1  0.915910  0.844600  0.721700  1.0  -0.6467
  O  O655  1  0.034110  0.604300  0.712100  1.0  -0.6799
  O  O656  1  0.928070  0.817900  0.597700  1.0  -0.6143
  O  O657  1  0.912240  0.705500  0.724200  1.0  -0.6363
  O  O658  1  0.928710  0.679100  0.606400  1.0  -0.6189
  O  O659  1  0.011910  0.849100  0.820900  1.0  -0.6942
  O  O660  1  0.971080  0.910600  0.783900  1.0  -0.6075
  O  O661  1  0.961740  0.756200  0.729440  1.0  -1.0213
  O  O662  1  0.836350  0.831200  0.138600  1.0  -0.6341
  O  O663  1  0.836840  0.694200  0.155500  1.0  -0.6347
  O  O664  1  0.821240  0.805900  0.991400  1.0  -0.6073
  O  O665  1  0.821970  0.668000  0.998100  1.0  -0.6506
  O  O666  1  0.788410  0.741600  0.053720  1.0  -1.0168
  O  O667  1  0.778270  0.588400  0.086400  1.0  -0.7085
  O  O668  1  0.754260  0.319200  0.424500  1.0  -0.6053
  O  O669  1  0.716460  0.396500  0.393200  1.0  -0.6309
  O  O670  1  0.737310  0.646900  0.037600  1.0  -0.6936
  O  O671  1  0.493730  0.170500  0.676400  1.0  -0.5863
  O  O672  1  0.415910  0.344600  0.721700  1.0  -0.6467
  O  O673  1  0.534110  0.104300  0.712100  1.0  -0.6799
  O  O674  1  0.428070  0.317900  0.597700  1.0  -0.6143
  O  O675  1  0.412240  0.205500  0.724200  1.0  -0.6363
  O  O676  1  0.428710  0.179100  0.606400  1.0  -0.6189
  O  O677  1  0.511910  0.349100  0.820900  1.0  -0.6942
  O  O678  1  0.471080  0.410600  0.783900  1.0  -0.6075
  O  O679  1  0.461740  0.256200  0.729440  1.0  -1.0213
  O  O680  1  0.336350  0.331200  0.138600  1.0  -0.6341
  O  O681  1  0.336840  0.194200  0.155500  1.0  -0.6347
  O  O682  1  0.321240  0.305900  0.991400  1.0  -0.6073
  O  O683  1  0.321970  0.168000  0.998100  1.0  -0.6506
  O  O684  1  0.288410  0.241600  0.053720  1.0  -1.0168
  O  O685  1  0.278270  0.088400  0.086400  1.0  -0.7214
  O  O686  1  0.254260  0.819200  0.424500  1.0  -0.6053
  O  O687  1  0.216460  0.896500  0.393200  1.0  -0.6309
  O  O688  1  0.237310  0.146900  0.037600  1.0  -0.6936
  O  O689  1  0.993730  0.329500  0.176400  1.0  -0.5861
  O  O690  1  0.915910  0.155400  0.221700  1.0  -0.6455
  O  O691  1  0.034110  0.395700  0.212100  1.0  -0.6782
  O  O692  1  0.928070  0.182100  0.097700  1.0  -0.6127
  O  O693  1  0.912240  0.294500  0.224200  1.0  -0.6359
  O  O694  1  0.928710  0.320900  0.106400  1.0  -0.6195
  O  O695  1  0.011910  0.150900  0.320900  1.0  -0.6928
  O  O696  1  0.971080  0.089400  0.283900  1.0  -0.6088
  O  O697  1  0.961740  0.243800  0.229440  1.0  -1.0214
  O  O698  1  0.836350  0.168800  0.638600  1.0  -0.6343
  O  O699  1  0.836840  0.305800  0.655500  1.0  -0.6338
  O  O700  1  0.821240  0.194100  0.491400  1.0  -0.6067
  O  O701  1  0.821970  0.332000  0.498100  1.0  -0.6501
  O  O702  1  0.788410  0.258400  0.553720  1.0  -1.0171
  O  O703  1  0.778270  0.411600  0.586400  1.0  -0.7126
  O  O704  1  0.754260  0.680800  0.924500  1.0  -0.6046
  O  O705  1  0.716460  0.603500  0.893200  1.0  -0.6315
  O  O706  1  0.737310  0.353100  0.537600  1.0  -0.6941
  O  O707  1  0.493730  0.829500  0.176400  1.0  -0.5861
  O  O708  1  0.415910  0.655400  0.221700  1.0  -0.6455
  O  O709  1  0.534110  0.895700  0.212100  1.0  -0.6782
  O  O710  1  0.428070  0.682100  0.097700  1.0  -0.6127
  O  O711  1  0.412240  0.794500  0.224200  1.0  -0.6359
  O  O712  1  0.428710  0.820900  0.106400  1.0  -0.6195
  O  O713  1  0.511910  0.650900  0.320900  1.0  -0.6928
  O  O714  1  0.471080  0.589400  0.283900  1.0  -0.6088
  O  O715  1  0.461740  0.743800  0.229440  1.0  -1.0214
  O  O716  1  0.336350  0.668800  0.638600  1.0  -0.6343
  O  O717  1  0.336840  0.805800  0.655500  1.0  -0.6338
  O  O718  1  0.321240  0.694100  0.491400  1.0  -0.6067
  O  O719  1  0.321970  0.832000  0.498100  1.0  -0.6501
  O  O720  1  0.288410  0.758400  0.553720  1.0  -1.0171
  O  O721  1  0.278270  0.911600  0.586400  1.0  -0.7126
  O  O722  1  0.254260  0.180800  0.924500  1.0  -0.6046
  O  O723  1  0.216460  0.103500  0.893200  1.0  -0.6315
  O  O724  1  0.237310  0.853100  0.537600  1.0  -0.6941
  O  O725  1  0.006270  0.329500  0.323600  1.0  -0.5867
  O  O726  1  0.084090  0.155400  0.278300  1.0  -0.6443
  O  O727  1  0.965890  0.395700  0.287900  1.0  -0.6814
  O  O728  1  0.071930  0.182100  0.402300  1.0  -0.6152
  O  O729  1  0.087760  0.294500  0.275800  1.0  -0.6353
  O  O730  1  0.071290  0.320900  0.393600  1.0  -0.6186
  O  O731  1  0.988090  0.150900  0.179100  1.0  -0.6923
  O  O732  1  0.028920  0.089400  0.216100  1.0  -0.6097
  O  O733  1  0.038260  0.243800  0.270560  1.0  -1.0206
  O  O734  1  0.163650  0.168800  0.861400  1.0  -0.6359
  O  O735  1  0.163160  0.305800  0.844500  1.0  -0.6352
  O  O736  1  0.178760  0.194100  0.008600  1.0  -0.6083
  O  O737  1  0.178030  0.332000  0.001900  1.0  -0.6518
  O  O738  1  0.211590  0.258400  0.946280  1.0  -1.0187
  O  O739  1  0.221730  0.411600  0.913600  1.0  -0.7124
  O  O740  1  0.245740  0.680800  0.575500  1.0  -0.6045
  O  O741  1  0.283540  0.603500  0.606800  1.0  -0.6306
  O  O742  1  0.262690  0.353100  0.962400  1.0  -0.6948
  O  O743  1  0.506270  0.829500  0.323600  1.0  -0.5867
  O  O744  1  0.584090  0.655400  0.278300  1.0  -0.6443
  O  O745  1  0.465890  0.895700  0.287900  1.0  -0.6814
  O  O746  1  0.571930  0.682100  0.402300  1.0  -0.6152
  O  O747  1  0.587760  0.794500  0.275800  1.0  -0.6353
  O  O748  1  0.571290  0.820900  0.393600  1.0  -0.6186
  O  O749  1  0.488090  0.650900  0.179100  1.0  -0.6923
  O  O750  1  0.528920  0.589400  0.216100  1.0  -0.6097
  O  O751  1  0.538260  0.743800  0.270560  1.0  -1.0206
  O  O752  1  0.663650  0.668800  0.861400  1.0  -0.6359
  O  O753  1  0.663160  0.805800  0.844500  1.0  -0.6352
  O  O754  1  0.678760  0.694100  0.008600  1.0  -0.6083
  O  O755  1  0.678030  0.832000  0.001900  1.0  -0.6518
  O  O756  1  0.711590  0.758400  0.946280  1.0  -1.0187
  O  O757  1  0.721730  0.911600  0.913600  1.0  -0.7251
  O  O758  1  0.745740  0.180800  0.575500  1.0  -0.6045
  O  O759  1  0.783540  0.103500  0.606800  1.0  -0.6306
  O  O760  1  0.762690  0.853100  0.962400  1.0  -0.6948
