# generated using pymatgen
data_AgH4C6NO2
_symmetry_space_group_name_H-M   'P 1'
_cell_length_a   14.26240000
_cell_length_b   23.82600000
_cell_length_c   30.75000000
_cell_angle_alpha   90.00000000
_cell_angle_beta   90.00000000
_cell_angle_gamma   90.00000000
_symmetry_Int_Tables_number   1
_chemical_formula_structural   AgH4C6NO2
_chemical_formula_sum   'Ag64 H256 C384 N64 O128'
_cell_volume   10449.34022880
_cell_formula_units_Z   64
loop_
 _symmetry_equiv_pos_site_id
 _symmetry_equiv_pos_as_xyz
  1  'x, y, z'
loop_
 _atom_site_type_symbol
 _atom_site_label
 _atom_site_symmetry_multiplicity
 _atom_site_fract_x
 _atom_site_fract_y
 _atom_site_fract_z
 _atom_site_occupancy
 _atom_site_charge
  Ag  Ag1  1  0.299830  0.934760  0.019290  1.0  0.446
  Ag  Ag2  1  0.148910  0.766420  0.211140  1.0  0.497
  Ag  Ag3  1  0.087460  0.722170  0.289380  1.0  0.475
  Ag  Ag4  1  0.977750  0.555540  0.485560  1.0  0.3718
  Ag  Ag5  1  0.251620  0.048870  0.493370  1.0  0.4332
  Ag  Ag6  1  0.000580  0.560290  0.971170  1.0  0.5193
  Ag  Ag7  1  0.888740  0.738910  0.783500  1.0  0.4974
  Ag  Ag8  1  0.841760  0.777210  0.700430  1.0  0.4422
  Ag  Ag9  1  0.200170  0.565240  0.019290  1.0  0.4464
  Ag  Ag10  1  0.351090  0.733580  0.211140  1.0  0.4976
  Ag  Ag11  1  0.412540  0.777830  0.289380  1.0  0.4744
  Ag  Ag12  1  0.522250  0.944460  0.485560  1.0  0.3733
  Ag  Ag13  1  0.248380  0.451130  0.493370  1.0  0.4335
  Ag  Ag14  1  0.499420  0.939710  0.971170  1.0  0.5193
  Ag  Ag15  1  0.611260  0.761090  0.783500  1.0  0.4975
  Ag  Ag16  1  0.658240  0.722790  0.700430  1.0  0.4427
  Ag  Ag17  1  0.700170  0.434760  0.480710  1.0  0.4488
  Ag  Ag18  1  0.851090  0.266420  0.288860  1.0  0.4973
  Ag  Ag19  1  0.912540  0.222170  0.210620  1.0  0.475
  Ag  Ag20  1  0.022250  0.055540  0.014440  1.0  0.3705
  Ag  Ag21  1  0.748380  0.548870  0.006630  1.0  0.4318
  Ag  Ag22  1  0.999420  0.060290  0.528830  1.0  0.5181
  Ag  Ag23  1  0.111260  0.238910  0.716500  1.0  0.4978
  Ag  Ag24  1  0.158240  0.277210  0.799570  1.0  0.4422
  Ag  Ag25  1  0.799830  0.065240  0.480710  1.0  0.4488
  Ag  Ag26  1  0.648910  0.233580  0.288860  1.0  0.4974
  Ag  Ag27  1  0.587460  0.277830  0.210620  1.0  0.4742
  Ag  Ag28  1  0.477750  0.444460  0.014440  1.0  0.3707
  Ag  Ag29  1  0.751620  0.951130  0.006630  1.0  0.4311
  Ag  Ag30  1  0.500580  0.439710  0.528830  1.0  0.5179
  Ag  Ag31  1  0.388740  0.261090  0.716500  1.0  0.497
  Ag  Ag32  1  0.341760  0.222790  0.799570  1.0  0.4419
  Ag  Ag33  1  0.700170  0.065240  0.980710  1.0  0.4488
  Ag  Ag34  1  0.851090  0.233580  0.788860  1.0  0.4976
  Ag  Ag35  1  0.912540  0.277830  0.710620  1.0  0.4742
  Ag  Ag36  1  0.022250  0.444460  0.514440  1.0  0.3712
  Ag  Ag37  1  0.748380  0.951130  0.506630  1.0  0.4327
  Ag  Ag38  1  0.999420  0.439710  0.028830  1.0  0.518
  Ag  Ag39  1  0.111260  0.261090  0.216500  1.0  0.4974
  Ag  Ag40  1  0.158240  0.222790  0.299570  1.0  0.4423
  Ag  Ag41  1  0.799830  0.434760  0.980710  1.0  0.4487
  Ag  Ag42  1  0.648910  0.266420  0.788860  1.0  0.4971
  Ag  Ag43  1  0.587460  0.222170  0.710620  1.0  0.4749
  Ag  Ag44  1  0.477750  0.055540  0.514440  1.0  0.3699
  Ag  Ag45  1  0.751620  0.548870  0.506630  1.0  0.4324
  Ag  Ag46  1  0.500580  0.060290  0.028830  1.0  0.518
  Ag  Ag47  1  0.388740  0.238910  0.216500  1.0  0.4973
  Ag  Ag48  1  0.341760  0.277210  0.299570  1.0  0.4418
  Ag  Ag49  1  0.299830  0.565240  0.519290  1.0  0.4463
  Ag  Ag50  1  0.148910  0.733580  0.711140  1.0  0.4974
  Ag  Ag51  1  0.087460  0.777830  0.789380  1.0  0.4743
  Ag  Ag52  1  0.977750  0.944460  0.985560  1.0  0.3729
  Ag  Ag53  1  0.251620  0.451130  0.993370  1.0  0.4341
  Ag  Ag54  1  0.000580  0.939710  0.471170  1.0  0.5194
  Ag  Ag55  1  0.888740  0.761090  0.283500  1.0  0.4971
  Ag  Ag56  1  0.841760  0.722790  0.200430  1.0  0.4422
  Ag  Ag57  1  0.200170  0.934760  0.519290  1.0  0.4461
  Ag  Ag58  1  0.351090  0.766420  0.711140  1.0  0.4972
  Ag  Ag59  1  0.412540  0.722170  0.789380  1.0  0.475
  Ag  Ag60  1  0.522250  0.555540  0.985560  1.0  0.3723
  Ag  Ag61  1  0.248380  0.048870  0.993370  1.0  0.4342
  Ag  Ag62  1  0.499420  0.560290  0.471170  1.0  0.5194
  Ag  Ag63  1  0.611260  0.738910  0.283500  1.0  0.4978
  Ag  Ag64  1  0.658240  0.777210  0.200430  1.0  0.4426
  H  H65  1  0.175100  0.813600  0.041000  1.0  0.087
  H  H66  1  0.306600  0.920100  0.115800  1.0  0.0977
  H  H67  1  0.127100  0.763600  0.100700  1.0  0.1001
  H  H68  1  0.262100  0.869600  0.176300  1.0  0.1122
  H  H69  1  0.323400  0.908000  0.263400  1.0  0.1038
  H  H70  1  0.203400  0.861800  0.376200  1.0  0.1222
  H  H71  1  0.918000  0.571600  0.230500  1.0  0.1306
  H  H72  1  0.031100  0.638600  0.120600  1.0  0.106
  H  H73  1  0.402800  0.981900  0.297500  1.0  0.1265
  H  H74  1  0.848500  0.502500  0.187800  1.0  0.0971
  H  H75  1  0.960500  0.627400  0.330100  1.0  0.09
  H  H76  1  0.125100  0.729500  0.397600  1.0  0.1183
  H  H77  1  0.380800  0.995300  0.373500  1.0  0.1095
  H  H78  1  0.864000  0.502400  0.113700  1.0  0.1141
  H  H79  1  0.916000  0.583400  0.394400  1.0  0.1175
  H  H80  1  0.086800  0.681600  0.459900  1.0  0.1038
  H  H81  1  0.133000  0.497600  0.639000  1.0  0.1003
  H  H82  1  0.968000  0.633000  0.624400  1.0  0.1163
  H  H83  1  0.918400  0.685900  0.953600  1.0  0.1086
  H  H84  1  0.041800  0.579700  0.874900  1.0  0.1043
  H  H85  1  0.142500  0.512900  0.712600  1.0  0.1043
  H  H86  1  0.869300  0.738400  0.894200  1.0  0.1041
  H  H87  1  0.004000  0.636300  0.816300  1.0  0.0991
  H  H88  1  0.061600  0.587000  0.744500  1.0  0.1238
  H  H89  1  0.862100  0.766900  0.591300  1.0  0.0852
  H  H90  1  0.717500  0.875400  0.661300  1.0  0.132
  H  H91  1  0.838200  0.819000  0.530000  1.0  0.1191
  H  H92  1  0.688800  0.925100  0.599000  1.0  0.098
  H  H93  1  0.772100  0.876000  0.862400  1.0  0.1327
  H  H94  1  0.675000  0.929500  0.746700  1.0  0.1136
  H  H95  1  0.593300  0.003600  0.781700  1.0  0.1185
  H  H96  1  0.603800  0.013800  0.855700  1.0  0.1033
  H  H97  1  0.324900  0.686400  0.041000  1.0  0.0868
  H  H98  1  0.193400  0.579900  0.115800  1.0  0.097
  H  H99  1  0.372900  0.736400  0.100700  1.0  0.1004
  H  H100  1  0.237900  0.630400  0.176300  1.0  0.1116
  H  H101  1  0.176600  0.592000  0.263400  1.0  0.1043
  H  H102  1  0.296600  0.638200  0.376200  1.0  0.1223
  H  H103  1  0.582000  0.928400  0.230500  1.0  0.13
  H  H104  1  0.468900  0.861400  0.120600  1.0  0.1058
  H  H105  1  0.097200  0.518100  0.297500  1.0  0.1264
  H  H106  1  0.651500  0.997500  0.187800  1.0  0.0971
  H  H107  1  0.539500  0.872600  0.330100  1.0  0.0902
  H  H108  1  0.374900  0.770500  0.397600  1.0  0.1176
  H  H109  1  0.119200  0.504700  0.373500  1.0  0.1102
  H  H110  1  0.636000  0.997600  0.113700  1.0  0.1145
  H  H111  1  0.584000  0.916600  0.394400  1.0  0.1171
  H  H112  1  0.413200  0.818400  0.459900  1.0  0.1033
  H  H113  1  0.367000  0.002400  0.639000  1.0  0.1013
  H  H114  1  0.532000  0.867000  0.624400  1.0  0.1155
  H  H115  1  0.581600  0.814100  0.953600  1.0  0.1085
  H  H116  1  0.458200  0.920300  0.874900  1.0  0.105
  H  H117  1  0.357500  0.987100  0.712600  1.0  0.1043
  H  H118  1  0.630700  0.761600  0.894200  1.0  0.1038
  H  H119  1  0.496000  0.863700  0.816300  1.0  0.0995
  H  H120  1  0.438400  0.913000  0.744500  1.0  0.1238
  H  H121  1  0.637900  0.733100  0.591300  1.0  0.0847
  H  H122  1  0.782500  0.624600  0.661300  1.0  0.1322
  H  H123  1  0.661800  0.681000  0.530000  1.0  0.1188
  H  H124  1  0.811200  0.574900  0.599000  1.0  0.098
  H  H125  1  0.727900  0.624000  0.862400  1.0  0.133
  H  H126  1  0.825000  0.570500  0.746700  1.0  0.1139
  H  H127  1  0.906700  0.496400  0.781700  1.0  0.1181
  H  H128  1  0.896200  0.486200  0.855700  1.0  0.1041
  H  H129  1  0.824900  0.313600  0.459000  1.0  0.0865
  H  H130  1  0.693400  0.420100  0.384200  1.0  0.0971
  H  H131  1  0.872900  0.263600  0.399300  1.0  0.1009
  H  H132  1  0.737900  0.369600  0.323700  1.0  0.1112
  H  H133  1  0.676600  0.408000  0.236600  1.0  0.1041
  H  H134  1  0.796600  0.361800  0.123800  1.0  0.1226
  H  H135  1  0.082000  0.071600  0.269500  1.0  0.1297
  H  H136  1  0.968900  0.138600  0.379400  1.0  0.1054
  H  H137  1  0.597200  0.481900  0.202500  1.0  0.1269
  H  H138  1  0.151500  0.002500  0.312200  1.0  0.0966
  H  H139  1  0.039500  0.127400  0.169900  1.0  0.0896
  H  H140  1  0.874900  0.229500  0.102400  1.0  0.1179
  H  H141  1  0.619200  0.495300  0.126500  1.0  0.1103
  H  H142  1  0.136000  0.002400  0.386300  1.0  0.1151
  H  H143  1  0.084000  0.083400  0.105600  1.0  0.1176
  H  H144  1  0.913200  0.181600  0.040100  1.0  0.1035
  H  H145  1  0.867000  0.997600  0.861000  1.0  0.1013
  H  H146  1  0.032000  0.133000  0.875600  1.0  0.1155
  H  H147  1  0.081600  0.185900  0.546400  1.0  0.1085
  H  H148  1  0.958200  0.079700  0.625100  1.0  0.1044
  H  H149  1  0.857500  0.012900  0.787400  1.0  0.1039
  H  H150  1  0.130700  0.238400  0.605800  1.0  0.1039
  H  H151  1  0.996000  0.136300  0.683700  1.0  0.0985
  H  H152  1  0.938400  0.087000  0.755500  1.0  0.1241
  H  H153  1  0.137900  0.266900  0.908700  1.0  0.0855
  H  H154  1  0.282500  0.375400  0.838700  1.0  0.132
  H  H155  1  0.161800  0.319000  0.970000  1.0  0.1179
  H  H156  1  0.311200  0.425100  0.901000  1.0  0.0978
  H  H157  1  0.227900  0.376000  0.637600  1.0  0.1323
  H  H158  1  0.325000  0.429500  0.753300  1.0  0.113
  H  H159  1  0.406700  0.503600  0.718300  1.0  0.1187
  H  H160  1  0.396200  0.513800  0.644300  1.0  0.1032
  H  H161  1  0.675100  0.186400  0.459000  1.0  0.0863
  H  H162  1  0.806600  0.079900  0.384200  1.0  0.0982
  H  H163  1  0.627100  0.236400  0.399300  1.0  0.1008
  H  H164  1  0.762100  0.130400  0.323700  1.0  0.1116
  H  H165  1  0.823400  0.092000  0.236600  1.0  0.104
  H  H166  1  0.703400  0.138200  0.123800  1.0  0.1227
  H  H167  1  0.418000  0.428400  0.269500  1.0  0.1302
  H  H168  1  0.531100  0.361400  0.379400  1.0  0.1062
  H  H169  1  0.902800  0.018100  0.202500  1.0  0.1267
  H  H170  1  0.348500  0.497500  0.312200  1.0  0.0969
  H  H171  1  0.460500  0.372600  0.169900  1.0  0.0894
  H  H172  1  0.625100  0.270500  0.102400  1.0  0.118
  H  H173  1  0.880800  0.004700  0.126500  1.0  0.1096
  H  H174  1  0.364000  0.497600  0.386300  1.0  0.1144
  H  H175  1  0.416000  0.416600  0.105600  1.0  0.1173
  H  H176  1  0.586800  0.318400  0.040100  1.0  0.1039
  H  H177  1  0.633000  0.502400  0.861000  1.0  0.1007
  H  H178  1  0.468000  0.367000  0.875600  1.0  0.1158
  H  H179  1  0.418400  0.314100  0.546400  1.0  0.1085
  H  H180  1  0.541800  0.420300  0.625100  1.0  0.1048
  H  H181  1  0.642500  0.487100  0.787400  1.0  0.1043
  H  H182  1  0.369300  0.261600  0.605800  1.0  0.1034
  H  H183  1  0.504000  0.363700  0.683700  1.0  0.0992
  H  H184  1  0.561600  0.413000  0.755500  1.0  0.1237
  H  H185  1  0.362100  0.233100  0.908700  1.0  0.0852
  H  H186  1  0.217500  0.124600  0.838700  1.0  0.1322
  H  H187  1  0.338200  0.181000  0.970000  1.0  0.118
  H  H188  1  0.188800  0.074900  0.901000  1.0  0.0981
  H  H189  1  0.272100  0.124000  0.637600  1.0  0.1328
  H  H190  1  0.175000  0.070500  0.753300  1.0  0.113
  H  H191  1  0.093300  0.996400  0.718300  1.0  0.1191
  H  H192  1  0.103800  0.986200  0.644300  1.0  0.1039
  H  H193  1  0.824900  0.186400  0.959000  1.0  0.0863
  H  H194  1  0.693400  0.079900  0.884200  1.0  0.0973
  H  H195  1  0.872900  0.236400  0.899300  1.0  0.1002
  H  H196  1  0.737900  0.130400  0.823700  1.0  0.1115
  H  H197  1  0.676600  0.092000  0.736600  1.0  0.104
  H  H198  1  0.796600  0.138200  0.623800  1.0  0.1227
  H  H199  1  0.082000  0.428400  0.769500  1.0  0.1295
  H  H200  1  0.968900  0.361400  0.879400  1.0  0.1057
  H  H201  1  0.597200  0.018100  0.702500  1.0  0.1267
  H  H202  1  0.151500  0.497500  0.812200  1.0  0.0968
  H  H203  1  0.039500  0.372600  0.669900  1.0  0.0897
  H  H204  1  0.874900  0.270500  0.602400  1.0  0.1172
  H  H205  1  0.619200  0.004700  0.626500  1.0  0.1101
  H  H206  1  0.136000  0.497600  0.886300  1.0  0.1146
  H  H207  1  0.084000  0.416600  0.605600  1.0  0.1172
  H  H208  1  0.913200  0.318400  0.540100  1.0  0.1037
  H  H209  1  0.867000  0.502400  0.361000  1.0  0.1012
  H  H210  1  0.032000  0.367000  0.375600  1.0  0.1156
  H  H211  1  0.081600  0.314100  0.046400  1.0  0.1084
  H  H212  1  0.958200  0.420300  0.125100  1.0  0.1048
  H  H213  1  0.857500  0.487100  0.287400  1.0  0.1045
  H  H214  1  0.130700  0.261600  0.105800  1.0  0.1037
  H  H215  1  0.996000  0.363700  0.183700  1.0  0.0991
  H  H216  1  0.938400  0.413000  0.255500  1.0  0.124
  H  H217  1  0.137900  0.233100  0.408700  1.0  0.0854
  H  H218  1  0.282500  0.124600  0.338700  1.0  0.1323
  H  H219  1  0.161800  0.181000  0.470000  1.0  0.118
  H  H220  1  0.311200  0.074900  0.401000  1.0  0.0978
  H  H221  1  0.227900  0.124000  0.137600  1.0  0.1331
  H  H222  1  0.325000  0.070500  0.253300  1.0  0.1131
  H  H223  1  0.406700  0.996400  0.218300  1.0  0.119
  H  H224  1  0.396200  0.986200  0.144300  1.0  0.1038
  H  H225  1  0.675100  0.313600  0.959000  1.0  0.0866
  H  H226  1  0.806600  0.420100  0.884200  1.0  0.0983
  H  H227  1  0.627100  0.263600  0.899300  1.0  0.1006
  H  H228  1  0.762100  0.369600  0.823700  1.0  0.1115
  H  H229  1  0.823400  0.408000  0.736600  1.0  0.104
  H  H230  1  0.703400  0.361800  0.623800  1.0  0.1221
  H  H231  1  0.418000  0.071600  0.769500  1.0  0.1305
  H  H232  1  0.531100  0.138600  0.879400  1.0  0.1057
  H  H233  1  0.902800  0.481900  0.702500  1.0  0.1267
  H  H234  1  0.348500  0.002500  0.812200  1.0  0.0964
  H  H235  1  0.460500  0.127400  0.669900  1.0  0.0895
  H  H236  1  0.625100  0.229500  0.602400  1.0  0.1181
  H  H237  1  0.880800  0.495300  0.626500  1.0  0.1097
  H  H238  1  0.364000  0.002400  0.886300  1.0  0.1147
  H  H239  1  0.416000  0.083400  0.605600  1.0  0.1175
  H  H240  1  0.586800  0.181600  0.540100  1.0  0.1042
  H  H241  1  0.633000  0.997600  0.361000  1.0  0.1009
  H  H242  1  0.468000  0.133000  0.375600  1.0  0.1158
  H  H243  1  0.418400  0.185900  0.046400  1.0  0.1087
  H  H244  1  0.541800  0.079700  0.125100  1.0  0.1043
  H  H245  1  0.642500  0.012900  0.287400  1.0  0.1039
  H  H246  1  0.369300  0.238400  0.105800  1.0  0.1038
  H  H247  1  0.504000  0.136300  0.183700  1.0  0.0985
  H  H248  1  0.561600  0.087000  0.255500  1.0  0.1239
  H  H249  1  0.362100  0.266900  0.408700  1.0  0.0856
  H  H250  1  0.217500  0.375400  0.338700  1.0  0.1319
  H  H251  1  0.338200  0.319000  0.470000  1.0  0.1181
  H  H252  1  0.188800  0.425100  0.401000  1.0  0.0982
  H  H253  1  0.272100  0.376000  0.137600  1.0  0.1322
  H  H254  1  0.175000  0.429500  0.253300  1.0  0.1131
  H  H255  1  0.093300  0.503600  0.218300  1.0  0.1189
  H  H256  1  0.103800  0.513800  0.144300  1.0  0.1036
  H  H257  1  0.175100  0.686400  0.541000  1.0  0.087
  H  H258  1  0.306600  0.579900  0.615800  1.0  0.0981
  H  H259  1  0.127100  0.736400  0.600700  1.0  0.1009
  H  H260  1  0.262100  0.630400  0.676300  1.0  0.112
  H  H261  1  0.323400  0.592000  0.763400  1.0  0.104
  H  H262  1  0.203400  0.638200  0.876200  1.0  0.1221
  H  H263  1  0.918000  0.928400  0.730500  1.0  0.1306
  H  H264  1  0.031100  0.861400  0.620600  1.0  0.1063
  H  H265  1  0.402800  0.518100  0.797500  1.0  0.1265
  H  H266  1  0.848500  0.997500  0.687800  1.0  0.097
  H  H267  1  0.960500  0.872600  0.830100  1.0  0.0898
  H  H268  1  0.125100  0.770500  0.897600  1.0  0.1183
  H  H269  1  0.380800  0.504700  0.873500  1.0  0.1101
  H  H270  1  0.864000  0.997600  0.613700  1.0  0.1145
  H  H271  1  0.916000  0.916600  0.894400  1.0  0.1175
  H  H272  1  0.086800  0.818400  0.959900  1.0  0.1039
  H  H273  1  0.133000  0.002400  0.139000  1.0  0.1003
  H  H274  1  0.968000  0.867000  0.124400  1.0  0.1157
  H  H275  1  0.918400  0.814100  0.453600  1.0  0.1086
  H  H276  1  0.041800  0.920300  0.374900  1.0  0.1049
  H  H277  1  0.142500  0.987100  0.212600  1.0  0.1042
  H  H278  1  0.869300  0.761600  0.394200  1.0  0.1036
  H  H279  1  0.004000  0.863700  0.316300  1.0  0.0992
  H  H280  1  0.061600  0.913000  0.244500  1.0  0.1236
  H  H281  1  0.862100  0.733100  0.091300  1.0  0.0848
  H  H282  1  0.717500  0.624600  0.161300  1.0  0.1319
  H  H283  1  0.838200  0.681000  0.030000  1.0  0.119
  H  H284  1  0.688800  0.574900  0.099000  1.0  0.0981
  H  H285  1  0.772100  0.624000  0.362400  1.0  0.1328
  H  H286  1  0.675000  0.570500  0.246700  1.0  0.1138
  H  H287  1  0.593300  0.496400  0.281700  1.0  0.1181
  H  H288  1  0.603800  0.486200  0.355700  1.0  0.1041
  H  H289  1  0.324900  0.813600  0.541000  1.0  0.087
  H  H290  1  0.193400  0.920100  0.615800  1.0  0.097
  H  H291  1  0.372900  0.763600  0.600700  1.0  0.1007
  H  H292  1  0.237900  0.869600  0.676300  1.0  0.1118
  H  H293  1  0.176600  0.908000  0.763400  1.0  0.104
  H  H294  1  0.296600  0.861800  0.876200  1.0  0.1226
  H  H295  1  0.582000  0.571600  0.730500  1.0  0.1299
  H  H296  1  0.468900  0.638600  0.620600  1.0  0.1059
  H  H297  1  0.097200  0.981900  0.797500  1.0  0.1268
  H  H298  1  0.651500  0.502500  0.687800  1.0  0.0973
  H  H299  1  0.539500  0.627400  0.830100  1.0  0.0902
  H  H300  1  0.374900  0.729500  0.897600  1.0  0.1182
  H  H301  1  0.119200  0.995300  0.873500  1.0  0.1098
  H  H302  1  0.636000  0.502400  0.613700  1.0  0.1144
  H  H303  1  0.584000  0.583400  0.894400  1.0  0.1175
  H  H304  1  0.413200  0.681600  0.959900  1.0  0.1036
  H  H305  1  0.367000  0.497600  0.139000  1.0  0.1005
  H  H306  1  0.532000  0.633000  0.124400  1.0  0.1157
  H  H307  1  0.581600  0.685900  0.453600  1.0  0.1086
  H  H308  1  0.458200  0.579700  0.374900  1.0  0.1045
  H  H309  1  0.357500  0.512900  0.212600  1.0  0.1044
  H  H310  1  0.630700  0.738400  0.394200  1.0  0.1034
  H  H311  1  0.496000  0.636300  0.316300  1.0  0.0994
  H  H312  1  0.438400  0.587000  0.244500  1.0  0.1238
  H  H313  1  0.637900  0.766900  0.091300  1.0  0.0849
  H  H314  1  0.782500  0.875400  0.161300  1.0  0.1324
  H  H315  1  0.661800  0.819000  0.030000  1.0  0.1189
  H  H316  1  0.811200  0.925100  0.099000  1.0  0.0978
  H  H317  1  0.727900  0.876000  0.362400  1.0  0.1328
  H  H318  1  0.825000  0.929500  0.246700  1.0  0.1138
  H  H319  1  0.906700  0.003600  0.281700  1.0  0.1183
  H  H320  1  0.896200  0.013800  0.355700  1.0  0.1031
  C  C321  1  0.192900  0.826600  0.069000  1.0  0.1444
  C  C322  1  0.268800  0.887600  0.112000  1.0  0.1664
  C  C323  1  0.165100  0.796000  0.104900  1.0  0.1615
  C  C324  1  0.242800  0.857400  0.148300  1.0  0.1068
  C  C325  1  0.208900  0.830100  0.293500  1.0  0.6735
  C  C326  1  0.028400  0.659100  0.205700  1.0  0.6758
  C  C327  1  0.257700  0.879200  0.316600  1.0  -0.1047
  C  C328  1  0.985500  0.613000  0.179700  1.0  -0.1347
  C  C329  1  0.315300  0.913900  0.293700  1.0  -0.0508
  C  C330  1  0.243400  0.886500  0.360700  1.0  -0.0237
  C  C331  1  0.927500  0.571300  0.200000  1.0  -0.1201
  C  C332  1  0.994900  0.610700  0.134900  1.0  -0.1009
  C  C333  1  0.362500  0.957900  0.313600  1.0  -0.1342
  C  C334  1  0.288800  0.931000  0.382300  1.0  -0.1021
  C  C335  1  0.885600  0.530700  0.174300  1.0  -0.0765
  C  C336  1  0.953300  0.569200  0.110700  1.0  -0.0999
  C  C337  1  0.986700  0.639900  0.356800  1.0  0.1763
  C  C338  1  0.083100  0.698600  0.396000  1.0  0.1257
  C  C339  1  0.348700  0.965800  0.358900  1.0  -0.0228
  C  C340  1  0.273300  0.941500  0.429700  1.0  0.6992
  C  C341  1  0.895800  0.529800  0.130600  1.0  -0.1436
  C  C342  1  0.969400  0.566000  0.062900  1.0  0.682
  C  C343  1  0.962200  0.612100  0.395000  1.0  0.1237
  C  C344  1  0.060800  0.669800  0.432900  1.0  0.1541
  C  C345  1  0.039200  0.550500  0.576900  1.0  0.7061
  C  C346  1  0.047200  0.563200  0.624800  1.0  -0.0781
  C  C347  1  0.100200  0.528300  0.651500  1.0  -0.077
  C  C348  1  0.002800  0.608400  0.642600  1.0  -0.0501
  C  C349  1  0.935000  0.674200  0.925100  1.0  0.1314
  C  C350  1  0.007600  0.613400  0.879800  1.0  0.1261
  C  C351  1  0.105900  0.537400  0.695100  1.0  -0.0835
  C  C352  1  0.007900  0.618900  0.687100  1.0  -0.1609
  C  C353  1  0.908000  0.706500  0.889700  1.0  0.1263
  C  C354  1  0.984200  0.647200  0.844600  1.0  0.1701
  C  C355  1  0.059400  0.581600  0.713900  1.0  -0.0804
  C  C356  1  0.957700  0.669300  0.706100  1.0  0.6622
  C  C357  1  0.774700  0.846200  0.780000  1.0  0.6595
  C  C358  1  0.827400  0.800700  0.593600  1.0  0.1646
  C  C359  1  0.743000  0.863000  0.634500  1.0  0.0913
  C  C360  1  0.726100  0.896200  0.801700  1.0  -0.136
  C  C361  1  0.811500  0.830800  0.556800  1.0  0.1193
  C  C362  1  0.725900  0.892100  0.597000  1.0  0.1706
  C  C363  1  0.735500  0.901900  0.846200  1.0  -0.0534
  C  C364  1  0.677300  0.933300  0.777400  1.0  -0.0611
  C  C365  1  0.689700  0.947200  0.867300  1.0  -0.0706
  C  C366  1  0.629700  0.977900  0.798200  1.0  -0.0977
  C  C367  1  0.636300  0.983900  0.841900  1.0  -0.0863
  C  C368  1  0.699300  0.956000  0.915600  1.0  0.6924
  C  C369  1  0.307100  0.673400  0.069000  1.0  0.1441
  C  C370  1  0.231200  0.612400  0.112000  1.0  0.1666
  C  C371  1  0.334900  0.704000  0.104900  1.0  0.1634
  C  C372  1  0.257200  0.642600  0.148300  1.0  0.1059
  C  C373  1  0.291100  0.669900  0.293500  1.0  0.674
  C  C374  1  0.471600  0.840900  0.205700  1.0  0.6758
  C  C375  1  0.242300  0.620800  0.316600  1.0  -0.104
  C  C376  1  0.514500  0.887000  0.179700  1.0  -0.1332
  C  C377  1  0.184700  0.586100  0.293700  1.0  -0.0509
  C  C378  1  0.256600  0.613500  0.360700  1.0  -0.024
  C  C379  1  0.572500  0.928700  0.200000  1.0  -0.1197
  C  C380  1  0.505100  0.889300  0.134900  1.0  -0.1002
  C  C381  1  0.137500  0.542100  0.313600  1.0  -0.1348
  C  C382  1  0.211200  0.569000  0.382300  1.0  -0.1021
  C  C383  1  0.614400  0.969300  0.174300  1.0  -0.0761
  C  C384  1  0.546700  0.930800  0.110700  1.0  -0.0996
  C  C385  1  0.513300  0.860100  0.356800  1.0  0.1763
  C  C386  1  0.416900  0.801400  0.396000  1.0  0.1268
  C  C387  1  0.151300  0.534200  0.358900  1.0  -0.0236
  C  C388  1  0.226700  0.558500  0.429700  1.0  0.699
  C  C389  1  0.604200  0.970200  0.130600  1.0  -0.1434
  C  C390  1  0.530600  0.934000  0.062900  1.0  0.6819
  C  C391  1  0.537800  0.887900  0.395000  1.0  0.1237
  C  C392  1  0.439200  0.830200  0.432900  1.0  0.1543
  C  C393  1  0.460800  0.949500  0.576900  1.0  0.7063
  C  C394  1  0.452800  0.936800  0.624800  1.0  -0.0787
  C  C395  1  0.399800  0.971700  0.651500  1.0  -0.0763
  C  C396  1  0.497200  0.891600  0.642600  1.0  -0.0507
  C  C397  1  0.565000  0.825800  0.925100  1.0  0.1333
  C  C398  1  0.492400  0.886600  0.879800  1.0  0.1267
  C  C399  1  0.394100  0.962600  0.695100  1.0  -0.0841
  C  C400  1  0.492100  0.881100  0.687100  1.0  -0.161
  C  C401  1  0.592000  0.793500  0.889700  1.0  0.1272
  C  C402  1  0.515800  0.852800  0.844600  1.0  0.1689
  C  C403  1  0.440600  0.918400  0.713900  1.0  -0.0801
  C  C404  1  0.542300  0.830700  0.706100  1.0  0.6617
  C  C405  1  0.725300  0.653800  0.780000  1.0  0.6607
  C  C406  1  0.672600  0.699300  0.593600  1.0  0.1662
  C  C407  1  0.757000  0.637000  0.634500  1.0  0.0918
  C  C408  1  0.773900  0.603800  0.801700  1.0  -0.1359
  C  C409  1  0.688500  0.669200  0.556800  1.0  0.1196
  C  C410  1  0.774100  0.607900  0.597000  1.0  0.1688
  C  C411  1  0.764500  0.598100  0.846200  1.0  -0.0532
  C  C412  1  0.822700  0.566700  0.777400  1.0  -0.0604
  C  C413  1  0.810300  0.552800  0.867300  1.0  -0.071
  C  C414  1  0.870300  0.522100  0.798200  1.0  -0.0984
  C  C415  1  0.863700  0.516100  0.841900  1.0  -0.086
  C  C416  1  0.800700  0.544000  0.915600  1.0  0.6918
  C  C417  1  0.807100  0.326600  0.431000  1.0  0.1434
  C  C418  1  0.731200  0.387600  0.388000  1.0  0.1662
  C  C419  1  0.834900  0.296000  0.395100  1.0  0.1631
  C  C420  1  0.757200  0.357400  0.351700  1.0  0.1059
  C  C421  1  0.791100  0.330100  0.206500  1.0  0.6739
  C  C422  1  0.971600  0.159100  0.294300  1.0  0.6776
  C  C423  1  0.742300  0.379200  0.183400  1.0  -0.1041
  C  C424  1  0.014500  0.113000  0.320300  1.0  -0.1349
  C  C425  1  0.684700  0.413900  0.206300  1.0  -0.0511
  C  C426  1  0.756600  0.386500  0.139300  1.0  -0.0249
  C  C427  1  0.072500  0.071300  0.300000  1.0  -0.1196
  C  C428  1  0.005100  0.110700  0.365100  1.0  -0.1016
  C  C429  1  0.637500  0.457900  0.186400  1.0  -0.1341
  C  C430  1  0.711200  0.431000  0.117700  1.0  -0.0993
  C  C431  1  0.114400  0.030700  0.325700  1.0  -0.0764
  C  C432  1  0.046700  0.069200  0.389300  1.0  -0.1015
  C  C433  1  0.013300  0.139900  0.143200  1.0  0.1768
  C  C434  1  0.916900  0.198600  0.104000  1.0  0.1243
  C  C435  1  0.651300  0.465800  0.141100  1.0  -0.0229
  C  C436  1  0.726700  0.441500  0.070300  1.0  0.7006
  C  C437  1  0.104200  0.029800  0.369400  1.0  -0.1432
  C  C438  1  0.030600  0.066000  0.437100  1.0  0.6814
  C  C439  1  0.037800  0.112100  0.105000  1.0  0.1238
  C  C440  1  0.939200  0.169800  0.067100  1.0  0.1544
  C  C441  1  0.960800  0.050500  0.923100  1.0  0.7058
  C  C442  1  0.952800  0.063200  0.875200  1.0  -0.0811
  C  C443  1  0.899800  0.028300  0.848500  1.0  -0.0765
  C  C444  1  0.997200  0.108400  0.857400  1.0  -0.0496
  C  C445  1  0.065000  0.174200  0.574900  1.0  0.1329
  C  C446  1  0.992400  0.113400  0.620200  1.0  0.1256
  C  C447  1  0.894100  0.037400  0.804900  1.0  -0.083
  C  C448  1  0.992100  0.118900  0.812900  1.0  -0.1609
  C  C449  1  0.092000  0.206500  0.610300  1.0  0.127
  C  C450  1  0.015800  0.147200  0.655400  1.0  0.1698
  C  C451  1  0.940600  0.081600  0.786100  1.0  -0.0802
  C  C452  1  0.042300  0.169300  0.793900  1.0  0.6622
  C  C453  1  0.225300  0.346200  0.720000  1.0  0.6587
  C  C454  1  0.172600  0.300700  0.906400  1.0  0.1658
  C  C455  1  0.257000  0.363000  0.865500  1.0  0.0914
  C  C456  1  0.273900  0.396200  0.698300  1.0  -0.1358
  C  C457  1  0.188500  0.330800  0.943200  1.0  0.1188
  C  C458  1  0.274100  0.392100  0.903000  1.0  0.1698
  C  C459  1  0.264500  0.401900  0.653800  1.0  -0.0525
  C  C460  1  0.322700  0.433300  0.722600  1.0  -0.0606
  C  C461  1  0.310300  0.447200  0.632700  1.0  -0.0714
  C  C462  1  0.370300  0.477900  0.701800  1.0  -0.0982
  C  C463  1  0.363700  0.483900  0.658100  1.0  -0.0867
  C  C464  1  0.300700  0.456000  0.584400  1.0  0.6938
  C  C465  1  0.692900  0.173400  0.431000  1.0  0.1411
  C  C466  1  0.768800  0.112400  0.388000  1.0  0.1656
  C  C467  1  0.665100  0.204000  0.395100  1.0  0.1637
  C  C468  1  0.742800  0.142600  0.351700  1.0  0.1064
  C  C469  1  0.708900  0.169900  0.206500  1.0  0.6739
  C  C470  1  0.528400  0.340900  0.294300  1.0  0.6753
  C  C471  1  0.757700  0.120800  0.183400  1.0  -0.1049
  C  C472  1  0.485500  0.387000  0.320300  1.0  -0.1342
  C  C473  1  0.815300  0.086100  0.206300  1.0  -0.0512
  C  C474  1  0.743400  0.113500  0.139300  1.0  -0.0248
  C  C475  1  0.427500  0.428700  0.300000  1.0  -0.1199
  C  C476  1  0.494900  0.389300  0.365100  1.0  -0.0998
  C  C477  1  0.862500  0.042100  0.186400  1.0  -0.1348
  C  C478  1  0.788800  0.069000  0.117700  1.0  -0.0993
  C  C479  1  0.385600  0.469300  0.325700  1.0  -0.0776
  C  C480  1  0.453300  0.430800  0.389300  1.0  -0.101
  C  C481  1  0.486700  0.360100  0.143200  1.0  0.1766
  C  C482  1  0.583100  0.301400  0.104000  1.0  0.1244
  C  C483  1  0.848700  0.034200  0.141100  1.0  -0.0228
  C  C484  1  0.773300  0.058500  0.070300  1.0  0.7008
  C  C485  1  0.395800  0.470200  0.369400  1.0  -0.1437
  C  C486  1  0.469400  0.434000  0.437100  1.0  0.6825
  C  C487  1  0.462200  0.387900  0.105000  1.0  0.1249
  C  C488  1  0.560800  0.330200  0.067100  1.0  0.1549
  C  C489  1  0.539200  0.449500  0.923100  1.0  0.7068
  C  C490  1  0.547200  0.436800  0.875200  1.0  -0.081
  C  C491  1  0.600200  0.471700  0.848500  1.0  -0.0765
  C  C492  1  0.502800  0.391600  0.857400  1.0  -0.051
  C  C493  1  0.435000  0.325800  0.574900  1.0  0.1326
  C  C494  1  0.507600  0.386600  0.620200  1.0  0.1253
  C  C495  1  0.605900  0.462600  0.804900  1.0  -0.0837
  C  C496  1  0.507900  0.381100  0.812900  1.0  -0.1612
  C  C497  1  0.408000  0.293500  0.610300  1.0  0.1262
  C  C498  1  0.484200  0.352800  0.655400  1.0  0.1705
  C  C499  1  0.559400  0.418400  0.786100  1.0  -0.0797
  C  C500  1  0.457700  0.330700  0.793900  1.0  0.6614
  C  C501  1  0.274700  0.153800  0.720000  1.0  0.6612
  C  C502  1  0.327400  0.199300  0.906400  1.0  0.1668
  C  C503  1  0.243000  0.137000  0.865500  1.0  0.0909
  C  C504  1  0.226100  0.103800  0.698300  1.0  -0.1366
  C  C505  1  0.311500  0.169200  0.943200  1.0  0.1187
  C  C506  1  0.225900  0.107900  0.903000  1.0  0.1694
  C  C507  1  0.235500  0.098100  0.653800  1.0  -0.0534
  C  C508  1  0.177300  0.066700  0.722600  1.0  -0.0612
  C  C509  1  0.189700  0.052800  0.632700  1.0  -0.0701
  C  C510  1  0.129700  0.022100  0.701800  1.0  -0.098
  C  C511  1  0.136300  0.016100  0.658100  1.0  -0.086
  C  C512  1  0.199300  0.044000  0.584400  1.0  0.6931
  C  C513  1  0.807100  0.173400  0.931000  1.0  0.1426
  C  C514  1  0.731200  0.112400  0.888000  1.0  0.1658
  C  C515  1  0.834900  0.204000  0.895100  1.0  0.1642
  C  C516  1  0.757200  0.142600  0.851700  1.0  0.1057
  C  C517  1  0.791100  0.169900  0.706500  1.0  0.6741
  C  C518  1  0.971600  0.340900  0.794300  1.0  0.6758
  C  C519  1  0.742300  0.120800  0.683400  1.0  -0.1046
  C  C520  1  0.014500  0.387000  0.820300  1.0  -0.1347
  C  C521  1  0.684700  0.086100  0.706300  1.0  -0.0515
  C  C522  1  0.756600  0.113500  0.639300  1.0  -0.0243
  C  C523  1  0.072500  0.428700  0.800000  1.0  -0.1197
  C  C524  1  0.005100  0.389300  0.865100  1.0  -0.1003
  C  C525  1  0.637500  0.042100  0.686400  1.0  -0.1348
  C  C526  1  0.711200  0.069000  0.617700  1.0  -0.0994
  C  C527  1  0.114400  0.469300  0.825700  1.0  -0.0769
  C  C528  1  0.046700  0.430800  0.889300  1.0  -0.1003
  C  C529  1  0.013300  0.360100  0.643200  1.0  0.1766
  C  C530  1  0.916900  0.301400  0.604000  1.0  0.1251
  C  C531  1  0.651300  0.034200  0.641100  1.0  -0.0229
  C  C532  1  0.726700  0.058500  0.570300  1.0  0.7009
  C  C533  1  0.104200  0.470200  0.869400  1.0  -0.1375
  C  C534  1  0.030600  0.434000  0.937100  1.0  0.6815
  C  C535  1  0.037800  0.387900  0.605000  1.0  0.1255
  C  C536  1  0.939200  0.330200  0.567100  1.0  0.1548
  C  C537  1  0.960800  0.449500  0.423100  1.0  0.7073
  C  C538  1  0.952800  0.436800  0.375200  1.0  -0.0812
  C  C539  1  0.899800  0.471700  0.348500  1.0  -0.0762
  C  C540  1  0.997200  0.391600  0.357400  1.0  -0.0504
  C  C541  1  0.065000  0.325800  0.074900  1.0  0.1331
  C  C542  1  0.992400  0.386600  0.120200  1.0  0.1258
  C  C543  1  0.894100  0.462600  0.304900  1.0  -0.0836
  C  C544  1  0.992100  0.381100  0.312900  1.0  -0.161
  C  C545  1  0.092000  0.293500  0.110300  1.0  0.1264
  C  C546  1  0.015800  0.352800  0.155400  1.0  0.1695
  C  C547  1  0.940600  0.418400  0.286100  1.0  -0.0798
  C  C548  1  0.042300  0.330700  0.293900  1.0  0.6616
  C  C549  1  0.225300  0.153800  0.220000  1.0  0.6603
  C  C550  1  0.172600  0.199300  0.406400  1.0  0.1662
  C  C551  1  0.257000  0.137000  0.365500  1.0  0.0914
  C  C552  1  0.273900  0.103800  0.198300  1.0  -0.1362
  C  C553  1  0.188500  0.169200  0.443200  1.0  0.1188
  C  C554  1  0.274100  0.107900  0.403000  1.0  0.1691
  C  C555  1  0.264500  0.098100  0.153800  1.0  -0.0529
  C  C556  1  0.322700  0.066700  0.222600  1.0  -0.0609
  C  C557  1  0.310300  0.052800  0.132700  1.0  -0.0715
  C  C558  1  0.370300  0.022100  0.201800  1.0  -0.0987
  C  C559  1  0.363700  0.016100  0.158100  1.0  -0.0861
  C  C560  1  0.300700  0.044000  0.084400  1.0  0.6937
  C  C561  1  0.692900  0.326600  0.931000  1.0  0.1419
  C  C562  1  0.768800  0.387600  0.888000  1.0  0.1662
  C  C563  1  0.665100  0.296000  0.895100  1.0  0.1631
  C  C564  1  0.742800  0.357400  0.851700  1.0  0.1066
  C  C565  1  0.708900  0.330100  0.706500  1.0  0.6739
  C  C566  1  0.528400  0.159100  0.794300  1.0  0.6768
  C  C567  1  0.757700  0.379200  0.683400  1.0  -0.1046
  C  C568  1  0.485500  0.113000  0.820300  1.0  -0.1346
  C  C569  1  0.815300  0.413900  0.706300  1.0  -0.051
  C  C570  1  0.743400  0.386500  0.639300  1.0  -0.0243
  C  C571  1  0.427500  0.071300  0.800000  1.0  -0.1199
  C  C572  1  0.494900  0.110700  0.865100  1.0  -0.1009
  C  C573  1  0.862500  0.457900  0.686400  1.0  -0.1336
  C  C574  1  0.788800  0.431000  0.617700  1.0  -0.1001
  C  C575  1  0.385600  0.030700  0.825700  1.0  -0.0768
  C  C576  1  0.453300  0.069200  0.889300  1.0  -0.1021
  C  C577  1  0.486700  0.139900  0.643200  1.0  0.1766
  C  C578  1  0.583100  0.198600  0.604000  1.0  0.1245
  C  C579  1  0.848700  0.465800  0.641100  1.0  -0.0226
  C  C580  1  0.773300  0.441500  0.570300  1.0  0.7006
  C  C581  1  0.395800  0.029800  0.869400  1.0  -0.138
  C  C582  1  0.469400  0.066000  0.937100  1.0  0.6823
  C  C583  1  0.462200  0.112100  0.605000  1.0  0.1256
  C  C584  1  0.560800  0.169800  0.567100  1.0  0.1545
  C  C585  1  0.539200  0.050500  0.423100  1.0  0.7054
  C  C586  1  0.547200  0.063200  0.375200  1.0  -0.0809
  C  C587  1  0.600200  0.028300  0.348500  1.0  -0.077
  C  C588  1  0.502800  0.108400  0.357400  1.0  -0.0504
  C  C589  1  0.435000  0.174200  0.074900  1.0  0.1324
  C  C590  1  0.507600  0.113400  0.120200  1.0  0.1251
  C  C591  1  0.605900  0.037400  0.304900  1.0  -0.0833
  C  C592  1  0.507900  0.118900  0.312900  1.0  -0.1611
  C  C593  1  0.408000  0.206500  0.110300  1.0  0.1263
  C  C594  1  0.484200  0.147200  0.155400  1.0  0.1708
  C  C595  1  0.559400  0.081600  0.286100  1.0  -0.0801
  C  C596  1  0.457700  0.169300  0.293900  1.0  0.6621
  C  C597  1  0.274700  0.346200  0.220000  1.0  0.6594
  C  C598  1  0.327400  0.300700  0.406400  1.0  0.1656
  C  C599  1  0.243000  0.363000  0.365500  1.0  0.0911
  C  C600  1  0.226100  0.396200  0.198300  1.0  -0.1356
  C  C601  1  0.311500  0.330800  0.443200  1.0  0.1186
  C  C602  1  0.225900  0.392100  0.403000  1.0  0.1703
  C  C603  1  0.235500  0.401900  0.153800  1.0  -0.0536
  C  C604  1  0.177300  0.433300  0.222600  1.0  -0.0609
  C  C605  1  0.189700  0.447200  0.132700  1.0  -0.07
  C  C606  1  0.129700  0.477900  0.201800  1.0  -0.0982
  C  C607  1  0.136300  0.483900  0.158100  1.0  -0.0865
  C  C608  1  0.199300  0.456000  0.084400  1.0  0.6934
  C  C609  1  0.192900  0.673400  0.569000  1.0  0.1437
  C  C610  1  0.268800  0.612400  0.612000  1.0  0.1661
  C  C611  1  0.165100  0.704000  0.604900  1.0  0.1629
  C  C612  1  0.242800  0.642600  0.648300  1.0  0.1067
  C  C613  1  0.208900  0.669900  0.793500  1.0  0.6738
  C  C614  1  0.028400  0.840900  0.705700  1.0  0.6754
  C  C615  1  0.257700  0.620800  0.816600  1.0  -0.1044
  C  C616  1  0.985500  0.887000  0.679700  1.0  -0.1333
  C  C617  1  0.315300  0.586100  0.793700  1.0  -0.0508
  C  C618  1  0.243400  0.613500  0.860700  1.0  -0.0248
  C  C619  1  0.927500  0.928700  0.700000  1.0  -0.1202
  C  C620  1  0.994900  0.889300  0.634900  1.0  -0.1001
  C  C621  1  0.362500  0.542100  0.813600  1.0  -0.1349
  C  C622  1  0.288800  0.569000  0.882300  1.0  -0.1024
  C  C623  1  0.885600  0.969300  0.674300  1.0  -0.0771
  C  C624  1  0.953300  0.930800  0.610700  1.0  -0.0998
  C  C625  1  0.986700  0.860100  0.856800  1.0  0.1766
  C  C626  1  0.083100  0.801400  0.896000  1.0  0.1259
  C  C627  1  0.348700  0.534200  0.858900  1.0  -0.0232
  C  C628  1  0.273300  0.558500  0.929700  1.0  0.6987
  C  C629  1  0.895800  0.970200  0.630600  1.0  -0.1379
  C  C630  1  0.969400  0.934000  0.562900  1.0  0.682
  C  C631  1  0.962200  0.887900  0.895000  1.0  0.1256
  C  C632  1  0.060800  0.830200  0.932900  1.0  0.1548
  C  C633  1  0.039200  0.949500  0.076900  1.0  0.7065
  C  C634  1  0.047200  0.936800  0.124800  1.0  -0.0785
  C  C635  1  0.100200  0.971700  0.151500  1.0  -0.0766
  C  C636  1  0.002800  0.891600  0.142600  1.0  -0.0509
  C  C637  1  0.935000  0.825800  0.425100  1.0  0.132
  C  C638  1  0.007600  0.886600  0.379800  1.0  0.1265
  C  C639  1  0.105900  0.962600  0.195100  1.0  -0.084
  C  C640  1  0.007900  0.881100  0.187100  1.0  -0.1609
  C  C641  1  0.908000  0.793500  0.389700  1.0  0.1276
  C  C642  1  0.984200  0.852800  0.344600  1.0  0.1698
  C  C643  1  0.059400  0.918400  0.213900  1.0  -0.0801
  C  C644  1  0.957700  0.830700  0.206100  1.0  0.6616
  C  C645  1  0.774700  0.653800  0.280000  1.0  0.6616
  C  C646  1  0.827400  0.699300  0.093600  1.0  0.1668
  C  C647  1  0.743000  0.637000  0.134500  1.0  0.0908
  C  C648  1  0.726100  0.603800  0.301700  1.0  -0.1363
  C  C649  1  0.811500  0.669200  0.056800  1.0  0.1192
  C  C650  1  0.725900  0.607900  0.097000  1.0  0.1699
  C  C651  1  0.735500  0.598100  0.346200  1.0  -0.0533
  C  C652  1  0.677300  0.566700  0.277400  1.0  -0.061
  C  C653  1  0.689700  0.552800  0.367300  1.0  -0.071
  C  C654  1  0.629700  0.522100  0.298200  1.0  -0.0978
  C  C655  1  0.636300  0.516100  0.341900  1.0  -0.0859
  C  C656  1  0.699300  0.544000  0.415600  1.0  0.6919
  C  C657  1  0.307100  0.826600  0.569000  1.0  0.1446
  C  C658  1  0.231200  0.887600  0.612000  1.0  0.167
  C  C659  1  0.334900  0.796000  0.604900  1.0  0.1616
  C  C660  1  0.257200  0.857400  0.648300  1.0  0.1061
  C  C661  1  0.291100  0.830100  0.793500  1.0  0.6736
  C  C662  1  0.471600  0.659100  0.705700  1.0  0.6766
  C  C663  1  0.242300  0.879200  0.816600  1.0  -0.1041
  C  C664  1  0.514500  0.613000  0.679700  1.0  -0.1344
  C  C665  1  0.184700  0.913900  0.793700  1.0  -0.051
  C  C666  1  0.256600  0.886500  0.860700  1.0  -0.0241
  C  C667  1  0.572500  0.571300  0.700000  1.0  -0.1196
  C  C668  1  0.505100  0.610700  0.634900  1.0  -0.1013
  C  C669  1  0.137500  0.957900  0.813600  1.0  -0.1346
  C  C670  1  0.211200  0.931000  0.882300  1.0  -0.1028
  C  C671  1  0.614400  0.530700  0.674300  1.0  -0.0759
  C  C672  1  0.546700  0.569200  0.610700  1.0  -0.0998
  C  C673  1  0.513300  0.639900  0.856800  1.0  0.1761
  C  C674  1  0.416900  0.698600  0.896000  1.0  0.1252
  C  C675  1  0.151300  0.965800  0.858900  1.0  -0.0234
  C  C676  1  0.226700  0.941500  0.929700  1.0  0.6995
  C  C677  1  0.604200  0.529800  0.630600  1.0  -0.1376
  C  C678  1  0.530600  0.566000  0.562900  1.0  0.6821
  C  C679  1  0.537800  0.612100  0.895000  1.0  0.1245
  C  C680  1  0.439200  0.669800  0.932900  1.0  0.1535
  C  C681  1  0.460800  0.550500  0.076900  1.0  0.7061
  C  C682  1  0.452800  0.563200  0.124800  1.0  -0.0783
  C  C683  1  0.399800  0.528300  0.151500  1.0  -0.0766
  C  C684  1  0.497200  0.608400  0.142600  1.0  -0.0497
  C  C685  1  0.565000  0.674200  0.425100  1.0  0.1326
  C  C686  1  0.492400  0.613400  0.379800  1.0  0.1263
  C  C687  1  0.394100  0.537400  0.195100  1.0  -0.0834
  C  C688  1  0.492100  0.618900  0.187100  1.0  -0.1611
  C  C689  1  0.592000  0.706500  0.389700  1.0  0.1268
  C  C690  1  0.515800  0.647200  0.344600  1.0  0.1693
  C  C691  1  0.440600  0.581600  0.213900  1.0  -0.0805
  C  C692  1  0.542300  0.669300  0.206100  1.0  0.6622
  C  C693  1  0.725300  0.846200  0.280000  1.0  0.6587
  C  C694  1  0.672600  0.800700  0.093600  1.0  0.1649
  C  C695  1  0.757000  0.863000  0.134500  1.0  0.0919
  C  C696  1  0.773900  0.896200  0.301700  1.0  -0.1364
  C  C697  1  0.688500  0.830800  0.056800  1.0  0.1198
  C  C698  1  0.774100  0.892100  0.097000  1.0  0.1692
  C  C699  1  0.764500  0.901900  0.346200  1.0  -0.0526
  C  C700  1  0.822700  0.933300  0.277400  1.0  -0.0605
  C  C701  1  0.810300  0.947200  0.367300  1.0  -0.0706
  C  C702  1  0.870300  0.977900  0.298200  1.0  -0.0979
  C  C703  1  0.863700  0.983900  0.341900  1.0  -0.0865
  C  C704  1  0.800700  0.956000  0.415600  1.0  0.6922
  N  N705  1  0.243200  0.873200  0.071800  1.0  -0.3448
  N  N706  1  0.189600  0.810300  0.144400  1.0  -0.3636
  N  N707  1  0.045300  0.683300  0.356300  1.0  -0.3714
  N  N708  1  0.003500  0.625700  0.432300  1.0  -0.348
  N  N709  1  0.983200  0.627200  0.919900  1.0  -0.3273
  N  N710  1  0.936400  0.693200  0.848900  1.0  -0.3634
  N  N711  1  0.797100  0.816100  0.632600  1.0  -0.3547
  N  N712  1  0.757600  0.877500  0.558100  1.0  -0.3559
  N  N713  1  0.256800  0.626800  0.071800  1.0  -0.346
  N  N714  1  0.310400  0.689700  0.144400  1.0  -0.3656
  N  N715  1  0.454700  0.816700  0.356300  1.0  -0.372
  N  N716  1  0.496500  0.874300  0.432300  1.0  -0.3473
  N  N717  1  0.516800  0.872800  0.919900  1.0  -0.3296
  N  N718  1  0.563600  0.806800  0.848900  1.0  -0.3641
  N  N719  1  0.702900  0.683900  0.632600  1.0  -0.3565
  N  N720  1  0.742400  0.622500  0.558100  1.0  -0.3575
  N  N721  1  0.756800  0.373200  0.428200  1.0  -0.3483
  N  N722  1  0.810400  0.310300  0.355600  1.0  -0.3641
  N  N723  1  0.954700  0.183300  0.143700  1.0  -0.3713
  N  N724  1  0.996500  0.125700  0.067700  1.0  -0.3484
  N  N725  1  0.016800  0.127200  0.580100  1.0  -0.3299
  N  N726  1  0.063600  0.193200  0.651100  1.0  -0.3635
  N  N727  1  0.202900  0.316100  0.867400  1.0  -0.3559
  N  N728  1  0.242400  0.377500  0.941900  1.0  -0.3563
  N  N729  1  0.743200  0.126800  0.428200  1.0  -0.3467
  N  N730  1  0.689600  0.189700  0.355600  1.0  -0.3649
  N  N731  1  0.545300  0.316700  0.143700  1.0  -0.3707
  N  N732  1  0.503500  0.374300  0.067700  1.0  -0.3471
  N  N733  1  0.483200  0.372800  0.580100  1.0  -0.3264
  N  N734  1  0.436400  0.306800  0.651100  1.0  -0.3632
  N  N735  1  0.297100  0.183900  0.867400  1.0  -0.3549
  N  N736  1  0.257600  0.122500  0.941900  1.0  -0.3585
  N  N737  1  0.756800  0.126800  0.928200  1.0  -0.3476
  N  N738  1  0.810400  0.189700  0.855600  1.0  -0.3646
  N  N739  1  0.954700  0.316700  0.643700  1.0  -0.3709
  N  N740  1  0.996500  0.374300  0.567700  1.0  -0.3474
  N  N741  1  0.016800  0.372800  0.080100  1.0  -0.327
  N  N742  1  0.063600  0.306800  0.151100  1.0  -0.3632
  N  N743  1  0.202900  0.183900  0.367400  1.0  -0.355
  N  N744  1  0.242400  0.122500  0.441900  1.0  -0.357
  N  N745  1  0.743200  0.373200  0.928200  1.0  -0.3468
  N  N746  1  0.689600  0.310300  0.855600  1.0  -0.3647
  N  N747  1  0.545300  0.183300  0.643700  1.0  -0.3714
  N  N748  1  0.503500  0.125700  0.567700  1.0  -0.3487
  N  N749  1  0.483200  0.127200  0.080100  1.0  -0.3294
  N  N750  1  0.436400  0.193200  0.151100  1.0  -0.3638
  N  N751  1  0.297100  0.316100  0.367400  1.0  -0.3554
  N  N752  1  0.257600  0.377500  0.441900  1.0  -0.3582
  N  N753  1  0.243200  0.626800  0.571800  1.0  -0.3459
  N  N754  1  0.189600  0.689700  0.644400  1.0  -0.3662
  N  N755  1  0.045300  0.816700  0.856300  1.0  -0.3719
  N  N756  1  0.003500  0.874300  0.932300  1.0  -0.3477
  N  N757  1  0.983200  0.872800  0.419900  1.0  -0.3279
  N  N758  1  0.936400  0.806800  0.348900  1.0  -0.3643
  N  N759  1  0.797100  0.683900  0.132600  1.0  -0.3566
  N  N760  1  0.757600  0.622500  0.058100  1.0  -0.3576
  N  N761  1  0.256800  0.873200  0.571800  1.0  -0.3452
  N  N762  1  0.310400  0.810300  0.644400  1.0  -0.3633
  N  N763  1  0.454700  0.683300  0.856300  1.0  -0.3712
  N  N764  1  0.496500  0.625700  0.932300  1.0  -0.3468
  N  N765  1  0.516800  0.627200  0.419900  1.0  -0.3289
  N  N766  1  0.563600  0.693200  0.348900  1.0  -0.3634
  N  N767  1  0.702900  0.816100  0.132600  1.0  -0.3546
  N  N768  1  0.742400  0.877500  0.058100  1.0  -0.3559
  O  O769  1  0.282800  0.909600  0.949800  1.0  -0.588
  O  O770  1  0.346100  0.004200  0.068100  1.0  -0.6951
  O  O771  1  0.223900  0.826500  0.253400  1.0  -0.5886
  O  O772  1  0.071500  0.695000  0.184000  1.0  -0.5742
  O  O773  1  0.159500  0.797500  0.316100  1.0  -0.5942
  O  O774  1  0.019000  0.658800  0.246200  1.0  -0.5725
  O  O775  1  0.991200  0.584100  0.553000  1.0  -0.5983
  O  O776  1  0.315300  0.983900  0.445800  1.0  -0.7097
  O  O777  1  0.024900  0.602300  0.044500  1.0  -0.7475
  O  O778  1  0.929000  0.529100  0.039900  1.0  -0.7504
  O  O779  1  0.076200  0.506900  0.562500  1.0  -0.6115
  O  O780  1  0.966400  0.676300  0.747000  1.0  -0.5738
  O  O781  1  0.915800  0.700200  0.680100  1.0  -0.5637
  O  O782  1  0.813700  0.811400  0.805700  1.0  -0.584
  O  O783  1  0.773200  0.844200  0.739400  1.0  -0.5729
  O  O784  1  0.754500  0.920000  0.437000  1.0  -0.5878
  O  O785  1  0.217200  0.590400  0.949800  1.0  -0.5891
  O  O786  1  0.153900  0.495800  0.068100  1.0  -0.695
  O  O787  1  0.276100  0.673500  0.253400  1.0  -0.5876
  O  O788  1  0.428500  0.805000  0.184000  1.0  -0.5738
  O  O789  1  0.340500  0.702500  0.316100  1.0  -0.5956
  O  O790  1  0.481000  0.841200  0.246200  1.0  -0.5727
  O  O791  1  0.508800  0.915900  0.553000  1.0  -0.5983
  O  O792  1  0.184700  0.516100  0.445800  1.0  -0.7106
  O  O793  1  0.475100  0.897700  0.044500  1.0  -0.7461
  O  O794  1  0.571000  0.970900  0.039900  1.0  -0.7492
  O  O795  1  0.423800  0.993100  0.562500  1.0  -0.6111
  O  O796  1  0.533600  0.823700  0.747000  1.0  -0.5734
  O  O797  1  0.584200  0.799800  0.680100  1.0  -0.5644
  O  O798  1  0.686300  0.688600  0.805700  1.0  -0.5843
  O  O799  1  0.726800  0.655800  0.739400  1.0  -0.5732
  O  O800  1  0.745500  0.580000  0.437000  1.0  -0.588
  O  O801  1  0.717200  0.409600  0.550200  1.0  -0.5877
  O  O802  1  0.653900  0.504200  0.431900  1.0  -0.6958
  O  O803  1  0.776100  0.326500  0.246600  1.0  -0.5884
  O  O804  1  0.928500  0.195000  0.316000  1.0  -0.5744
  O  O805  1  0.840500  0.297500  0.183900  1.0  -0.5952
  O  O806  1  0.981000  0.158800  0.253800  1.0  -0.5728
  O  O807  1  0.008800  0.084100  0.947000  1.0  -0.5978
  O  O808  1  0.684700  0.483900  0.054200  1.0  -0.709
  O  O809  1  0.975100  0.102300  0.455500  1.0  -0.7479
  O  O810  1  0.071000  0.029100  0.460100  1.0  -0.7499
  O  O811  1  0.923800  0.006900  0.937500  1.0  -0.6103
  O  O812  1  0.033600  0.176300  0.753000  1.0  -0.5739
  O  O813  1  0.084200  0.200200  0.819900  1.0  -0.5645
  O  O814  1  0.186300  0.311400  0.694300  1.0  -0.5846
  O  O815  1  0.226800  0.344200  0.760600  1.0  -0.5736
  O  O816  1  0.245500  0.420000  0.063000  1.0  -0.5878
  O  O817  1  0.782800  0.090400  0.550200  1.0  -0.5888
  O  O818  1  0.846100  0.995800  0.431900  1.0  -0.6968
  O  O819  1  0.723900  0.173500  0.246600  1.0  -0.5885
  O  O820  1  0.571500  0.305000  0.316000  1.0  -0.5746
  O  O821  1  0.659500  0.202500  0.183900  1.0  -0.5942
  O  O822  1  0.519000  0.341200  0.253800  1.0  -0.5728
  O  O823  1  0.491200  0.415900  0.947000  1.0  -0.5977
  O  O824  1  0.815300  0.016100  0.054200  1.0  -0.7103
  O  O825  1  0.524900  0.397700  0.455500  1.0  -0.7458
  O  O826  1  0.429000  0.470900  0.460100  1.0  -0.7511
  O  O827  1  0.576200  0.493100  0.937500  1.0  -0.6102
  O  O828  1  0.466400  0.323700  0.753000  1.0  -0.5737
  O  O829  1  0.415800  0.299800  0.819900  1.0  -0.5642
  O  O830  1  0.313700  0.188600  0.694300  1.0  -0.5834
  O  O831  1  0.273200  0.155800  0.760600  1.0  -0.5733
  O  O832  1  0.254500  0.080000  0.063000  1.0  -0.588
  O  O833  1  0.717200  0.090400  0.050200  1.0  -0.5871
  O  O834  1  0.653900  0.995800  0.931900  1.0  -0.6959
  O  O835  1  0.776100  0.173500  0.746600  1.0  -0.5879
  O  O836  1  0.928500  0.305000  0.816000  1.0  -0.5743
  O  O837  1  0.840500  0.202500  0.683900  1.0  -0.5951
  O  O838  1  0.981000  0.341200  0.753800  1.0  -0.5732
  O  O839  1  0.008800  0.415900  0.447000  1.0  -0.5971
  O  O840  1  0.684700  0.016100  0.554200  1.0  -0.7105
  O  O841  1  0.975100  0.397700  0.955500  1.0  -0.7462
  O  O842  1  0.071000  0.470900  0.960100  1.0  -0.7502
  O  O843  1  0.923800  0.493100  0.437500  1.0  -0.6101
  O  O844  1  0.033600  0.323700  0.253000  1.0  -0.5736
  O  O845  1  0.084200  0.299800  0.319900  1.0  -0.5645
  O  O846  1  0.186300  0.188600  0.194300  1.0  -0.5823
  O  O847  1  0.226800  0.155800  0.260600  1.0  -0.5737
  O  O848  1  0.245500  0.080000  0.563000  1.0  -0.5877
  O  O849  1  0.782800  0.409600  0.050200  1.0  -0.59
  O  O850  1  0.846100  0.504200  0.931900  1.0  -0.6964
  O  O851  1  0.723900  0.326500  0.746600  1.0  -0.5887
  O  O852  1  0.571500  0.195000  0.816000  1.0  -0.5749
  O  O853  1  0.659500  0.297500  0.683900  1.0  -0.5942
  O  O854  1  0.519000  0.158800  0.753800  1.0  -0.5723
  O  O855  1  0.491200  0.084100  0.447000  1.0  -0.5985
  O  O856  1  0.815300  0.483900  0.554200  1.0  -0.7087
  O  O857  1  0.524900  0.102300  0.955500  1.0  -0.7468
  O  O858  1  0.429000  0.029100  0.960100  1.0  -0.751
  O  O859  1  0.576200  0.006900  0.437500  1.0  -0.6105
  O  O860  1  0.466400  0.176300  0.253000  1.0  -0.5741
  O  O861  1  0.415800  0.200200  0.319900  1.0  -0.5641
  O  O862  1  0.313700  0.311400  0.194300  1.0  -0.5824
  O  O863  1  0.273200  0.344200  0.260600  1.0  -0.5733
  O  O864  1  0.254500  0.420000  0.563000  1.0  -0.588
  O  O865  1  0.282800  0.590400  0.449800  1.0  -0.5886
  O  O866  1  0.346100  0.495800  0.568100  1.0  -0.6956
  O  O867  1  0.223900  0.673500  0.753400  1.0  -0.588
  O  O868  1  0.071500  0.805000  0.684000  1.0  -0.5742
  O  O869  1  0.159500  0.702500  0.816100  1.0  -0.5944
  O  O870  1  0.019000  0.841200  0.746200  1.0  -0.5727
  O  O871  1  0.991200  0.915900  0.053000  1.0  -0.5986
  O  O872  1  0.315300  0.516100  0.945800  1.0  -0.7098
  O  O873  1  0.024900  0.897700  0.544500  1.0  -0.7456
  O  O874  1  0.929000  0.970900  0.539900  1.0  -0.75
  O  O875  1  0.076200  0.993100  0.062500  1.0  -0.6115
  O  O876  1  0.966400  0.823700  0.247000  1.0  -0.5735
  O  O877  1  0.915800  0.799800  0.180100  1.0  -0.564
  O  O878  1  0.813700  0.688600  0.305700  1.0  -0.5822
  O  O879  1  0.773200  0.655800  0.239400  1.0  -0.5727
  O  O880  1  0.754500  0.580000  0.937000  1.0  -0.5888
  O  O881  1  0.217200  0.909600  0.449800  1.0  -0.5877
  O  O882  1  0.153900  0.004200  0.568100  1.0  -0.6948
  O  O883  1  0.276100  0.826500  0.753400  1.0  -0.5884
  O  O884  1  0.428500  0.695000  0.684000  1.0  -0.5736
  O  O885  1  0.340500  0.797500  0.816100  1.0  -0.5948
  O  O886  1  0.481000  0.658800  0.746200  1.0  -0.5727
  O  O887  1  0.508800  0.584100  0.053000  1.0  -0.5982
  O  O888  1  0.184700  0.983900  0.945800  1.0  -0.711
  O  O889  1  0.475100  0.602300  0.544500  1.0  -0.748
  O  O890  1  0.571000  0.529100  0.539900  1.0  -0.7492
  O  O891  1  0.423800  0.506900  0.062500  1.0  -0.611
  O  O892  1  0.533600  0.676300  0.247000  1.0  -0.5736
  O  O893  1  0.584200  0.700200  0.180100  1.0  -0.5642
  O  O894  1  0.686300  0.811400  0.305700  1.0  -0.5831
  O  O895  1  0.726800  0.844200  0.239400  1.0  -0.5735
  O  O896  1  0.745500  0.920000  0.937000  1.0  -0.5876
