# generated using pymatgen
data_AgH4C6NO2
_symmetry_space_group_name_H-M   'P 1'
_cell_length_a   14.28850000
_cell_length_b   23.82300000
_cell_length_c   30.74900000
_cell_angle_alpha   90.00000000
_cell_angle_beta   90.00000000
_cell_angle_gamma   90.00000000
_symmetry_Int_Tables_number   1
_chemical_formula_structural   AgH4C6NO2
_chemical_formula_sum   'Ag64 H256 C384 N64 O128'
_cell_volume   10466.80387169
_cell_formula_units_Z   64
loop_
 _symmetry_equiv_pos_site_id
 _symmetry_equiv_pos_as_xyz
  1  'x, y, z'
loop_
 _atom_site_type_symbol
 _atom_site_label
 _atom_site_symmetry_multiplicity
 _atom_site_fract_x
 _atom_site_fract_y
 _atom_site_fract_z
 _atom_site_occupancy
 _atom_site_charge
  Ag  Ag1  1  0.350920  0.766650  0.711150  1.0  0.4978
  Ag  Ag2  1  0.201010  0.934970  0.519220  1.0  0.4382
  Ag  Ag3  1  0.412040  0.722520  0.789480  1.0  0.4869
  Ag  Ag4  1  0.521440  0.555620  0.985510  1.0  0.3366
  Ag  Ag5  1  0.499820  0.560290  0.471780  1.0  0.5192
  Ag  Ag6  1  0.610530  0.738560  0.283820  1.0  0.4713
  Ag  Ag7  1  0.657920  0.776840  0.200770  1.0  0.4363
  Ag  Ag8  1  0.751480  0.950750  0.007000  1.0  0.4494
  Ag  Ag9  1  0.149080  0.733350  0.711150  1.0  0.4982
  Ag  Ag10  1  0.298990  0.565030  0.519220  1.0  0.439
  Ag  Ag11  1  0.087960  0.777480  0.789480  1.0  0.4862
  Ag  Ag12  1  0.978560  0.944380  0.985510  1.0  0.3365
  Ag  Ag13  1  0.000180  0.939710  0.471780  1.0  0.5191
  Ag  Ag14  1  0.889470  0.761440  0.283820  1.0  0.4709
  Ag  Ag15  1  0.842080  0.723160  0.200770  1.0  0.4368
  Ag  Ag16  1  0.748520  0.549250  0.007000  1.0  0.4496
  Ag  Ag17  1  0.649080  0.266650  0.788850  1.0  0.4976
  Ag  Ag18  1  0.798990  0.434970  0.980780  1.0  0.4412
  Ag  Ag19  1  0.587960  0.222520  0.710520  1.0  0.4868
  Ag  Ag20  1  0.478560  0.055620  0.514490  1.0  0.3357
  Ag  Ag21  1  0.500180  0.060290  0.028220  1.0  0.5178
  Ag  Ag22  1  0.389470  0.238560  0.216180  1.0  0.4709
  Ag  Ag23  1  0.342080  0.276840  0.299230  1.0  0.4362
  Ag  Ag24  1  0.248520  0.450750  0.493000  1.0  0.4512
  Ag  Ag25  1  0.850920  0.233350  0.788850  1.0  0.4983
  Ag  Ag26  1  0.701010  0.065030  0.980780  1.0  0.4416
  Ag  Ag27  1  0.912040  0.277480  0.710520  1.0  0.4862
  Ag  Ag28  1  0.021440  0.444380  0.514490  1.0  0.3362
  Ag  Ag29  1  0.999820  0.439710  0.028220  1.0  0.518
  Ag  Ag30  1  0.110530  0.261440  0.216180  1.0  0.471
  Ag  Ag31  1  0.157920  0.223160  0.299230  1.0  0.4366
  Ag  Ag32  1  0.251480  0.049250  0.493000  1.0  0.4519
  Ag  Ag33  1  0.649080  0.233350  0.288850  1.0  0.4981
  Ag  Ag34  1  0.798990  0.065030  0.480780  1.0  0.4416
  Ag  Ag35  1  0.587960  0.277480  0.210520  1.0  0.4861
  Ag  Ag36  1  0.478560  0.444380  0.014490  1.0  0.3357
  Ag  Ag37  1  0.500180  0.439710  0.528220  1.0  0.5179
  Ag  Ag38  1  0.389470  0.261440  0.716180  1.0  0.4707
  Ag  Ag39  1  0.342080  0.223160  0.799230  1.0  0.4367
  Ag  Ag40  1  0.248520  0.049250  0.993000  1.0  0.4514
  Ag  Ag41  1  0.850920  0.266650  0.288850  1.0  0.4978
  Ag  Ag42  1  0.701010  0.434970  0.480780  1.0  0.4412
  Ag  Ag43  1  0.912040  0.222520  0.210520  1.0  0.4868
  Ag  Ag44  1  0.021440  0.055620  0.014490  1.0  0.3363
  Ag  Ag45  1  0.999820  0.060290  0.528220  1.0  0.5176
  Ag  Ag46  1  0.110530  0.238560  0.716180  1.0  0.4712
  Ag  Ag47  1  0.157920  0.276840  0.799230  1.0  0.4361
  Ag  Ag48  1  0.251480  0.450750  0.993000  1.0  0.4517
  Ag  Ag49  1  0.350920  0.733350  0.211150  1.0  0.4984
  Ag  Ag50  1  0.201010  0.565030  0.019220  1.0  0.439
  Ag  Ag51  1  0.412040  0.777480  0.289480  1.0  0.4863
  Ag  Ag52  1  0.521440  0.944380  0.485510  1.0  0.3369
  Ag  Ag53  1  0.499820  0.939710  0.971780  1.0  0.519
  Ag  Ag54  1  0.610530  0.761440  0.783820  1.0  0.4712
  Ag  Ag55  1  0.657920  0.723160  0.700770  1.0  0.4367
  Ag  Ag56  1  0.751480  0.549250  0.507000  1.0  0.4493
  Ag  Ag57  1  0.149080  0.766650  0.211150  1.0  0.4977
  Ag  Ag58  1  0.298990  0.934970  0.019220  1.0  0.4382
  Ag  Ag59  1  0.087960  0.722520  0.289480  1.0  0.4868
  Ag  Ag60  1  0.978560  0.555620  0.485510  1.0  0.3361
  Ag  Ag61  1  0.000180  0.560290  0.971780  1.0  0.5189
  Ag  Ag62  1  0.889470  0.738560  0.783820  1.0  0.471
  Ag  Ag63  1  0.842080  0.776840  0.700770  1.0  0.4364
  Ag  Ag64  1  0.748520  0.950750  0.507000  1.0  0.4498
  H  H65  1  0.371000  0.763700  0.600800  1.0  0.0828
  H  H66  1  0.328100  0.814500  0.540900  1.0  0.1006
  H  H67  1  0.194500  0.920500  0.615700  1.0  0.1
  H  H68  1  0.234400  0.869200  0.676400  1.0  0.125
  H  H69  1  0.375600  0.729800  0.897700  1.0  0.1123
  H  H70  1  0.414800  0.682400  0.959800  1.0  0.0975
  H  H71  1  0.585800  0.585000  0.894600  1.0  0.1225
  H  H72  1  0.535000  0.626000  0.830200  1.0  0.0847
  H  H73  1  0.496300  0.636100  0.316900  1.0  0.0997
  H  H74  1  0.458300  0.580100  0.375400  1.0  0.0953
  H  H75  1  0.581100  0.686200  0.454000  1.0  0.1122
  H  H76  1  0.630300  0.737900  0.393600  1.0  0.0978
  H  H77  1  0.176700  0.908300  0.763000  1.0  0.1208
  H  H78  1  0.097200  0.982000  0.797700  1.0  0.1187
  H  H79  1  0.119600  0.995400  0.873400  1.0  0.103
  H  H80  1  0.297800  0.862500  0.876300  1.0  0.1242
  H  H81  1  0.580700  0.571000  0.731200  1.0  0.1287
  H  H82  1  0.652300  0.503200  0.688400  1.0  0.0956
  H  H83  1  0.635800  0.502100  0.614800  1.0  0.1161
  H  H84  1  0.469300  0.638600  0.620800  1.0  0.1026
  H  H85  1  0.783700  0.874600  0.161700  1.0  0.1307
  H  H86  1  0.809100  0.925400  0.099200  1.0  0.0952
  H  H87  1  0.660300  0.819100  0.030300  1.0  0.117
  H  H88  1  0.637900  0.766500  0.091500  1.0  0.0841
  H  H89  1  0.441200  0.585600  0.244900  1.0  0.1295
  H  H90  1  0.357500  0.513100  0.212100  1.0  0.0964
  H  H91  1  0.366500  0.497500  0.138800  1.0  0.1073
  H  H92  1  0.532100  0.633400  0.124900  1.0  0.1193
  H  H93  1  0.825100  0.927300  0.247500  1.0  0.1188
  H  H94  1  0.906000  0.002600  0.282400  1.0  0.1212
  H  H95  1  0.892100  0.014000  0.355900  1.0  0.1034
  H  H96  1  0.727800  0.875500  0.362900  1.0  0.1341
  H  H97  1  0.129000  0.736300  0.600800  1.0  0.0843
  H  H98  1  0.171900  0.685500  0.540900  1.0  0.1007
  H  H99  1  0.305500  0.579500  0.615700  1.0  0.1012
  H  H100  1  0.265600  0.630800  0.676400  1.0  0.1254
  H  H101  1  0.124400  0.770200  0.897700  1.0  0.1123
  H  H102  1  0.085200  0.817600  0.959800  1.0  0.0974
  H  H103  1  0.914200  0.915000  0.894600  1.0  0.1221
  H  H104  1  0.965000  0.874000  0.830200  1.0  0.0842
  H  H105  1  0.003700  0.863900  0.316900  1.0  0.0992
  H  H106  1  0.041700  0.919900  0.375400  1.0  0.0953
  H  H107  1  0.918900  0.813800  0.454000  1.0  0.1118
  H  H108  1  0.869700  0.762100  0.393600  1.0  0.0977
  H  H109  1  0.323300  0.591700  0.763000  1.0  0.1202
  H  H110  1  0.402800  0.518000  0.797700  1.0  0.1184
  H  H111  1  0.380400  0.504600  0.873400  1.0  0.1032
  H  H112  1  0.202200  0.637500  0.876300  1.0  0.1239
  H  H113  1  0.919300  0.929000  0.731200  1.0  0.1285
  H  H114  1  0.847700  0.996800  0.688400  1.0  0.0952
  H  H115  1  0.864200  0.997900  0.614800  1.0  0.1163
  H  H116  1  0.030700  0.861400  0.620800  1.0  0.103
  H  H117  1  0.716300  0.625400  0.161700  1.0  0.1303
  H  H118  1  0.690900  0.574600  0.099200  1.0  0.0964
  H  H119  1  0.839700  0.680900  0.030300  1.0  0.1172
  H  H120  1  0.862100  0.733500  0.091500  1.0  0.0834
  H  H121  1  0.058800  0.914400  0.244900  1.0  0.1295
  H  H122  1  0.142500  0.986900  0.212100  1.0  0.0963
  H  H123  1  0.133500  0.002500  0.138800  1.0  0.1073
  H  H124  1  0.967900  0.866600  0.124900  1.0  0.1194
  H  H125  1  0.674900  0.572700  0.247500  1.0  0.119
  H  H126  1  0.594000  0.497400  0.282400  1.0  0.1208
  H  H127  1  0.607900  0.486000  0.355900  1.0  0.1039
  H  H128  1  0.772200  0.624500  0.362900  1.0  0.1342
  H  H129  1  0.629000  0.263700  0.899200  1.0  0.0828
  H  H130  1  0.671900  0.314500  0.959100  1.0  0.0999
  H  H131  1  0.805500  0.420500  0.884300  1.0  0.1008
  H  H132  1  0.765600  0.369200  0.823600  1.0  0.1251
  H  H133  1  0.624400  0.229800  0.602300  1.0  0.1123
  H  H134  1  0.585200  0.182400  0.540200  1.0  0.0981
  H  H135  1  0.414200  0.085000  0.605400  1.0  0.1224
  H  H136  1  0.465000  0.126000  0.669800  1.0  0.084
  H  H137  1  0.503700  0.136100  0.183100  1.0  0.0989
  H  H138  1  0.541700  0.080100  0.124600  1.0  0.0949
  H  H139  1  0.418900  0.186200  0.046000  1.0  0.1124
  H  H140  1  0.369700  0.237900  0.106400  1.0  0.0979
  H  H141  1  0.823300  0.408300  0.737000  1.0  0.1207
  H  H142  1  0.902800  0.482000  0.702300  1.0  0.1188
  H  H143  1  0.880400  0.495400  0.626600  1.0  0.1029
  H  H144  1  0.702200  0.362500  0.623700  1.0  0.1239
  H  H145  1  0.419300  0.071000  0.768800  1.0  0.1286
  H  H146  1  0.347700  0.003200  0.811600  1.0  0.0948
  H  H147  1  0.364200  0.002100  0.885200  1.0  0.1167
  H  H148  1  0.530700  0.138600  0.879200  1.0  0.1031
  H  H149  1  0.216300  0.374600  0.338300  1.0  0.13
  H  H150  1  0.190900  0.425400  0.400800  1.0  0.0958
  H  H151  1  0.339700  0.319100  0.469700  1.0  0.1169
  H  H152  1  0.362100  0.266500  0.408500  1.0  0.0842
  H  H153  1  0.558800  0.085600  0.255100  1.0  0.1301
  H  H154  1  0.642500  0.013100  0.287900  1.0  0.096
  H  H155  1  0.633500  0.997500  0.361200  1.0  0.1075
  H  H156  1  0.467900  0.133400  0.375100  1.0  0.1191
  H  H157  1  0.174900  0.427300  0.252500  1.0  0.1179
  H  H158  1  0.094000  0.502600  0.217600  1.0  0.1217
  H  H159  1  0.107900  0.514000  0.144100  1.0  0.1038
  H  H160  1  0.272200  0.375500  0.137100  1.0  0.1337
  H  H161  1  0.871000  0.236300  0.899200  1.0  0.0841
  H  H162  1  0.828100  0.185500  0.959100  1.0  0.1003
  H  H163  1  0.694500  0.079500  0.884300  1.0  0.0997
  H  H164  1  0.734400  0.130800  0.823600  1.0  0.1252
  H  H165  1  0.875600  0.270200  0.602300  1.0  0.1114
  H  H166  1  0.914800  0.317600  0.540200  1.0  0.0976
  H  H167  1  0.085800  0.415000  0.605400  1.0  0.1224
  H  H168  1  0.035000  0.374000  0.669800  1.0  0.0846
  H  H169  1  0.996300  0.363900  0.183100  1.0  0.0992
  H  H170  1  0.958300  0.419900  0.124600  1.0  0.0948
  H  H171  1  0.081100  0.313800  0.046000  1.0  0.1121
  H  H172  1  0.130300  0.262100  0.106400  1.0  0.0979
  H  H173  1  0.676700  0.091700  0.737000  1.0  0.12
  H  H174  1  0.597200  0.018000  0.702300  1.0  0.1187
  H  H175  1  0.619600  0.004600  0.626600  1.0  0.1033
  H  H176  1  0.797800  0.137500  0.623700  1.0  0.1244
  H  H177  1  0.080700  0.429000  0.768800  1.0  0.1283
  H  H178  1  0.152300  0.496800  0.811600  1.0  0.0952
  H  H179  1  0.135800  0.497900  0.885200  1.0  0.1164
  H  H180  1  0.969300  0.361400  0.879200  1.0  0.103
  H  H181  1  0.283700  0.125400  0.338300  1.0  0.1303
  H  H182  1  0.309100  0.074600  0.400800  1.0  0.0958
  H  H183  1  0.160300  0.180900  0.469700  1.0  0.1166
  H  H184  1  0.137900  0.233500  0.408500  1.0  0.0839
  H  H185  1  0.941200  0.414400  0.255100  1.0  0.1301
  H  H186  1  0.857500  0.486900  0.287900  1.0  0.0962
  H  H187  1  0.866500  0.502500  0.361200  1.0  0.108
  H  H188  1  0.032100  0.366600  0.375100  1.0  0.1195
  H  H189  1  0.325100  0.072700  0.252500  1.0  0.1176
  H  H190  1  0.406000  0.997400  0.217600  1.0  0.1218
  H  H191  1  0.392100  0.986000  0.144100  1.0  0.1035
  H  H192  1  0.227800  0.124500  0.137100  1.0  0.1346
  H  H193  1  0.629000  0.236300  0.399200  1.0  0.0829
  H  H194  1  0.671900  0.185500  0.459100  1.0  0.1001
  H  H195  1  0.805500  0.079500  0.384300  1.0  0.1009
  H  H196  1  0.765600  0.130800  0.323600  1.0  0.1252
  H  H197  1  0.624400  0.270200  0.102300  1.0  0.112
  H  H198  1  0.585200  0.317600  0.040200  1.0  0.098
  H  H199  1  0.414200  0.415000  0.105400  1.0  0.1221
  H  H200  1  0.465000  0.374000  0.169800  1.0  0.084
  H  H201  1  0.503700  0.363900  0.683100  1.0  0.0992
  H  H202  1  0.541700  0.419900  0.624600  1.0  0.0947
  H  H203  1  0.418900  0.313800  0.546000  1.0  0.1121
  H  H204  1  0.369700  0.262100  0.606400  1.0  0.0974
  H  H205  1  0.823300  0.091700  0.237000  1.0  0.1208
  H  H206  1  0.902800  0.018000  0.202300  1.0  0.1189
  H  H207  1  0.880400  0.004600  0.126600  1.0  0.1029
  H  H208  1  0.702200  0.137500  0.123700  1.0  0.1246
  H  H209  1  0.419300  0.429000  0.268800  1.0  0.1283
  H  H210  1  0.347700  0.496800  0.311600  1.0  0.0951
  H  H211  1  0.364200  0.497900  0.385200  1.0  0.1162
  H  H212  1  0.530700  0.361400  0.379200  1.0  0.1035
  H  H213  1  0.216300  0.125400  0.838300  1.0  0.1302
  H  H214  1  0.190900  0.074600  0.900800  1.0  0.0962
  H  H215  1  0.339700  0.180900  0.969700  1.0  0.1168
  H  H216  1  0.362100  0.233500  0.908500  1.0  0.0831
  H  H217  1  0.558800  0.414400  0.755100  1.0  0.13
  H  H218  1  0.642500  0.486900  0.787900  1.0  0.0962
  H  H219  1  0.633500  0.502500  0.861200  1.0  0.1074
  H  H220  1  0.467900  0.366600  0.875100  1.0  0.1194
  H  H221  1  0.174900  0.072700  0.752500  1.0  0.1177
  H  H222  1  0.094000  0.997400  0.717600  1.0  0.1217
  H  H223  1  0.107900  0.986000  0.644100  1.0  0.1037
  H  H224  1  0.272200  0.124500  0.637100  1.0  0.1343
  H  H225  1  0.871000  0.263700  0.399200  1.0  0.0847
  H  H226  1  0.828100  0.314500  0.459100  1.0  0.1001
  H  H227  1  0.694500  0.420500  0.384300  1.0  0.1001
  H  H228  1  0.734400  0.369200  0.323600  1.0  0.1249
  H  H229  1  0.875600  0.229800  0.102300  1.0  0.1122
  H  H230  1  0.914800  0.182400  0.040200  1.0  0.098
  H  H231  1  0.085800  0.085000  0.105400  1.0  0.1228
  H  H232  1  0.035000  0.126000  0.169800  1.0  0.0843
  H  H233  1  0.996300  0.136100  0.683100  1.0  0.0989
  H  H234  1  0.958300  0.080100  0.624600  1.0  0.0948
  H  H235  1  0.081100  0.186200  0.546000  1.0  0.1123
  H  H236  1  0.130300  0.237900  0.606400  1.0  0.0981
  H  H237  1  0.676700  0.408300  0.237000  1.0  0.1206
  H  H238  1  0.597200  0.482000  0.202300  1.0  0.1189
  H  H239  1  0.619600  0.495400  0.126600  1.0  0.1034
  H  H240  1  0.797800  0.362500  0.123700  1.0  0.1241
  H  H241  1  0.080700  0.071000  0.268800  1.0  0.1285
  H  H242  1  0.152300  0.003200  0.311600  1.0  0.095
  H  H243  1  0.135800  0.002100  0.385200  1.0  0.1168
  H  H244  1  0.969300  0.138600  0.379200  1.0  0.1029
  H  H245  1  0.283700  0.374600  0.838300  1.0  0.13
  H  H246  1  0.309100  0.425400  0.900800  1.0  0.0951
  H  H247  1  0.160300  0.319100  0.969700  1.0  0.1167
  H  H248  1  0.137900  0.266500  0.908500  1.0  0.0846
  H  H249  1  0.941200  0.085600  0.755100  1.0  0.1303
  H  H250  1  0.857500  0.013100  0.787900  1.0  0.0959
  H  H251  1  0.866500  0.997500  0.861200  1.0  0.1078
  H  H252  1  0.032100  0.133400  0.875100  1.0  0.1191
  H  H253  1  0.325100  0.427300  0.752500  1.0  0.1178
  H  H254  1  0.406000  0.502600  0.717600  1.0  0.1216
  H  H255  1  0.392100  0.514000  0.644100  1.0  0.1034
  H  H256  1  0.227800  0.375500  0.637100  1.0  0.1337
  H  H257  1  0.371000  0.736300  0.100800  1.0  0.0823
  H  H258  1  0.328100  0.685500  0.040900  1.0  0.1009
  H  H259  1  0.194500  0.579500  0.115700  1.0  0.0999
  H  H260  1  0.234400  0.630800  0.176400  1.0  0.1251
  H  H261  1  0.375600  0.770200  0.397700  1.0  0.1119
  H  H262  1  0.414800  0.817600  0.459800  1.0  0.0972
  H  H263  1  0.585800  0.915000  0.394600  1.0  0.1219
  H  H264  1  0.535000  0.874000  0.330200  1.0  0.0844
  H  H265  1  0.496300  0.863900  0.816900  1.0  0.0994
  H  H266  1  0.458300  0.919900  0.875400  1.0  0.0955
  H  H267  1  0.581100  0.813800  0.954000  1.0  0.1119
  H  H268  1  0.630300  0.762100  0.893600  1.0  0.098
  H  H269  1  0.176700  0.591700  0.263000  1.0  0.1212
  H  H270  1  0.097200  0.518000  0.297700  1.0  0.1183
  H  H271  1  0.119600  0.504600  0.373400  1.0  0.1036
  H  H272  1  0.297800  0.637500  0.376300  1.0  0.1239
  H  H273  1  0.580700  0.929000  0.231200  1.0  0.1287
  H  H274  1  0.652300  0.996800  0.188400  1.0  0.0953
  H  H275  1  0.635800  0.997900  0.114800  1.0  0.1163
  H  H276  1  0.469300  0.861400  0.120800  1.0  0.1025
  H  H277  1  0.783700  0.625400  0.661700  1.0  0.1305
  H  H278  1  0.809100  0.574600  0.599200  1.0  0.096
  H  H279  1  0.660300  0.680900  0.530300  1.0  0.1172
  H  H280  1  0.637900  0.733500  0.591500  1.0  0.0838
  H  H281  1  0.441200  0.914400  0.744900  1.0  0.1296
  H  H282  1  0.357500  0.986900  0.712100  1.0  0.0963
  H  H283  1  0.366500  0.002500  0.638800  1.0  0.1081
  H  H284  1  0.532100  0.866600  0.624900  1.0  0.1195
  H  H285  1  0.825100  0.572700  0.747500  1.0  0.1189
  H  H286  1  0.906000  0.497400  0.782400  1.0  0.1209
  H  H287  1  0.892100  0.486000  0.855900  1.0  0.1039
  H  H288  1  0.727800  0.624500  0.862900  1.0  0.1345
  H  H289  1  0.129000  0.763700  0.100800  1.0  0.0842
  H  H290  1  0.171900  0.814500  0.040900  1.0  0.1004
  H  H291  1  0.305500  0.920500  0.115700  1.0  0.1007
  H  H292  1  0.265600  0.869200  0.176400  1.0  0.1254
  H  H293  1  0.124400  0.729800  0.397700  1.0  0.1125
  H  H294  1  0.085200  0.682400  0.459800  1.0  0.0977
  H  H295  1  0.914200  0.585000  0.394600  1.0  0.1224
  H  H296  1  0.965000  0.626000  0.330200  1.0  0.0846
  H  H297  1  0.003700  0.636100  0.816900  1.0  0.0994
  H  H298  1  0.041700  0.580100  0.875400  1.0  0.0953
  H  H299  1  0.918900  0.686200  0.954000  1.0  0.1121
  H  H300  1  0.869700  0.737900  0.893600  1.0  0.098
  H  H301  1  0.323300  0.908300  0.263000  1.0  0.1206
  H  H302  1  0.402800  0.982000  0.297700  1.0  0.1185
  H  H303  1  0.380400  0.995400  0.373400  1.0  0.1026
  H  H304  1  0.202200  0.862500  0.376300  1.0  0.1239
  H  H305  1  0.919300  0.571000  0.231200  1.0  0.1285
  H  H306  1  0.847700  0.503200  0.188400  1.0  0.0955
  H  H307  1  0.864200  0.502100  0.114800  1.0  0.116
  H  H308  1  0.030700  0.638600  0.120800  1.0  0.1028
  H  H309  1  0.716300  0.874600  0.661700  1.0  0.1305
  H  H310  1  0.690900  0.925400  0.599200  1.0  0.0958
  H  H311  1  0.839700  0.819100  0.530300  1.0  0.1173
  H  H312  1  0.862100  0.766500  0.591500  1.0  0.084
  H  H313  1  0.058800  0.585600  0.744900  1.0  0.1295
  H  H314  1  0.142500  0.513100  0.712100  1.0  0.0966
  H  H315  1  0.133500  0.497500  0.638800  1.0  0.1071
  H  H316  1  0.967900  0.633400  0.624900  1.0  0.1195
  H  H317  1  0.674900  0.927300  0.747500  1.0  0.1189
  H  H318  1  0.594000  0.002600  0.782400  1.0  0.1214
  H  H319  1  0.607900  0.014000  0.855900  1.0  0.1036
  H  H320  1  0.772200  0.875500  0.862900  1.0  0.1339
  C  C321  1  0.334200  0.796400  0.604900  1.0  0.1711
  C  C322  1  0.308400  0.826900  0.568800  1.0  0.1366
  C  C323  1  0.231300  0.887600  0.612100  1.0  0.183
  C  C324  1  0.255400  0.857600  0.648500  1.0  0.1041
  C  C325  1  0.417400  0.698900  0.896000  1.0  0.1141
  C  C326  1  0.439900  0.670100  0.932900  1.0  0.1633
  C  C327  1  0.537800  0.612600  0.895000  1.0  0.1196
  C  C328  1  0.511300  0.639700  0.857000  1.0  0.1771
  C  C329  1  0.515900  0.647300  0.345100  1.0  0.1619
  C  C330  1  0.492600  0.613700  0.380300  1.0  0.141
  C  C331  1  0.564600  0.674100  0.425600  1.0  0.1343
  C  C332  1  0.591200  0.706100  0.389400  1.0  0.1219
  C  C333  1  0.290700  0.830100  0.793200  1.0  0.6861
  C  C334  1  0.241600  0.879400  0.816700  1.0  -0.1111
  C  C335  1  0.184400  0.914100  0.793300  1.0  -0.05
  C  C336  1  0.137600  0.957900  0.813700  1.0  -0.1275
  C  C337  1  0.151600  0.965800  0.858900  1.0  -0.0628
  C  C338  1  0.210400  0.931700  0.882300  1.0  -0.0987
  C  C339  1  0.257100  0.886800  0.860800  1.0  -0.0226
  C  C340  1  0.226800  0.941700  0.929900  1.0  0.6942
  C  C341  1  0.471600  0.659200  0.705800  1.0  0.6897
  C  C342  1  0.513500  0.613600  0.680300  1.0  -0.0654
  C  C343  1  0.571800  0.571100  0.700600  1.0  -0.1157
  C  C344  1  0.614400  0.531000  0.674800  1.0  -0.0707
  C  C345  1  0.604200  0.529600  0.631600  1.0  -0.1395
  C  C346  1  0.546500  0.569200  0.611500  1.0  -0.0942
  C  C347  1  0.505100  0.610800  0.635400  1.0  -0.0931
  C  C348  1  0.531900  0.565400  0.563900  1.0  0.6743
  C  C349  1  0.757100  0.862700  0.135000  1.0  0.0887
  C  C350  1  0.773100  0.891900  0.097200  1.0  0.1752
  C  C351  1  0.687600  0.830700  0.056900  1.0  0.1083
  C  C352  1  0.672100  0.800600  0.093900  1.0  0.163
  C  C353  1  0.542000  0.669300  0.206400  1.0  0.6887
  C  C354  1  0.492900  0.618600  0.187000  1.0  -0.1386
  C  C355  1  0.442200  0.580900  0.214200  1.0  -0.1426
  C  C356  1  0.394600  0.537300  0.194700  1.0  -0.0724
  C  C357  1  0.399400  0.528200  0.151300  1.0  -0.1126
  C  C358  1  0.452500  0.563500  0.124800  1.0  -0.1494
  C  C359  1  0.497400  0.608700  0.143000  1.0  -0.0558
  C  C360  1  0.461200  0.551100  0.076700  1.0  0.6884
  C  C361  1  0.724100  0.845600  0.280300  1.0  0.654
  C  C362  1  0.773500  0.895600  0.302900  1.0  -0.1088
  C  C363  1  0.822200  0.931900  0.278200  1.0  -0.082
  C  C364  1  0.869300  0.977100  0.298900  1.0  -0.1037
  C  C365  1  0.861300  0.983400  0.342200  1.0  -0.0771
  C  C366  1  0.809500  0.946600  0.367700  1.0  -0.0577
  C  C367  1  0.764200  0.901400  0.346700  1.0  -0.0856
  C  C368  1  0.799800  0.955500  0.415500  1.0  0.6961
  C  C369  1  0.165800  0.703600  0.604900  1.0  0.1711
  C  C370  1  0.191600  0.673100  0.568800  1.0  0.1357
  C  C371  1  0.268700  0.612400  0.612100  1.0  0.1823
  C  C372  1  0.244600  0.642400  0.648500  1.0  0.1047
  C  C373  1  0.082600  0.801100  0.896000  1.0  0.114
  C  C374  1  0.060100  0.829900  0.932900  1.0  0.1647
  C  C375  1  0.962200  0.887400  0.895000  1.0  0.1202
  C  C376  1  0.988700  0.860300  0.857000  1.0  0.1769
  C  C377  1  0.984100  0.852700  0.345100  1.0  0.1623
  C  C378  1  0.007400  0.886300  0.380300  1.0  0.1411
  C  C379  1  0.935400  0.825900  0.425600  1.0  0.1339
  C  C380  1  0.908800  0.793900  0.389400  1.0  0.1223
  C  C381  1  0.209300  0.669900  0.793200  1.0  0.6862
  C  C382  1  0.258400  0.620600  0.816700  1.0  -0.1114
  C  C383  1  0.315600  0.585900  0.793300  1.0  -0.0499
  C  C384  1  0.362400  0.542100  0.813700  1.0  -0.1275
  C  C385  1  0.348400  0.534200  0.858900  1.0  -0.0626
  C  C386  1  0.289600  0.568300  0.882300  1.0  -0.0984
  C  C387  1  0.242900  0.613200  0.860800  1.0  -0.0239
  C  C388  1  0.273200  0.558300  0.929900  1.0  0.6933
  C  C389  1  0.028400  0.840800  0.705800  1.0  0.6892
  C  C390  1  0.986500  0.886400  0.680300  1.0  -0.0652
  C  C391  1  0.928200  0.928900  0.700600  1.0  -0.1168
  C  C392  1  0.885600  0.969000  0.674800  1.0  -0.0713
  C  C393  1  0.895800  0.970400  0.631600  1.0  -0.1401
  C  C394  1  0.953500  0.930800  0.611500  1.0  -0.0943
  C  C395  1  0.994900  0.889200  0.635400  1.0  -0.093
  C  C396  1  0.968100  0.934600  0.563900  1.0  0.6741
  C  C397  1  0.742900  0.637300  0.135000  1.0  0.0876
  C  C398  1  0.726900  0.608100  0.097200  1.0  0.1754
  C  C399  1  0.812400  0.669300  0.056900  1.0  0.1086
  C  C400  1  0.827900  0.699400  0.093900  1.0  0.1621
  C  C401  1  0.958000  0.830700  0.206400  1.0  0.686
  C  C402  1  0.007100  0.881400  0.187000  1.0  -0.1392
  C  C403  1  0.057800  0.919100  0.214200  1.0  -0.1427
  C  C404  1  0.105400  0.962700  0.194700  1.0  -0.0741
  C  C405  1  0.100600  0.971800  0.151300  1.0  -0.113
  C  C406  1  0.047500  0.936500  0.124800  1.0  -0.1501
  C  C407  1  0.002600  0.891300  0.143000  1.0  -0.057
  C  C408  1  0.038800  0.948900  0.076700  1.0  0.6884
  C  C409  1  0.775900  0.654400  0.280300  1.0  0.6551
  C  C410  1  0.726500  0.604400  0.302900  1.0  -0.1092
  C  C411  1  0.677800  0.568100  0.278200  1.0  -0.0822
  C  C412  1  0.630700  0.522900  0.298900  1.0  -0.1037
  C  C413  1  0.638700  0.516600  0.342200  1.0  -0.0775
  C  C414  1  0.690500  0.553400  0.367700  1.0  -0.058
  C  C415  1  0.735800  0.598600  0.346700  1.0  -0.0866
  C  C416  1  0.700200  0.544500  0.415500  1.0  0.6968
  C  C417  1  0.665800  0.296400  0.895100  1.0  0.1724
  C  C418  1  0.691600  0.326900  0.931200  1.0  0.1342
  C  C419  1  0.768700  0.387600  0.887900  1.0  0.1825
  C  C420  1  0.744600  0.357600  0.851500  1.0  0.1051
  C  C421  1  0.582600  0.198900  0.604000  1.0  0.1139
  C  C422  1  0.560100  0.170100  0.567100  1.0  0.1643
  C  C423  1  0.462200  0.112600  0.605000  1.0  0.1208
  C  C424  1  0.488700  0.139700  0.643000  1.0  0.1763
  C  C425  1  0.484100  0.147300  0.154900  1.0  0.1626
  C  C426  1  0.507400  0.113700  0.119700  1.0  0.1404
  C  C427  1  0.435400  0.174100  0.074400  1.0  0.135
  C  C428  1  0.408800  0.206100  0.110600  1.0  0.1212
  C  C429  1  0.709300  0.330100  0.706800  1.0  0.6864
  C  C430  1  0.758400  0.379400  0.683300  1.0  -0.1128
  C  C431  1  0.815600  0.414100  0.706700  1.0  -0.0506
  C  C432  1  0.862400  0.457900  0.686300  1.0  -0.1257
  C  C433  1  0.848400  0.465800  0.641100  1.0  -0.0621
  C  C434  1  0.789600  0.431700  0.617700  1.0  -0.0981
  C  C435  1  0.742900  0.386800  0.639200  1.0  -0.0243
  C  C436  1  0.773200  0.441700  0.570100  1.0  0.6948
  C  C437  1  0.528400  0.159200  0.794200  1.0  0.6902
  C  C438  1  0.486500  0.113600  0.819700  1.0  -0.0661
  C  C439  1  0.428200  0.071100  0.799400  1.0  -0.1171
  C  C440  1  0.385600  0.031000  0.825200  1.0  -0.0704
  C  C441  1  0.395800  0.029600  0.868400  1.0  -0.1401
  C  C442  1  0.453500  0.069200  0.888500  1.0  -0.0953
  C  C443  1  0.494900  0.110800  0.864600  1.0  -0.0935
  C  C444  1  0.468100  0.065400  0.936100  1.0  0.6753
  C  C445  1  0.242900  0.362700  0.365000  1.0  0.0884
  C  C446  1  0.226900  0.391900  0.402800  1.0  0.1765
  C  C447  1  0.312400  0.330700  0.443100  1.0  0.1065
  C  C448  1  0.327900  0.300600  0.406100  1.0  0.162
  C  C449  1  0.458000  0.169300  0.293600  1.0  0.6884
  C  C450  1  0.507100  0.118600  0.313000  1.0  -0.1386
  C  C451  1  0.557800  0.080900  0.285800  1.0  -0.1421
  C  C452  1  0.605400  0.037300  0.305300  1.0  -0.074
  C  C453  1  0.600600  0.028200  0.348700  1.0  -0.1131
  C  C454  1  0.547500  0.063500  0.375200  1.0  -0.1505
  C  C455  1  0.502600  0.108700  0.357000  1.0  -0.0568
  C  C456  1  0.538800  0.051100  0.423300  1.0  0.6881
  C  C457  1  0.275900  0.345600  0.219700  1.0  0.6547
  C  C458  1  0.226500  0.395600  0.197100  1.0  -0.1092
  C  C459  1  0.177800  0.431900  0.221800  1.0  -0.0834
  C  C460  1  0.130700  0.477100  0.201100  1.0  -0.1038
  C  C461  1  0.138700  0.483400  0.157800  1.0  -0.0775
  C  C462  1  0.190500  0.446600  0.132300  1.0  -0.0554
  C  C463  1  0.235800  0.401400  0.153300  1.0  -0.0864
  C  C464  1  0.200200  0.455500  0.084500  1.0  0.6969
  C  C465  1  0.834200  0.203600  0.895100  1.0  0.1724
  C  C466  1  0.808400  0.173100  0.931200  1.0  0.1344
  C  C467  1  0.731300  0.112400  0.887900  1.0  0.1825
  C  C468  1  0.755400  0.142400  0.851500  1.0  0.1039
  C  C469  1  0.917400  0.301100  0.604000  1.0  0.1149
  C  C470  1  0.939900  0.329900  0.567100  1.0  0.1646
  C  C471  1  0.037800  0.387400  0.605000  1.0  0.1201
  C  C472  1  0.011300  0.360300  0.643000  1.0  0.1771
  C  C473  1  0.015900  0.352700  0.154900  1.0  0.1618
  C  C474  1  0.992600  0.386300  0.119700  1.0  0.141
  C  C475  1  0.064600  0.325900  0.074400  1.0  0.1356
  C  C476  1  0.091200  0.293900  0.110600  1.0  0.1213
  C  C477  1  0.790700  0.169900  0.706800  1.0  0.6862
  C  C478  1  0.741600  0.120600  0.683300  1.0  -0.1112
  C  C479  1  0.684400  0.085900  0.706700  1.0  -0.0514
  C  C480  1  0.637600  0.042100  0.686300  1.0  -0.1263
  C  C481  1  0.651600  0.034200  0.641100  1.0  -0.0621
  C  C482  1  0.710400  0.068300  0.617700  1.0  -0.0977
  C  C483  1  0.757100  0.113200  0.639200  1.0  -0.0234
  C  C484  1  0.726800  0.058300  0.570100  1.0  0.6955
  C  C485  1  0.971600  0.340800  0.794200  1.0  0.6894
  C  C486  1  0.013500  0.386400  0.819700  1.0  -0.0661
  C  C487  1  0.071800  0.428900  0.799400  1.0  -0.1171
  C  C488  1  0.114400  0.469000  0.825200  1.0  -0.0712
  C  C489  1  0.104200  0.470400  0.868400  1.0  -0.1405
  C  C490  1  0.046500  0.430800  0.888500  1.0  -0.0941
  C  C491  1  0.005100  0.389200  0.864600  1.0  -0.0927
  C  C492  1  0.031900  0.434600  0.936100  1.0  0.6744
  C  C493  1  0.257100  0.137300  0.365000  1.0  0.0885
  C  C494  1  0.273100  0.108100  0.402800  1.0  0.1751
  C  C495  1  0.187600  0.169300  0.443100  1.0  0.107
  C  C496  1  0.172100  0.199400  0.406100  1.0  0.162
  C  C497  1  0.042000  0.330700  0.293600  1.0  0.6855
  C  C498  1  0.992900  0.381400  0.313000  1.0  -0.1389
  C  C499  1  0.942200  0.419100  0.285800  1.0  -0.1413
  C  C500  1  0.894600  0.462700  0.305300  1.0  -0.073
  C  C501  1  0.899400  0.471800  0.348700  1.0  -0.1122
  C  C502  1  0.952500  0.436500  0.375200  1.0  -0.1506
  C  C503  1  0.997400  0.391300  0.357000  1.0  -0.0559
  C  C504  1  0.961200  0.448900  0.423300  1.0  0.6899
  C  C505  1  0.224100  0.154400  0.219700  1.0  0.6538
  C  C506  1  0.273500  0.104400  0.197100  1.0  -0.1091
  C  C507  1  0.322200  0.068100  0.221800  1.0  -0.0835
  C  C508  1  0.369300  0.022900  0.201100  1.0  -0.1042
  C  C509  1  0.361300  0.016600  0.157800  1.0  -0.077
  C  C510  1  0.309500  0.053400  0.132300  1.0  -0.0567
  C  C511  1  0.264200  0.098600  0.153300  1.0  -0.087
  C  C512  1  0.299800  0.044500  0.084500  1.0  0.6969
  C  C513  1  0.665800  0.203600  0.395100  1.0  0.1718
  C  C514  1  0.691600  0.173100  0.431200  1.0  0.1336
  C  C515  1  0.768700  0.112400  0.387900  1.0  0.1822
  C  C516  1  0.744600  0.142400  0.351500  1.0  0.1047
  C  C517  1  0.582600  0.301100  0.104000  1.0  0.1135
  C  C518  1  0.560100  0.329900  0.067100  1.0  0.1646
  C  C519  1  0.462200  0.387400  0.105000  1.0  0.1222
  C  C520  1  0.488700  0.360300  0.143000  1.0  0.1764
  C  C521  1  0.484100  0.352700  0.654900  1.0  0.1622
  C  C522  1  0.507400  0.386300  0.619700  1.0  0.1403
  C  C523  1  0.435400  0.325900  0.574400  1.0  0.1352
  C  C524  1  0.408800  0.293900  0.610600  1.0  0.121
  C  C525  1  0.709300  0.169900  0.206800  1.0  0.686
  C  C526  1  0.758400  0.120600  0.183300  1.0  -0.1118
  C  C527  1  0.815600  0.085900  0.206700  1.0  -0.0511
  C  C528  1  0.862400  0.042100  0.186300  1.0  -0.1264
  C  C529  1  0.848400  0.034200  0.141100  1.0  -0.0621
  C  C530  1  0.789600  0.068300  0.117700  1.0  -0.0978
  C  C531  1  0.742900  0.113200  0.139200  1.0  -0.0247
  C  C532  1  0.773200  0.058300  0.070100  1.0  0.6956
  C  C533  1  0.528400  0.340800  0.294200  1.0  0.6888
  C  C534  1  0.486500  0.386400  0.319700  1.0  -0.0659
  C  C535  1  0.428200  0.428900  0.299400  1.0  -0.1173
  C  C536  1  0.385600  0.469000  0.325200  1.0  -0.0713
  C  C537  1  0.395800  0.470400  0.368400  1.0  -0.1404
  C  C538  1  0.453500  0.430800  0.388500  1.0  -0.0946
  C  C539  1  0.494900  0.389200  0.364600  1.0  -0.0929
  C  C540  1  0.468100  0.434600  0.436100  1.0  0.6753
  C  C541  1  0.242900  0.137300  0.865000  1.0  0.0881
  C  C542  1  0.226900  0.108100  0.902800  1.0  0.176
  C  C543  1  0.312400  0.169300  0.943100  1.0  0.1069
  C  C544  1  0.327900  0.199400  0.906100  1.0  0.1619
  C  C545  1  0.458000  0.330700  0.793600  1.0  0.6853
  C  C546  1  0.507100  0.381400  0.813000  1.0  -0.1392
  C  C547  1  0.557800  0.419100  0.785800  1.0  -0.1416
  C  C548  1  0.605400  0.462700  0.805300  1.0  -0.0745
  C  C549  1  0.600600  0.471800  0.848700  1.0  -0.1128
  C  C550  1  0.547500  0.436500  0.875200  1.0  -0.1504
  C  C551  1  0.502600  0.391300  0.857000  1.0  -0.057
  C  C552  1  0.538800  0.448900  0.923300  1.0  0.6894
  C  C553  1  0.275900  0.154400  0.719700  1.0  0.6543
  C  C554  1  0.226500  0.104400  0.697100  1.0  -0.1101
  C  C555  1  0.177800  0.068100  0.721800  1.0  -0.0834
  C  C556  1  0.130700  0.022900  0.701100  1.0  -0.1037
  C  C557  1  0.138700  0.016600  0.657800  1.0  -0.0774
  C  C558  1  0.190500  0.053400  0.632300  1.0  -0.0554
  C  C559  1  0.235800  0.098600  0.653300  1.0  -0.0871
  C  C560  1  0.200200  0.044500  0.584500  1.0  0.6968
  C  C561  1  0.834200  0.296400  0.395100  1.0  0.1723
  C  C562  1  0.808400  0.326900  0.431200  1.0  0.1348
  C  C563  1  0.731300  0.387600  0.387900  1.0  0.1827
  C  C564  1  0.755400  0.357600  0.351500  1.0  0.1041
  C  C565  1  0.917400  0.198900  0.104000  1.0  0.1143
  C  C566  1  0.939900  0.170100  0.067100  1.0  0.1643
  C  C567  1  0.037800  0.112600  0.105000  1.0  0.1212
  C  C568  1  0.011300  0.139700  0.143000  1.0  0.1773
  C  C569  1  0.015900  0.147300  0.654900  1.0  0.1619
  C  C570  1  0.992600  0.113700  0.619700  1.0  0.1409
  C  C571  1  0.064600  0.174100  0.574400  1.0  0.1355
  C  C572  1  0.091200  0.206100  0.610600  1.0  0.1221
  C  C573  1  0.790700  0.330100  0.206800  1.0  0.6866
  C  C574  1  0.741600  0.379400  0.183300  1.0  -0.1116
  C  C575  1  0.684400  0.414100  0.206700  1.0  -0.051
  C  C576  1  0.637600  0.457900  0.186300  1.0  -0.126
  C  C577  1  0.651600  0.465800  0.141100  1.0  -0.0624
  C  C578  1  0.710400  0.431700  0.117700  1.0  -0.0981
  C  C579  1  0.757100  0.386800  0.139200  1.0  -0.0237
  C  C580  1  0.726800  0.441700  0.070100  1.0  0.6948
  C  C581  1  0.971600  0.159200  0.294200  1.0  0.6907
  C  C582  1  0.013500  0.113600  0.319700  1.0  -0.066
  C  C583  1  0.071800  0.071100  0.299400  1.0  -0.1169
  C  C584  1  0.114400  0.031000  0.325200  1.0  -0.0704
  C  C585  1  0.104200  0.029600  0.368400  1.0  -0.1398
  C  C586  1  0.046500  0.069200  0.388500  1.0  -0.0948
  C  C587  1  0.005100  0.110800  0.364600  1.0  -0.0937
  C  C588  1  0.031900  0.065400  0.436100  1.0  0.6744
  C  C589  1  0.257100  0.362700  0.865000  1.0  0.0886
  C  C590  1  0.273100  0.391900  0.902800  1.0  0.1755
  C  C591  1  0.187600  0.330700  0.943100  1.0  0.1069
  C  C592  1  0.172100  0.300600  0.906100  1.0  0.1629
  C  C593  1  0.042000  0.169300  0.793600  1.0  0.6886
  C  C594  1  0.992900  0.118600  0.813000  1.0  -0.1384
  C  C595  1  0.942200  0.080900  0.785800  1.0  -0.1419
  C  C596  1  0.894600  0.037300  0.805300  1.0  -0.0725
  C  C597  1  0.899400  0.028200  0.848700  1.0  -0.1125
  C  C598  1  0.952500  0.063500  0.875200  1.0  -0.1507
  C  C599  1  0.997400  0.108700  0.857000  1.0  -0.0557
  C  C600  1  0.961200  0.051100  0.923300  1.0  0.6886
  C  C601  1  0.224100  0.345600  0.719700  1.0  0.6542
  C  C602  1  0.273500  0.395600  0.697100  1.0  -0.1085
  C  C603  1  0.322200  0.431900  0.721800  1.0  -0.0834
  C  C604  1  0.369300  0.477100  0.701100  1.0  -0.1038
  C  C605  1  0.361300  0.483400  0.657800  1.0  -0.0771
  C  C606  1  0.309500  0.446600  0.632300  1.0  -0.0568
  C  C607  1  0.264200  0.401400  0.653300  1.0  -0.0861
  C  C608  1  0.299800  0.455500  0.584500  1.0  0.6969
  C  C609  1  0.334200  0.703600  0.104900  1.0  0.1718
  C  C610  1  0.308400  0.673100  0.068800  1.0  0.1361
  C  C611  1  0.231300  0.612400  0.112100  1.0  0.1829
  C  C612  1  0.255400  0.642400  0.148500  1.0  0.1038
  C  C613  1  0.417400  0.801100  0.396000  1.0  0.1152
  C  C614  1  0.439900  0.829900  0.432900  1.0  0.1642
  C  C615  1  0.537800  0.887400  0.395000  1.0  0.1207
  C  C616  1  0.511300  0.860300  0.357000  1.0  0.177
  C  C617  1  0.515900  0.852700  0.845100  1.0  0.1619
  C  C618  1  0.492600  0.886300  0.880300  1.0  0.1413
  C  C619  1  0.564600  0.825900  0.925600  1.0  0.135
  C  C620  1  0.591200  0.793900  0.889400  1.0  0.1222
  C  C621  1  0.290700  0.669900  0.293200  1.0  0.6863
  C  C622  1  0.241600  0.620600  0.316700  1.0  -0.1107
  C  C623  1  0.184400  0.585900  0.293300  1.0  -0.0502
  C  C624  1  0.137600  0.542100  0.313700  1.0  -0.1273
  C  C625  1  0.151600  0.534200  0.358900  1.0  -0.0627
  C  C626  1  0.210400  0.568300  0.382300  1.0  -0.0987
  C  C627  1  0.257100  0.613200  0.360800  1.0  -0.0225
  C  C628  1  0.226800  0.558300  0.429900  1.0  0.6934
  C  C629  1  0.471600  0.840800  0.205800  1.0  0.6896
  C  C630  1  0.513500  0.886400  0.180300  1.0  -0.065
  C  C631  1  0.571800  0.928900  0.200600  1.0  -0.1163
  C  C632  1  0.614400  0.969000  0.174800  1.0  -0.0711
  C  C633  1  0.604200  0.970400  0.131600  1.0  -0.1399
  C  C634  1  0.546500  0.930800  0.111500  1.0  -0.0941
  C  C635  1  0.505100  0.889200  0.135400  1.0  -0.0925
  C  C636  1  0.531900  0.934600  0.063900  1.0  0.6743
  C  C637  1  0.757100  0.637300  0.635000  1.0  0.0885
  C  C638  1  0.773100  0.608100  0.597200  1.0  0.1754
  C  C639  1  0.687600  0.669300  0.556900  1.0  0.1086
  C  C640  1  0.672100  0.699400  0.593900  1.0  0.1627
  C  C641  1  0.542000  0.830700  0.706400  1.0  0.6863
  C  C642  1  0.492900  0.881400  0.687000  1.0  -0.139
  C  C643  1  0.442200  0.919100  0.714200  1.0  -0.1426
  C  C644  1  0.394600  0.962700  0.694700  1.0  -0.0729
  C  C645  1  0.399400  0.971800  0.651300  1.0  -0.1124
  C  C646  1  0.452500  0.936500  0.624800  1.0  -0.1497
  C  C647  1  0.497400  0.891300  0.643000  1.0  -0.0563
  C  C648  1  0.461200  0.948900  0.576700  1.0  0.6883
  C  C649  1  0.724100  0.654400  0.780300  1.0  0.6546
  C  C650  1  0.773500  0.604400  0.802900  1.0  -0.1082
  C  C651  1  0.822200  0.568100  0.778200  1.0  -0.0818
  C  C652  1  0.869300  0.522900  0.798900  1.0  -0.104
  C  C653  1  0.861300  0.516600  0.842200  1.0  -0.0772
  C  C654  1  0.809500  0.553400  0.867700  1.0  -0.0581
  C  C655  1  0.764200  0.598600  0.846700  1.0  -0.0868
  C  C656  1  0.799800  0.544500  0.915500  1.0  0.6962
  C  C657  1  0.165800  0.796400  0.104900  1.0  0.1708
  C  C658  1  0.191600  0.826900  0.068800  1.0  0.1365
  C  C659  1  0.268700  0.887600  0.112100  1.0  0.1823
  C  C660  1  0.244600  0.857600  0.148500  1.0  0.1051
  C  C661  1  0.082600  0.698900  0.396000  1.0  0.1142
  C  C662  1  0.060100  0.670100  0.432900  1.0  0.164
  C  C663  1  0.962200  0.612600  0.395000  1.0  0.1217
  C  C664  1  0.988700  0.639700  0.357000  1.0  0.1768
  C  C665  1  0.984100  0.647300  0.845100  1.0  0.1624
  C  C666  1  0.007400  0.613700  0.880300  1.0  0.1408
  C  C667  1  0.935400  0.674100  0.925600  1.0  0.1331
  C  C668  1  0.908800  0.706100  0.889400  1.0  0.1209
  C  C669  1  0.209300  0.830100  0.293200  1.0  0.6859
  C  C670  1  0.258400  0.879400  0.316700  1.0  -0.1124
  C  C671  1  0.315600  0.914100  0.293300  1.0  -0.0495
  C  C672  1  0.362400  0.957900  0.313700  1.0  -0.1274
  C  C673  1  0.348400  0.965800  0.358900  1.0  -0.0624
  C  C674  1  0.289600  0.931700  0.382300  1.0  -0.0984
  C  C675  1  0.242900  0.886800  0.360800  1.0  -0.0234
  C  C676  1  0.273200  0.941700  0.429900  1.0  0.694
  C  C677  1  0.028400  0.659200  0.205800  1.0  0.6893
  C  C678  1  0.986500  0.613600  0.180300  1.0  -0.0658
  C  C679  1  0.928200  0.571100  0.200600  1.0  -0.1162
  C  C680  1  0.885600  0.531000  0.174800  1.0  -0.0706
  C  C681  1  0.895800  0.529600  0.131600  1.0  -0.1394
  C  C682  1  0.953500  0.569200  0.111500  1.0  -0.0943
  C  C683  1  0.994900  0.610800  0.135400  1.0  -0.0933
  C  C684  1  0.968100  0.565400  0.063900  1.0  0.674
  C  C685  1  0.742900  0.862700  0.635000  1.0  0.0881
  C  C686  1  0.726900  0.891900  0.597200  1.0  0.1755
  C  C687  1  0.812400  0.830700  0.556900  1.0  0.108
  C  C688  1  0.827900  0.800600  0.593900  1.0  0.162
  C  C689  1  0.958000  0.669300  0.706400  1.0  0.6886
  C  C690  1  0.007100  0.618600  0.687000  1.0  -0.1387
  C  C691  1  0.057800  0.580900  0.714200  1.0  -0.1426
  C  C692  1  0.105400  0.537300  0.694700  1.0  -0.0738
  C  C693  1  0.100600  0.528200  0.651300  1.0  -0.1132
  C  C694  1  0.047500  0.563500  0.624800  1.0  -0.1498
  C  C695  1  0.002600  0.608700  0.643000  1.0  -0.0565
  C  C696  1  0.038800  0.551100  0.576700  1.0  0.6885
  C  C697  1  0.775900  0.845600  0.780300  1.0  0.6548
  C  C698  1  0.726500  0.895600  0.802900  1.0  -0.1091
  C  C699  1  0.677800  0.931900  0.778200  1.0  -0.0824
  C  C700  1  0.630700  0.977100  0.798900  1.0  -0.1037
  C  C701  1  0.638700  0.983400  0.842200  1.0  -0.0775
  C  C702  1  0.690500  0.946600  0.867700  1.0  -0.0578
  C  C703  1  0.735800  0.901400  0.846700  1.0  -0.0857
  C  C704  1  0.700200  0.955500  0.915500  1.0  0.6969
  N  N705  1  0.310600  0.810300  0.644300  1.0  -0.3656
  N  N706  1  0.256600  0.873200  0.571900  1.0  -0.3359
  N  N707  1  0.454900  0.683600  0.856200  1.0  -0.3665
  N  N708  1  0.495000  0.626000  0.932400  1.0  -0.3442
  N  N709  1  0.562800  0.692900  0.349200  1.0  -0.3487
  N  N710  1  0.516500  0.627000  0.420300  1.0  -0.3245
  N  N711  1  0.701500  0.815700  0.133000  1.0  -0.3528
  N  N712  1  0.742000  0.877000  0.058300  1.0  -0.3551
  N  N713  1  0.189400  0.689700  0.644300  1.0  -0.3676
  N  N714  1  0.243400  0.626800  0.571900  1.0  -0.3368
  N  N715  1  0.045100  0.816400  0.856200  1.0  -0.366
  N  N716  1  0.005000  0.874000  0.932400  1.0  -0.345
  N  N717  1  0.937200  0.807100  0.349200  1.0  -0.3494
  N  N718  1  0.983500  0.873000  0.420300  1.0  -0.3235
  N  N719  1  0.798500  0.684300  0.133000  1.0  -0.3544
  N  N720  1  0.758000  0.623000  0.058300  1.0  -0.3575
  N  N721  1  0.689400  0.310300  0.855700  1.0  -0.3668
  N  N722  1  0.743400  0.373200  0.928100  1.0  -0.3377
  N  N723  1  0.545100  0.183600  0.643800  1.0  -0.3669
  N  N724  1  0.505000  0.126000  0.567600  1.0  -0.345
  N  N725  1  0.437200  0.192900  0.150800  1.0  -0.3486
  N  N726  1  0.483500  0.127000  0.079700  1.0  -0.3265
  N  N727  1  0.298500  0.315700  0.367000  1.0  -0.3525
  N  N728  1  0.258000  0.377000  0.441700  1.0  -0.3574
  N  N729  1  0.810600  0.189700  0.855700  1.0  -0.3665
  N  N730  1  0.756600  0.126800  0.928100  1.0  -0.3386
  N  N731  1  0.954900  0.316400  0.643800  1.0  -0.366
  N  N732  1  0.995000  0.374000  0.567600  1.0  -0.3438
  N  N733  1  0.062800  0.307100  0.150800  1.0  -0.3482
  N  N734  1  0.016500  0.373000  0.079700  1.0  -0.3257
  N  N735  1  0.201500  0.184300  0.367000  1.0  -0.3523
  N  N736  1  0.242000  0.123000  0.441700  1.0  -0.3557
  N  N737  1  0.689400  0.189700  0.355700  1.0  -0.3663
  N  N738  1  0.743400  0.126800  0.428100  1.0  -0.3376
  N  N739  1  0.545100  0.316400  0.143800  1.0  -0.3658
  N  N740  1  0.505000  0.374000  0.067600  1.0  -0.3434
  N  N741  1  0.437200  0.307100  0.650800  1.0  -0.3482
  N  N742  1  0.483500  0.373000  0.579700  1.0  -0.3247
  N  N743  1  0.298500  0.184300  0.867000  1.0  -0.3525
  N  N744  1  0.258000  0.123000  0.941700  1.0  -0.3575
  N  N745  1  0.810600  0.310300  0.355700  1.0  -0.3668
  N  N746  1  0.756600  0.373200  0.428100  1.0  -0.3389
  N  N747  1  0.954900  0.183600  0.143800  1.0  -0.367
  N  N748  1  0.995000  0.126000  0.067600  1.0  -0.3452
  N  N749  1  0.062800  0.192900  0.650800  1.0  -0.3492
  N  N750  1  0.016500  0.127000  0.579700  1.0  -0.327
  N  N751  1  0.201500  0.315700  0.867000  1.0  -0.3527
  N  N752  1  0.242000  0.377000  0.941700  1.0  -0.3548
  N  N753  1  0.310600  0.689700  0.144300  1.0  -0.3671
  N  N754  1  0.256600  0.626800  0.071900  1.0  -0.3369
  N  N755  1  0.454900  0.816400  0.356200  1.0  -0.3664
  N  N756  1  0.495000  0.874000  0.432400  1.0  -0.3444
  N  N757  1  0.562800  0.807100  0.849200  1.0  -0.3497
  N  N758  1  0.516500  0.873000  0.920300  1.0  -0.3258
  N  N759  1  0.701500  0.684300  0.633000  1.0  -0.3544
  N  N760  1  0.742000  0.623000  0.558300  1.0  -0.3572
  N  N761  1  0.189400  0.810300  0.144300  1.0  -0.3656
  N  N762  1  0.243400  0.873200  0.071900  1.0  -0.3357
  N  N763  1  0.045100  0.683600  0.356200  1.0  -0.3666
  N  N764  1  0.005000  0.626000  0.432400  1.0  -0.3446
  N  N765  1  0.937200  0.692900  0.849200  1.0  -0.348
  N  N766  1  0.983500  0.627000  0.920300  1.0  -0.3227
  N  N767  1  0.798500  0.815700  0.633000  1.0  -0.3528
  N  N768  1  0.758000  0.877000  0.558300  1.0  -0.3555
  O  O769  1  0.276200  0.826600  0.753600  1.0  -0.5668
  O  O770  1  0.340600  0.797900  0.816000  1.0  -0.5936
  O  O771  1  0.282800  0.909500  0.949800  1.0  -0.605
  O  O772  1  0.185500  0.983800  0.945500  1.0  -0.6395
  O  O773  1  0.428800  0.695300  0.684100  1.0  -0.594
  O  O774  1  0.480000  0.659100  0.746300  1.0  -0.5739
  O  O775  1  0.572100  0.528500  0.540600  1.0  -0.7724
  O  O776  1  0.475900  0.601200  0.545200  1.0  -0.7342
  O  O777  1  0.583800  0.699900  0.180400  1.0  -0.5585
  O  O778  1  0.533700  0.675600  0.247100  1.0  -0.5711
  O  O779  1  0.511600  0.584200  0.052700  1.0  -0.6046
  O  O780  1  0.424200  0.506900  0.062200  1.0  -0.6218
  O  O781  1  0.726600  0.843200  0.240000  1.0  -0.5602
  O  O782  1  0.685300  0.811000  0.306100  1.0  -0.5837
  O  O783  1  0.755800  0.919800  0.437400  1.0  -0.5656
  O  O784  1  0.846200  0.995500  0.432100  1.0  -0.6851
  O  O785  1  0.223800  0.673400  0.753600  1.0  -0.5669
  O  O786  1  0.159400  0.702100  0.816000  1.0  -0.593
  O  O787  1  0.217200  0.590500  0.949800  1.0  -0.6041
  O  O788  1  0.314500  0.516200  0.945500  1.0  -0.6386
  O  O789  1  0.071200  0.804700  0.684100  1.0  -0.5951
  O  O790  1  0.020000  0.840900  0.746300  1.0  -0.5737
  O  O791  1  0.927900  0.971500  0.540600  1.0  -0.7722
  O  O792  1  0.024100  0.898800  0.545200  1.0  -0.7315
  O  O793  1  0.916200  0.800100  0.180400  1.0  -0.5581
  O  O794  1  0.966300  0.824400  0.247100  1.0  -0.5714
  O  O795  1  0.988400  0.915800  0.052700  1.0  -0.6044
  O  O796  1  0.075800  0.993100  0.062200  1.0  -0.6215
  O  O797  1  0.773400  0.656800  0.240000  1.0  -0.5593
  O  O798  1  0.814700  0.689000  0.306100  1.0  -0.5823
  O  O799  1  0.744200  0.580200  0.437400  1.0  -0.5657
  O  O800  1  0.653800  0.504500  0.432100  1.0  -0.6862
  O  O801  1  0.723800  0.326600  0.746400  1.0  -0.5672
  O  O802  1  0.659400  0.297900  0.684000  1.0  -0.5928
  O  O803  1  0.717200  0.409500  0.550200  1.0  -0.605
  O  O804  1  0.814500  0.483800  0.554500  1.0  -0.64
  O  O805  1  0.571200  0.195300  0.815900  1.0  -0.5957
  O  O806  1  0.520000  0.159100  0.753700  1.0  -0.5741
  O  O807  1  0.427900  0.028500  0.959400  1.0  -0.7731
  O  O808  1  0.524100  0.101200  0.954800  1.0  -0.7326
  O  O809  1  0.416200  0.199900  0.319600  1.0  -0.5572
  O  O810  1  0.466300  0.175600  0.252900  1.0  -0.5719
  O  O811  1  0.488400  0.084200  0.447300  1.0  -0.6048
  O  O812  1  0.575800  0.006900  0.437800  1.0  -0.6208
  O  O813  1  0.273400  0.343200  0.260000  1.0  -0.5601
  O  O814  1  0.314700  0.311000  0.193900  1.0  -0.5827
  O  O815  1  0.244200  0.419800  0.062600  1.0  -0.5648
  O  O816  1  0.153800  0.495500  0.067900  1.0  -0.6864
  O  O817  1  0.776200  0.173400  0.746400  1.0  -0.5672
  O  O818  1  0.840600  0.202100  0.684000  1.0  -0.5942
  O  O819  1  0.782800  0.090500  0.550200  1.0  -0.605
  O  O820  1  0.685500  0.016200  0.554500  1.0  -0.64
  O  O821  1  0.928800  0.304700  0.815900  1.0  -0.5952
  O  O822  1  0.980000  0.340900  0.753700  1.0  -0.5747
  O  O823  1  0.072100  0.471500  0.959400  1.0  -0.7718
  O  O824  1  0.975900  0.398800  0.954800  1.0  -0.7336
  O  O825  1  0.083800  0.300100  0.319600  1.0  -0.5579
  O  O826  1  0.033700  0.324400  0.252900  1.0  -0.5723
  O  O827  1  0.011600  0.415800  0.447300  1.0  -0.6028
  O  O828  1  0.924200  0.493100  0.437800  1.0  -0.6198
  O  O829  1  0.226600  0.156800  0.260000  1.0  -0.5599
  O  O830  1  0.185300  0.189000  0.193900  1.0  -0.5826
  O  O831  1  0.255800  0.080200  0.062600  1.0  -0.5655
  O  O832  1  0.346200  0.004500  0.067900  1.0  -0.686
  O  O833  1  0.723800  0.173400  0.246400  1.0  -0.5675
  O  O834  1  0.659400  0.202100  0.184000  1.0  -0.5922
  O  O835  1  0.717200  0.090500  0.050200  1.0  -0.603
  O  O836  1  0.814500  0.016200  0.054500  1.0  -0.64
  O  O837  1  0.571200  0.304700  0.315900  1.0  -0.5956
  O  O838  1  0.520000  0.340900  0.253700  1.0  -0.5747
  O  O839  1  0.427900  0.471500  0.459400  1.0  -0.7729
  O  O840  1  0.524100  0.398800  0.454800  1.0  -0.7318
  O  O841  1  0.416200  0.300100  0.819600  1.0  -0.5571
  O  O842  1  0.466300  0.324400  0.752900  1.0  -0.5723
  O  O843  1  0.488400  0.415800  0.947300  1.0  -0.6036
  O  O844  1  0.575800  0.493100  0.937800  1.0  -0.6198
  O  O845  1  0.273400  0.156800  0.760000  1.0  -0.5599
  O  O846  1  0.314700  0.189000  0.693900  1.0  -0.582
  O  O847  1  0.244200  0.080200  0.562600  1.0  -0.5645
  O  O848  1  0.153800  0.004500  0.567900  1.0  -0.6873
  O  O849  1  0.776200  0.326600  0.246400  1.0  -0.5669
  O  O850  1  0.840600  0.297900  0.184000  1.0  -0.5933
  O  O851  1  0.782800  0.409500  0.050200  1.0  -0.6052
  O  O852  1  0.685500  0.483800  0.054500  1.0  -0.64
  O  O853  1  0.928800  0.195300  0.315900  1.0  -0.595
  O  O854  1  0.980000  0.159100  0.253700  1.0  -0.5744
  O  O855  1  0.072100  0.028500  0.459400  1.0  -0.7717
  O  O856  1  0.975900  0.101200  0.454800  1.0  -0.7347
  O  O857  1  0.083800  0.199900  0.819600  1.0  -0.5583
  O  O858  1  0.033700  0.175600  0.752900  1.0  -0.5717
  O  O859  1  0.011600  0.084200  0.947300  1.0  -0.6041
  O  O860  1  0.924200  0.006900  0.937800  1.0  -0.6206
  O  O861  1  0.226600  0.343200  0.760000  1.0  -0.5601
  O  O862  1  0.185300  0.311000  0.693900  1.0  -0.5836
  O  O863  1  0.255800  0.419800  0.562600  1.0  -0.5653
  O  O864  1  0.346200  0.495500  0.567900  1.0  -0.6857
  O  O865  1  0.276200  0.673400  0.253600  1.0  -0.5666
  O  O866  1  0.340600  0.702100  0.316000  1.0  -0.5941
  O  O867  1  0.282800  0.590500  0.449800  1.0  -0.6075
  O  O868  1  0.185500  0.516200  0.445500  1.0  -0.639
  O  O869  1  0.428800  0.804700  0.184100  1.0  -0.5944
  O  O870  1  0.480000  0.840900  0.246300  1.0  -0.5737
  O  O871  1  0.572100  0.971500  0.040600  1.0  -0.7715
  O  O872  1  0.475900  0.898800  0.045200  1.0  -0.7331
  O  O873  1  0.583800  0.800100  0.680400  1.0  -0.5589
  O  O874  1  0.533700  0.824400  0.747100  1.0  -0.5713
  O  O875  1  0.511600  0.915800  0.552700  1.0  -0.6041
  O  O876  1  0.424200  0.993100  0.562200  1.0  -0.6212
  O  O877  1  0.726600  0.656800  0.740000  1.0  -0.5597
  O  O878  1  0.685300  0.689000  0.806100  1.0  -0.5831
  O  O879  1  0.755800  0.580200  0.937400  1.0  -0.5667
  O  O880  1  0.846200  0.504500  0.932100  1.0  -0.6855
  O  O881  1  0.223800  0.826600  0.253600  1.0  -0.5669
  O  O882  1  0.159400  0.797900  0.316000  1.0  -0.5923
  O  O883  1  0.217200  0.909500  0.449800  1.0  -0.6038
  O  O884  1  0.314500  0.983800  0.445500  1.0  -0.6389
  O  O885  1  0.071200  0.695300  0.184100  1.0  -0.595
  O  O886  1  0.020000  0.659100  0.246300  1.0  -0.5736
  O  O887  1  0.927900  0.528500  0.040600  1.0  -0.7737
  O  O888  1  0.024100  0.601200  0.045200  1.0  -0.7327
  O  O889  1  0.916200  0.699900  0.680400  1.0  -0.5573
  O  O890  1  0.966300  0.675600  0.747100  1.0  -0.5714
  O  O891  1  0.988400  0.584200  0.552700  1.0  -0.6048
  O  O892  1  0.075800  0.506900  0.562200  1.0  -0.622
  O  O893  1  0.773400  0.843200  0.740000  1.0  -0.5598
  O  O894  1  0.814700  0.811000  0.806100  1.0  -0.5828
  O  O895  1  0.744200  0.919800  0.937400  1.0  -0.5644
  O  O896  1  0.653800  0.995500  0.932100  1.0  -0.6856
