# generated using pymatgen
data_AgH4C6NO2
_symmetry_space_group_name_H-M   'P 1'
_cell_length_a   14.23270000
_cell_length_b   23.82800000
_cell_length_c   30.74900000
_cell_angle_alpha   90.00000000
_cell_angle_beta   90.00000000
_cell_angle_gamma   90.00000000
_symmetry_Int_Tables_number   1
_chemical_formula_structural   AgH4C6NO2
_chemical_formula_sum   'Ag64 H256 C384 N64 O128'
_cell_volume   10428.11671292
_cell_formula_units_Z   64
loop_
 _symmetry_equiv_pos_site_id
 _symmetry_equiv_pos_as_xyz
  1  'x, y, z'
loop_
 _atom_site_type_symbol
 _atom_site_label
 _atom_site_symmetry_multiplicity
 _atom_site_fract_x
 _atom_site_fract_y
 _atom_site_fract_z
 _atom_site_occupancy
 _atom_site_charge
  Ag  Ag1  1  0.300400  0.934580  0.019330  1.0  0.4528
  Ag  Ag2  1  0.148670  0.766270  0.211150  1.0  0.4997
  Ag  Ag3  1  0.086860  0.721920  0.289240  1.0  0.4823
  Ag  Ag4  1  0.977280  0.555440  0.485560  1.0  0.3502
  Ag  Ag5  1  0.999130  0.439760  0.029260  1.0  0.4621
  Ag  Ag6  1  0.251710  0.048490  0.493590  1.0  0.4162
  Ag  Ag7  1  0.888010  0.739150  0.783300  1.0  0.5021
  Ag  Ag8  1  0.841520  0.777540  0.700190  1.0  0.4724
  Ag  Ag9  1  0.199600  0.565420  0.019330  1.0  0.4531
  Ag  Ag10  1  0.351330  0.733730  0.211150  1.0  0.5004
  Ag  Ag11  1  0.413140  0.778080  0.289240  1.0  0.4816
  Ag  Ag12  1  0.522720  0.944560  0.485560  1.0  0.3505
  Ag  Ag13  1  0.500870  0.060240  0.029260  1.0  0.4624
  Ag  Ag14  1  0.248290  0.451510  0.493590  1.0  0.4159
  Ag  Ag15  1  0.611990  0.760850  0.783300  1.0  0.5019
  Ag  Ag16  1  0.658480  0.722460  0.700190  1.0  0.4718
  Ag  Ag17  1  0.699600  0.434580  0.480670  1.0  0.4558
  Ag  Ag18  1  0.851330  0.266270  0.288850  1.0  0.4998
  Ag  Ag19  1  0.913140  0.221920  0.210760  1.0  0.4821
  Ag  Ag20  1  0.022720  0.055440  0.014440  1.0  0.3497
  Ag  Ag21  1  0.000870  0.939760  0.470740  1.0  0.4636
  Ag  Ag22  1  0.748290  0.548490  0.006410  1.0  0.4144
  Ag  Ag23  1  0.111990  0.239150  0.716700  1.0  0.5024
  Ag  Ag24  1  0.158480  0.277540  0.799810  1.0  0.4721
  Ag  Ag25  1  0.800400  0.065420  0.480670  1.0  0.4557
  Ag  Ag26  1  0.648670  0.233730  0.288850  1.0  0.5003
  Ag  Ag27  1  0.586860  0.278080  0.210760  1.0  0.4815
  Ag  Ag28  1  0.477280  0.444560  0.014440  1.0  0.3494
  Ag  Ag29  1  0.499130  0.560240  0.470740  1.0  0.4644
  Ag  Ag30  1  0.751710  0.951510  0.006410  1.0  0.4139
  Ag  Ag31  1  0.388010  0.260850  0.716700  1.0  0.5018
  Ag  Ag32  1  0.341520  0.222460  0.799810  1.0  0.4713
  Ag  Ag33  1  0.699600  0.065420  0.980670  1.0  0.4558
  Ag  Ag34  1  0.851330  0.233730  0.788850  1.0  0.5004
  Ag  Ag35  1  0.913140  0.278080  0.710760  1.0  0.4814
  Ag  Ag36  1  0.022720  0.444560  0.514440  1.0  0.3496
  Ag  Ag37  1  0.000870  0.560240  0.970740  1.0  0.4637
  Ag  Ag38  1  0.748290  0.951510  0.506410  1.0  0.4168
  Ag  Ag39  1  0.111990  0.260850  0.216700  1.0  0.502
  Ag  Ag40  1  0.158480  0.222460  0.299810  1.0  0.4714
  Ag  Ag41  1  0.800400  0.434580  0.980670  1.0  0.4558
  Ag  Ag42  1  0.648670  0.266270  0.788850  1.0  0.4998
  Ag  Ag43  1  0.586860  0.221920  0.710760  1.0  0.4822
  Ag  Ag44  1  0.477280  0.055440  0.514440  1.0  0.3493
  Ag  Ag45  1  0.499130  0.939760  0.970740  1.0  0.4644
  Ag  Ag46  1  0.751710  0.548490  0.506410  1.0  0.4169
  Ag  Ag47  1  0.388010  0.239150  0.216700  1.0  0.5022
  Ag  Ag48  1  0.341520  0.277540  0.299810  1.0  0.4721
  Ag  Ag49  1  0.300400  0.565420  0.519330  1.0  0.4531
  Ag  Ag50  1  0.148670  0.733730  0.711150  1.0  0.5003
  Ag  Ag51  1  0.086860  0.778080  0.789240  1.0  0.4816
  Ag  Ag52  1  0.977280  0.944560  0.985560  1.0  0.3502
  Ag  Ag53  1  0.999130  0.060240  0.529260  1.0  0.4624
  Ag  Ag54  1  0.251710  0.451510  0.993590  1.0  0.418
  Ag  Ag55  1  0.888010  0.760850  0.283300  1.0  0.5018
  Ag  Ag56  1  0.841520  0.722460  0.200190  1.0  0.4717
  Ag  Ag57  1  0.199600  0.934580  0.519330  1.0  0.4529
  Ag  Ag58  1  0.351330  0.766270  0.711150  1.0  0.4998
  Ag  Ag59  1  0.413140  0.721920  0.789240  1.0  0.4823
  Ag  Ag60  1  0.522720  0.555440  0.985560  1.0  0.3504
  Ag  Ag61  1  0.500870  0.439760  0.529260  1.0  0.4623
  Ag  Ag62  1  0.248290  0.048490  0.993590  1.0  0.4176
  Ag  Ag63  1  0.611990  0.739150  0.283300  1.0  0.5023
  Ag  Ag64  1  0.658480  0.777540  0.200190  1.0  0.4724
  H  H65  1  0.307500  0.919500  0.115900  1.0  0.0995
  H  H66  1  0.177400  0.812700  0.041100  1.0  0.0867
  H  H67  1  0.260700  0.870100  0.176800  1.0  0.1204
  H  H68  1  0.128400  0.763800  0.100400  1.0  0.0866
  H  H69  1  0.917200  0.571800  0.230400  1.0  0.1322
  H  H70  1  0.032000  0.638400  0.120200  1.0  0.1112
  H  H71  1  0.320500  0.908200  0.263300  1.0  0.1033
  H  H72  1  0.202400  0.861400  0.376100  1.0  0.1277
  H  H73  1  0.848100  0.502500  0.187100  1.0  0.0937
  H  H74  1  0.404500  0.981100  0.297600  1.0  0.1263
  H  H75  1  0.962100  0.626900  0.329900  1.0  0.0841
  H  H76  1  0.125200  0.729300  0.397300  1.0  0.1128
  H  H77  1  0.864400  0.501700  0.113100  1.0  0.1222
  H  H78  1  0.381100  0.994600  0.373900  1.0  0.1073
  H  H79  1  0.914200  0.583500  0.393700  1.0  0.1268
  H  H80  1  0.087300  0.681300  0.459900  1.0  0.1076
  H  H81  1  0.132300  0.497500  0.638900  1.0  0.1073
  H  H82  1  0.967900  0.633300  0.624500  1.0  0.1163
  H  H83  1  0.919900  0.685800  0.953600  1.0  0.1081
  H  H84  1  0.037800  0.578600  0.874600  1.0  0.0949
  H  H85  1  0.140900  0.512400  0.713100  1.0  0.1138
  H  H86  1  0.866500  0.737900  0.894000  1.0  0.1165
  H  H87  1  0.006700  0.637100  0.816200  1.0  0.0969
  H  H88  1  0.065000  0.588300  0.744100  1.0  0.1122
  H  H89  1  0.861500  0.766600  0.590600  1.0  0.0919
  H  H90  1  0.716800  0.876400  0.660900  1.0  0.1302
  H  H91  1  0.836400  0.819000  0.529700  1.0  0.1119
  H  H92  1  0.686700  0.924900  0.598300  1.0  0.1003
  H  H93  1  0.769800  0.876300  0.862100  1.0  0.1305
  H  H94  1  0.675100  0.930300  0.746600  1.0  0.1177
  H  H95  1  0.591800  0.003700  0.781400  1.0  0.1231
  H  H96  1  0.603100  0.013900  0.855500  1.0  0.1024
  H  H97  1  0.192500  0.580500  0.115900  1.0  0.0985
  H  H98  1  0.322600  0.687300  0.041100  1.0  0.0868
  H  H99  1  0.239300  0.629900  0.176800  1.0  0.1202
  H  H100  1  0.371600  0.736200  0.100400  1.0  0.0865
  H  H101  1  0.582800  0.928200  0.230400  1.0  0.1318
  H  H102  1  0.468000  0.861600  0.120200  1.0  0.1112
  H  H103  1  0.179500  0.591800  0.263300  1.0  0.1038
  H  H104  1  0.297600  0.638600  0.376100  1.0  0.1274
  H  H105  1  0.651900  0.997500  0.187100  1.0  0.0937
  H  H106  1  0.095500  0.518900  0.297600  1.0  0.1263
  H  H107  1  0.537900  0.873100  0.329900  1.0  0.0839
  H  H108  1  0.374800  0.770700  0.397300  1.0  0.1123
  H  H109  1  0.635600  0.998300  0.113100  1.0  0.1228
  H  H110  1  0.118900  0.505400  0.373900  1.0  0.1083
  H  H111  1  0.585800  0.916500  0.393700  1.0  0.1263
  H  H112  1  0.412700  0.818700  0.459900  1.0  0.1071
  H  H113  1  0.367700  0.002500  0.638900  1.0  0.1084
  H  H114  1  0.532100  0.866700  0.624500  1.0  0.1155
  H  H115  1  0.580100  0.814200  0.953600  1.0  0.108
  H  H116  1  0.462200  0.921400  0.874600  1.0  0.0955
  H  H117  1  0.359100  0.987600  0.713100  1.0  0.1135
  H  H118  1  0.633500  0.762100  0.894000  1.0  0.1162
  H  H119  1  0.493300  0.862900  0.816200  1.0  0.0974
  H  H120  1  0.435000  0.911700  0.744100  1.0  0.1124
  H  H121  1  0.638500  0.733400  0.590600  1.0  0.0917
  H  H122  1  0.783200  0.623600  0.660900  1.0  0.1304
  H  H123  1  0.663600  0.681000  0.529700  1.0  0.1113
  H  H124  1  0.813300  0.575100  0.598300  1.0  0.1006
  H  H125  1  0.730200  0.623700  0.862100  1.0  0.1311
  H  H126  1  0.824900  0.569700  0.746600  1.0  0.1181
  H  H127  1  0.908200  0.496300  0.781400  1.0  0.1229
  H  H128  1  0.896900  0.486100  0.855500  1.0  0.1024
  H  H129  1  0.692500  0.419500  0.384100  1.0  0.0993
  H  H130  1  0.822600  0.312700  0.458900  1.0  0.087
  H  H131  1  0.739300  0.370100  0.323200  1.0  0.1202
  H  H132  1  0.871600  0.263800  0.399600  1.0  0.0871
  H  H133  1  0.082800  0.071800  0.269600  1.0  0.1322
  H  H134  1  0.968000  0.138400  0.379800  1.0  0.1108
  H  H135  1  0.679500  0.408200  0.236700  1.0  0.1033
  H  H136  1  0.797600  0.361400  0.123900  1.0  0.1276
  H  H137  1  0.151900  0.002500  0.312900  1.0  0.0934
  H  H138  1  0.595500  0.481100  0.202400  1.0  0.1264
  H  H139  1  0.037900  0.126900  0.170100  1.0  0.0835
  H  H140  1  0.874800  0.229300  0.102700  1.0  0.1126
  H  H141  1  0.135600  0.001700  0.386900  1.0  0.1233
  H  H142  1  0.618900  0.494600  0.126100  1.0  0.1084
  H  H143  1  0.085800  0.083500  0.106300  1.0  0.1267
  H  H144  1  0.912700  0.181300  0.040100  1.0  0.1082
  H  H145  1  0.867700  0.997500  0.861100  1.0  0.1082
  H  H146  1  0.032100  0.133300  0.875500  1.0  0.1154
  H  H147  1  0.080100  0.185800  0.546400  1.0  0.1079
  H  H148  1  0.962200  0.078600  0.625400  1.0  0.0945
  H  H149  1  0.859100  0.012400  0.786900  1.0  0.1134
  H  H150  1  0.133500  0.237900  0.606000  1.0  0.1167
  H  H151  1  0.993300  0.137100  0.683800  1.0  0.0976
  H  H152  1  0.935000  0.088300  0.755900  1.0  0.113
  H  H153  1  0.138500  0.266600  0.909400  1.0  0.0925
  H  H154  1  0.283200  0.376400  0.839100  1.0  0.1299
  H  H155  1  0.163600  0.319000  0.970300  1.0  0.1109
  H  H156  1  0.313300  0.424900  0.901700  1.0  0.1004
  H  H157  1  0.230200  0.376300  0.637900  1.0  0.1305
  H  H158  1  0.324900  0.430300  0.753400  1.0  0.1175
  H  H159  1  0.408200  0.503700  0.718600  1.0  0.1233
  H  H160  1  0.396900  0.513900  0.644500  1.0  0.102
  H  H161  1  0.807500  0.080500  0.384100  1.0  0.0996
  H  H162  1  0.677400  0.187300  0.458900  1.0  0.0867
  H  H163  1  0.760700  0.129900  0.323200  1.0  0.1204
  H  H164  1  0.628400  0.236200  0.399600  1.0  0.0871
  H  H165  1  0.417200  0.428200  0.269600  1.0  0.1321
  H  H166  1  0.532000  0.361600  0.379800  1.0  0.1114
  H  H167  1  0.820500  0.091800  0.236700  1.0  0.103
  H  H168  1  0.702400  0.138600  0.123900  1.0  0.1279
  H  H169  1  0.348100  0.497500  0.312900  1.0  0.0937
  H  H170  1  0.904500  0.018900  0.202400  1.0  0.1267
  H  H171  1  0.462100  0.373100  0.170100  1.0  0.0834
  H  H172  1  0.625200  0.270700  0.102700  1.0  0.1126
  H  H173  1  0.364400  0.498300  0.386900  1.0  0.1226
  H  H174  1  0.881100  0.005400  0.126100  1.0  0.1078
  H  H175  1  0.414200  0.416500  0.106300  1.0  0.1266
  H  H176  1  0.587300  0.318700  0.040100  1.0  0.1085
  H  H177  1  0.632300  0.502500  0.861100  1.0  0.1078
  H  H178  1  0.467900  0.366700  0.875500  1.0  0.1158
  H  H179  1  0.419900  0.314200  0.546400  1.0  0.1079
  H  H180  1  0.537800  0.421400  0.625400  1.0  0.0945
  H  H181  1  0.640900  0.487600  0.786900  1.0  0.1135
  H  H182  1  0.366500  0.262100  0.606000  1.0  0.1156
  H  H183  1  0.506700  0.362900  0.683800  1.0  0.0978
  H  H184  1  0.565000  0.411700  0.755900  1.0  0.1126
  H  H185  1  0.361500  0.233400  0.909400  1.0  0.0915
  H  H186  1  0.216800  0.123600  0.839100  1.0  0.13
  H  H187  1  0.336400  0.181000  0.970300  1.0  0.1112
  H  H188  1  0.186700  0.075100  0.901700  1.0  0.1006
  H  H189  1  0.269800  0.123700  0.637900  1.0  0.1308
  H  H190  1  0.175100  0.069700  0.753400  1.0  0.1173
  H  H191  1  0.091800  0.996300  0.718600  1.0  0.1235
  H  H192  1  0.103100  0.986100  0.644500  1.0  0.1027
  H  H193  1  0.692500  0.080500  0.884100  1.0  0.099
  H  H194  1  0.822600  0.187300  0.958900  1.0  0.0865
  H  H195  1  0.739300  0.129900  0.823200  1.0  0.1204
  H  H196  1  0.871600  0.236200  0.899600  1.0  0.0866
  H  H197  1  0.082800  0.428200  0.769600  1.0  0.1319
  H  H198  1  0.968000  0.361600  0.879800  1.0  0.1112
  H  H199  1  0.679500  0.091800  0.736700  1.0  0.103
  H  H200  1  0.797600  0.138600  0.623900  1.0  0.1277
  H  H201  1  0.151900  0.497500  0.812900  1.0  0.0937
  H  H202  1  0.595500  0.018900  0.702400  1.0  0.1265
  H  H203  1  0.037900  0.373100  0.670100  1.0  0.0838
  H  H204  1  0.874800  0.270700  0.602700  1.0  0.1121
  H  H205  1  0.135600  0.498300  0.886900  1.0  0.1229
  H  H206  1  0.618900  0.005400  0.626100  1.0  0.1083
  H  H207  1  0.085800  0.416500  0.606300  1.0  0.1266
  H  H208  1  0.912700  0.318700  0.540100  1.0  0.1081
  H  H209  1  0.867700  0.502500  0.361100  1.0  0.1082
  H  H210  1  0.032100  0.366700  0.375500  1.0  0.1156
  H  H211  1  0.080100  0.314200  0.046400  1.0  0.1078
  H  H212  1  0.962200  0.421400  0.125400  1.0  0.0948
  H  H213  1  0.859100  0.487600  0.286900  1.0  0.1136
  H  H214  1  0.133500  0.262100  0.106000  1.0  0.1169
  H  H215  1  0.993300  0.362900  0.183800  1.0  0.0981
  H  H216  1  0.935000  0.411700  0.255900  1.0  0.1128
  H  H217  1  0.138500  0.233400  0.409400  1.0  0.0922
  H  H218  1  0.283200  0.123600  0.339100  1.0  0.1302
  H  H219  1  0.163600  0.181000  0.470300  1.0  0.1109
  H  H220  1  0.313300  0.075100  0.401700  1.0  0.1005
  H  H221  1  0.230200  0.123700  0.137900  1.0  0.1314
  H  H222  1  0.324900  0.069700  0.253400  1.0  0.1175
  H  H223  1  0.408200  0.996300  0.218600  1.0  0.1237
  H  H224  1  0.396900  0.986100  0.144500  1.0  0.1022
  H  H225  1  0.807500  0.419500  0.884100  1.0  0.0999
  H  H226  1  0.677400  0.312700  0.958900  1.0  0.0868
  H  H227  1  0.760700  0.370100  0.823200  1.0  0.1202
  H  H228  1  0.628400  0.263800  0.899600  1.0  0.087
  H  H229  1  0.417200  0.071800  0.769600  1.0  0.1325
  H  H230  1  0.532000  0.138400  0.879800  1.0  0.111
  H  H231  1  0.820500  0.408200  0.736700  1.0  0.1032
  H  H232  1  0.702400  0.361400  0.623900  1.0  0.1274
  H  H233  1  0.348100  0.002500  0.812900  1.0  0.0932
  H  H234  1  0.904500  0.481100  0.702400  1.0  0.1264
  H  H235  1  0.462100  0.126900  0.670100  1.0  0.0833
  H  H236  1  0.625200  0.229300  0.602700  1.0  0.1127
  H  H237  1  0.364400  0.001700  0.886900  1.0  0.123
  H  H238  1  0.881100  0.494600  0.626100  1.0  0.1077
  H  H239  1  0.414200  0.083500  0.606300  1.0  0.1269
  H  H240  1  0.587300  0.181300  0.540100  1.0  0.1085
  H  H241  1  0.632300  0.997500  0.361100  1.0  0.1079
  H  H242  1  0.467900  0.133300  0.375500  1.0  0.1157
  H  H243  1  0.419900  0.185800  0.046400  1.0  0.1081
  H  H244  1  0.537800  0.078600  0.125400  1.0  0.0943
  H  H245  1  0.640900  0.012400  0.286900  1.0  0.1134
  H  H246  1  0.366500  0.237900  0.106000  1.0  0.1161
  H  H247  1  0.506700  0.137100  0.183800  1.0  0.0974
  H  H248  1  0.565000  0.088300  0.255900  1.0  0.1128
  H  H249  1  0.361500  0.266600  0.409400  1.0  0.0924
  H  H250  1  0.216800  0.376400  0.339100  1.0  0.1296
  H  H251  1  0.336400  0.319000  0.470300  1.0  0.1112
  H  H252  1  0.186700  0.424900  0.401700  1.0  0.1005
  H  H253  1  0.269800  0.376300  0.137900  1.0  0.1303
  H  H254  1  0.175100  0.430300  0.253400  1.0  0.1174
  H  H255  1  0.091800  0.503700  0.218600  1.0  0.1234
  H  H256  1  0.103100  0.513900  0.144500  1.0  0.1027
  H  H257  1  0.307500  0.580500  0.615900  1.0  0.0991
  H  H258  1  0.177400  0.687300  0.541100  1.0  0.0865
  H  H259  1  0.260700  0.629900  0.676800  1.0  0.1204
  H  H260  1  0.128400  0.736200  0.600400  1.0  0.087
  H  H261  1  0.917200  0.928200  0.730400  1.0  0.1321
  H  H262  1  0.032000  0.861600  0.620200  1.0  0.1113
  H  H263  1  0.320500  0.591800  0.763300  1.0  0.1036
  H  H264  1  0.202400  0.638600  0.876100  1.0  0.1274
  H  H265  1  0.848100  0.997500  0.687100  1.0  0.0936
  H  H266  1  0.404500  0.518900  0.797600  1.0  0.1264
  H  H267  1  0.962100  0.873100  0.829900  1.0  0.0837
  H  H268  1  0.125200  0.770700  0.897300  1.0  0.1129
  H  H269  1  0.864400  0.998300  0.613100  1.0  0.1226
  H  H270  1  0.381100  0.505400  0.873900  1.0  0.108
  H  H271  1  0.914200  0.916500  0.893700  1.0  0.1266
  H  H272  1  0.087300  0.818700  0.959900  1.0  0.1074
  H  H273  1  0.132300  0.002500  0.138900  1.0  0.1083
  H  H274  1  0.967900  0.866700  0.124500  1.0  0.1157
  H  H275  1  0.919900  0.814200  0.453600  1.0  0.108
  H  H276  1  0.037800  0.921400  0.374600  1.0  0.0952
  H  H277  1  0.140900  0.987600  0.213100  1.0  0.1135
  H  H278  1  0.866500  0.762100  0.394000  1.0  0.1161
  H  H279  1  0.006700  0.862900  0.316200  1.0  0.0969
  H  H280  1  0.065000  0.911700  0.244100  1.0  0.1123
  H  H281  1  0.861500  0.733400  0.090600  1.0  0.0913
  H  H282  1  0.716800  0.623600  0.160900  1.0  0.1302
  H  H283  1  0.836400  0.681000  0.029700  1.0  0.1116
  H  H284  1  0.686700  0.575100  0.098300  1.0  0.1006
  H  H285  1  0.769800  0.623700  0.362100  1.0  0.1307
  H  H286  1  0.675100  0.569700  0.246600  1.0  0.1179
  H  H287  1  0.591800  0.496300  0.281400  1.0  0.1226
  H  H288  1  0.603100  0.486100  0.355500  1.0  0.1028
  H  H289  1  0.192500  0.919500  0.615900  1.0  0.099
  H  H290  1  0.322600  0.812700  0.541100  1.0  0.0867
  H  H291  1  0.239300  0.870100  0.676800  1.0  0.1202
  H  H292  1  0.371600  0.763800  0.600400  1.0  0.0869
  H  H293  1  0.582800  0.571800  0.730400  1.0  0.1319
  H  H294  1  0.468000  0.638400  0.620200  1.0  0.1112
  H  H295  1  0.179500  0.908200  0.763300  1.0  0.1036
  H  H296  1  0.297600  0.861400  0.876100  1.0  0.1278
  H  H297  1  0.651900  0.502500  0.687100  1.0  0.0939
  H  H298  1  0.095500  0.981100  0.797600  1.0  0.1264
  H  H299  1  0.537900  0.626900  0.829900  1.0  0.0842
  H  H300  1  0.374800  0.729300  0.897300  1.0  0.1126
  H  H301  1  0.635600  0.501700  0.613100  1.0  0.1226
  H  H302  1  0.118900  0.994600  0.873900  1.0  0.1078
  H  H303  1  0.585800  0.583500  0.893700  1.0  0.1266
  H  H304  1  0.412700  0.681300  0.959900  1.0  0.1072
  H  H305  1  0.367700  0.497500  0.138900  1.0  0.1081
  H  H306  1  0.532100  0.633300  0.124500  1.0  0.1158
  H  H307  1  0.580100  0.685800  0.453600  1.0  0.1081
  H  H308  1  0.462200  0.578600  0.374600  1.0  0.0951
  H  H309  1  0.359100  0.512400  0.213100  1.0  0.1138
  H  H310  1  0.633500  0.737900  0.394000  1.0  0.1158
  H  H311  1  0.493300  0.637100  0.316200  1.0  0.0976
  H  H312  1  0.435000  0.588300  0.244100  1.0  0.1121
  H  H313  1  0.638500  0.766600  0.090600  1.0  0.0917
  H  H314  1  0.783200  0.876400  0.160900  1.0  0.1305
  H  H315  1  0.663600  0.819000  0.029700  1.0  0.1114
  H  H316  1  0.813300  0.924900  0.098300  1.0  0.1004
  H  H317  1  0.730200  0.876300  0.362100  1.0  0.1308
  H  H318  1  0.824900  0.930300  0.246600  1.0  0.1179
  H  H319  1  0.908200  0.003700  0.281400  1.0  0.123
  H  H320  1  0.896900  0.013900  0.355500  1.0  0.1019
  C  C321  1  0.268700  0.887400  0.112200  1.0  0.1591
  C  C322  1  0.193900  0.826300  0.069100  1.0  0.1506
  C  C323  1  0.242300  0.857500  0.148800  1.0  0.0993
  C  C324  1  0.166300  0.796200  0.104700  1.0  0.1735
  C  C325  1  0.028300  0.658600  0.205500  1.0  0.6751
  C  C326  1  0.208300  0.829700  0.293500  1.0  0.6825
  C  C327  1  0.985600  0.612700  0.179400  1.0  -0.1473
  C  C328  1  0.259400  0.879100  0.316600  1.0  -0.1453
  C  C329  1  0.927200  0.571400  0.199800  1.0  -0.1454
  C  C330  1  0.995300  0.610700  0.134500  1.0  -0.0941
  C  C331  1  0.314500  0.913600  0.293800  1.0  -0.0413
  C  C332  1  0.243100  0.886000  0.360800  1.0  -0.0324
  C  C333  1  0.885400  0.530600  0.173600  1.0  -0.0754
  C  C334  1  0.953100  0.569400  0.110300  1.0  -0.0993
  C  C335  1  0.363400  0.957500  0.313600  1.0  -0.1183
  C  C336  1  0.288800  0.930800  0.382200  1.0  -0.0883
  C  C337  1  0.987300  0.639700  0.356700  1.0  0.1813
  C  C338  1  0.083200  0.698400  0.395800  1.0  0.1408
  C  C339  1  0.895600  0.529300  0.130100  1.0  -0.1482
  C  C340  1  0.968900  0.566300  0.062800  1.0  0.677
  C  C341  1  0.348900  0.965200  0.359200  1.0  -0.0237
  C  C342  1  0.272000  0.941400  0.429800  1.0  0.6826
  C  C343  1  0.961000  0.611900  0.394600  1.0  0.1229
  C  C344  1  0.060800  0.669700  0.433000  1.0  0.1416
  C  C345  1  0.039500  0.551000  0.576800  1.0  0.7008
  C  C346  1  0.047300  0.563500  0.625000  1.0  -0.1546
  C  C347  1  0.099800  0.528300  0.651400  1.0  -0.0699
  C  C348  1  0.002500  0.608600  0.642800  1.0  -0.0721
  C  C349  1  0.935400  0.674000  0.925000  1.0  0.1474
  C  C350  1  0.006200  0.613100  0.879600  1.0  0.1489
  C  C351  1  0.105500  0.537300  0.695400  1.0  -0.0768
  C  C352  1  0.006700  0.618900  0.687100  1.0  -0.1336
  C  C353  1  0.906500  0.706600  0.889500  1.0  0.1374
  C  C354  1  0.984700  0.647500  0.844300  1.0  0.1538
  C  C355  1  0.060500  0.581900  0.713600  1.0  -0.0194
  C  C356  1  0.956800  0.669200  0.705900  1.0  0.6865
  C  C357  1  0.774000  0.846600  0.780000  1.0  0.6584
  C  C358  1  0.826900  0.800500  0.593100  1.0  0.1441
  C  C359  1  0.742100  0.863700  0.634100  1.0  0.0889
  C  C360  1  0.725900  0.896900  0.801600  1.0  -0.1301
  C  C361  1  0.810400  0.830900  0.556600  1.0  0.1352
  C  C362  1  0.724800  0.892300  0.596700  1.0  0.1787
  C  C363  1  0.733900  0.902600  0.845800  1.0  -0.08
  C  C364  1  0.677000  0.934000  0.777400  1.0  -0.0641
  C  C365  1  0.689300  0.947100  0.867100  1.0  -0.0478
  C  C366  1  0.628600  0.978300  0.797900  1.0  -0.1332
  C  C367  1  0.699400  0.956900  0.915200  1.0  0.6607
  C  C368  1  0.635600  0.984000  0.841700  1.0  -0.0759
  C  C369  1  0.231300  0.612600  0.112200  1.0  0.1595
  C  C370  1  0.306100  0.673700  0.069100  1.0  0.1507
  C  C371  1  0.257700  0.642500  0.148800  1.0  0.0984
  C  C372  1  0.333700  0.703800  0.104700  1.0  0.1744
  C  C373  1  0.471700  0.841400  0.205500  1.0  0.6741
  C  C374  1  0.291700  0.670300  0.293500  1.0  0.683
  C  C375  1  0.514400  0.887300  0.179400  1.0  -0.1465
  C  C376  1  0.240600  0.620900  0.316600  1.0  -0.1463
  C  C377  1  0.572800  0.928600  0.199800  1.0  -0.1452
  C  C378  1  0.504700  0.889300  0.134500  1.0  -0.0926
  C  C379  1  0.185500  0.586400  0.293800  1.0  -0.0416
  C  C380  1  0.256900  0.614000  0.360800  1.0  -0.0317
  C  C381  1  0.614600  0.969400  0.173600  1.0  -0.0759
  C  C382  1  0.546900  0.930600  0.110300  1.0  -0.0994
  C  C383  1  0.136600  0.542500  0.313600  1.0  -0.1197
  C  C384  1  0.211200  0.569200  0.382200  1.0  -0.0881
  C  C385  1  0.512700  0.860300  0.356700  1.0  0.1812
  C  C386  1  0.416800  0.801600  0.395800  1.0  0.141
  C  C387  1  0.604400  0.970700  0.130100  1.0  -0.1482
  C  C388  1  0.531100  0.933700  0.062800  1.0  0.6765
  C  C389  1  0.151100  0.534800  0.359200  1.0  -0.0245
  C  C390  1  0.228000  0.558600  0.429800  1.0  0.6831
  C  C391  1  0.539000  0.888100  0.394600  1.0  0.1228
  C  C392  1  0.439200  0.830300  0.433000  1.0  0.1413
  C  C393  1  0.460500  0.949000  0.576800  1.0  0.7003
  C  C394  1  0.452700  0.936500  0.625000  1.0  -0.1544
  C  C395  1  0.400200  0.971700  0.651400  1.0  -0.0694
  C  C396  1  0.497500  0.891400  0.642800  1.0  -0.0715
  C  C397  1  0.564600  0.826000  0.925000  1.0  0.1493
  C  C398  1  0.493800  0.886900  0.879600  1.0  0.1492
  C  C399  1  0.394500  0.962700  0.695400  1.0  -0.0771
  C  C400  1  0.493300  0.881100  0.687100  1.0  -0.134
  C  C401  1  0.593500  0.793400  0.889500  1.0  0.1393
  C  C402  1  0.515300  0.852500  0.844300  1.0  0.1535
  C  C403  1  0.439500  0.918100  0.713600  1.0  -0.0192
  C  C404  1  0.543200  0.830800  0.705900  1.0  0.6856
  C  C405  1  0.726000  0.653400  0.780000  1.0  0.6599
  C  C406  1  0.673100  0.699500  0.593100  1.0  0.1455
  C  C407  1  0.757900  0.636300  0.634100  1.0  0.0892
  C  C408  1  0.774100  0.603100  0.801600  1.0  -0.1305
  C  C409  1  0.689600  0.669100  0.556600  1.0  0.135
  C  C410  1  0.775200  0.607700  0.596700  1.0  0.1767
  C  C411  1  0.766100  0.597400  0.845800  1.0  -0.0815
  C  C412  1  0.823000  0.566000  0.777400  1.0  -0.0634
  C  C413  1  0.810700  0.552900  0.867100  1.0  -0.0477
  C  C414  1  0.871400  0.521700  0.797900  1.0  -0.1314
  C  C415  1  0.800600  0.543100  0.915200  1.0  0.6594
  C  C416  1  0.864400  0.516000  0.841700  1.0  -0.0759
  C  C417  1  0.731300  0.387400  0.387800  1.0  0.1591
  C  C418  1  0.806100  0.326300  0.430900  1.0  0.1516
  C  C419  1  0.757700  0.357500  0.351200  1.0  0.0988
  C  C420  1  0.833700  0.296200  0.395300  1.0  0.1743
  C  C421  1  0.971700  0.158600  0.294500  1.0  0.6751
  C  C422  1  0.791700  0.329700  0.206500  1.0  0.6833
  C  C423  1  0.014400  0.112700  0.320600  1.0  -0.1469
  C  C424  1  0.740600  0.379100  0.183400  1.0  -0.1453
  C  C425  1  0.072800  0.071400  0.300200  1.0  -0.1455
  C  C426  1  0.004700  0.110700  0.365500  1.0  -0.0949
  C  C427  1  0.685500  0.413600  0.206200  1.0  -0.0414
  C  C428  1  0.756900  0.386000  0.139200  1.0  -0.033
  C  C429  1  0.114600  0.030600  0.326400  1.0  -0.0765
  C  C430  1  0.046900  0.069400  0.389700  1.0  -0.1015
  C  C431  1  0.636600  0.457500  0.186400  1.0  -0.1189
  C  C432  1  0.711200  0.430800  0.117800  1.0  -0.0852
  C  C433  1  0.012700  0.139700  0.143300  1.0  0.1813
  C  C434  1  0.916800  0.198400  0.104200  1.0  0.1394
  C  C435  1  0.104400  0.029300  0.369900  1.0  -0.1484
  C  C436  1  0.031100  0.066300  0.437200  1.0  0.676
  C  C437  1  0.651100  0.465200  0.140800  1.0  -0.024
  C  C438  1  0.728000  0.441400  0.070200  1.0  0.6833
  C  C439  1  0.039000  0.111900  0.105400  1.0  0.1232
  C  C440  1  0.939200  0.169700  0.067000  1.0  0.1417
  C  C441  1  0.960500  0.051000  0.923200  1.0  0.6998
  C  C442  1  0.952700  0.063500  0.875000  1.0  -0.1542
  C  C443  1  0.900200  0.028300  0.848600  1.0  -0.0694
  C  C444  1  0.997500  0.108600  0.857200  1.0  -0.0709
  C  C445  1  0.064600  0.174000  0.575000  1.0  0.1499
  C  C446  1  0.993800  0.113100  0.620400  1.0  0.149
  C  C447  1  0.894500  0.037300  0.804600  1.0  -0.0766
  C  C448  1  0.993300  0.118900  0.812900  1.0  -0.1333
  C  C449  1  0.093500  0.206600  0.610500  1.0  0.1403
  C  C450  1  0.015300  0.147500  0.655700  1.0  0.1531
  C  C451  1  0.939500  0.081900  0.786400  1.0  -0.0178
  C  C452  1  0.043200  0.169200  0.794100  1.0  0.6862
  C  C453  1  0.226000  0.346600  0.720000  1.0  0.6578
  C  C454  1  0.173100  0.300500  0.906900  1.0  0.1451
  C  C455  1  0.257900  0.363700  0.865900  1.0  0.0887
  C  C456  1  0.274100  0.396900  0.698400  1.0  -0.1306
  C  C457  1  0.189600  0.330900  0.943400  1.0  0.1351
  C  C458  1  0.275200  0.392300  0.903300  1.0  0.1776
  C  C459  1  0.266100  0.402600  0.654200  1.0  -0.0799
  C  C460  1  0.323000  0.434000  0.722600  1.0  -0.0646
  C  C461  1  0.310700  0.447100  0.632900  1.0  -0.0466
  C  C462  1  0.371400  0.478300  0.702100  1.0  -0.1321
  C  C463  1  0.300600  0.456900  0.584800  1.0  0.6629
  C  C464  1  0.364400  0.484000  0.658300  1.0  -0.0763
  C  C465  1  0.768700  0.112600  0.387800  1.0  0.1588
  C  C466  1  0.693900  0.173700  0.430900  1.0  0.1494
  C  C467  1  0.742300  0.142500  0.351200  1.0  0.0995
  C  C468  1  0.666300  0.203800  0.395300  1.0  0.174
  C  C469  1  0.528300  0.341400  0.294500  1.0  0.6739
  C  C470  1  0.708300  0.170300  0.206500  1.0  0.6832
  C  C471  1  0.485600  0.387300  0.320600  1.0  -0.1468
  C  C472  1  0.759400  0.120900  0.183400  1.0  -0.1458
  C  C473  1  0.427200  0.428600  0.300200  1.0  -0.1457
  C  C474  1  0.495300  0.389300  0.365500  1.0  -0.0925
  C  C475  1  0.814500  0.086400  0.206200  1.0  -0.0417
  C  C476  1  0.743100  0.114000  0.139200  1.0  -0.0333
  C  C477  1  0.385400  0.469400  0.326400  1.0  -0.077
  C  C478  1  0.453100  0.430600  0.389700  1.0  -0.1005
  C  C479  1  0.863400  0.042500  0.186400  1.0  -0.1181
  C  C480  1  0.788800  0.069200  0.117800  1.0  -0.0849
  C  C481  1  0.487300  0.360300  0.143300  1.0  0.1813
  C  C482  1  0.583200  0.301600  0.104200  1.0  0.1388
  C  C483  1  0.395600  0.470700  0.369900  1.0  -0.1482
  C  C484  1  0.468900  0.433700  0.437200  1.0  0.6777
  C  C485  1  0.848900  0.034800  0.140800  1.0  -0.0241
  C  C486  1  0.772000  0.058600  0.070200  1.0  0.684
  C  C487  1  0.461000  0.388100  0.105400  1.0  0.1243
  C  C488  1  0.560800  0.330300  0.067000  1.0  0.1421
  C  C489  1  0.539500  0.449000  0.923200  1.0  0.7006
  C  C490  1  0.547300  0.436500  0.875000  1.0  -0.1541
  C  C491  1  0.599800  0.471700  0.848600  1.0  -0.0689
  C  C492  1  0.502500  0.391400  0.857200  1.0  -0.0716
  C  C493  1  0.435400  0.326000  0.575000  1.0  0.149
  C  C494  1  0.506200  0.386900  0.620400  1.0  0.1492
  C  C495  1  0.605500  0.462700  0.804600  1.0  -0.0774
  C  C496  1  0.506700  0.381100  0.812900  1.0  -0.134
  C  C497  1  0.406500  0.293400  0.610500  1.0  0.1388
  C  C498  1  0.484700  0.352500  0.655700  1.0  0.1533
  C  C499  1  0.560500  0.418100  0.786400  1.0  -0.0182
  C  C500  1  0.456800  0.330800  0.794100  1.0  0.6856
  C  C501  1  0.274000  0.153400  0.720000  1.0  0.6603
  C  C502  1  0.326900  0.199500  0.906900  1.0  0.1457
  C  C503  1  0.242100  0.136300  0.865900  1.0  0.0883
  C  C504  1  0.225900  0.103100  0.698400  1.0  -0.131
  C  C505  1  0.310400  0.169100  0.943400  1.0  0.135
  C  C506  1  0.224800  0.107700  0.903300  1.0  0.1775
  C  C507  1  0.233900  0.097400  0.654200  1.0  -0.0805
  C  C508  1  0.177000  0.066000  0.722600  1.0  -0.0648
  C  C509  1  0.189300  0.052900  0.632900  1.0  -0.0457
  C  C510  1  0.128600  0.021700  0.702100  1.0  -0.1323
  C  C511  1  0.199400  0.043100  0.584800  1.0  0.6623
  C  C512  1  0.135600  0.016000  0.658300  1.0  -0.076
  C  C513  1  0.731300  0.112600  0.887800  1.0  0.1588
  C  C514  1  0.806100  0.173700  0.930900  1.0  0.1511
  C  C515  1  0.757700  0.142500  0.851200  1.0  0.0988
  C  C516  1  0.833700  0.203800  0.895300  1.0  0.1746
  C  C517  1  0.971700  0.341400  0.794500  1.0  0.6736
  C  C518  1  0.791700  0.170300  0.706500  1.0  0.6834
  C  C519  1  0.014400  0.387300  0.820600  1.0  -0.1471
  C  C520  1  0.740600  0.120900  0.683400  1.0  -0.1461
  C  C521  1  0.072800  0.428600  0.800200  1.0  -0.1456
  C  C522  1  0.004700  0.389300  0.865500  1.0  -0.0926
  C  C523  1  0.685500  0.086400  0.706200  1.0  -0.0418
  C  C524  1  0.756900  0.114000  0.639200  1.0  -0.0325
  C  C525  1  0.114600  0.469400  0.826400  1.0  -0.0769
  C  C526  1  0.046900  0.430600  0.889700  1.0  -0.1004
  C  C527  1  0.636600  0.042500  0.686400  1.0  -0.1193
  C  C528  1  0.711200  0.069200  0.617800  1.0  -0.0857
  C  C529  1  0.012700  0.360300  0.643300  1.0  0.1814
  C  C530  1  0.916800  0.301600  0.604200  1.0  0.1394
  C  C531  1  0.104400  0.470700  0.869900  1.0  -0.1482
  C  C532  1  0.031100  0.433700  0.937200  1.0  0.6765
  C  C533  1  0.651100  0.034800  0.640800  1.0  -0.0242
  C  C534  1  0.728000  0.058600  0.570200  1.0  0.6834
  C  C535  1  0.039000  0.388100  0.605400  1.0  0.1258
  C  C536  1  0.939200  0.330300  0.567000  1.0  0.142
  C  C537  1  0.960500  0.449000  0.423200  1.0  0.7009
  C  C538  1  0.952700  0.436500  0.375000  1.0  -0.1541
  C  C539  1  0.900200  0.471700  0.348600  1.0  -0.0692
  C  C540  1  0.997500  0.391400  0.357200  1.0  -0.0708
  C  C541  1  0.064600  0.326000  0.075000  1.0  0.1497
  C  C542  1  0.993800  0.386900  0.120400  1.0  0.1493
  C  C543  1  0.894500  0.462700  0.304600  1.0  -0.0772
  C  C544  1  0.993300  0.381100  0.312900  1.0  -0.1339
  C  C545  1  0.093500  0.293400  0.110500  1.0  0.1397
  C  C546  1  0.015300  0.352500  0.155700  1.0  0.1528
  C  C547  1  0.939500  0.418100  0.286400  1.0  -0.0181
  C  C548  1  0.043200  0.330800  0.294100  1.0  0.6854
  C  C549  1  0.226000  0.153400  0.220000  1.0  0.6596
  C  C550  1  0.173100  0.199500  0.406900  1.0  0.1452
  C  C551  1  0.257900  0.136300  0.365900  1.0  0.0887
  C  C552  1  0.274100  0.103100  0.198400  1.0  -0.1309
  C  C553  1  0.189600  0.169100  0.443400  1.0  0.1348
  C  C554  1  0.275200  0.107700  0.403300  1.0  0.1773
  C  C555  1  0.266100  0.097400  0.154200  1.0  -0.0812
  C  C556  1  0.323000  0.066000  0.222600  1.0  -0.0647
  C  C557  1  0.310700  0.052900  0.132900  1.0  -0.0466
  C  C558  1  0.371400  0.021700  0.202100  1.0  -0.1315
  C  C559  1  0.300600  0.043100  0.084800  1.0  0.663
  C  C560  1  0.364400  0.016000  0.158300  1.0  -0.076
  C  C561  1  0.768700  0.387400  0.887800  1.0  0.159
  C  C562  1  0.693900  0.326300  0.930900  1.0  0.15
  C  C563  1  0.742300  0.357500  0.851200  1.0  0.0997
  C  C564  1  0.666300  0.296200  0.895300  1.0  0.1741
  C  C565  1  0.528300  0.158600  0.794500  1.0  0.6752
  C  C566  1  0.708300  0.329700  0.706500  1.0  0.6831
  C  C567  1  0.485600  0.112700  0.820600  1.0  -0.1468
  C  C568  1  0.759400  0.379100  0.683400  1.0  -0.1453
  C  C569  1  0.427200  0.071400  0.800200  1.0  -0.1455
  C  C570  1  0.495300  0.110700  0.865500  1.0  -0.0945
  C  C571  1  0.814500  0.413600  0.706200  1.0  -0.0414
  C  C572  1  0.743100  0.386000  0.639200  1.0  -0.0331
  C  C573  1  0.385400  0.030600  0.826400  1.0  -0.0763
  C  C574  1  0.453100  0.069400  0.889700  1.0  -0.1015
  C  C575  1  0.863400  0.457500  0.686400  1.0  -0.1173
  C  C576  1  0.788800  0.430800  0.617800  1.0  -0.0867
  C  C577  1  0.487300  0.139700  0.643300  1.0  0.181
  C  C578  1  0.583200  0.198400  0.604200  1.0  0.1397
  C  C579  1  0.395600  0.029300  0.869900  1.0  -0.1487
  C  C580  1  0.468900  0.066300  0.937200  1.0  0.6772
  C  C581  1  0.848900  0.465200  0.640800  1.0  -0.0239
  C  C582  1  0.772000  0.441400  0.570200  1.0  0.6839
  C  C583  1  0.461000  0.111900  0.605400  1.0  0.126
  C  C584  1  0.560800  0.169700  0.567000  1.0  0.1419
  C  C585  1  0.539500  0.051000  0.423200  1.0  0.6996
  C  C586  1  0.547300  0.063500  0.375000  1.0  -0.1543
  C  C587  1  0.599800  0.028300  0.348600  1.0  -0.0694
  C  C588  1  0.502500  0.108600  0.357200  1.0  -0.0718
  C  C589  1  0.435400  0.174000  0.075000  1.0  0.1489
  C  C590  1  0.506200  0.113100  0.120400  1.0  0.1489
  C  C591  1  0.605500  0.037300  0.304600  1.0  -0.077
  C  C592  1  0.506700  0.118900  0.312900  1.0  -0.1334
  C  C593  1  0.406500  0.206600  0.110500  1.0  0.1388
  C  C594  1  0.484700  0.147500  0.155700  1.0  0.1536
  C  C595  1  0.560500  0.081900  0.286400  1.0  -0.0178
  C  C596  1  0.456800  0.169200  0.294100  1.0  0.6864
  C  C597  1  0.274000  0.346600  0.220000  1.0  0.6584
  C  C598  1  0.326900  0.300500  0.406900  1.0  0.1447
  C  C599  1  0.242100  0.363700  0.365900  1.0  0.0885
  C  C600  1  0.225900  0.396900  0.198400  1.0  -0.1301
  C  C601  1  0.310400  0.330900  0.443400  1.0  0.1352
  C  C602  1  0.224800  0.392300  0.403300  1.0  0.1779
  C  C603  1  0.233900  0.402600  0.154200  1.0  -0.0798
  C  C604  1  0.177000  0.434000  0.222600  1.0  -0.0647
  C  C605  1  0.189300  0.447100  0.132900  1.0  -0.0456
  C  C606  1  0.128600  0.478300  0.202100  1.0  -0.1335
  C  C607  1  0.199400  0.456900  0.084800  1.0  0.6622
  C  C608  1  0.135600  0.484000  0.158300  1.0  -0.0761
  C  C609  1  0.268700  0.612600  0.612200  1.0  0.1591
  C  C610  1  0.193900  0.673700  0.569100  1.0  0.1498
  C  C611  1  0.242300  0.642500  0.648800  1.0  0.0992
  C  C612  1  0.166300  0.703800  0.604700  1.0  0.1741
  C  C613  1  0.028300  0.841400  0.705500  1.0  0.6748
  C  C614  1  0.208300  0.670300  0.793500  1.0  0.6828
  C  C615  1  0.985600  0.887300  0.679400  1.0  -0.1466
  C  C616  1  0.259400  0.620900  0.816600  1.0  -0.1461
  C  C617  1  0.927200  0.928600  0.699800  1.0  -0.1455
  C  C618  1  0.995300  0.889300  0.634500  1.0  -0.0928
  C  C619  1  0.314500  0.586400  0.793800  1.0  -0.0415
  C  C620  1  0.243100  0.614000  0.860800  1.0  -0.0327
  C  C621  1  0.885400  0.969400  0.673600  1.0  -0.0759
  C  C622  1  0.953100  0.930600  0.610300  1.0  -0.0992
  C  C623  1  0.363400  0.542500  0.813600  1.0  -0.1188
  C  C624  1  0.288800  0.569200  0.882200  1.0  -0.0892
  C  C625  1  0.987300  0.860300  0.856700  1.0  0.1814
  C  C626  1  0.083200  0.801600  0.895800  1.0  0.1403
  C  C627  1  0.895600  0.970700  0.630100  1.0  -0.1483
  C  C628  1  0.968900  0.933700  0.562800  1.0  0.677
  C  C629  1  0.348900  0.534800  0.859200  1.0  -0.0242
  C  C630  1  0.272000  0.558600  0.929800  1.0  0.6829
  C  C631  1  0.961000  0.888100  0.894600  1.0  0.1257
  C  C632  1  0.060800  0.830300  0.933000  1.0  0.1419
  C  C633  1  0.039500  0.949000  0.076800  1.0  0.7006
  C  C634  1  0.047300  0.936500  0.125000  1.0  -0.1548
  C  C635  1  0.099800  0.971700  0.151400  1.0  -0.0691
  C  C636  1  0.002500  0.891400  0.142800  1.0  -0.0721
  C  C637  1  0.935400  0.826000  0.425000  1.0  0.1478
  C  C638  1  0.006200  0.886900  0.379600  1.0  0.1494
  C  C639  1  0.105500  0.962700  0.195400  1.0  -0.0771
  C  C640  1  0.006700  0.881100  0.187100  1.0  -0.134
  C  C641  1  0.906500  0.793400  0.389500  1.0  0.1384
  C  C642  1  0.984700  0.852500  0.344300  1.0  0.1536
  C  C643  1  0.060500  0.918100  0.213600  1.0  -0.0192
  C  C644  1  0.956800  0.830800  0.205900  1.0  0.6859
  C  C645  1  0.774000  0.653400  0.280000  1.0  0.6605
  C  C646  1  0.826900  0.699500  0.093100  1.0  0.1455
  C  C647  1  0.742100  0.636300  0.134100  1.0  0.0885
  C  C648  1  0.725900  0.603100  0.301600  1.0  -0.1305
  C  C649  1  0.810400  0.669100  0.056600  1.0  0.135
  C  C650  1  0.724800  0.607700  0.096700  1.0  0.1782
  C  C651  1  0.733900  0.597400  0.345800  1.0  -0.0805
  C  C652  1  0.677000  0.566000  0.277400  1.0  -0.0638
  C  C653  1  0.689300  0.552900  0.367100  1.0  -0.048
  C  C654  1  0.628600  0.521700  0.297900  1.0  -0.132
  C  C655  1  0.699400  0.543100  0.415200  1.0  0.6606
  C  C656  1  0.635600  0.516000  0.341700  1.0  -0.0759
  C  C657  1  0.231300  0.887400  0.612200  1.0  0.1597
  C  C658  1  0.306100  0.826300  0.569100  1.0  0.1514
  C  C659  1  0.257700  0.857500  0.648800  1.0  0.0985
  C  C660  1  0.333700  0.796200  0.604700  1.0  0.1735
  C  C661  1  0.471700  0.658600  0.705500  1.0  0.6748
  C  C662  1  0.291700  0.829700  0.793500  1.0  0.6827
  C  C663  1  0.514400  0.612700  0.679400  1.0  -0.1472
  C  C664  1  0.240600  0.879100  0.816600  1.0  -0.1453
  C  C665  1  0.572800  0.571400  0.699800  1.0  -0.1452
  C  C666  1  0.504700  0.610700  0.634500  1.0  -0.0943
  C  C667  1  0.185500  0.913600  0.793800  1.0  -0.0413
  C  C668  1  0.256900  0.886000  0.860800  1.0  -0.032
  C  C669  1  0.614600  0.530600  0.673600  1.0  -0.0761
  C  C670  1  0.546900  0.569400  0.610300  1.0  -0.0996
  C  C671  1  0.136600  0.957500  0.813600  1.0  -0.1196
  C  C672  1  0.211200  0.930800  0.882200  1.0  -0.0894
  C  C673  1  0.512700  0.639700  0.856700  1.0  0.1812
  C  C674  1  0.416800  0.698400  0.895800  1.0  0.1403
  C  C675  1  0.604400  0.529300  0.630100  1.0  -0.1482
  C  C676  1  0.531100  0.566300  0.562800  1.0  0.6766
  C  C677  1  0.151100  0.965200  0.859200  1.0  -0.0242
  C  C678  1  0.228000  0.941400  0.929800  1.0  0.6828
  C  C679  1  0.539000  0.611900  0.894600  1.0  0.1248
  C  C680  1  0.439200  0.669700  0.933000  1.0  0.1409
  C  C681  1  0.460500  0.551000  0.076800  1.0  0.7003
  C  C682  1  0.452700  0.563500  0.125000  1.0  -0.1541
  C  C683  1  0.400200  0.528300  0.151400  1.0  -0.0699
  C  C684  1  0.497500  0.608600  0.142800  1.0  -0.0714
  C  C685  1  0.564600  0.674000  0.425000  1.0  0.1492
  C  C686  1  0.493800  0.613100  0.379600  1.0  0.1487
  C  C687  1  0.394500  0.537300  0.195400  1.0  -0.0766
  C  C688  1  0.493300  0.618900  0.187100  1.0  -0.1336
  C  C689  1  0.593500  0.706600  0.389500  1.0  0.1392
  C  C690  1  0.515300  0.647500  0.344300  1.0  0.1538
  C  C691  1  0.439500  0.581900  0.213600  1.0  -0.0194
  C  C692  1  0.543200  0.669200  0.205900  1.0  0.6862
  C  C693  1  0.726000  0.846600  0.280000  1.0  0.6576
  C  C694  1  0.673100  0.800500  0.093100  1.0  0.1446
  C  C695  1  0.757900  0.863700  0.134100  1.0  0.0894
  C  C696  1  0.774100  0.896900  0.301600  1.0  -0.131
  C  C697  1  0.689600  0.830900  0.056600  1.0  0.1352
  C  C698  1  0.775200  0.892300  0.096700  1.0  0.1769
  C  C699  1  0.766100  0.902600  0.345800  1.0  -0.0805
  C  C700  1  0.823000  0.934000  0.277400  1.0  -0.0637
  C  C701  1  0.810700  0.947100  0.367100  1.0  -0.0472
  C  C702  1  0.871400  0.978300  0.297900  1.0  -0.1322
  C  C703  1  0.800600  0.956900  0.415200  1.0  0.6594
  C  C704  1  0.864400  0.984000  0.341700  1.0  -0.0761
  N  N705  1  0.242200  0.873100  0.071800  1.0  -0.3449
  N  N706  1  0.189600  0.809900  0.144400  1.0  -0.363
  N  N707  1  0.045700  0.683100  0.356100  1.0  -0.3685
  N  N708  1  0.002200  0.625700  0.432200  1.0  -0.3516
  N  N709  1  0.984100  0.626800  0.919500  1.0  -0.3257
  N  N710  1  0.935800  0.693300  0.848500  1.0  -0.3562
  N  N711  1  0.797000  0.816000  0.632400  1.0  -0.3547
  N  N712  1  0.758000  0.877300  0.557900  1.0  -0.348
  N  N713  1  0.257800  0.626900  0.071800  1.0  -0.3461
  N  N714  1  0.310400  0.690100  0.144400  1.0  -0.3641
  N  N715  1  0.454300  0.816900  0.356100  1.0  -0.3684
  N  N716  1  0.497800  0.874300  0.432200  1.0  -0.3502
  N  N717  1  0.515900  0.873200  0.919500  1.0  -0.3276
  N  N718  1  0.564200  0.806700  0.848500  1.0  -0.3562
  N  N719  1  0.703000  0.684000  0.632400  1.0  -0.3567
  N  N720  1  0.742000  0.622700  0.557900  1.0  -0.3497
  N  N721  1  0.757800  0.373100  0.428200  1.0  -0.3486
  N  N722  1  0.810400  0.309900  0.355600  1.0  -0.363
  N  N723  1  0.954300  0.183100  0.143900  1.0  -0.3693
  N  N724  1  0.997800  0.125700  0.067800  1.0  -0.3494
  N  N725  1  0.015900  0.126800  0.580500  1.0  -0.3298
  N  N726  1  0.064200  0.193300  0.651500  1.0  -0.3566
  N  N727  1  0.203000  0.316000  0.867600  1.0  -0.3559
  N  N728  1  0.242000  0.377300  0.942100  1.0  -0.3484
  N  N729  1  0.742200  0.126900  0.428200  1.0  -0.3474
  N  N730  1  0.689600  0.190100  0.355600  1.0  -0.3635
  N  N731  1  0.545700  0.316900  0.143900  1.0  -0.3685
  N  N732  1  0.502200  0.374300  0.067800  1.0  -0.3486
  N  N733  1  0.484100  0.373200  0.580500  1.0  -0.3279
  N  N734  1  0.435800  0.306700  0.651500  1.0  -0.3553
  N  N735  1  0.297000  0.184000  0.867600  1.0  -0.3552
  N  N736  1  0.258000  0.122700  0.942100  1.0  -0.3505
  N  N737  1  0.757800  0.126900  0.928200  1.0  -0.3479
  N  N738  1  0.810400  0.190100  0.855600  1.0  -0.3631
  N  N739  1  0.954300  0.316900  0.643900  1.0  -0.3684
  N  N740  1  0.997800  0.374300  0.567800  1.0  -0.3483
  N  N741  1  0.015900  0.373200  0.080500  1.0  -0.3283
  N  N742  1  0.064200  0.306700  0.151500  1.0  -0.3549
  N  N743  1  0.203000  0.184000  0.367600  1.0  -0.3555
  N  N744  1  0.242000  0.122700  0.442100  1.0  -0.3485
  N  N745  1  0.742200  0.373100  0.928200  1.0  -0.3476
  N  N746  1  0.689600  0.309900  0.855600  1.0  -0.3636
  N  N747  1  0.545700  0.183100  0.643900  1.0  -0.3695
  N  N748  1  0.502200  0.125700  0.567800  1.0  -0.3504
  N  N749  1  0.484100  0.126800  0.080500  1.0  -0.3296
  N  N750  1  0.435800  0.193300  0.151500  1.0  -0.3571
  N  N751  1  0.297000  0.316000  0.367600  1.0  -0.3555
  N  N752  1  0.258000  0.377300  0.442100  1.0  -0.3509
  N  N753  1  0.242200  0.626900  0.571800  1.0  -0.3461
  N  N754  1  0.189600  0.690100  0.644400  1.0  -0.365
  N  N755  1  0.045700  0.816900  0.856100  1.0  -0.3685
  N  N756  1  0.002200  0.874300  0.932200  1.0  -0.3511
  N  N757  1  0.984100  0.873200  0.419500  1.0  -0.3259
  N  N758  1  0.935800  0.806700  0.348500  1.0  -0.3566
  N  N759  1  0.797000  0.684000  0.132400  1.0  -0.3564
  N  N760  1  0.758000  0.622700  0.057900  1.0  -0.3496
  N  N761  1  0.257800  0.873100  0.571800  1.0  -0.3451
  N  N762  1  0.310400  0.809900  0.644400  1.0  -0.3624
  N  N763  1  0.454300  0.683100  0.856100  1.0  -0.3681
  N  N764  1  0.497800  0.625700  0.932200  1.0  -0.35
  N  N765  1  0.515900  0.626800  0.419500  1.0  -0.327
  N  N766  1  0.564200  0.693300  0.348500  1.0  -0.3563
  N  N767  1  0.703000  0.816000  0.132400  1.0  -0.3548
  N  N768  1  0.742000  0.877300  0.057900  1.0  -0.3484
  O  O769  1  0.282400  0.909500  0.949700  1.0  -0.5631
  O  O770  1  0.347200  0.004200  0.068400  1.0  -0.6808
  O  O771  1  0.070200  0.695300  0.183800  1.0  -0.5701
  O  O772  1  0.224100  0.826600  0.253400  1.0  -0.5778
  O  O773  1  0.019000  0.658100  0.245800  1.0  -0.5645
  O  O774  1  0.159300  0.797100  0.316200  1.0  -0.5728
  O  O775  1  0.991400  0.584000  0.552800  1.0  -0.611
  O  O776  1  0.928400  0.529300  0.039300  1.0  -0.7808
  O  O777  1  0.025700  0.602800  0.044200  1.0  -0.7451
  O  O778  1  0.316300  0.983500  0.445800  1.0  -0.6571
  O  O779  1  0.074200  0.506300  0.562300  1.0  -0.6358
  O  O780  1  0.915300  0.700300  0.679900  1.0  -0.5657
  O  O781  1  0.965200  0.676500  0.747000  1.0  -0.5732
  O  O782  1  0.813900  0.811500  0.805500  1.0  -0.5962
  O  O783  1  0.773100  0.844500  0.739300  1.0  -0.5712
  O  O784  1  0.754900  0.920100  0.436700  1.0  -0.5967
  O  O785  1  0.217600  0.590500  0.949700  1.0  -0.5629
  O  O786  1  0.152800  0.495800  0.068400  1.0  -0.6801
  O  O787  1  0.429800  0.804700  0.183800  1.0  -0.5697
  O  O788  1  0.275900  0.673400  0.253400  1.0  -0.5778
  O  O789  1  0.481000  0.841900  0.245800  1.0  -0.5641
  O  O790  1  0.340700  0.702900  0.316200  1.0  -0.5737
  O  O791  1  0.508600  0.916000  0.552800  1.0  -0.6108
  O  O792  1  0.571600  0.970700  0.039300  1.0  -0.7805
  O  O793  1  0.474300  0.897200  0.044200  1.0  -0.7444
  O  O794  1  0.183700  0.516500  0.445800  1.0  -0.6586
  O  O795  1  0.425800  0.993700  0.562300  1.0  -0.6356
  O  O796  1  0.584700  0.799700  0.679900  1.0  -0.5664
  O  O797  1  0.534800  0.823500  0.747000  1.0  -0.5733
  O  O798  1  0.686100  0.688500  0.805500  1.0  -0.5969
  O  O799  1  0.726900  0.655500  0.739300  1.0  -0.5717
  O  O800  1  0.745100  0.579900  0.436700  1.0  -0.5962
  O  O801  1  0.717600  0.409500  0.550300  1.0  -0.5622
  O  O802  1  0.652800  0.504200  0.431600  1.0  -0.6811
  O  O803  1  0.929800  0.195300  0.316200  1.0  -0.5701
  O  O804  1  0.775900  0.326600  0.246600  1.0  -0.5786
  O  O805  1  0.981000  0.158100  0.254200  1.0  -0.5637
  O  O806  1  0.840700  0.297100  0.183800  1.0  -0.5723
  O  O807  1  0.008600  0.084000  0.947200  1.0  -0.6092
  O  O808  1  0.071600  0.029300  0.460700  1.0  -0.7797
  O  O809  1  0.974300  0.102800  0.455800  1.0  -0.7454
  O  O810  1  0.683700  0.483500  0.054200  1.0  -0.6576
  O  O811  1  0.925800  0.006300  0.937700  1.0  -0.6353
  O  O812  1  0.084700  0.200300  0.820100  1.0  -0.5665
  O  O813  1  0.034800  0.176500  0.753000  1.0  -0.573
  O  O814  1  0.186100  0.311500  0.694500  1.0  -0.597
  O  O815  1  0.226900  0.344500  0.760700  1.0  -0.5713
  O  O816  1  0.245100  0.420100  0.063300  1.0  -0.5969
  O  O817  1  0.782400  0.090500  0.550300  1.0  -0.5631
  O  O818  1  0.847200  0.995800  0.431600  1.0  -0.6822
  O  O819  1  0.570200  0.304700  0.316200  1.0  -0.57
  O  O820  1  0.724100  0.173400  0.246600  1.0  -0.5787
  O  O821  1  0.519000  0.341900  0.254200  1.0  -0.5649
  O  O822  1  0.659300  0.202900  0.183800  1.0  -0.573
  O  O823  1  0.491400  0.416000  0.947200  1.0  -0.6091
  O  O824  1  0.428400  0.470700  0.460700  1.0  -0.7811
  O  O825  1  0.525700  0.397200  0.455800  1.0  -0.7435
  O  O826  1  0.816300  0.016500  0.054200  1.0  -0.6584
  O  O827  1  0.574200  0.493700  0.937700  1.0  -0.6346
  O  O828  1  0.415300  0.299700  0.820100  1.0  -0.5661
  O  O829  1  0.465200  0.323500  0.753000  1.0  -0.5728
  O  O830  1  0.313900  0.188500  0.694500  1.0  -0.5959
  O  O831  1  0.273100  0.155500  0.760700  1.0  -0.5712
  O  O832  1  0.254900  0.079900  0.063300  1.0  -0.5967
  O  O833  1  0.717600  0.090500  0.050300  1.0  -0.5626
  O  O834  1  0.652800  0.995800  0.931600  1.0  -0.681
  O  O835  1  0.929800  0.304700  0.816200  1.0  -0.5699
  O  O836  1  0.775900  0.173400  0.746600  1.0  -0.5781
  O  O837  1  0.981000  0.341900  0.754200  1.0  -0.5644
  O  O838  1  0.840700  0.202900  0.683800  1.0  -0.5729
  O  O839  1  0.008600  0.416000  0.447200  1.0  -0.6078
  O  O840  1  0.071600  0.470700  0.960700  1.0  -0.7803
  O  O841  1  0.974300  0.397200  0.955800  1.0  -0.744
  O  O842  1  0.683700  0.016500  0.554200  1.0  -0.659
  O  O843  1  0.925800  0.493700  0.437700  1.0  -0.635
  O  O844  1  0.084700  0.299700  0.320100  1.0  -0.5665
  O  O845  1  0.034800  0.323500  0.253000  1.0  -0.5729
  O  O846  1  0.186100  0.188500  0.194500  1.0  -0.596
  O  O847  1  0.226900  0.155500  0.260700  1.0  -0.5716
  O  O848  1  0.245100  0.079900  0.563300  1.0  -0.5963
  O  O849  1  0.782400  0.409500  0.050300  1.0  -0.5644
  O  O850  1  0.847200  0.504200  0.931600  1.0  -0.682
  O  O851  1  0.570200  0.195300  0.816200  1.0  -0.5706
  O  O852  1  0.724100  0.326600  0.746600  1.0  -0.5779
  O  O853  1  0.519000  0.158100  0.754200  1.0  -0.5641
  O  O854  1  0.659300  0.297100  0.683800  1.0  -0.5726
  O  O855  1  0.491400  0.084000  0.447200  1.0  -0.6105
  O  O856  1  0.428400  0.029300  0.960700  1.0  -0.7806
  O  O857  1  0.525700  0.102800  0.955800  1.0  -0.7447
  O  O858  1  0.816300  0.483500  0.554200  1.0  -0.6571
  O  O859  1  0.574200  0.006300  0.437700  1.0  -0.6352
  O  O860  1  0.415300  0.200300  0.320100  1.0  -0.5661
  O  O861  1  0.465200  0.176500  0.253000  1.0  -0.573
  O  O862  1  0.313900  0.311500  0.194500  1.0  -0.5956
  O  O863  1  0.273100  0.344500  0.260700  1.0  -0.5709
  O  O864  1  0.254900  0.420100  0.563300  1.0  -0.5971
  O  O865  1  0.282400  0.590500  0.449700  1.0  -0.5637
  O  O866  1  0.347200  0.495800  0.568400  1.0  -0.6811
  O  O867  1  0.070200  0.804700  0.683800  1.0  -0.5699
  O  O868  1  0.224100  0.673400  0.753400  1.0  -0.577
  O  O869  1  0.019000  0.841900  0.745800  1.0  -0.5647
  O  O870  1  0.159300  0.702900  0.816200  1.0  -0.5735
  O  O871  1  0.991400  0.916000  0.052800  1.0  -0.6113
  O  O872  1  0.928400  0.970700  0.539300  1.0  -0.7809
  O  O873  1  0.025700  0.897200  0.544200  1.0  -0.7438
  O  O874  1  0.316300  0.516500  0.945800  1.0  -0.6575
  O  O875  1  0.074200  0.993700  0.062300  1.0  -0.6353
  O  O876  1  0.915300  0.799700  0.179900  1.0  -0.5661
  O  O877  1  0.965200  0.823500  0.247000  1.0  -0.5734
  O  O878  1  0.813900  0.688500  0.305500  1.0  -0.5957
  O  O879  1  0.773100  0.655500  0.239300  1.0  -0.5711
  O  O880  1  0.754900  0.579900  0.936700  1.0  -0.5969
  O  O881  1  0.217600  0.909500  0.449700  1.0  -0.5622
  O  O882  1  0.152800  0.004200  0.568400  1.0  -0.6801
  O  O883  1  0.429800  0.695300  0.683800  1.0  -0.5696
  O  O884  1  0.275900  0.826600  0.753400  1.0  -0.5772
  O  O885  1  0.481000  0.658100  0.745800  1.0  -0.5639
  O  O886  1  0.340700  0.797100  0.816200  1.0  -0.5721
  O  O887  1  0.508600  0.584000  0.052800  1.0  -0.6106
  O  O888  1  0.571600  0.529300  0.539300  1.0  -0.78
  O  O889  1  0.474300  0.602800  0.544200  1.0  -0.7456
  O  O890  1  0.183700  0.983500  0.945800  1.0  -0.6584
  O  O891  1  0.425800  0.506300  0.062300  1.0  -0.636
  O  O892  1  0.584700  0.700300  0.179900  1.0  -0.5662
  O  O893  1  0.534800  0.676500  0.247000  1.0  -0.573
  O  O894  1  0.686100  0.811500  0.305500  1.0  -0.5967
  O  O895  1  0.726900  0.844500  0.239300  1.0  -0.5718
  O  O896  1  0.745100  0.920100  0.936700  1.0  -0.596
