# generated using pymatgen
data_ZnH8(C3N)4
_symmetry_space_group_name_H-M   'P 1'
_cell_length_a   42.67200000
_cell_length_b   42.67200000
_cell_length_c   42.67200000
_cell_angle_alpha   90.00000000
_cell_angle_beta   90.00000000
_cell_angle_gamma   90.00000000
_symmetry_Int_Tables_number   1
_chemical_formula_structural   ZnH8(C3N)4
_chemical_formula_sum   'Zn96 H768 C1152 N384'
_cell_volume   77701.42704845
_cell_formula_units_Z   96
loop_
 _symmetry_equiv_pos_site_id
 _symmetry_equiv_pos_as_xyz
  1  'x, y, z'
loop_
 _atom_site_type_symbol
 _atom_site_label
 _atom_site_symmetry_multiplicity
 _atom_site_fract_x
 _atom_site_fract_y
 _atom_site_fract_z
 _atom_site_occupancy
 _atom_site_charge
  Zn  Zn1  1  0.094560  0.344560  0.000000  1.0  0.8286
  Zn  Zn2  1  0.655440  0.905440  0.500000  1.0  0.8297
  Zn  Zn3  1  0.155440  0.844560  0.750000  1.0  0.8297
  Zn  Zn4  1  0.594560  0.405440  0.250000  1.0  0.8287
  Zn  Zn5  1  0.000000  0.594560  0.844560  1.0  0.8289
  Zn  Zn6  1  0.500000  0.155440  0.405440  1.0  0.8289
  Zn  Zn7  1  0.750000  0.655440  0.344560  1.0  0.829
  Zn  Zn8  1  0.250000  0.094560  0.905440  1.0  0.8287
  Zn  Zn9  1  0.844560  0.500000  0.094560  1.0  0.8288
  Zn  Zn10  1  0.405440  0.000000  0.655440  1.0  0.8296
  Zn  Zn11  1  0.344560  0.250000  0.155440  1.0  0.8286
  Zn  Zn12  1  0.905440  0.750000  0.594560  1.0  0.8298
  Zn  Zn13  1  0.094560  0.844560  0.500000  1.0  0.8286
  Zn  Zn14  1  0.655440  0.405440  0.000000  1.0  0.8297
  Zn  Zn15  1  0.155440  0.344560  0.250000  1.0  0.8297
  Zn  Zn16  1  0.594560  0.905440  0.750000  1.0  0.8287
  Zn  Zn17  1  0.000000  0.094560  0.344560  1.0  0.8289
  Zn  Zn18  1  0.500000  0.655440  0.905440  1.0  0.8289
  Zn  Zn19  1  0.750000  0.155440  0.844560  1.0  0.829
  Zn  Zn20  1  0.250000  0.594560  0.405440  1.0  0.8287
  Zn  Zn21  1  0.844560  0.000000  0.594560  1.0  0.8288
  Zn  Zn22  1  0.405440  0.500000  0.155440  1.0  0.8296
  Zn  Zn23  1  0.344560  0.750000  0.655440  1.0  0.8286
  Zn  Zn24  1  0.905440  0.250000  0.094560  1.0  0.8298
  Zn  Zn25  1  0.594560  0.344560  0.500000  1.0  0.8286
  Zn  Zn26  1  0.155440  0.905440  0.000000  1.0  0.8297
  Zn  Zn27  1  0.655440  0.844560  0.250000  1.0  0.8297
  Zn  Zn28  1  0.094560  0.405440  0.750000  1.0  0.8287
  Zn  Zn29  1  0.500000  0.594560  0.344560  1.0  0.8289
  Zn  Zn30  1  0.000000  0.155440  0.905440  1.0  0.8289
  Zn  Zn31  1  0.250000  0.655440  0.844560  1.0  0.829
  Zn  Zn32  1  0.750000  0.094560  0.405440  1.0  0.8287
  Zn  Zn33  1  0.344560  0.500000  0.594560  1.0  0.8288
  Zn  Zn34  1  0.905440  0.000000  0.155440  1.0  0.8296
  Zn  Zn35  1  0.844560  0.250000  0.655440  1.0  0.8286
  Zn  Zn36  1  0.405440  0.750000  0.094560  1.0  0.8298
  Zn  Zn37  1  0.594560  0.844560  0.000000  1.0  0.8286
  Zn  Zn38  1  0.155440  0.405440  0.500000  1.0  0.8297
  Zn  Zn39  1  0.655440  0.344560  0.750000  1.0  0.8297
  Zn  Zn40  1  0.094560  0.905440  0.250000  1.0  0.8287
  Zn  Zn41  1  0.500000  0.094560  0.844560  1.0  0.8289
  Zn  Zn42  1  0.000000  0.655440  0.405440  1.0  0.8289
  Zn  Zn43  1  0.250000  0.155440  0.344560  1.0  0.829
  Zn  Zn44  1  0.750000  0.594560  0.905440  1.0  0.8287
  Zn  Zn45  1  0.344560  0.000000  0.094560  1.0  0.8288
  Zn  Zn46  1  0.905440  0.500000  0.655440  1.0  0.8296
  Zn  Zn47  1  0.844560  0.750000  0.155440  1.0  0.8286
  Zn  Zn48  1  0.405440  0.250000  0.594560  1.0  0.8298
  Zn  Zn49  1  0.905440  0.655440  0.000000  1.0  0.8297
  Zn  Zn50  1  0.344560  0.094560  0.500000  1.0  0.8286
  Zn  Zn51  1  0.844560  0.155440  0.250000  1.0  0.8287
  Zn  Zn52  1  0.405440  0.594560  0.750000  1.0  0.8297
  Zn  Zn53  1  0.000000  0.405440  0.155440  1.0  0.8289
  Zn  Zn54  1  0.500000  0.844560  0.594560  1.0  0.8289
  Zn  Zn55  1  0.250000  0.344560  0.655440  1.0  0.8287
  Zn  Zn56  1  0.750000  0.905440  0.094560  1.0  0.829
  Zn  Zn57  1  0.155440  0.500000  0.905440  1.0  0.8296
  Zn  Zn58  1  0.594560  0.000000  0.344560  1.0  0.8288
  Zn  Zn59  1  0.655440  0.750000  0.844560  1.0  0.8298
  Zn  Zn60  1  0.094560  0.250000  0.405440  1.0  0.8286
  Zn  Zn61  1  0.905440  0.155440  0.500000  1.0  0.8297
  Zn  Zn62  1  0.344560  0.594560  0.000000  1.0  0.8286
  Zn  Zn63  1  0.844560  0.655440  0.750000  1.0  0.8287
  Zn  Zn64  1  0.405440  0.094560  0.250000  1.0  0.8297
  Zn  Zn65  1  0.000000  0.905440  0.655440  1.0  0.8289
  Zn  Zn66  1  0.500000  0.344560  0.094560  1.0  0.8289
  Zn  Zn67  1  0.250000  0.844560  0.155440  1.0  0.8287
  Zn  Zn68  1  0.750000  0.405440  0.594560  1.0  0.829
  Zn  Zn69  1  0.155440  0.000000  0.405440  1.0  0.8296
  Zn  Zn70  1  0.594560  0.500000  0.844560  1.0  0.8288
  Zn  Zn71  1  0.655440  0.250000  0.344560  1.0  0.8298
  Zn  Zn72  1  0.094560  0.750000  0.905440  1.0  0.8286
  Zn  Zn73  1  0.405440  0.655440  0.500000  1.0  0.8297
  Zn  Zn74  1  0.844560  0.094560  0.000000  1.0  0.8286
  Zn  Zn75  1  0.344560  0.155440  0.750000  1.0  0.8287
  Zn  Zn76  1  0.905440  0.594560  0.250000  1.0  0.8297
  Zn  Zn77  1  0.500000  0.405440  0.655440  1.0  0.8289
  Zn  Zn78  1  0.000000  0.844560  0.094560  1.0  0.8289
  Zn  Zn79  1  0.750000  0.344560  0.155440  1.0  0.8287
  Zn  Zn80  1  0.250000  0.905440  0.594560  1.0  0.829
  Zn  Zn81  1  0.655440  0.500000  0.405440  1.0  0.8296
  Zn  Zn82  1  0.094560  0.000000  0.844560  1.0  0.8288
  Zn  Zn83  1  0.155440  0.750000  0.344560  1.0  0.8298
  Zn  Zn84  1  0.594560  0.250000  0.905440  1.0  0.8286
  Zn  Zn85  1  0.405440  0.155440  0.000000  1.0  0.8297
  Zn  Zn86  1  0.844560  0.594560  0.500000  1.0  0.8286
  Zn  Zn87  1  0.344560  0.655440  0.250000  1.0  0.8287
  Zn  Zn88  1  0.905440  0.094560  0.750000  1.0  0.8297
  Zn  Zn89  1  0.500000  0.905440  0.155440  1.0  0.8289
  Zn  Zn90  1  0.000000  0.344560  0.594560  1.0  0.8289
  Zn  Zn91  1  0.750000  0.844560  0.655440  1.0  0.8287
  Zn  Zn92  1  0.250000  0.405440  0.094560  1.0  0.829
  Zn  Zn93  1  0.655440  0.000000  0.905440  1.0  0.8296
  Zn  Zn94  1  0.094560  0.500000  0.344560  1.0  0.8288
  Zn  Zn95  1  0.155440  0.250000  0.844560  1.0  0.8298
  Zn  Zn96  1  0.594560  0.750000  0.405440  1.0  0.8286
  H  H97  1  0.031650  0.364900  0.023490  1.0  0.0554
  H  H98  1  0.994950  0.404350  0.017570  1.0  0.0992
  H  H99  1  0.052080  0.443950  0.952790  1.0  0.0876
  H  H100  1  0.087670  0.403590  0.961330  1.0  0.0646
  H  H101  1  0.718350  0.885100  0.523490  1.0  0.054
  H  H102  1  0.755050  0.845650  0.517570  1.0  0.0989
  H  H103  1  0.697920  0.806050  0.452790  1.0  0.0878
  H  H104  1  0.662330  0.846410  0.461330  1.0  0.0644
  H  H105  1  0.218350  0.864900  0.726510  1.0  0.0546
  H  H106  1  0.255050  0.904350  0.732430  1.0  0.0994
  H  H107  1  0.197920  0.943950  0.797210  1.0  0.0879
  H  H108  1  0.162330  0.903590  0.788670  1.0  0.0652
  H  H109  1  0.531650  0.385100  0.226510  1.0  0.0534
  H  H110  1  0.494950  0.345650  0.232430  1.0  0.0997
  H  H111  1  0.552080  0.306050  0.297210  1.0  0.0882
  H  H112  1  0.587670  0.346410  0.288670  1.0  0.0644
  H  H113  1  0.023490  0.531650  0.864900  1.0  0.055
  H  H114  1  0.017570  0.494950  0.904350  1.0  0.0998
  H  H115  1  0.952790  0.552080  0.943950  1.0  0.0866
  H  H116  1  0.961330  0.587670  0.903590  1.0  0.0658
  H  H117  1  0.523490  0.218350  0.385100  1.0  0.0564
  H  H118  1  0.517570  0.255050  0.345650  1.0  0.1
  H  H119  1  0.452790  0.197920  0.306050  1.0  0.0871
  H  H120  1  0.461330  0.162330  0.346410  1.0  0.0658
  H  H121  1  0.726510  0.718350  0.364900  1.0  0.0549
  H  H122  1  0.732430  0.755050  0.404350  1.0  0.1011
  H  H123  1  0.797210  0.697920  0.443950  1.0  0.0868
  H  H124  1  0.788670  0.662330  0.403590  1.0  0.0661
  H  H125  1  0.226510  0.031650  0.885100  1.0  0.0559
  H  H126  1  0.232430  0.994950  0.845650  1.0  0.0996
  H  H127  1  0.297210  0.052080  0.806050  1.0  0.0874
  H  H128  1  0.288670  0.087670  0.846410  1.0  0.0654
  H  H129  1  0.864900  0.523490  0.031650  1.0  0.0562
  H  H130  1  0.904350  0.517570  0.994950  1.0  0.0997
  H  H131  1  0.943950  0.452790  0.052080  1.0  0.0862
  H  H132  1  0.903590  0.461330  0.087670  1.0  0.0649
  H  H133  1  0.385100  0.023490  0.718350  1.0  0.0561
  H  H134  1  0.345650  0.017570  0.755050  1.0  0.0984
  H  H135  1  0.306050  0.952790  0.697920  1.0  0.0869
  H  H136  1  0.346410  0.961330  0.662330  1.0  0.0647
  H  H137  1  0.364900  0.226510  0.218350  1.0  0.0565
  H  H138  1  0.404350  0.232430  0.255050  1.0  0.0992
  H  H139  1  0.443950  0.297210  0.197920  1.0  0.0869
  H  H140  1  0.403590  0.288670  0.162330  1.0  0.0642
  H  H141  1  0.885100  0.726510  0.531650  1.0  0.0563
  H  H142  1  0.845650  0.732430  0.494950  1.0  0.0993
  H  H143  1  0.806050  0.797210  0.552080  1.0  0.0878
  H  H144  1  0.846410  0.788670  0.587670  1.0  0.0648
  H  H145  1  0.114900  0.281650  0.976510  1.0  0.0567
  H  H146  1  0.154350  0.244950  0.982430  1.0  0.0984
  H  H147  1  0.193950  0.302080  0.047210  1.0  0.0869
  H  H148  1  0.153590  0.337670  0.038670  1.0  0.0643
  H  H149  1  0.635100  0.968350  0.476510  1.0  0.0571
  H  H150  1  0.595650  0.005050  0.482430  1.0  0.0987
  H  H151  1  0.556050  0.947920  0.547210  1.0  0.0863
  H  H152  1  0.596410  0.912330  0.538670  1.0  0.0647
  H  H153  1  0.614900  0.468350  0.273490  1.0  0.0573
  H  H154  1  0.654350  0.505050  0.267570  1.0  0.0992
  H  H155  1  0.693950  0.447920  0.202790  1.0  0.0858
  H  H156  1  0.653590  0.412330  0.211330  1.0  0.0642
  H  H157  1  0.135100  0.781650  0.773490  1.0  0.0569
  H  H158  1  0.095650  0.744950  0.767570  1.0  0.0982
  H  H159  1  0.056050  0.802080  0.702790  1.0  0.0872
  H  H160  1  0.096410  0.837670  0.711330  1.0  0.0646
  H  H161  1  0.281650  0.273490  0.135100  1.0  0.0549
  H  H162  1  0.244950  0.267570  0.095650  1.0  0.1004
  H  H163  1  0.302080  0.202790  0.056050  1.0  0.087
  H  H164  1  0.337670  0.211330  0.096410  1.0  0.0654
  H  H165  1  0.968350  0.773490  0.614900  1.0  0.0537
  H  H166  1  0.005050  0.767570  0.654350  1.0  0.1003
  H  H167  1  0.947920  0.702790  0.693950  1.0  0.0868
  H  H168  1  0.912330  0.711330  0.653590  1.0  0.0655
  H  H169  1  0.468350  0.976510  0.635100  1.0  0.0558
  H  H170  1  0.505050  0.982430  0.595650  1.0  0.0988
  H  H171  1  0.447920  0.047210  0.556050  1.0  0.0879
  H  H172  1  0.412330  0.038670  0.596410  1.0  0.0659
  H  H173  1  0.781650  0.476510  0.114900  1.0  0.0537
  H  H174  1  0.744950  0.482430  0.154350  1.0  0.1
  H  H175  1  0.802080  0.547210  0.193950  1.0  0.0873
  H  H176  1  0.837670  0.538670  0.153590  1.0  0.0661
  H  H177  1  0.273490  0.114900  0.968350  1.0  0.0556
  H  H178  1  0.267570  0.154350  0.005050  1.0  0.0994
  H  H179  1  0.202790  0.193950  0.947920  1.0  0.0879
  H  H180  1  0.211330  0.153590  0.912330  1.0  0.0642
  H  H181  1  0.773490  0.635100  0.281650  1.0  0.0541
  H  H182  1  0.767570  0.595650  0.244950  1.0  0.0999
  H  H183  1  0.702790  0.556050  0.302080  1.0  0.088
  H  H184  1  0.711330  0.596410  0.337670  1.0  0.0646
  H  H185  1  0.976510  0.614900  0.781650  1.0  0.0543
  H  H186  1  0.982430  0.654350  0.744950  1.0  0.1002
  H  H187  1  0.047210  0.693950  0.802080  1.0  0.0878
  H  H188  1  0.038670  0.653590  0.837670  1.0  0.0645
  H  H189  1  0.476510  0.135100  0.468350  1.0  0.0537
  H  H190  1  0.482430  0.095650  0.505050  1.0  0.0998
  H  H191  1  0.547210  0.056050  0.447920  1.0  0.088
  H  H192  1  0.538670  0.096410  0.412330  1.0  0.0649
  H  H193  1  0.031650  0.864900  0.523490  1.0  0.0554
  H  H194  1  0.994950  0.904350  0.517570  1.0  0.0992
  H  H195  1  0.052080  0.943950  0.452790  1.0  0.0876
  H  H196  1  0.087670  0.903590  0.461330  1.0  0.0646
  H  H197  1  0.718350  0.385100  0.023490  1.0  0.054
  H  H198  1  0.755050  0.345650  0.017570  1.0  0.0989
  H  H199  1  0.697920  0.306050  0.952790  1.0  0.0878
  H  H200  1  0.662330  0.346410  0.961330  1.0  0.0644
  H  H201  1  0.218350  0.364900  0.226510  1.0  0.0546
  H  H202  1  0.255050  0.404350  0.232430  1.0  0.0994
  H  H203  1  0.197920  0.443950  0.297210  1.0  0.0879
  H  H204  1  0.162330  0.403590  0.288670  1.0  0.0652
  H  H205  1  0.531650  0.885100  0.726510  1.0  0.0534
  H  H206  1  0.494950  0.845650  0.732430  1.0  0.0997
  H  H207  1  0.552080  0.806050  0.797210  1.0  0.0882
  H  H208  1  0.587670  0.846410  0.788670  1.0  0.0644
  H  H209  1  0.023490  0.031650  0.364900  1.0  0.055
  H  H210  1  0.017570  0.994950  0.404350  1.0  0.0998
  H  H211  1  0.952790  0.052080  0.443950  1.0  0.0866
  H  H212  1  0.961330  0.087670  0.403590  1.0  0.0658
  H  H213  1  0.523490  0.718350  0.885100  1.0  0.0564
  H  H214  1  0.517570  0.755050  0.845650  1.0  0.1
  H  H215  1  0.452790  0.697920  0.806050  1.0  0.0871
  H  H216  1  0.461330  0.662330  0.846410  1.0  0.0658
  H  H217  1  0.726510  0.218350  0.864900  1.0  0.0549
  H  H218  1  0.732430  0.255050  0.904350  1.0  0.1011
  H  H219  1  0.797210  0.197920  0.943950  1.0  0.0868
  H  H220  1  0.788670  0.162330  0.903590  1.0  0.0661
  H  H221  1  0.226510  0.531650  0.385100  1.0  0.0559
  H  H222  1  0.232430  0.494950  0.345650  1.0  0.0996
  H  H223  1  0.297210  0.552080  0.306050  1.0  0.0874
  H  H224  1  0.288670  0.587670  0.346410  1.0  0.0654
  H  H225  1  0.864900  0.023490  0.531650  1.0  0.0562
  H  H226  1  0.904350  0.017570  0.494950  1.0  0.0997
  H  H227  1  0.943950  0.952790  0.552080  1.0  0.0862
  H  H228  1  0.903590  0.961330  0.587670  1.0  0.0649
  H  H229  1  0.385100  0.523490  0.218350  1.0  0.0561
  H  H230  1  0.345650  0.517570  0.255050  1.0  0.0984
  H  H231  1  0.306050  0.452790  0.197920  1.0  0.0869
  H  H232  1  0.346410  0.461330  0.162330  1.0  0.0647
  H  H233  1  0.364900  0.726510  0.718350  1.0  0.0565
  H  H234  1  0.404350  0.732430  0.755050  1.0  0.0992
  H  H235  1  0.443950  0.797210  0.697920  1.0  0.0869
  H  H236  1  0.403590  0.788670  0.662330  1.0  0.0642
  H  H237  1  0.885100  0.226510  0.031650  1.0  0.0563
  H  H238  1  0.845650  0.232430  0.994950  1.0  0.0993
  H  H239  1  0.806050  0.297210  0.052080  1.0  0.0878
  H  H240  1  0.846410  0.288670  0.087670  1.0  0.0648
  H  H241  1  0.114900  0.781650  0.476510  1.0  0.0567
  H  H242  1  0.154350  0.744950  0.482430  1.0  0.0984
  H  H243  1  0.193950  0.802080  0.547210  1.0  0.0869
  H  H244  1  0.153590  0.837670  0.538670  1.0  0.0643
  H  H245  1  0.635100  0.468350  0.976510  1.0  0.0571
  H  H246  1  0.595650  0.505050  0.982430  1.0  0.0987
  H  H247  1  0.556050  0.447920  0.047210  1.0  0.0863
  H  H248  1  0.596410  0.412330  0.038670  1.0  0.0647
  H  H249  1  0.614900  0.968350  0.773490  1.0  0.0573
  H  H250  1  0.654350  0.005050  0.767570  1.0  0.0992
  H  H251  1  0.693950  0.947920  0.702790  1.0  0.0858
  H  H252  1  0.653590  0.912330  0.711330  1.0  0.0642
  H  H253  1  0.135100  0.281650  0.273490  1.0  0.0569
  H  H254  1  0.095650  0.244950  0.267570  1.0  0.0982
  H  H255  1  0.056050  0.302080  0.202790  1.0  0.0872
  H  H256  1  0.096410  0.337670  0.211330  1.0  0.0646
  H  H257  1  0.281650  0.773490  0.635100  1.0  0.0549
  H  H258  1  0.244950  0.767570  0.595650  1.0  0.1004
  H  H259  1  0.302080  0.702790  0.556050  1.0  0.087
  H  H260  1  0.337670  0.711330  0.596410  1.0  0.0654
  H  H261  1  0.968350  0.273490  0.114900  1.0  0.0537
  H  H262  1  0.005050  0.267570  0.154350  1.0  0.1003
  H  H263  1  0.947920  0.202790  0.193950  1.0  0.0868
  H  H264  1  0.912330  0.211330  0.153590  1.0  0.0655
  H  H265  1  0.468350  0.476510  0.135100  1.0  0.0558
  H  H266  1  0.505050  0.482430  0.095650  1.0  0.0988
  H  H267  1  0.447920  0.547210  0.056050  1.0  0.0879
  H  H268  1  0.412330  0.538670  0.096410  1.0  0.0659
  H  H269  1  0.781650  0.976510  0.614900  1.0  0.0537
  H  H270  1  0.744950  0.982430  0.654350  1.0  0.1
  H  H271  1  0.802080  0.047210  0.693950  1.0  0.0873
  H  H272  1  0.837670  0.038670  0.653590  1.0  0.0661
  H  H273  1  0.273490  0.614900  0.468350  1.0  0.0556
  H  H274  1  0.267570  0.654350  0.505050  1.0  0.0994
  H  H275  1  0.202790  0.693950  0.447920  1.0  0.0879
  H  H276  1  0.211330  0.653590  0.412330  1.0  0.0642
  H  H277  1  0.773490  0.135100  0.781650  1.0  0.0541
  H  H278  1  0.767570  0.095650  0.744950  1.0  0.0999
  H  H279  1  0.702790  0.056050  0.802080  1.0  0.088
  H  H280  1  0.711330  0.096410  0.837670  1.0  0.0646
  H  H281  1  0.976510  0.114900  0.281650  1.0  0.0543
  H  H282  1  0.982430  0.154350  0.244950  1.0  0.1002
  H  H283  1  0.047210  0.193950  0.302080  1.0  0.0878
  H  H284  1  0.038670  0.153590  0.337670  1.0  0.0645
  H  H285  1  0.476510  0.635100  0.968350  1.0  0.0537
  H  H286  1  0.482430  0.595650  0.005050  1.0  0.0998
  H  H287  1  0.547210  0.556050  0.947920  1.0  0.088
  H  H288  1  0.538670  0.596410  0.912330  1.0  0.0649
  H  H289  1  0.531650  0.364900  0.523490  1.0  0.0554
  H  H290  1  0.494950  0.404350  0.517570  1.0  0.0992
  H  H291  1  0.552080  0.443950  0.452790  1.0  0.0876
  H  H292  1  0.587670  0.403590  0.461330  1.0  0.0646
  H  H293  1  0.218350  0.885100  0.023490  1.0  0.054
  H  H294  1  0.255050  0.845650  0.017570  1.0  0.0989
  H  H295  1  0.197920  0.806050  0.952790  1.0  0.0878
  H  H296  1  0.162330  0.846410  0.961330  1.0  0.0644
  H  H297  1  0.718350  0.864900  0.226510  1.0  0.0546
  H  H298  1  0.755050  0.904350  0.232430  1.0  0.0994
  H  H299  1  0.697920  0.943950  0.297210  1.0  0.0879
  H  H300  1  0.662330  0.903590  0.288670  1.0  0.0652
  H  H301  1  0.031650  0.385100  0.726510  1.0  0.0534
  H  H302  1  0.994950  0.345650  0.732430  1.0  0.0997
  H  H303  1  0.052080  0.306050  0.797210  1.0  0.0882
  H  H304  1  0.087670  0.346410  0.788670  1.0  0.0644
  H  H305  1  0.523490  0.531650  0.364900  1.0  0.055
  H  H306  1  0.517570  0.494950  0.404350  1.0  0.0998
  H  H307  1  0.452790  0.552080  0.443950  1.0  0.0866
  H  H308  1  0.461330  0.587670  0.403590  1.0  0.0658
  H  H309  1  0.023490  0.218350  0.885100  1.0  0.0564
  H  H310  1  0.017570  0.255050  0.845650  1.0  0.1
  H  H311  1  0.952790  0.197920  0.806050  1.0  0.0871
  H  H312  1  0.961330  0.162330  0.846410  1.0  0.0658
  H  H313  1  0.226510  0.718350  0.864900  1.0  0.0549
  H  H314  1  0.232430  0.755050  0.904350  1.0  0.1011
  H  H315  1  0.297210  0.697920  0.943950  1.0  0.0868
  H  H316  1  0.288670  0.662330  0.903590  1.0  0.0661
  H  H317  1  0.726510  0.031650  0.385100  1.0  0.0559
  H  H318  1  0.732430  0.994950  0.345650  1.0  0.0996
  H  H319  1  0.797210  0.052080  0.306050  1.0  0.0874
  H  H320  1  0.788670  0.087670  0.346410  1.0  0.0654
  H  H321  1  0.364900  0.523490  0.531650  1.0  0.0562
  H  H322  1  0.404350  0.517570  0.494950  1.0  0.0997
  H  H323  1  0.443950  0.452790  0.552080  1.0  0.0862
  H  H324  1  0.403590  0.461330  0.587670  1.0  0.0649
  H  H325  1  0.885100  0.023490  0.218350  1.0  0.0561
  H  H326  1  0.845650  0.017570  0.255050  1.0  0.0984
  H  H327  1  0.806050  0.952790  0.197920  1.0  0.0869
  H  H328  1  0.846410  0.961330  0.162330  1.0  0.0647
  H  H329  1  0.864900  0.226510  0.718350  1.0  0.0565
  H  H330  1  0.904350  0.232430  0.755050  1.0  0.0992
  H  H331  1  0.943950  0.297210  0.697920  1.0  0.0869
  H  H332  1  0.903590  0.288670  0.662330  1.0  0.0642
  H  H333  1  0.385100  0.726510  0.031650  1.0  0.0563
  H  H334  1  0.345650  0.732430  0.994950  1.0  0.0993
  H  H335  1  0.306050  0.797210  0.052080  1.0  0.0878
  H  H336  1  0.346410  0.788670  0.087670  1.0  0.0648
  H  H337  1  0.614900  0.281650  0.476510  1.0  0.0567
  H  H338  1  0.654350  0.244950  0.482430  1.0  0.0984
  H  H339  1  0.693950  0.302080  0.547210  1.0  0.0869
  H  H340  1  0.653590  0.337670  0.538670  1.0  0.0643
  H  H341  1  0.135100  0.968350  0.976510  1.0  0.0571
  H  H342  1  0.095650  0.005050  0.982430  1.0  0.0987
  H  H343  1  0.056050  0.947920  0.047210  1.0  0.0863
  H  H344  1  0.096410  0.912330  0.038670  1.0  0.0647
  H  H345  1  0.114900  0.468350  0.773490  1.0  0.0573
  H  H346  1  0.154350  0.505050  0.767570  1.0  0.0992
  H  H347  1  0.193950  0.447920  0.702790  1.0  0.0858
  H  H348  1  0.153590  0.412330  0.711330  1.0  0.0642
  H  H349  1  0.635100  0.781650  0.273490  1.0  0.0569
  H  H350  1  0.595650  0.744950  0.267570  1.0  0.0982
  H  H351  1  0.556050  0.802080  0.202790  1.0  0.0872
  H  H352  1  0.596410  0.837670  0.211330  1.0  0.0646
  H  H353  1  0.781650  0.273490  0.635100  1.0  0.0549
  H  H354  1  0.744950  0.267570  0.595650  1.0  0.1004
  H  H355  1  0.802080  0.202790  0.556050  1.0  0.087
  H  H356  1  0.837670  0.211330  0.596410  1.0  0.0654
  H  H357  1  0.468350  0.773490  0.114900  1.0  0.0537
  H  H358  1  0.505050  0.767570  0.154350  1.0  0.1003
  H  H359  1  0.447920  0.702790  0.193950  1.0  0.0868
  H  H360  1  0.412330  0.711330  0.153590  1.0  0.0655
  H  H361  1  0.968350  0.976510  0.135100  1.0  0.0558
  H  H362  1  0.005050  0.982430  0.095650  1.0  0.0988
  H  H363  1  0.947920  0.047210  0.056050  1.0  0.0879
  H  H364  1  0.912330  0.038670  0.096410  1.0  0.0659
  H  H365  1  0.281650  0.476510  0.614900  1.0  0.0537
  H  H366  1  0.244950  0.482430  0.654350  1.0  0.1
  H  H367  1  0.302080  0.547210  0.693950  1.0  0.0873
  H  H368  1  0.337670  0.538670  0.653590  1.0  0.0661
  H  H369  1  0.773490  0.114900  0.468350  1.0  0.0556
  H  H370  1  0.767570  0.154350  0.505050  1.0  0.0994
  H  H371  1  0.702790  0.193950  0.447920  1.0  0.0879
  H  H372  1  0.711330  0.153590  0.412330  1.0  0.0642
  H  H373  1  0.273490  0.635100  0.781650  1.0  0.0541
  H  H374  1  0.267570  0.595650  0.744950  1.0  0.0999
  H  H375  1  0.202790  0.556050  0.802080  1.0  0.088
  H  H376  1  0.211330  0.596410  0.837670  1.0  0.0646
  H  H377  1  0.476510  0.614900  0.281650  1.0  0.0543
  H  H378  1  0.482430  0.654350  0.244950  1.0  0.1002
  H  H379  1  0.547210  0.693950  0.302080  1.0  0.0878
  H  H380  1  0.538670  0.653590  0.337670  1.0  0.0645
  H  H381  1  0.976510  0.135100  0.968350  1.0  0.0537
  H  H382  1  0.982430  0.095650  0.005050  1.0  0.0998
  H  H383  1  0.047210  0.056050  0.947920  1.0  0.088
  H  H384  1  0.038670  0.096410  0.912330  1.0  0.0649
  H  H385  1  0.531650  0.864900  0.023490  1.0  0.0554
  H  H386  1  0.494950  0.904350  0.017570  1.0  0.0992
  H  H387  1  0.552080  0.943950  0.952790  1.0  0.0876
  H  H388  1  0.587670  0.903590  0.961330  1.0  0.0646
  H  H389  1  0.218350  0.385100  0.523490  1.0  0.054
  H  H390  1  0.255050  0.345650  0.517570  1.0  0.0989
  H  H391  1  0.197920  0.306050  0.452790  1.0  0.0878
  H  H392  1  0.162330  0.346410  0.461330  1.0  0.0644
  H  H393  1  0.718350  0.364900  0.726510  1.0  0.0546
  H  H394  1  0.755050  0.404350  0.732430  1.0  0.0994
  H  H395  1  0.697920  0.443950  0.797210  1.0  0.0879
  H  H396  1  0.662330  0.403590  0.788670  1.0  0.0652
  H  H397  1  0.031650  0.885100  0.226510  1.0  0.0534
  H  H398  1  0.994950  0.845650  0.232430  1.0  0.0997
  H  H399  1  0.052080  0.806050  0.297210  1.0  0.0882
  H  H400  1  0.087670  0.846410  0.288670  1.0  0.0644
  H  H401  1  0.523490  0.031650  0.864900  1.0  0.055
  H  H402  1  0.517570  0.994950  0.904350  1.0  0.0998
  H  H403  1  0.452790  0.052080  0.943950  1.0  0.0866
  H  H404  1  0.461330  0.087670  0.903590  1.0  0.0658
  H  H405  1  0.023490  0.718350  0.385100  1.0  0.0564
  H  H406  1  0.017570  0.755050  0.345650  1.0  0.1
  H  H407  1  0.952790  0.697920  0.306050  1.0  0.0871
  H  H408  1  0.961330  0.662330  0.346410  1.0  0.0658
  H  H409  1  0.226510  0.218350  0.364900  1.0  0.0549
  H  H410  1  0.232430  0.255050  0.404350  1.0  0.1011
  H  H411  1  0.297210  0.197920  0.443950  1.0  0.0868
  H  H412  1  0.288670  0.162330  0.403590  1.0  0.0661
  H  H413  1  0.726510  0.531650  0.885100  1.0  0.0559
  H  H414  1  0.732430  0.494950  0.845650  1.0  0.0996
  H  H415  1  0.797210  0.552080  0.806050  1.0  0.0874
  H  H416  1  0.788670  0.587670  0.846410  1.0  0.0654
  H  H417  1  0.364900  0.023490  0.031650  1.0  0.0562
  H  H418  1  0.404350  0.017570  0.994950  1.0  0.0997
  H  H419  1  0.443950  0.952790  0.052080  1.0  0.0862
  H  H420  1  0.403590  0.961330  0.087670  1.0  0.0649
  H  H421  1  0.885100  0.523490  0.718350  1.0  0.0561
  H  H422  1  0.845650  0.517570  0.755050  1.0  0.0984
  H  H423  1  0.806050  0.452790  0.697920  1.0  0.0869
  H  H424  1  0.846410  0.461330  0.662330  1.0  0.0647
  H  H425  1  0.864900  0.726510  0.218350  1.0  0.0565
  H  H426  1  0.904350  0.732430  0.255050  1.0  0.0992
  H  H427  1  0.943950  0.797210  0.197920  1.0  0.0869
  H  H428  1  0.903590  0.788670  0.162330  1.0  0.0642
  H  H429  1  0.385100  0.226510  0.531650  1.0  0.0563
  H  H430  1  0.345650  0.232430  0.494950  1.0  0.0993
  H  H431  1  0.306050  0.297210  0.552080  1.0  0.0878
  H  H432  1  0.346410  0.288670  0.587670  1.0  0.0648
  H  H433  1  0.614900  0.781650  0.976510  1.0  0.0567
  H  H434  1  0.654350  0.744950  0.982430  1.0  0.0984
  H  H435  1  0.693950  0.802080  0.047210  1.0  0.0869
  H  H436  1  0.653590  0.837670  0.038670  1.0  0.0643
  H  H437  1  0.135100  0.468350  0.476510  1.0  0.0571
  H  H438  1  0.095650  0.505050  0.482430  1.0  0.0987
  H  H439  1  0.056050  0.447920  0.547210  1.0  0.0863
  H  H440  1  0.096410  0.412330  0.538670  1.0  0.0647
  H  H441  1  0.114900  0.968350  0.273490  1.0  0.0573
  H  H442  1  0.154350  0.005050  0.267570  1.0  0.0992
  H  H443  1  0.193950  0.947920  0.202790  1.0  0.0858
  H  H444  1  0.153590  0.912330  0.211330  1.0  0.0642
  H  H445  1  0.635100  0.281650  0.773490  1.0  0.0569
  H  H446  1  0.595650  0.244950  0.767570  1.0  0.0982
  H  H447  1  0.556050  0.302080  0.702790  1.0  0.0872
  H  H448  1  0.596410  0.337670  0.711330  1.0  0.0646
  H  H449  1  0.781650  0.773490  0.135100  1.0  0.0549
  H  H450  1  0.744950  0.767570  0.095650  1.0  0.1004
  H  H451  1  0.802080  0.702790  0.056050  1.0  0.087
  H  H452  1  0.837670  0.711330  0.096410  1.0  0.0654
  H  H453  1  0.468350  0.273490  0.614900  1.0  0.0537
  H  H454  1  0.505050  0.267570  0.654350  1.0  0.1003
  H  H455  1  0.447920  0.202790  0.693950  1.0  0.0868
  H  H456  1  0.412330  0.211330  0.653590  1.0  0.0655
  H  H457  1  0.968350  0.476510  0.635100  1.0  0.0558
  H  H458  1  0.005050  0.482430  0.595650  1.0  0.0988
  H  H459  1  0.947920  0.547210  0.556050  1.0  0.0879
  H  H460  1  0.912330  0.538670  0.596410  1.0  0.0659
  H  H461  1  0.281650  0.976510  0.114900  1.0  0.0537
  H  H462  1  0.244950  0.982430  0.154350  1.0  0.1
  H  H463  1  0.302080  0.047210  0.193950  1.0  0.0873
  H  H464  1  0.337670  0.038670  0.153590  1.0  0.0661
  H  H465  1  0.773490  0.614900  0.968350  1.0  0.0556
  H  H466  1  0.767570  0.654350  0.005050  1.0  0.0994
  H  H467  1  0.702790  0.693950  0.947920  1.0  0.0879
  H  H468  1  0.711330  0.653590  0.912330  1.0  0.0642
  H  H469  1  0.273490  0.135100  0.281650  1.0  0.0541
  H  H470  1  0.267570  0.095650  0.244950  1.0  0.0999
  H  H471  1  0.202790  0.056050  0.302080  1.0  0.088
  H  H472  1  0.211330  0.096410  0.337670  1.0  0.0646
  H  H473  1  0.476510  0.114900  0.781650  1.0  0.0543
  H  H474  1  0.482430  0.154350  0.744950  1.0  0.1002
  H  H475  1  0.547210  0.193950  0.802080  1.0  0.0878
  H  H476  1  0.538670  0.153590  0.837670  1.0  0.0645
  H  H477  1  0.976510  0.635100  0.468350  1.0  0.0537
  H  H478  1  0.982430  0.595650  0.505050  1.0  0.0998
  H  H479  1  0.047210  0.556050  0.447920  1.0  0.088
  H  H480  1  0.038670  0.596410  0.412330  1.0  0.0649
  H  H481  1  0.968350  0.635100  0.976510  1.0  0.0535
  H  H482  1  0.005050  0.595650  0.982430  1.0  0.0992
  H  H483  1  0.947920  0.556050  0.047210  1.0  0.0883
  H  H484  1  0.912330  0.596410  0.038670  1.0  0.0648
  H  H485  1  0.281650  0.114900  0.476510  1.0  0.0544
  H  H486  1  0.244950  0.154350  0.482430  1.0  0.0996
  H  H487  1  0.302080  0.193950  0.547210  1.0  0.088
  H  H488  1  0.337670  0.153590  0.538670  1.0  0.0646
  H  H489  1  0.781650  0.135100  0.273490  1.0  0.0536
  H  H490  1  0.744950  0.095650  0.267570  1.0  0.0995
  H  H491  1  0.802080  0.056050  0.202790  1.0  0.0878
  H  H492  1  0.837670  0.096410  0.211330  1.0  0.0647
  H  H493  1  0.468350  0.614900  0.773490  1.0  0.0555
  H  H494  1  0.505050  0.654350  0.767570  1.0  0.099
  H  H495  1  0.447920  0.693950  0.702790  1.0  0.0876
  H  H496  1  0.412330  0.653590  0.711330  1.0  0.0646
  H  H497  1  0.976510  0.468350  0.135100  1.0  0.0561
  H  H498  1  0.982430  0.505050  0.095650  1.0  0.1009
  H  H499  1  0.047210  0.447920  0.056050  1.0  0.0872
  H  H500  1  0.038670  0.412330  0.096410  1.0  0.0658
  H  H501  1  0.476510  0.781650  0.614900  1.0  0.0548
  H  H502  1  0.482430  0.744950  0.654350  1.0  0.1
  H  H503  1  0.547210  0.802080  0.693950  1.0  0.0868
  H  H504  1  0.538670  0.837670  0.653590  1.0  0.0661
  H  H505  1  0.273490  0.281650  0.635100  1.0  0.0564
  H  H506  1  0.267570  0.244950  0.595650  1.0  0.0995
  H  H507  1  0.202790  0.302080  0.556050  1.0  0.0873
  H  H508  1  0.211330  0.337670  0.596410  1.0  0.0657
  H  H509  1  0.773490  0.968350  0.114900  1.0  0.0551
  H  H510  1  0.767570  0.005050  0.154350  1.0  0.1002
  H  H511  1  0.702790  0.947920  0.193950  1.0  0.0867
  H  H512  1  0.711330  0.912330  0.153590  1.0  0.0653
  H  H513  1  0.135100  0.476510  0.968350  1.0  0.0563
  H  H514  1  0.095650  0.482430  0.005050  1.0  0.0981
  H  H515  1  0.056050  0.547210  0.947920  1.0  0.088
  H  H516  1  0.096410  0.538670  0.912330  1.0  0.0646
  H  H517  1  0.614900  0.976510  0.281650  1.0  0.0561
  H  H518  1  0.654350  0.982430  0.244950  1.0  0.0995
  H  H519  1  0.693950  0.047210  0.302080  1.0  0.0871
  H  H520  1  0.653590  0.038670  0.337670  1.0  0.0647
  H  H521  1  0.635100  0.773490  0.781650  1.0  0.0564
  H  H522  1  0.595650  0.767570  0.744950  1.0  0.0994
  H  H523  1  0.556050  0.702790  0.802080  1.0  0.0866
  H  H524  1  0.596410  0.711330  0.837670  1.0  0.0645
  H  H525  1  0.114900  0.273490  0.468350  1.0  0.056
  H  H526  1  0.154350  0.267570  0.505050  1.0  0.0995
  H  H527  1  0.193950  0.202790  0.447920  1.0  0.0861
  H  H528  1  0.153590  0.211330  0.412330  1.0  0.0642
  H  H529  1  0.885100  0.718350  0.023490  1.0  0.0571
  H  H530  1  0.845650  0.755050  0.017570  1.0  0.098
  H  H531  1  0.806050  0.697920  0.952790  1.0  0.0869
  H  H532  1  0.846410  0.662330  0.961330  1.0  0.0645
  H  H533  1  0.364900  0.031650  0.523490  1.0  0.0573
  H  H534  1  0.404350  0.994950  0.517570  1.0  0.0985
  H  H535  1  0.443950  0.052080  0.452790  1.0  0.0859
  H  H536  1  0.403590  0.087670  0.461330  1.0  0.0641
  H  H537  1  0.385100  0.531650  0.726510  1.0  0.0568
  H  H538  1  0.345650  0.494950  0.732430  1.0  0.0988
  H  H539  1  0.306050  0.552080  0.797210  1.0  0.0866
  H  H540  1  0.346410  0.587670  0.788670  1.0  0.0644
  H  H541  1  0.864900  0.218350  0.226510  1.0  0.057
  H  H542  1  0.904350  0.255050  0.232430  1.0  0.0994
  H  H543  1  0.943950  0.197920  0.297210  1.0  0.087
  H  H544  1  0.903590  0.162330  0.288670  1.0  0.0651
  H  H545  1  0.718350  0.726510  0.864900  1.0  0.054
  H  H546  1  0.755050  0.732430  0.904350  1.0  0.1
  H  H547  1  0.697920  0.797210  0.943950  1.0  0.0875
  H  H548  1  0.662330  0.788670  0.903590  1.0  0.0659
  H  H549  1  0.031650  0.226510  0.385100  1.0  0.0556
  H  H550  1  0.994950  0.232430  0.345650  1.0  0.1
  H  H551  1  0.052080  0.297210  0.306050  1.0  0.0876
  H  H552  1  0.087670  0.288670  0.346410  1.0  0.0654
  H  H553  1  0.531650  0.023490  0.364900  1.0  0.0534
  H  H554  1  0.494950  0.017570  0.404350  1.0  0.1002
  H  H555  1  0.552080  0.952790  0.443950  1.0  0.0872
  H  H556  1  0.587670  0.961330  0.403590  1.0  0.0657
  H  H557  1  0.218350  0.523490  0.885100  1.0  0.0554
  H  H558  1  0.255050  0.517570  0.845650  1.0  0.0992
  H  H559  1  0.197920  0.452790  0.806050  1.0  0.0869
  H  H560  1  0.162330  0.461330  0.846410  1.0  0.0659
  H  H561  1  0.726510  0.885100  0.031650  1.0  0.0539
  H  H562  1  0.732430  0.845650  0.994950  1.0  0.1003
  H  H563  1  0.797210  0.806050  0.052080  1.0  0.088
  H  H564  1  0.788670  0.846410  0.087670  1.0  0.0644
  H  H565  1  0.226510  0.364900  0.718350  1.0  0.0547
  H  H566  1  0.232430  0.404350  0.755050  1.0  0.0994
  H  H567  1  0.297210  0.443950  0.697920  1.0  0.0877
  H  H568  1  0.288670  0.403590  0.662330  1.0  0.065
  H  H569  1  0.023490  0.385100  0.218350  1.0  0.0539
  H  H570  1  0.017570  0.345650  0.255050  1.0  0.0996
  H  H571  1  0.952790  0.306050  0.197920  1.0  0.0879
  H  H572  1  0.961330  0.346410  0.162330  1.0  0.0641
  H  H573  1  0.523490  0.864900  0.531650  1.0  0.0554
  H  H574  1  0.517570  0.904350  0.494950  1.0  0.1
  H  H575  1  0.452790  0.943950  0.552080  1.0  0.088
  H  H576  1  0.461330  0.903590  0.587670  1.0  0.0651
  H  H577  1  0.968350  0.135100  0.476510  1.0  0.0535
  H  H578  1  0.005050  0.095650  0.482430  1.0  0.0992
  H  H579  1  0.947920  0.056050  0.547210  1.0  0.0883
  H  H580  1  0.912330  0.096410  0.538670  1.0  0.0648
  H  H581  1  0.281650  0.614900  0.976510  1.0  0.0544
  H  H582  1  0.244950  0.654350  0.982430  1.0  0.0996
  H  H583  1  0.302080  0.693950  0.047210  1.0  0.088
  H  H584  1  0.337670  0.653590  0.038670  1.0  0.0646
  H  H585  1  0.781650  0.635100  0.773490  1.0  0.0536
  H  H586  1  0.744950  0.595650  0.767570  1.0  0.0995
  H  H587  1  0.802080  0.556050  0.702790  1.0  0.0878
  H  H588  1  0.837670  0.596410  0.711330  1.0  0.0647
  H  H589  1  0.468350  0.114900  0.273490  1.0  0.0555
  H  H590  1  0.505050  0.154350  0.267570  1.0  0.099
  H  H591  1  0.447920  0.193950  0.202790  1.0  0.0876
  H  H592  1  0.412330  0.153590  0.211330  1.0  0.0646
  H  H593  1  0.976510  0.968350  0.635100  1.0  0.0561
  H  H594  1  0.982430  0.005050  0.595650  1.0  0.1009
  H  H595  1  0.047210  0.947920  0.556050  1.0  0.0872
  H  H596  1  0.038670  0.912330  0.596410  1.0  0.0658
  H  H597  1  0.476510  0.281650  0.114900  1.0  0.0548
  H  H598  1  0.482430  0.244950  0.154350  1.0  0.1
  H  H599  1  0.547210  0.302080  0.193950  1.0  0.0868
  H  H600  1  0.538670  0.337670  0.153590  1.0  0.0661
  H  H601  1  0.273490  0.781650  0.135100  1.0  0.0564
  H  H602  1  0.267570  0.744950  0.095650  1.0  0.0995
  H  H603  1  0.202790  0.802080  0.056050  1.0  0.0873
  H  H604  1  0.211330  0.837670  0.096410  1.0  0.0657
  H  H605  1  0.773490  0.468350  0.614900  1.0  0.0551
  H  H606  1  0.767570  0.505050  0.654350  1.0  0.1002
  H  H607  1  0.702790  0.447920  0.693950  1.0  0.0867
  H  H608  1  0.711330  0.412330  0.653590  1.0  0.0653
  H  H609  1  0.135100  0.976510  0.468350  1.0  0.0563
  H  H610  1  0.095650  0.982430  0.505050  1.0  0.0981
  H  H611  1  0.056050  0.047210  0.447920  1.0  0.088
  H  H612  1  0.096410  0.038670  0.412330  1.0  0.0646
  H  H613  1  0.614900  0.476510  0.781650  1.0  0.0561
  H  H614  1  0.654350  0.482430  0.744950  1.0  0.0995
  H  H615  1  0.693950  0.547210  0.802080  1.0  0.0871
  H  H616  1  0.653590  0.538670  0.837670  1.0  0.0647
  H  H617  1  0.635100  0.273490  0.281650  1.0  0.0564
  H  H618  1  0.595650  0.267570  0.244950  1.0  0.0994
  H  H619  1  0.556050  0.202790  0.302080  1.0  0.0866
  H  H620  1  0.596410  0.211330  0.337670  1.0  0.0645
  H  H621  1  0.114900  0.773490  0.968350  1.0  0.056
  H  H622  1  0.154350  0.767570  0.005050  1.0  0.0995
  H  H623  1  0.193950  0.702790  0.947920  1.0  0.0861
  H  H624  1  0.153590  0.711330  0.912330  1.0  0.0642
  H  H625  1  0.885100  0.218350  0.523490  1.0  0.0571
  H  H626  1  0.845650  0.255050  0.517570  1.0  0.098
  H  H627  1  0.806050  0.197920  0.452790  1.0  0.0869
  H  H628  1  0.846410  0.162330  0.461330  1.0  0.0645
  H  H629  1  0.364900  0.531650  0.023490  1.0  0.0573
  H  H630  1  0.404350  0.494950  0.017570  1.0  0.0985
  H  H631  1  0.443950  0.552080  0.952790  1.0  0.0859
  H  H632  1  0.403590  0.587670  0.961330  1.0  0.0641
  H  H633  1  0.385100  0.031650  0.226510  1.0  0.0568
  H  H634  1  0.345650  0.994950  0.232430  1.0  0.0988
  H  H635  1  0.306050  0.052080  0.297210  1.0  0.0866
  H  H636  1  0.346410  0.087670  0.288670  1.0  0.0644
  H  H637  1  0.864900  0.718350  0.726510  1.0  0.057
  H  H638  1  0.904350  0.755050  0.732430  1.0  0.0994
  H  H639  1  0.943950  0.697920  0.797210  1.0  0.087
  H  H640  1  0.903590  0.662330  0.788670  1.0  0.0651
  H  H641  1  0.718350  0.226510  0.364900  1.0  0.054
  H  H642  1  0.755050  0.232430  0.404350  1.0  0.1
  H  H643  1  0.697920  0.297210  0.443950  1.0  0.0875
  H  H644  1  0.662330  0.288670  0.403590  1.0  0.0659
  H  H645  1  0.031650  0.726510  0.885100  1.0  0.0556
  H  H646  1  0.994950  0.732430  0.845650  1.0  0.1
  H  H647  1  0.052080  0.797210  0.806050  1.0  0.0876
  H  H648  1  0.087670  0.788670  0.846410  1.0  0.0654
  H  H649  1  0.531650  0.523490  0.864900  1.0  0.0534
  H  H650  1  0.494950  0.517570  0.904350  1.0  0.1002
  H  H651  1  0.552080  0.452790  0.943950  1.0  0.0872
  H  H652  1  0.587670  0.461330  0.903590  1.0  0.0657
  H  H653  1  0.218350  0.023490  0.385100  1.0  0.0554
  H  H654  1  0.255050  0.017570  0.345650  1.0  0.0992
  H  H655  1  0.197920  0.952790  0.306050  1.0  0.0869
  H  H656  1  0.162330  0.961330  0.346410  1.0  0.0659
  H  H657  1  0.726510  0.385100  0.531650  1.0  0.0539
  H  H658  1  0.732430  0.345650  0.494950  1.0  0.1003
  H  H659  1  0.797210  0.306050  0.552080  1.0  0.088
  H  H660  1  0.788670  0.346410  0.587670  1.0  0.0644
  H  H661  1  0.226510  0.864900  0.218350  1.0  0.0547
  H  H662  1  0.232430  0.904350  0.255050  1.0  0.0994
  H  H663  1  0.297210  0.943950  0.197920  1.0  0.0877
  H  H664  1  0.288670  0.903590  0.162330  1.0  0.065
  H  H665  1  0.023490  0.885100  0.718350  1.0  0.0539
  H  H666  1  0.017570  0.845650  0.755050  1.0  0.0996
  H  H667  1  0.952790  0.806050  0.697920  1.0  0.0879
  H  H668  1  0.961330  0.846410  0.662330  1.0  0.0641
  H  H669  1  0.523490  0.364900  0.031650  1.0  0.0554
  H  H670  1  0.517570  0.404350  0.994950  1.0  0.1
  H  H671  1  0.452790  0.443950  0.052080  1.0  0.088
  H  H672  1  0.461330  0.403590  0.087670  1.0  0.0651
  H  H673  1  0.468350  0.635100  0.476510  1.0  0.0535
  H  H674  1  0.505050  0.595650  0.482430  1.0  0.0992
  H  H675  1  0.447920  0.556050  0.547210  1.0  0.0883
  H  H676  1  0.412330  0.596410  0.538670  1.0  0.0648
  H  H677  1  0.781650  0.114900  0.976510  1.0  0.0544
  H  H678  1  0.744950  0.154350  0.982430  1.0  0.0996
  H  H679  1  0.802080  0.193950  0.047210  1.0  0.088
  H  H680  1  0.837670  0.153590  0.038670  1.0  0.0646
  H  H681  1  0.281650  0.135100  0.773490  1.0  0.0536
  H  H682  1  0.244950  0.095650  0.767570  1.0  0.0995
  H  H683  1  0.302080  0.056050  0.702790  1.0  0.0878
  H  H684  1  0.337670  0.096410  0.711330  1.0  0.0647
  H  H685  1  0.968350  0.614900  0.273490  1.0  0.0555
  H  H686  1  0.005050  0.654350  0.267570  1.0  0.099
  H  H687  1  0.947920  0.693950  0.202790  1.0  0.0876
  H  H688  1  0.912330  0.653590  0.211330  1.0  0.0646
  H  H689  1  0.476510  0.468350  0.635100  1.0  0.0561
  H  H690  1  0.482430  0.505050  0.595650  1.0  0.1009
  H  H691  1  0.547210  0.447920  0.556050  1.0  0.0872
  H  H692  1  0.538670  0.412330  0.596410  1.0  0.0658
  H  H693  1  0.976510  0.781650  0.114900  1.0  0.0548
  H  H694  1  0.982430  0.744950  0.154350  1.0  0.1
  H  H695  1  0.047210  0.802080  0.193950  1.0  0.0868
  H  H696  1  0.038670  0.837670  0.153590  1.0  0.0661
  H  H697  1  0.773490  0.281650  0.135100  1.0  0.0564
  H  H698  1  0.767570  0.244950  0.095650  1.0  0.0995
  H  H699  1  0.702790  0.302080  0.056050  1.0  0.0873
  H  H700  1  0.711330  0.337670  0.096410  1.0  0.0657
  H  H701  1  0.273490  0.968350  0.614900  1.0  0.0551
  H  H702  1  0.267570  0.005050  0.654350  1.0  0.1002
  H  H703  1  0.202790  0.947920  0.693950  1.0  0.0867
  H  H704  1  0.211330  0.912330  0.653590  1.0  0.0653
  H  H705  1  0.635100  0.476510  0.468350  1.0  0.0563
  H  H706  1  0.595650  0.482430  0.505050  1.0  0.0981
  H  H707  1  0.556050  0.547210  0.447920  1.0  0.088
  H  H708  1  0.596410  0.538670  0.412330  1.0  0.0646
  H  H709  1  0.114900  0.976510  0.781650  1.0  0.0561
  H  H710  1  0.154350  0.982430  0.744950  1.0  0.0995
  H  H711  1  0.193950  0.047210  0.802080  1.0  0.0871
  H  H712  1  0.153590  0.038670  0.837670  1.0  0.0647
  H  H713  1  0.135100  0.773490  0.281650  1.0  0.0564
  H  H714  1  0.095650  0.767570  0.244950  1.0  0.0994
  H  H715  1  0.056050  0.702790  0.302080  1.0  0.0866
  H  H716  1  0.096410  0.711330  0.337670  1.0  0.0645
  H  H717  1  0.614900  0.273490  0.968350  1.0  0.056
  H  H718  1  0.654350  0.267570  0.005050  1.0  0.0995
  H  H719  1  0.693950  0.202790  0.947920  1.0  0.0861
  H  H720  1  0.653590  0.211330  0.912330  1.0  0.0642
  H  H721  1  0.385100  0.718350  0.523490  1.0  0.0571
  H  H722  1  0.345650  0.755050  0.517570  1.0  0.098
  H  H723  1  0.306050  0.697920  0.452790  1.0  0.0869
  H  H724  1  0.346410  0.662330  0.461330  1.0  0.0645
  H  H725  1  0.864900  0.031650  0.023490  1.0  0.0573
  H  H726  1  0.904350  0.994950  0.017570  1.0  0.0985
  H  H727  1  0.943950  0.052080  0.952790  1.0  0.0859
  H  H728  1  0.903590  0.087670  0.961330  1.0  0.0641
  H  H729  1  0.885100  0.531650  0.226510  1.0  0.0568
  H  H730  1  0.845650  0.494950  0.232430  1.0  0.0988
  H  H731  1  0.806050  0.552080  0.297210  1.0  0.0866
  H  H732  1  0.846410  0.587670  0.288670  1.0  0.0644
  H  H733  1  0.364900  0.218350  0.726510  1.0  0.057
  H  H734  1  0.404350  0.255050  0.732430  1.0  0.0994
  H  H735  1  0.443950  0.197920  0.797210  1.0  0.087
  H  H736  1  0.403590  0.162330  0.788670  1.0  0.0651
  H  H737  1  0.218350  0.726510  0.364900  1.0  0.054
  H  H738  1  0.255050  0.732430  0.404350  1.0  0.1
  H  H739  1  0.197920  0.797210  0.443950  1.0  0.0875
  H  H740  1  0.162330  0.788670  0.403590  1.0  0.0659
  H  H741  1  0.531650  0.226510  0.885100  1.0  0.0556
  H  H742  1  0.494950  0.232430  0.845650  1.0  0.1
  H  H743  1  0.552080  0.297210  0.806050  1.0  0.0876
  H  H744  1  0.587670  0.288670  0.846410  1.0  0.0654
  H  H745  1  0.031650  0.023490  0.864900  1.0  0.0534
  H  H746  1  0.994950  0.017570  0.904350  1.0  0.1002
  H  H747  1  0.052080  0.952790  0.943950  1.0  0.0872
  H  H748  1  0.087670  0.961330  0.903590  1.0  0.0657
  H  H749  1  0.718350  0.523490  0.385100  1.0  0.0554
  H  H750  1  0.755050  0.517570  0.345650  1.0  0.0992
  H  H751  1  0.697920  0.452790  0.306050  1.0  0.0869
  H  H752  1  0.662330  0.461330  0.346410  1.0  0.0659
  H  H753  1  0.226510  0.885100  0.531650  1.0  0.0539
  H  H754  1  0.232430  0.845650  0.494950  1.0  0.1003
  H  H755  1  0.297210  0.806050  0.552080  1.0  0.088
  H  H756  1  0.288670  0.846410  0.587670  1.0  0.0644
  H  H757  1  0.726510  0.364900  0.218350  1.0  0.0547
  H  H758  1  0.732430  0.404350  0.255050  1.0  0.0994
  H  H759  1  0.797210  0.443950  0.197920  1.0  0.0877
  H  H760  1  0.788670  0.403590  0.162330  1.0  0.065
  H  H761  1  0.523490  0.385100  0.718350  1.0  0.0539
  H  H762  1  0.517570  0.345650  0.755050  1.0  0.0996
  H  H763  1  0.452790  0.306050  0.697920  1.0  0.0879
  H  H764  1  0.461330  0.346410  0.662330  1.0  0.0641
  H  H765  1  0.023490  0.864900  0.031650  1.0  0.0554
  H  H766  1  0.017570  0.904350  0.994950  1.0  0.1
  H  H767  1  0.952790  0.943950  0.052080  1.0  0.088
  H  H768  1  0.961330  0.903590  0.087670  1.0  0.0651
  H  H769  1  0.468350  0.135100  0.976510  1.0  0.0535
  H  H770  1  0.505050  0.095650  0.982430  1.0  0.0992
  H  H771  1  0.447920  0.056050  0.047210  1.0  0.0883
  H  H772  1  0.412330  0.096410  0.038670  1.0  0.0648
  H  H773  1  0.781650  0.614900  0.476510  1.0  0.0544
  H  H774  1  0.744950  0.654350  0.482430  1.0  0.0996
  H  H775  1  0.802080  0.693950  0.547210  1.0  0.088
  H  H776  1  0.837670  0.653590  0.538670  1.0  0.0646
  H  H777  1  0.281650  0.635100  0.273490  1.0  0.0536
  H  H778  1  0.244950  0.595650  0.267570  1.0  0.0995
  H  H779  1  0.302080  0.556050  0.202790  1.0  0.0878
  H  H780  1  0.337670  0.596410  0.211330  1.0  0.0647
  H  H781  1  0.968350  0.114900  0.773490  1.0  0.0555
  H  H782  1  0.005050  0.154350  0.767570  1.0  0.099
  H  H783  1  0.947920  0.193950  0.702790  1.0  0.0876
  H  H784  1  0.912330  0.153590  0.711330  1.0  0.0646
  H  H785  1  0.476510  0.968350  0.135100  1.0  0.0561
  H  H786  1  0.482430  0.005050  0.095650  1.0  0.1009
  H  H787  1  0.547210  0.947920  0.056050  1.0  0.0872
  H  H788  1  0.538670  0.912330  0.096410  1.0  0.0658
  H  H789  1  0.976510  0.281650  0.614900  1.0  0.0548
  H  H790  1  0.982430  0.244950  0.654350  1.0  0.1
  H  H791  1  0.047210  0.302080  0.693950  1.0  0.0868
  H  H792  1  0.038670  0.337670  0.653590  1.0  0.0661
  H  H793  1  0.773490  0.781650  0.635100  1.0  0.0564
  H  H794  1  0.767570  0.744950  0.595650  1.0  0.0995
  H  H795  1  0.702790  0.802080  0.556050  1.0  0.0873
  H  H796  1  0.711330  0.837670  0.596410  1.0  0.0657
  H  H797  1  0.273490  0.468350  0.114900  1.0  0.0551
  H  H798  1  0.267570  0.505050  0.154350  1.0  0.1002
  H  H799  1  0.202790  0.447920  0.193950  1.0  0.0867
  H  H800  1  0.211330  0.412330  0.153590  1.0  0.0653
  H  H801  1  0.635100  0.976510  0.968350  1.0  0.0563
  H  H802  1  0.595650  0.982430  0.005050  1.0  0.0981
  H  H803  1  0.556050  0.047210  0.947920  1.0  0.088
  H  H804  1  0.596410  0.038670  0.912330  1.0  0.0646
  H  H805  1  0.114900  0.476510  0.281650  1.0  0.0561
  H  H806  1  0.154350  0.482430  0.244950  1.0  0.0995
  H  H807  1  0.193950  0.547210  0.302080  1.0  0.0871
  H  H808  1  0.153590  0.538670  0.337670  1.0  0.0647
  H  H809  1  0.135100  0.273490  0.781650  1.0  0.0564
  H  H810  1  0.095650  0.267570  0.744950  1.0  0.0994
  H  H811  1  0.056050  0.202790  0.802080  1.0  0.0866
  H  H812  1  0.096410  0.211330  0.837670  1.0  0.0645
  H  H813  1  0.614900  0.773490  0.468350  1.0  0.056
  H  H814  1  0.654350  0.767570  0.505050  1.0  0.0995
  H  H815  1  0.693950  0.702790  0.447920  1.0  0.0861
  H  H816  1  0.653590  0.711330  0.412330  1.0  0.0642
  H  H817  1  0.385100  0.218350  0.023490  1.0  0.0571
  H  H818  1  0.345650  0.255050  0.017570  1.0  0.098
  H  H819  1  0.306050  0.197920  0.952790  1.0  0.0869
  H  H820  1  0.346410  0.162330  0.961330  1.0  0.0645
  H  H821  1  0.864900  0.531650  0.523490  1.0  0.0573
  H  H822  1  0.904350  0.494950  0.517570  1.0  0.0985
  H  H823  1  0.943950  0.552080  0.452790  1.0  0.0859
  H  H824  1  0.903590  0.587670  0.461330  1.0  0.0641
  H  H825  1  0.885100  0.031650  0.726510  1.0  0.0568
  H  H826  1  0.845650  0.994950  0.732430  1.0  0.0988
  H  H827  1  0.806050  0.052080  0.797210  1.0  0.0866
  H  H828  1  0.846410  0.087670  0.788670  1.0  0.0644
  H  H829  1  0.364900  0.718350  0.226510  1.0  0.057
  H  H830  1  0.404350  0.755050  0.232430  1.0  0.0994
  H  H831  1  0.443950  0.697920  0.297210  1.0  0.087
  H  H832  1  0.403590  0.662330  0.288670  1.0  0.0651
  H  H833  1  0.218350  0.226510  0.864900  1.0  0.054
  H  H834  1  0.255050  0.232430  0.904350  1.0  0.1
  H  H835  1  0.197920  0.297210  0.943950  1.0  0.0875
  H  H836  1  0.162330  0.288670  0.903590  1.0  0.0659
  H  H837  1  0.531650  0.726510  0.385100  1.0  0.0556
  H  H838  1  0.494950  0.732430  0.345650  1.0  0.1
  H  H839  1  0.552080  0.797210  0.306050  1.0  0.0876
  H  H840  1  0.587670  0.788670  0.346410  1.0  0.0654
  H  H841  1  0.031650  0.523490  0.364900  1.0  0.0534
  H  H842  1  0.994950  0.517570  0.404350  1.0  0.1002
  H  H843  1  0.052080  0.452790  0.443950  1.0  0.0872
  H  H844  1  0.087670  0.461330  0.403590  1.0  0.0657
  H  H845  1  0.718350  0.023490  0.885100  1.0  0.0554
  H  H846  1  0.755050  0.017570  0.845650  1.0  0.0992
  H  H847  1  0.697920  0.952790  0.806050  1.0  0.0869
  H  H848  1  0.662330  0.961330  0.846410  1.0  0.0659
  H  H849  1  0.226510  0.385100  0.031650  1.0  0.0539
  H  H850  1  0.232430  0.345650  0.994950  1.0  0.1003
  H  H851  1  0.297210  0.306050  0.052080  1.0  0.088
  H  H852  1  0.288670  0.346410  0.087670  1.0  0.0644
  H  H853  1  0.726510  0.864900  0.718350  1.0  0.0547
  H  H854  1  0.732430  0.904350  0.755050  1.0  0.0994
  H  H855  1  0.797210  0.943950  0.697920  1.0  0.0877
  H  H856  1  0.788670  0.903590  0.662330  1.0  0.065
  H  H857  1  0.523490  0.885100  0.218350  1.0  0.0539
  H  H858  1  0.517570  0.845650  0.255050  1.0  0.0996
  H  H859  1  0.452790  0.806050  0.197920  1.0  0.0879
  H  H860  1  0.461330  0.846410  0.162330  1.0  0.0641
  H  H861  1  0.023490  0.364900  0.531650  1.0  0.0554
  H  H862  1  0.017570  0.404350  0.494950  1.0  0.1
  H  H863  1  0.952790  0.443950  0.552080  1.0  0.088
  H  H864  1  0.961330  0.403590  0.587670  1.0  0.0651
  C  C865  1  0.035710  0.381280  0.008970  1.0  0.1092
  C  C866  1  0.013770  0.404580  0.005670  1.0  -0.1854
  C  C867  1  0.019820  0.428390  0.984530  1.0  -0.1312
  C  C868  1  0.047550  0.427930  0.967570  1.0  -0.1497
  C  C869  1  0.068470  0.403700  0.972590  1.0  0.1044
  C  C870  1  0.996950  0.454150  0.980600  1.0  0.2227
  C  C871  1  0.714290  0.868720  0.508970  1.0  0.1092
  C  C872  1  0.736230  0.845420  0.505670  1.0  -0.1854
  C  C873  1  0.730180  0.821610  0.484530  1.0  -0.1301
  C  C874  1  0.702450  0.822070  0.467570  1.0  -0.1493
  C  C875  1  0.681530  0.846300  0.472590  1.0  0.1057
  C  C876  1  0.753050  0.795850  0.480600  1.0  0.2227
  C  C877  1  0.214290  0.881280  0.741030  1.0  0.1095
  C  C878  1  0.236230  0.904580  0.744330  1.0  -0.1859
  C  C879  1  0.230180  0.928390  0.765470  1.0  -0.1301
  C  C880  1  0.202450  0.927930  0.782430  1.0  -0.15
  C  C881  1  0.181530  0.903700  0.777410  1.0  0.1058
  C  C882  1  0.253050  0.954150  0.769400  1.0  0.2251
  C  C883  1  0.535710  0.368720  0.241030  1.0  0.1091
  C  C884  1  0.513770  0.345420  0.244330  1.0  -0.186
  C  C885  1  0.519820  0.321610  0.265470  1.0  -0.1287
  C  C886  1  0.547550  0.322070  0.282430  1.0  -0.1498
  C  C887  1  0.568470  0.346300  0.277410  1.0  0.1067
  C  C888  1  0.496950  0.295850  0.269400  1.0  0.224
  C  C889  1  0.008970  0.535710  0.881280  1.0  0.1074
  C  C890  1  0.005670  0.513770  0.904580  1.0  -0.1877
  C  C891  1  0.984530  0.519820  0.928390  1.0  -0.133
  C  C892  1  0.967570  0.547550  0.927930  1.0  -0.1438
  C  C893  1  0.972590  0.568470  0.903700  1.0  0.1044
  C  C894  1  0.980600  0.496950  0.954150  1.0  0.2245
  C  C895  1  0.508970  0.214290  0.368720  1.0  0.1082
  C  C896  1  0.505670  0.236230  0.345420  1.0  -0.1852
  C  C897  1  0.484530  0.230180  0.321610  1.0  -0.133
  C  C898  1  0.467570  0.202450  0.322070  1.0  -0.1445
  C  C899  1  0.472590  0.181530  0.346300  1.0  0.1031
  C  C900  1  0.480600  0.253050  0.295850  1.0  0.2272
  C  C901  1  0.741030  0.714290  0.381280  1.0  0.1083
  C  C902  1  0.744330  0.736230  0.404580  1.0  -0.1852
  C  C903  1  0.765470  0.730180  0.428390  1.0  -0.1315
  C  C904  1  0.782430  0.702450  0.427930  1.0  -0.1416
  C  C905  1  0.777410  0.681530  0.403700  1.0  0.1027
  C  C906  1  0.769400  0.753050  0.454150  1.0  0.2229
  C  C907  1  0.241030  0.035710  0.868720  1.0  0.1076
  C  C908  1  0.244330  0.013770  0.845420  1.0  -0.1874
  C  C909  1  0.265470  0.019820  0.821610  1.0  -0.1304
  C  C910  1  0.282430  0.047550  0.822070  1.0  -0.1418
  C  C911  1  0.277410  0.068470  0.846300  1.0  0.1027
  C  C912  1  0.269400  0.996950  0.795850  1.0  0.2264
  C  C913  1  0.881280  0.508970  0.035710  1.0  0.1128
  C  C914  1  0.904580  0.505670  0.013770  1.0  -0.183
  C  C915  1  0.928390  0.484530  0.019820  1.0  -0.1328
  C  C916  1  0.927930  0.467570  0.047550  1.0  -0.1449
  C  C917  1  0.903700  0.472590  0.068470  1.0  0.1068
  C  C918  1  0.954150  0.480600  0.996950  1.0  0.2246
  C  C919  1  0.368720  0.008970  0.714290  1.0  0.1115
  C  C920  1  0.345420  0.005670  0.736230  1.0  -0.1854
  C  C921  1  0.321610  0.984530  0.730180  1.0  -0.1335
  C  C922  1  0.322070  0.967570  0.702450  1.0  -0.1428
  C  C923  1  0.346300  0.972590  0.681530  1.0  0.1058
  C  C924  1  0.295850  0.980600  0.753050  1.0  0.2244
  C  C925  1  0.381280  0.241030  0.214290  1.0  0.1126
  C  C926  1  0.404580  0.244330  0.236230  1.0  -0.1837
  C  C927  1  0.428390  0.265470  0.230180  1.0  -0.133
  C  C928  1  0.427930  0.282430  0.202450  1.0  -0.1444
  C  C929  1  0.403700  0.277410  0.181530  1.0  0.1073
  C  C930  1  0.454150  0.269400  0.253050  1.0  0.2259
  C  C931  1  0.868720  0.741030  0.535710  1.0  0.1112
  C  C932  1  0.845420  0.744330  0.513770  1.0  -0.1851
  C  C933  1  0.821610  0.765470  0.519820  1.0  -0.1315
  C  C934  1  0.822070  0.782430  0.547550  1.0  -0.1415
  C  C935  1  0.846300  0.777410  0.568470  1.0  0.1051
  C  C936  1  0.795850  0.769400  0.496950  1.0  0.2231
  C  C937  1  0.131280  0.285710  0.991030  1.0  0.1112
  C  C938  1  0.154580  0.263770  0.994330  1.0  -0.1847
  C  C939  1  0.178390  0.269820  0.015470  1.0  -0.1302
  C  C940  1  0.177930  0.297550  0.032430  1.0  -0.1437
  C  C941  1  0.153700  0.318470  0.027410  1.0  0.1056
  C  C942  1  0.204150  0.246950  0.019400  1.0  0.226
  C  C943  1  0.618720  0.964290  0.491030  1.0  0.1093
  C  C944  1  0.595420  0.986230  0.494330  1.0  -0.185
  C  C945  1  0.571610  0.980180  0.515470  1.0  -0.1312
  C  C946  1  0.572070  0.952450  0.532430  1.0  -0.1419
  C  C947  1  0.596300  0.931530  0.527410  1.0  0.1049
  C  C948  1  0.545850  0.003050  0.519400  1.0  0.2244
  C  C949  1  0.631280  0.464290  0.258970  1.0  0.1119
  C  C950  1  0.654580  0.486230  0.255670  1.0  -0.1829
  C  C951  1  0.678390  0.480180  0.234530  1.0  -0.1315
  C  C952  1  0.677930  0.452450  0.217570  1.0  -0.1419
  C  C953  1  0.653700  0.431530  0.222590  1.0  0.1049
  C  C954  1  0.704150  0.503050  0.230600  1.0  0.2248
  C  C955  1  0.118720  0.785710  0.758970  1.0  0.1106
  C  C956  1  0.095420  0.763770  0.755670  1.0  -0.1862
  C  C957  1  0.071610  0.769820  0.734530  1.0  -0.1319
  C  C958  1  0.072070  0.797550  0.717570  1.0  -0.1405
  C  C959  1  0.096300  0.818470  0.722590  1.0  0.1043
  C  C960  1  0.045850  0.746950  0.730600  1.0  0.2223
  C  C961  1  0.285710  0.258970  0.118720  1.0  0.1067
  C  C962  1  0.263770  0.255670  0.095420  1.0  -0.187
  C  C963  1  0.269820  0.234530  0.071610  1.0  -0.1319
  C  C964  1  0.297550  0.217570  0.072070  1.0  -0.1468
  C  C965  1  0.318470  0.222590  0.096300  1.0  0.1049
  C  C966  1  0.246950  0.230600  0.045850  1.0  0.2272
  C  C967  1  0.964290  0.758970  0.631280  1.0  0.108
  C  C968  1  0.986230  0.755670  0.654580  1.0  -0.1868
  C  C969  1  0.980180  0.734530  0.678390  1.0  -0.1312
  C  C970  1  0.952450  0.717570  0.677930  1.0  -0.1448
  C  C971  1  0.931530  0.722590  0.653700  1.0  0.1052
  C  C972  1  0.003050  0.730600  0.704150  1.0  0.2223
  C  C973  1  0.464290  0.991030  0.618720  1.0  0.1077
  C  C974  1  0.486230  0.994330  0.595420  1.0  -0.1874
  C  C975  1  0.480180  0.015470  0.571610  1.0  -0.1308
  C  C976  1  0.452450  0.032430  0.572070  1.0  -0.1465
  C  C977  1  0.431530  0.027410  0.596300  1.0  0.1049
  C  C978  1  0.503050  0.019400  0.545850  1.0  0.2269
  C  C979  1  0.785710  0.491030  0.131280  1.0  0.1073
  C  C980  1  0.763770  0.494330  0.154580  1.0  -0.1868
  C  C981  1  0.769820  0.515470  0.178390  1.0  -0.132
  C  C982  1  0.797550  0.532430  0.177930  1.0  -0.1456
  C  C983  1  0.818470  0.527410  0.153700  1.0  0.1054
  C  C984  1  0.746950  0.519400  0.204150  1.0  0.2248
  C  C985  1  0.258970  0.131280  0.964290  1.0  0.1097
  C  C986  1  0.255670  0.154580  0.986230  1.0  -0.1854
  C  C987  1  0.234530  0.178390  0.980180  1.0  -0.1322
  C  C988  1  0.217570  0.177930  0.952450  1.0  -0.1479
  C  C989  1  0.222590  0.153700  0.931530  1.0  0.1046
  C  C990  1  0.230600  0.204150  0.003050  1.0  0.2262
  C  C991  1  0.758970  0.618720  0.285710  1.0  0.1116
  C  C992  1  0.755670  0.595420  0.263770  1.0  -0.1843
  C  C993  1  0.734530  0.571610  0.269820  1.0  -0.1313
  C  C994  1  0.717570  0.572070  0.297550  1.0  -0.1484
  C  C995  1  0.722590  0.596300  0.318470  1.0  0.1058
  C  C996  1  0.730600  0.545850  0.246950  1.0  0.225
  C  C997  1  0.991030  0.631280  0.785710  1.0  0.1116
  C  C998  1  0.994330  0.654580  0.763770  1.0  -0.1831
  C  C999  1  0.015470  0.678390  0.769820  1.0  -0.1314
  C  C1000  1  0.032430  0.677930  0.797550  1.0  -0.1464
  C  C1001  1  0.027410  0.653700  0.818470  1.0  0.1046
  C  C1002  1  0.019400  0.704150  0.746950  1.0  0.2224
  C  C1003  1  0.491030  0.118720  0.464290  1.0  0.1102
  C  C1004  1  0.494330  0.095420  0.486230  1.0  -0.1852
  C  C1005  1  0.515470  0.071610  0.480180  1.0  -0.1311
  C  C1006  1  0.532430  0.072070  0.452450  1.0  -0.1478
  C  C1007  1  0.527410  0.096300  0.431530  1.0  0.1049
  C  C1008  1  0.519400  0.045850  0.503050  1.0  0.224
  C  C1009  1  0.035710  0.881280  0.508970  1.0  0.1092
  C  C1010  1  0.013770  0.904580  0.505670  1.0  -0.1854
  C  C1011  1  0.019820  0.928390  0.484530  1.0  -0.1312
  C  C1012  1  0.047550  0.927930  0.467570  1.0  -0.1497
  C  C1013  1  0.068470  0.903700  0.472590  1.0  0.1044
  C  C1014  1  0.996950  0.954150  0.480600  1.0  0.2227
  C  C1015  1  0.714290  0.368720  0.008970  1.0  0.1092
  C  C1016  1  0.736230  0.345420  0.005670  1.0  -0.1854
  C  C1017  1  0.730180  0.321610  0.984530  1.0  -0.1301
  C  C1018  1  0.702450  0.322070  0.967570  1.0  -0.1493
  C  C1019  1  0.681530  0.346300  0.972590  1.0  0.1057
  C  C1020  1  0.753050  0.295850  0.980600  1.0  0.2227
  C  C1021  1  0.214290  0.381280  0.241030  1.0  0.1095
  C  C1022  1  0.236230  0.404580  0.244330  1.0  -0.1859
  C  C1023  1  0.230180  0.428390  0.265470  1.0  -0.1301
  C  C1024  1  0.202450  0.427930  0.282430  1.0  -0.15
  C  C1025  1  0.181530  0.403700  0.277410  1.0  0.1058
  C  C1026  1  0.253050  0.454150  0.269400  1.0  0.2251
  C  C1027  1  0.535710  0.868720  0.741030  1.0  0.1091
  C  C1028  1  0.513770  0.845420  0.744330  1.0  -0.186
  C  C1029  1  0.519820  0.821610  0.765470  1.0  -0.1287
  C  C1030  1  0.547550  0.822070  0.782430  1.0  -0.1498
  C  C1031  1  0.568470  0.846300  0.777410  1.0  0.1067
  C  C1032  1  0.496950  0.795850  0.769400  1.0  0.224
  C  C1033  1  0.008970  0.035710  0.381280  1.0  0.1074
  C  C1034  1  0.005670  0.013770  0.404580  1.0  -0.1877
  C  C1035  1  0.984530  0.019820  0.428390  1.0  -0.133
  C  C1036  1  0.967570  0.047550  0.427930  1.0  -0.1438
  C  C1037  1  0.972590  0.068470  0.403700  1.0  0.1044
  C  C1038  1  0.980600  0.996950  0.454150  1.0  0.2245
  C  C1039  1  0.508970  0.714290  0.868720  1.0  0.1082
  C  C1040  1  0.505670  0.736230  0.845420  1.0  -0.1852
  C  C1041  1  0.484530  0.730180  0.821610  1.0  -0.133
  C  C1042  1  0.467570  0.702450  0.822070  1.0  -0.1445
  C  C1043  1  0.472590  0.681530  0.846300  1.0  0.1031
  C  C1044  1  0.480600  0.753050  0.795850  1.0  0.2272
  C  C1045  1  0.741030  0.214290  0.881280  1.0  0.1083
  C  C1046  1  0.744330  0.236230  0.904580  1.0  -0.1852
  C  C1047  1  0.765470  0.230180  0.928390  1.0  -0.1315
  C  C1048  1  0.782430  0.202450  0.927930  1.0  -0.1416
  C  C1049  1  0.777410  0.181530  0.903700  1.0  0.1027
  C  C1050  1  0.769400  0.253050  0.954150  1.0  0.2229
  C  C1051  1  0.241030  0.535710  0.368720  1.0  0.1076
  C  C1052  1  0.244330  0.513770  0.345420  1.0  -0.1874
  C  C1053  1  0.265470  0.519820  0.321610  1.0  -0.1304
  C  C1054  1  0.282430  0.547550  0.322070  1.0  -0.1418
  C  C1055  1  0.277410  0.568470  0.346300  1.0  0.1027
  C  C1056  1  0.269400  0.496950  0.295850  1.0  0.2264
  C  C1057  1  0.881280  0.008970  0.535710  1.0  0.1128
  C  C1058  1  0.904580  0.005670  0.513770  1.0  -0.183
  C  C1059  1  0.928390  0.984530  0.519820  1.0  -0.1328
  C  C1060  1  0.927930  0.967570  0.547550  1.0  -0.1449
  C  C1061  1  0.903700  0.972590  0.568470  1.0  0.1068
  C  C1062  1  0.954150  0.980600  0.496950  1.0  0.2246
  C  C1063  1  0.368720  0.508970  0.214290  1.0  0.1115
  C  C1064  1  0.345420  0.505670  0.236230  1.0  -0.1854
  C  C1065  1  0.321610  0.484530  0.230180  1.0  -0.1335
  C  C1066  1  0.322070  0.467570  0.202450  1.0  -0.1428
  C  C1067  1  0.346300  0.472590  0.181530  1.0  0.1058
  C  C1068  1  0.295850  0.480600  0.253050  1.0  0.2244
  C  C1069  1  0.381280  0.741030  0.714290  1.0  0.1126
  C  C1070  1  0.404580  0.744330  0.736230  1.0  -0.1837
  C  C1071  1  0.428390  0.765470  0.730180  1.0  -0.133
  C  C1072  1  0.427930  0.782430  0.702450  1.0  -0.1444
  C  C1073  1  0.403700  0.777410  0.681530  1.0  0.1073
  C  C1074  1  0.454150  0.769400  0.753050  1.0  0.2259
  C  C1075  1  0.868720  0.241030  0.035710  1.0  0.1112
  C  C1076  1  0.845420  0.244330  0.013770  1.0  -0.1851
  C  C1077  1  0.821610  0.265470  0.019820  1.0  -0.1315
  C  C1078  1  0.822070  0.282430  0.047550  1.0  -0.1415
  C  C1079  1  0.846300  0.277410  0.068470  1.0  0.1051
  C  C1080  1  0.795850  0.269400  0.996950  1.0  0.2231
  C  C1081  1  0.131280  0.785710  0.491030  1.0  0.1112
  C  C1082  1  0.154580  0.763770  0.494330  1.0  -0.1847
  C  C1083  1  0.178390  0.769820  0.515470  1.0  -0.1302
  C  C1084  1  0.177930  0.797550  0.532430  1.0  -0.1437
  C  C1085  1  0.153700  0.818470  0.527410  1.0  0.1056
  C  C1086  1  0.204150  0.746950  0.519400  1.0  0.226
  C  C1087  1  0.618720  0.464290  0.991030  1.0  0.1093
  C  C1088  1  0.595420  0.486230  0.994330  1.0  -0.185
  C  C1089  1  0.571610  0.480180  0.015470  1.0  -0.1312
  C  C1090  1  0.572070  0.452450  0.032430  1.0  -0.1419
  C  C1091  1  0.596300  0.431530  0.027410  1.0  0.1049
  C  C1092  1  0.545850  0.503050  0.019400  1.0  0.2244
  C  C1093  1  0.631280  0.964290  0.758970  1.0  0.1119
  C  C1094  1  0.654580  0.986230  0.755670  1.0  -0.1829
  C  C1095  1  0.678390  0.980180  0.734530  1.0  -0.1315
  C  C1096  1  0.677930  0.952450  0.717570  1.0  -0.1419
  C  C1097  1  0.653700  0.931530  0.722590  1.0  0.1049
  C  C1098  1  0.704150  0.003050  0.730600  1.0  0.2248
  C  C1099  1  0.118720  0.285710  0.258970  1.0  0.1106
  C  C1100  1  0.095420  0.263770  0.255670  1.0  -0.1862
  C  C1101  1  0.071610  0.269820  0.234530  1.0  -0.1319
  C  C1102  1  0.072070  0.297550  0.217570  1.0  -0.1405
  C  C1103  1  0.096300  0.318470  0.222590  1.0  0.1043
  C  C1104  1  0.045850  0.246950  0.230600  1.0  0.2223
  C  C1105  1  0.285710  0.758970  0.618720  1.0  0.1067
  C  C1106  1  0.263770  0.755670  0.595420  1.0  -0.187
  C  C1107  1  0.269820  0.734530  0.571610  1.0  -0.1319
  C  C1108  1  0.297550  0.717570  0.572070  1.0  -0.1468
  C  C1109  1  0.318470  0.722590  0.596300  1.0  0.1049
  C  C1110  1  0.246950  0.730600  0.545850  1.0  0.2272
  C  C1111  1  0.964290  0.258970  0.131280  1.0  0.108
  C  C1112  1  0.986230  0.255670  0.154580  1.0  -0.1868
  C  C1113  1  0.980180  0.234530  0.178390  1.0  -0.1312
  C  C1114  1  0.952450  0.217570  0.177930  1.0  -0.1448
  C  C1115  1  0.931530  0.222590  0.153700  1.0  0.1052
  C  C1116  1  0.003050  0.230600  0.204150  1.0  0.2223
  C  C1117  1  0.464290  0.491030  0.118720  1.0  0.1077
  C  C1118  1  0.486230  0.494330  0.095420  1.0  -0.1874
  C  C1119  1  0.480180  0.515470  0.071610  1.0  -0.1308
  C  C1120  1  0.452450  0.532430  0.072070  1.0  -0.1465
  C  C1121  1  0.431530  0.527410  0.096300  1.0  0.1049
  C  C1122  1  0.503050  0.519400  0.045850  1.0  0.2269
  C  C1123  1  0.785710  0.991030  0.631280  1.0  0.1073
  C  C1124  1  0.763770  0.994330  0.654580  1.0  -0.1868
  C  C1125  1  0.769820  0.015470  0.678390  1.0  -0.132
  C  C1126  1  0.797550  0.032430  0.677930  1.0  -0.1456
  C  C1127  1  0.818470  0.027410  0.653700  1.0  0.1054
  C  C1128  1  0.746950  0.019400  0.704150  1.0  0.2248
  C  C1129  1  0.258970  0.631280  0.464290  1.0  0.1097
  C  C1130  1  0.255670  0.654580  0.486230  1.0  -0.1854
  C  C1131  1  0.234530  0.678390  0.480180  1.0  -0.1322
  C  C1132  1  0.217570  0.677930  0.452450  1.0  -0.1479
  C  C1133  1  0.222590  0.653700  0.431530  1.0  0.1046
  C  C1134  1  0.230600  0.704150  0.503050  1.0  0.2262
  C  C1135  1  0.758970  0.118720  0.785710  1.0  0.1116
  C  C1136  1  0.755670  0.095420  0.763770  1.0  -0.1843
  C  C1137  1  0.734530  0.071610  0.769820  1.0  -0.1313
  C  C1138  1  0.717570  0.072070  0.797550  1.0  -0.1484
  C  C1139  1  0.722590  0.096300  0.818470  1.0  0.1058
  C  C1140  1  0.730600  0.045850  0.746950  1.0  0.225
  C  C1141  1  0.991030  0.131280  0.285710  1.0  0.1116
  C  C1142  1  0.994330  0.154580  0.263770  1.0  -0.1831
  C  C1143  1  0.015470  0.178390  0.269820  1.0  -0.1314
  C  C1144  1  0.032430  0.177930  0.297550  1.0  -0.1464
  C  C1145  1  0.027410  0.153700  0.318470  1.0  0.1046
  C  C1146  1  0.019400  0.204150  0.246950  1.0  0.2224
  C  C1147  1  0.491030  0.618720  0.964290  1.0  0.1102
  C  C1148  1  0.494330  0.595420  0.986230  1.0  -0.1852
  C  C1149  1  0.515470  0.571610  0.980180  1.0  -0.1311
  C  C1150  1  0.532430  0.572070  0.952450  1.0  -0.1478
  C  C1151  1  0.527410  0.596300  0.931530  1.0  0.1049
  C  C1152  1  0.519400  0.545850  0.003050  1.0  0.224
  C  C1153  1  0.535710  0.381280  0.508970  1.0  0.1092
  C  C1154  1  0.513770  0.404580  0.505670  1.0  -0.1854
  C  C1155  1  0.519820  0.428390  0.484530  1.0  -0.1312
  C  C1156  1  0.547550  0.427930  0.467570  1.0  -0.1497
  C  C1157  1  0.568470  0.403700  0.472590  1.0  0.1044
  C  C1158  1  0.496950  0.454150  0.480600  1.0  0.2227
  C  C1159  1  0.214290  0.868720  0.008970  1.0  0.1092
  C  C1160  1  0.236230  0.845420  0.005670  1.0  -0.1854
  C  C1161  1  0.230180  0.821610  0.984530  1.0  -0.1301
  C  C1162  1  0.202450  0.822070  0.967570  1.0  -0.1493
  C  C1163  1  0.181530  0.846300  0.972590  1.0  0.1057
  C  C1164  1  0.253050  0.795850  0.980600  1.0  0.2227
  C  C1165  1  0.714290  0.881280  0.241030  1.0  0.1095
  C  C1166  1  0.736230  0.904580  0.244330  1.0  -0.1859
  C  C1167  1  0.730180  0.928390  0.265470  1.0  -0.1301
  C  C1168  1  0.702450  0.927930  0.282430  1.0  -0.15
  C  C1169  1  0.681530  0.903700  0.277410  1.0  0.1058
  C  C1170  1  0.753050  0.954150  0.269400  1.0  0.2251
  C  C1171  1  0.035710  0.368720  0.741030  1.0  0.1091
  C  C1172  1  0.013770  0.345420  0.744330  1.0  -0.186
  C  C1173  1  0.019820  0.321610  0.765470  1.0  -0.1287
  C  C1174  1  0.047550  0.322070  0.782430  1.0  -0.1498
  C  C1175  1  0.068470  0.346300  0.777410  1.0  0.1067
  C  C1176  1  0.996950  0.295850  0.769400  1.0  0.224
  C  C1177  1  0.508970  0.535710  0.381280  1.0  0.1074
  C  C1178  1  0.505670  0.513770  0.404580  1.0  -0.1877
  C  C1179  1  0.484530  0.519820  0.428390  1.0  -0.133
  C  C1180  1  0.467570  0.547550  0.427930  1.0  -0.1438
  C  C1181  1  0.472590  0.568470  0.403700  1.0  0.1044
  C  C1182  1  0.480600  0.496950  0.454150  1.0  0.2245
  C  C1183  1  0.008970  0.214290  0.868720  1.0  0.1082
  C  C1184  1  0.005670  0.236230  0.845420  1.0  -0.1852
  C  C1185  1  0.984530  0.230180  0.821610  1.0  -0.133
  C  C1186  1  0.967570  0.202450  0.822070  1.0  -0.1445
  C  C1187  1  0.972590  0.181530  0.846300  1.0  0.1031
  C  C1188  1  0.980600  0.253050  0.795850  1.0  0.2272
  C  C1189  1  0.241030  0.714290  0.881280  1.0  0.1083
  C  C1190  1  0.244330  0.736230  0.904580  1.0  -0.1852
  C  C1191  1  0.265470  0.730180  0.928390  1.0  -0.1315
  C  C1192  1  0.282430  0.702450  0.927930  1.0  -0.1416
  C  C1193  1  0.277410  0.681530  0.903700  1.0  0.1027
  C  C1194  1  0.269400  0.753050  0.954150  1.0  0.2229
  C  C1195  1  0.741030  0.035710  0.368720  1.0  0.1076
  C  C1196  1  0.744330  0.013770  0.345420  1.0  -0.1874
  C  C1197  1  0.765470  0.019820  0.321610  1.0  -0.1304
  C  C1198  1  0.782430  0.047550  0.322070  1.0  -0.1418
  C  C1199  1  0.777410  0.068470  0.346300  1.0  0.1027
  C  C1200  1  0.769400  0.996950  0.295850  1.0  0.2264
  C  C1201  1  0.381280  0.508970  0.535710  1.0  0.1128
  C  C1202  1  0.404580  0.505670  0.513770  1.0  -0.183
  C  C1203  1  0.428390  0.484530  0.519820  1.0  -0.1328
  C  C1204  1  0.427930  0.467570  0.547550  1.0  -0.1449
  C  C1205  1  0.403700  0.472590  0.568470  1.0  0.1068
  C  C1206  1  0.454150  0.480600  0.496950  1.0  0.2246
  C  C1207  1  0.868720  0.008970  0.214290  1.0  0.1115
  C  C1208  1  0.845420  0.005670  0.236230  1.0  -0.1854
  C  C1209  1  0.821610  0.984530  0.230180  1.0  -0.1335
  C  C1210  1  0.822070  0.967570  0.202450  1.0  -0.1428
  C  C1211  1  0.846300  0.972590  0.181530  1.0  0.1058
  C  C1212  1  0.795850  0.980600  0.253050  1.0  0.2244
  C  C1213  1  0.881280  0.241030  0.714290  1.0  0.1126
  C  C1214  1  0.904580  0.244330  0.736230  1.0  -0.1837
  C  C1215  1  0.928390  0.265470  0.730180  1.0  -0.133
  C  C1216  1  0.927930  0.282430  0.702450  1.0  -0.1444
  C  C1217  1  0.903700  0.277410  0.681530  1.0  0.1073
  C  C1218  1  0.954150  0.269400  0.753050  1.0  0.2259
  C  C1219  1  0.368720  0.741030  0.035710  1.0  0.1112
  C  C1220  1  0.345420  0.744330  0.013770  1.0  -0.1851
  C  C1221  1  0.321610  0.765470  0.019820  1.0  -0.1315
  C  C1222  1  0.322070  0.782430  0.047550  1.0  -0.1415
  C  C1223  1  0.346300  0.777410  0.068470  1.0  0.1051
  C  C1224  1  0.295850  0.769400  0.996950  1.0  0.2231
  C  C1225  1  0.631280  0.285710  0.491030  1.0  0.1112
  C  C1226  1  0.654580  0.263770  0.494330  1.0  -0.1847
  C  C1227  1  0.678390  0.269820  0.515470  1.0  -0.1302
  C  C1228  1  0.677930  0.297550  0.532430  1.0  -0.1437
  C  C1229  1  0.653700  0.318470  0.527410  1.0  0.1056
  C  C1230  1  0.704150  0.246950  0.519400  1.0  0.226
  C  C1231  1  0.118720  0.964290  0.991030  1.0  0.1093
  C  C1232  1  0.095420  0.986230  0.994330  1.0  -0.185
  C  C1233  1  0.071610  0.980180  0.015470  1.0  -0.1312
  C  C1234  1  0.072070  0.952450  0.032430  1.0  -0.1419
  C  C1235  1  0.096300  0.931530  0.027410  1.0  0.1049
  C  C1236  1  0.045850  0.003050  0.019400  1.0  0.2244
  C  C1237  1  0.131280  0.464290  0.758970  1.0  0.1119
  C  C1238  1  0.154580  0.486230  0.755670  1.0  -0.1829
  C  C1239  1  0.178390  0.480180  0.734530  1.0  -0.1315
  C  C1240  1  0.177930  0.452450  0.717570  1.0  -0.1419
  C  C1241  1  0.153700  0.431530  0.722590  1.0  0.1049
  C  C1242  1  0.204150  0.503050  0.730600  1.0  0.2248
  C  C1243  1  0.618720  0.785710  0.258970  1.0  0.1106
  C  C1244  1  0.595420  0.763770  0.255670  1.0  -0.1862
  C  C1245  1  0.571610  0.769820  0.234530  1.0  -0.1319
  C  C1246  1  0.572070  0.797550  0.217570  1.0  -0.1405
  C  C1247  1  0.596300  0.818470  0.222590  1.0  0.1043
  C  C1248  1  0.545850  0.746950  0.230600  1.0  0.2223
  C  C1249  1  0.785710  0.258970  0.618720  1.0  0.1067
  C  C1250  1  0.763770  0.255670  0.595420  1.0  -0.187
  C  C1251  1  0.769820  0.234530  0.571610  1.0  -0.1319
  C  C1252  1  0.797550  0.217570  0.572070  1.0  -0.1468
  C  C1253  1  0.818470  0.222590  0.596300  1.0  0.1049
  C  C1254  1  0.746950  0.230600  0.545850  1.0  0.2272
  C  C1255  1  0.464290  0.758970  0.131280  1.0  0.108
  C  C1256  1  0.486230  0.755670  0.154580  1.0  -0.1868
  C  C1257  1  0.480180  0.734530  0.178390  1.0  -0.1312
  C  C1258  1  0.452450  0.717570  0.177930  1.0  -0.1448
  C  C1259  1  0.431530  0.722590  0.153700  1.0  0.1052
  C  C1260  1  0.503050  0.730600  0.204150  1.0  0.2223
  C  C1261  1  0.964290  0.991030  0.118720  1.0  0.1077
  C  C1262  1  0.986230  0.994330  0.095420  1.0  -0.1874
  C  C1263  1  0.980180  0.015470  0.071610  1.0  -0.1308
  C  C1264  1  0.952450  0.032430  0.072070  1.0  -0.1465
  C  C1265  1  0.931530  0.027410  0.096300  1.0  0.1049
  C  C1266  1  0.003050  0.019400  0.045850  1.0  0.2269
  C  C1267  1  0.285710  0.491030  0.631280  1.0  0.1073
  C  C1268  1  0.263770  0.494330  0.654580  1.0  -0.1868
  C  C1269  1  0.269820  0.515470  0.678390  1.0  -0.132
  C  C1270  1  0.297550  0.532430  0.677930  1.0  -0.1456
  C  C1271  1  0.318470  0.527410  0.653700  1.0  0.1054
  C  C1272  1  0.246950  0.519400  0.704150  1.0  0.2248
  C  C1273  1  0.758970  0.131280  0.464290  1.0  0.1097
  C  C1274  1  0.755670  0.154580  0.486230  1.0  -0.1854
  C  C1275  1  0.734530  0.178390  0.480180  1.0  -0.1322
  C  C1276  1  0.717570  0.177930  0.452450  1.0  -0.1479
  C  C1277  1  0.722590  0.153700  0.431530  1.0  0.1046
  C  C1278  1  0.730600  0.204150  0.503050  1.0  0.2262
  C  C1279  1  0.258970  0.618720  0.785710  1.0  0.1116
  C  C1280  1  0.255670  0.595420  0.763770  1.0  -0.1843
  C  C1281  1  0.234530  0.571610  0.769820  1.0  -0.1313
  C  C1282  1  0.217570  0.572070  0.797550  1.0  -0.1484
  C  C1283  1  0.222590  0.596300  0.818470  1.0  0.1058
  C  C1284  1  0.230600  0.545850  0.746950  1.0  0.225
  C  C1285  1  0.491030  0.631280  0.285710  1.0  0.1116
  C  C1286  1  0.494330  0.654580  0.263770  1.0  -0.1831
  C  C1287  1  0.515470  0.678390  0.269820  1.0  -0.1314
  C  C1288  1  0.532430  0.677930  0.297550  1.0  -0.1464
  C  C1289  1  0.527410  0.653700  0.318470  1.0  0.1046
  C  C1290  1  0.519400  0.704150  0.246950  1.0  0.2224
  C  C1291  1  0.991030  0.118720  0.964290  1.0  0.1102
  C  C1292  1  0.994330  0.095420  0.986230  1.0  -0.1852
  C  C1293  1  0.015470  0.071610  0.980180  1.0  -0.1311
  C  C1294  1  0.032430  0.072070  0.952450  1.0  -0.1478
  C  C1295  1  0.027410  0.096300  0.931530  1.0  0.1049
  C  C1296  1  0.019400  0.045850  0.003050  1.0  0.224
  C  C1297  1  0.535710  0.881280  0.008970  1.0  0.1092
  C  C1298  1  0.513770  0.904580  0.005670  1.0  -0.1854
  C  C1299  1  0.519820  0.928390  0.984530  1.0  -0.1312
  C  C1300  1  0.547550  0.927930  0.967570  1.0  -0.1497
  C  C1301  1  0.568470  0.903700  0.972590  1.0  0.1044
  C  C1302  1  0.496950  0.954150  0.980600  1.0  0.2227
  C  C1303  1  0.214290  0.368720  0.508970  1.0  0.1092
  C  C1304  1  0.236230  0.345420  0.505670  1.0  -0.1854
  C  C1305  1  0.230180  0.321610  0.484530  1.0  -0.1301
  C  C1306  1  0.202450  0.322070  0.467570  1.0  -0.1493
  C  C1307  1  0.181530  0.346300  0.472590  1.0  0.1057
  C  C1308  1  0.253050  0.295850  0.480600  1.0  0.2227
  C  C1309  1  0.714290  0.381280  0.741030  1.0  0.1095
  C  C1310  1  0.736230  0.404580  0.744330  1.0  -0.1859
  C  C1311  1  0.730180  0.428390  0.765470  1.0  -0.1301
  C  C1312  1  0.702450  0.427930  0.782430  1.0  -0.15
  C  C1313  1  0.681530  0.403700  0.777410  1.0  0.1058
  C  C1314  1  0.753050  0.454150  0.769400  1.0  0.2251
  C  C1315  1  0.035710  0.868720  0.241030  1.0  0.1091
  C  C1316  1  0.013770  0.845420  0.244330  1.0  -0.186
  C  C1317  1  0.019820  0.821610  0.265470  1.0  -0.1287
  C  C1318  1  0.047550  0.822070  0.282430  1.0  -0.1498
  C  C1319  1  0.068470  0.846300  0.277410  1.0  0.1067
  C  C1320  1  0.996950  0.795850  0.269400  1.0  0.224
  C  C1321  1  0.508970  0.035710  0.881280  1.0  0.1074
  C  C1322  1  0.505670  0.013770  0.904580  1.0  -0.1877
  C  C1323  1  0.484530  0.019820  0.928390  1.0  -0.133
  C  C1324  1  0.467570  0.047550  0.927930  1.0  -0.1438
  C  C1325  1  0.472590  0.068470  0.903700  1.0  0.1044
  C  C1326  1  0.480600  0.996950  0.954150  1.0  0.2245
  C  C1327  1  0.008970  0.714290  0.368720  1.0  0.1082
  C  C1328  1  0.005670  0.736230  0.345420  1.0  -0.1852
  C  C1329  1  0.984530  0.730180  0.321610  1.0  -0.133
  C  C1330  1  0.967570  0.702450  0.322070  1.0  -0.1445
  C  C1331  1  0.972590  0.681530  0.346300  1.0  0.1031
  C  C1332  1  0.980600  0.753050  0.295850  1.0  0.2272
  C  C1333  1  0.241030  0.214290  0.381280  1.0  0.1083
  C  C1334  1  0.244330  0.236230  0.404580  1.0  -0.1852
  C  C1335  1  0.265470  0.230180  0.428390  1.0  -0.1315
  C  C1336  1  0.282430  0.202450  0.427930  1.0  -0.1416
  C  C1337  1  0.277410  0.181530  0.403700  1.0  0.1027
  C  C1338  1  0.269400  0.253050  0.454150  1.0  0.2229
  C  C1339  1  0.741030  0.535710  0.868720  1.0  0.1076
  C  C1340  1  0.744330  0.513770  0.845420  1.0  -0.1874
  C  C1341  1  0.765470  0.519820  0.821610  1.0  -0.1304
  C  C1342  1  0.782430  0.547550  0.822070  1.0  -0.1418
  C  C1343  1  0.777410  0.568470  0.846300  1.0  0.1027
  C  C1344  1  0.769400  0.496950  0.795850  1.0  0.2264
  C  C1345  1  0.381280  0.008970  0.035710  1.0  0.1128
  C  C1346  1  0.404580  0.005670  0.013770  1.0  -0.183
  C  C1347  1  0.428390  0.984530  0.019820  1.0  -0.1328
  C  C1348  1  0.427930  0.967570  0.047550  1.0  -0.1449
  C  C1349  1  0.403700  0.972590  0.068470  1.0  0.1068
  C  C1350  1  0.454150  0.980600  0.996950  1.0  0.2246
  C  C1351  1  0.868720  0.508970  0.714290  1.0  0.1115
  C  C1352  1  0.845420  0.505670  0.736230  1.0  -0.1854
  C  C1353  1  0.821610  0.484530  0.730180  1.0  -0.1335
  C  C1354  1  0.822070  0.467570  0.702450  1.0  -0.1428
  C  C1355  1  0.846300  0.472590  0.681530  1.0  0.1058
  C  C1356  1  0.795850  0.480600  0.753050  1.0  0.2244
  C  C1357  1  0.881280  0.741030  0.214290  1.0  0.1126
  C  C1358  1  0.904580  0.744330  0.236230  1.0  -0.1837
  C  C1359  1  0.928390  0.765470  0.230180  1.0  -0.133
  C  C1360  1  0.927930  0.782430  0.202450  1.0  -0.1444
  C  C1361  1  0.903700  0.777410  0.181530  1.0  0.1073
  C  C1362  1  0.954150  0.769400  0.253050  1.0  0.2259
  C  C1363  1  0.368720  0.241030  0.535710  1.0  0.1112
  C  C1364  1  0.345420  0.244330  0.513770  1.0  -0.1851
  C  C1365  1  0.321610  0.265470  0.519820  1.0  -0.1315
  C  C1366  1  0.322070  0.282430  0.547550  1.0  -0.1415
  C  C1367  1  0.346300  0.277410  0.568470  1.0  0.1051
  C  C1368  1  0.295850  0.269400  0.496950  1.0  0.2231
  C  C1369  1  0.631280  0.785710  0.991030  1.0  0.1112
  C  C1370  1  0.654580  0.763770  0.994330  1.0  -0.1847
  C  C1371  1  0.678390  0.769820  0.015470  1.0  -0.1302
  C  C1372  1  0.677930  0.797550  0.032430  1.0  -0.1437
  C  C1373  1  0.653700  0.818470  0.027410  1.0  0.1056
  C  C1374  1  0.704150  0.746950  0.019400  1.0  0.226
  C  C1375  1  0.118720  0.464290  0.491030  1.0  0.1093
  C  C1376  1  0.095420  0.486230  0.494330  1.0  -0.185
  C  C1377  1  0.071610  0.480180  0.515470  1.0  -0.1312
  C  C1378  1  0.072070  0.452450  0.532430  1.0  -0.1419
  C  C1379  1  0.096300  0.431530  0.527410  1.0  0.1049
  C  C1380  1  0.045850  0.503050  0.519400  1.0  0.2244
  C  C1381  1  0.131280  0.964290  0.258970  1.0  0.1119
  C  C1382  1  0.154580  0.986230  0.255670  1.0  -0.1829
  C  C1383  1  0.178390  0.980180  0.234530  1.0  -0.1315
  C  C1384  1  0.177930  0.952450  0.217570  1.0  -0.1419
  C  C1385  1  0.153700  0.931530  0.222590  1.0  0.1049
  C  C1386  1  0.204150  0.003050  0.230600  1.0  0.2248
  C  C1387  1  0.618720  0.285710  0.758970  1.0  0.1106
  C  C1388  1  0.595420  0.263770  0.755670  1.0  -0.1862
  C  C1389  1  0.571610  0.269820  0.734530  1.0  -0.1319
  C  C1390  1  0.572070  0.297550  0.717570  1.0  -0.1405
  C  C1391  1  0.596300  0.318470  0.722590  1.0  0.1043
  C  C1392  1  0.545850  0.246950  0.730600  1.0  0.2223
  C  C1393  1  0.785710  0.758970  0.118720  1.0  0.1067
  C  C1394  1  0.763770  0.755670  0.095420  1.0  -0.187
  C  C1395  1  0.769820  0.734530  0.071610  1.0  -0.1319
  C  C1396  1  0.797550  0.717570  0.072070  1.0  -0.1468
  C  C1397  1  0.818470  0.722590  0.096300  1.0  0.1049
  C  C1398  1  0.746950  0.730600  0.045850  1.0  0.2272
  C  C1399  1  0.464290  0.258970  0.631280  1.0  0.108
  C  C1400  1  0.486230  0.255670  0.654580  1.0  -0.1868
  C  C1401  1  0.480180  0.234530  0.678390  1.0  -0.1312
  C  C1402  1  0.452450  0.217570  0.677930  1.0  -0.1448
  C  C1403  1  0.431530  0.222590  0.653700  1.0  0.1052
  C  C1404  1  0.503050  0.230600  0.704150  1.0  0.2223
  C  C1405  1  0.964290  0.491030  0.618720  1.0  0.1077
  C  C1406  1  0.986230  0.494330  0.595420  1.0  -0.1874
  C  C1407  1  0.980180  0.515470  0.571610  1.0  -0.1308
  C  C1408  1  0.952450  0.532430  0.572070  1.0  -0.1465
  C  C1409  1  0.931530  0.527410  0.596300  1.0  0.1049
  C  C1410  1  0.003050  0.519400  0.545850  1.0  0.2269
  C  C1411  1  0.285710  0.991030  0.131280  1.0  0.1073
  C  C1412  1  0.263770  0.994330  0.154580  1.0  -0.1868
  C  C1413  1  0.269820  0.015470  0.178390  1.0  -0.132
  C  C1414  1  0.297550  0.032430  0.177930  1.0  -0.1456
  C  C1415  1  0.318470  0.027410  0.153700  1.0  0.1054
  C  C1416  1  0.246950  0.019400  0.204150  1.0  0.2248
  C  C1417  1  0.758970  0.631280  0.964290  1.0  0.1097
  C  C1418  1  0.755670  0.654580  0.986230  1.0  -0.1854
  C  C1419  1  0.734530  0.678390  0.980180  1.0  -0.1322
  C  C1420  1  0.717570  0.677930  0.952450  1.0  -0.1479
  C  C1421  1  0.722590  0.653700  0.931530  1.0  0.1046
  C  C1422  1  0.730600  0.704150  0.003050  1.0  0.2262
  C  C1423  1  0.258970  0.118720  0.285710  1.0  0.1116
  C  C1424  1  0.255670  0.095420  0.263770  1.0  -0.1843
  C  C1425  1  0.234530  0.071610  0.269820  1.0  -0.1313
  C  C1426  1  0.217570  0.072070  0.297550  1.0  -0.1484
  C  C1427  1  0.222590  0.096300  0.318470  1.0  0.1058
  C  C1428  1  0.230600  0.045850  0.246950  1.0  0.225
  C  C1429  1  0.491030  0.131280  0.785710  1.0  0.1116
  C  C1430  1  0.494330  0.154580  0.763770  1.0  -0.1831
  C  C1431  1  0.515470  0.178390  0.769820  1.0  -0.1314
  C  C1432  1  0.532430  0.177930  0.797550  1.0  -0.1464
  C  C1433  1  0.527410  0.153700  0.818470  1.0  0.1046
  C  C1434  1  0.519400  0.204150  0.746950  1.0  0.2224
  C  C1435  1  0.991030  0.618720  0.464290  1.0  0.1102
  C  C1436  1  0.994330  0.595420  0.486230  1.0  -0.1852
  C  C1437  1  0.015470  0.571610  0.480180  1.0  -0.1311
  C  C1438  1  0.032430  0.572070  0.452450  1.0  -0.1478
  C  C1439  1  0.027410  0.596300  0.431530  1.0  0.1049
  C  C1440  1  0.019400  0.545850  0.503050  1.0  0.224
  C  C1441  1  0.964290  0.618720  0.991030  1.0  0.1098
  C  C1442  1  0.986230  0.595420  0.994330  1.0  -0.1863
  C  C1443  1  0.980180  0.571610  0.015470  1.0  -0.1278
  C  C1444  1  0.952450  0.572070  0.032430  1.0  -0.1508
  C  C1445  1  0.931530  0.596300  0.027410  1.0  0.1064
  C  C1446  1  0.003050  0.545850  0.019400  1.0  0.2238
  C  C1447  1  0.285710  0.131280  0.491030  1.0  0.1093
  C  C1448  1  0.263770  0.154580  0.494330  1.0  -0.1852
  C  C1449  1  0.269820  0.178390  0.515470  1.0  -0.1312
  C  C1450  1  0.297550  0.177930  0.532430  1.0  -0.1494
  C  C1451  1  0.318470  0.153700  0.527410  1.0  0.1058
  C  C1452  1  0.246950  0.204150  0.519400  1.0  0.2249
  C  C1453  1  0.785710  0.118720  0.258970  1.0  0.1082
  C  C1454  1  0.763770  0.095420  0.255670  1.0  -0.1856
  C  C1455  1  0.769820  0.071610  0.234530  1.0  -0.1307
  C  C1456  1  0.797550  0.072070  0.217570  1.0  -0.1501
  C  C1457  1  0.818470  0.096300  0.222590  1.0  0.1056
  C  C1458  1  0.746950  0.045850  0.230600  1.0  0.2241
  C  C1459  1  0.464290  0.631280  0.758970  1.0  0.1095
  C  C1460  1  0.486230  0.654580  0.755670  1.0  -0.1858
  C  C1461  1  0.480180  0.678390  0.734530  1.0  -0.1306
  C  C1462  1  0.452450  0.677930  0.717570  1.0  -0.1481
  C  C1463  1  0.431530  0.653700  0.722590  1.0  0.1049
  C  C1464  1  0.503050  0.704150  0.730600  1.0  0.2222
  C  C1465  1  0.991030  0.464290  0.118720  1.0  0.1077
  C  C1466  1  0.994330  0.486230  0.095420  1.0  -0.1859
  C  C1467  1  0.015470  0.480180  0.071610  1.0  -0.1312
  C  C1468  1  0.032430  0.452450  0.072070  1.0  -0.1428
  C  C1469  1  0.027410  0.431530  0.096300  1.0  0.1029
  C  C1470  1  0.019400  0.503050  0.045850  1.0  0.2263
  C  C1471  1  0.491030  0.785710  0.631280  1.0  0.1082
  C  C1472  1  0.494330  0.763770  0.654580  1.0  -0.1873
  C  C1473  1  0.515470  0.769820  0.678390  1.0  -0.1322
  C  C1474  1  0.532430  0.797550  0.677930  1.0  -0.1416
  C  C1475  1  0.527410  0.818470  0.653700  1.0  0.1035
  C  C1476  1  0.519400  0.746950  0.704150  1.0  0.2218
  C  C1477  1  0.258970  0.285710  0.618720  1.0  0.1076
  C  C1478  1  0.255670  0.263770  0.595420  1.0  -0.187
  C  C1479  1  0.234530  0.269820  0.571610  1.0  -0.1326
  C  C1480  1  0.217570  0.297550  0.572070  1.0  -0.1444
  C  C1481  1  0.222590  0.318470  0.596300  1.0  0.1026
  C  C1482  1  0.230600  0.246950  0.545850  1.0  0.2272
  C  C1483  1  0.758970  0.964290  0.131280  1.0  0.1071
  C  C1484  1  0.755670  0.986230  0.154580  1.0  -0.1856
  C  C1485  1  0.734530  0.980180  0.178390  1.0  -0.1318
  C  C1486  1  0.717570  0.952450  0.177930  1.0  -0.1425
  C  C1487  1  0.722590  0.931530  0.153700  1.0  0.1035
  C  C1488  1  0.730600  0.003050  0.204150  1.0  0.2252
  C  C1489  1  0.118720  0.491030  0.964290  1.0  0.1109
  C  C1490  1  0.095420  0.494330  0.986230  1.0  -0.186
  C  C1491  1  0.071610  0.515470  0.980180  1.0  -0.1331
  C  C1492  1  0.072070  0.532430  0.952450  1.0  -0.1423
  C  C1493  1  0.096300  0.527410  0.931530  1.0  0.1061
  C  C1494  1  0.045850  0.519400  0.003050  1.0  0.2246
  C  C1495  1  0.631280  0.991030  0.285710  1.0  0.1122
  C  C1496  1  0.654580  0.994330  0.263770  1.0  -0.183
  C  C1497  1  0.678390  0.015470  0.269820  1.0  -0.1325
  C  C1498  1  0.677930  0.032430  0.297550  1.0  -0.1438
  C  C1499  1  0.653700  0.027410  0.318470  1.0  0.1064
  C  C1500  1  0.704150  0.019400  0.246950  1.0  0.225
  C  C1501  1  0.618720  0.758970  0.785710  1.0  0.1117
  C  C1502  1  0.595420  0.755670  0.763770  1.0  -0.1847
  C  C1503  1  0.571610  0.734530  0.769820  1.0  -0.1322
  C  C1504  1  0.572070  0.717570  0.797550  1.0  -0.1421
  C  C1505  1  0.596300  0.722590  0.818470  1.0  0.1056
  C  C1506  1  0.545850  0.730600  0.746950  1.0  0.2223
  C  C1507  1  0.131280  0.258970  0.464290  1.0  0.1127
  C  C1508  1  0.154580  0.255670  0.486230  1.0  -0.1835
  C  C1509  1  0.178390  0.234530  0.480180  1.0  -0.1329
  C  C1510  1  0.177930  0.217570  0.452450  1.0  -0.1453
  C  C1511  1  0.153700  0.222590  0.431530  1.0  0.1064
  C  C1512  1  0.204150  0.230600  0.503050  1.0  0.226
  C  C1513  1  0.868720  0.714290  0.008970  1.0  0.1103
  C  C1514  1  0.845420  0.736230  0.005670  1.0  -0.1844
  C  C1515  1  0.821610  0.730180  0.984530  1.0  -0.131
  C  C1516  1  0.822070  0.702450  0.967570  1.0  -0.1409
  C  C1517  1  0.846300  0.681530  0.972590  1.0  0.1042
  C  C1518  1  0.795850  0.753050  0.980600  1.0  0.2231
  C  C1519  1  0.381280  0.035710  0.508970  1.0  0.1117
  C  C1520  1  0.404580  0.013770  0.505670  1.0  -0.1849
  C  C1521  1  0.428390  0.019820  0.484530  1.0  -0.132
  C  C1522  1  0.427930  0.047550  0.467570  1.0  -0.1424
  C  C1523  1  0.403700  0.068470  0.472590  1.0  0.1058
  C  C1524  1  0.454150  0.996950  0.480600  1.0  0.2244
  C  C1525  1  0.368720  0.535710  0.741030  1.0  0.1096
  C  C1526  1  0.345420  0.513770  0.744330  1.0  -0.1871
  C  C1527  1  0.321610  0.519820  0.765470  1.0  -0.1308
  C  C1528  1  0.322070  0.547550  0.782430  1.0  -0.1419
  C  C1529  1  0.346300  0.568470  0.777410  1.0  0.1043
  C  C1530  1  0.295850  0.496950  0.769400  1.0  0.2246
  C  C1531  1  0.881280  0.214290  0.241030  1.0  0.1115
  C  C1532  1  0.904580  0.236230  0.244330  1.0  -0.1823
  C  C1533  1  0.928390  0.230180  0.265470  1.0  -0.131
  C  C1534  1  0.927930  0.202450  0.282430  1.0  -0.1429
  C  C1535  1  0.903700  0.181530  0.277410  1.0  0.1057
  C  C1536  1  0.954150  0.253050  0.269400  1.0  0.2256
  C  C1537  1  0.714290  0.741030  0.881280  1.0  0.1073
  C  C1538  1  0.736230  0.744330  0.904580  1.0  -0.1874
  C  C1539  1  0.730180  0.765470  0.928390  1.0  -0.1308
  C  C1540  1  0.702450  0.782430  0.927930  1.0  -0.1455
  C  C1541  1  0.681530  0.777410  0.903700  1.0  0.1062
  C  C1542  1  0.753050  0.769400  0.954150  1.0  0.2237
  C  C1543  1  0.035710  0.241030  0.368720  1.0  0.1072
  C  C1544  1  0.013770  0.244330  0.345420  1.0  -0.1877
  C  C1545  1  0.019820  0.265470  0.321610  1.0  -0.1321
  C  C1546  1  0.047550  0.282430  0.322070  1.0  -0.1458
  C  C1547  1  0.068470  0.277410  0.346300  1.0  0.1051
  C  C1548  1  0.996950  0.269400  0.295850  1.0  0.2271
  C  C1549  1  0.535710  0.008970  0.381280  1.0  0.108
  C  C1550  1  0.513770  0.005670  0.404580  1.0  -0.1865
  C  C1551  1  0.519820  0.984530  0.428390  1.0  -0.1326
  C  C1552  1  0.547550  0.967570  0.427930  1.0  -0.146
  C  C1553  1  0.568470  0.972590  0.403700  1.0  0.1042
  C  C1554  1  0.496950  0.980600  0.454150  1.0  0.2235
  C  C1555  1  0.214290  0.508970  0.868720  1.0  0.1073
  C  C1556  1  0.236230  0.505670  0.845420  1.0  -0.1866
  C  C1557  1  0.230180  0.484530  0.821610  1.0  -0.1298
  C  C1558  1  0.202450  0.467570  0.822070  1.0  -0.1466
  C  C1559  1  0.181530  0.472590  0.846300  1.0  0.1053
  C  C1560  1  0.253050  0.480600  0.795850  1.0  0.227
  C  C1561  1  0.741030  0.868720  0.035710  1.0  0.1114
  C  C1562  1  0.744330  0.845420  0.013770  1.0  -0.1852
  C  C1563  1  0.765470  0.821610  0.019820  1.0  -0.13
  C  C1564  1  0.782430  0.822070  0.047550  1.0  -0.1471
  C  C1565  1  0.777410  0.846300  0.068470  1.0  0.1052
  C  C1566  1  0.769400  0.795850  0.996950  1.0  0.2225
  C  C1567  1  0.241030  0.381280  0.714290  1.0  0.1116
  C  C1568  1  0.244330  0.404580  0.736230  1.0  -0.1848
  C  C1569  1  0.265470  0.428390  0.730180  1.0  -0.1325
  C  C1570  1  0.282430  0.427930  0.702450  1.0  -0.1468
  C  C1571  1  0.277410  0.403700  0.681530  1.0  0.1045
  C  C1572  1  0.269400  0.454150  0.753050  1.0  0.2252
  C  C1573  1  0.008970  0.368720  0.214290  1.0  0.1105
  C  C1574  1  0.005670  0.345420  0.236230  1.0  -0.1844
  C  C1575  1  0.984530  0.321610  0.230180  1.0  -0.1307
  C  C1576  1  0.967570  0.322070  0.202450  1.0  -0.1486
  C  C1577  1  0.972590  0.346300  0.181530  1.0  0.1055
  C  C1578  1  0.980600  0.295850  0.253050  1.0  0.2253
  C  C1579  1  0.508970  0.881280  0.535710  1.0  0.1098
  C  C1580  1  0.505670  0.904580  0.513770  1.0  -0.1833
  C  C1581  1  0.484530  0.928390  0.519820  1.0  -0.1325
  C  C1582  1  0.467570  0.927930  0.547550  1.0  -0.1478
  C  C1583  1  0.472590  0.903700  0.568470  1.0  0.1045
  C  C1584  1  0.480600  0.954150  0.496950  1.0  0.2245
  C  C1585  1  0.964290  0.118720  0.491030  1.0  0.1098
  C  C1586  1  0.986230  0.095420  0.494330  1.0  -0.1863
  C  C1587  1  0.980180  0.071610  0.515470  1.0  -0.1278
  C  C1588  1  0.952450  0.072070  0.532430  1.0  -0.1508
  C  C1589  1  0.931530  0.096300  0.527410  1.0  0.1064
  C  C1590  1  0.003050  0.045850  0.519400  1.0  0.2238
  C  C1591  1  0.285710  0.631280  0.991030  1.0  0.1093
  C  C1592  1  0.263770  0.654580  0.994330  1.0  -0.1852
  C  C1593  1  0.269820  0.678390  0.015470  1.0  -0.1312
  C  C1594  1  0.297550  0.677930  0.032430  1.0  -0.1494
  C  C1595  1  0.318470  0.653700  0.027410  1.0  0.1058
  C  C1596  1  0.246950  0.704150  0.019400  1.0  0.2249
  C  C1597  1  0.785710  0.618720  0.758970  1.0  0.1082
  C  C1598  1  0.763770  0.595420  0.755670  1.0  -0.1856
  C  C1599  1  0.769820  0.571610  0.734530  1.0  -0.1307
  C  C1600  1  0.797550  0.572070  0.717570  1.0  -0.1501
  C  C1601  1  0.818470  0.596300  0.722590  1.0  0.1056
  C  C1602  1  0.746950  0.545850  0.730600  1.0  0.2241
  C  C1603  1  0.464290  0.131280  0.258970  1.0  0.1095
  C  C1604  1  0.486230  0.154580  0.255670  1.0  -0.1858
  C  C1605  1  0.480180  0.178390  0.234530  1.0  -0.1306
  C  C1606  1  0.452450  0.177930  0.217570  1.0  -0.1481
  C  C1607  1  0.431530  0.153700  0.222590  1.0  0.1049
  C  C1608  1  0.503050  0.204150  0.230600  1.0  0.2222
  C  C1609  1  0.991030  0.964290  0.618720  1.0  0.1077
  C  C1610  1  0.994330  0.986230  0.595420  1.0  -0.1859
  C  C1611  1  0.015470  0.980180  0.571610  1.0  -0.1312
  C  C1612  1  0.032430  0.952450  0.572070  1.0  -0.1428
  C  C1613  1  0.027410  0.931530  0.596300  1.0  0.1029
  C  C1614  1  0.019400  0.003050  0.545850  1.0  0.2263
  C  C1615  1  0.491030  0.285710  0.131280  1.0  0.1082
  C  C1616  1  0.494330  0.263770  0.154580  1.0  -0.1873
  C  C1617  1  0.515470  0.269820  0.178390  1.0  -0.1322
  C  C1618  1  0.532430  0.297550  0.177930  1.0  -0.1416
  C  C1619  1  0.527410  0.318470  0.153700  1.0  0.1035
  C  C1620  1  0.519400  0.246950  0.204150  1.0  0.2218
  C  C1621  1  0.258970  0.785710  0.118720  1.0  0.1076
  C  C1622  1  0.255670  0.763770  0.095420  1.0  -0.187
  C  C1623  1  0.234530  0.769820  0.071610  1.0  -0.1326
  C  C1624  1  0.217570  0.797550  0.072070  1.0  -0.1444
  C  C1625  1  0.222590  0.818470  0.096300  1.0  0.1026
  C  C1626  1  0.230600  0.746950  0.045850  1.0  0.2272
  C  C1627  1  0.758970  0.464290  0.631280  1.0  0.1071
  C  C1628  1  0.755670  0.486230  0.654580  1.0  -0.1856
  C  C1629  1  0.734530  0.480180  0.678390  1.0  -0.1318
  C  C1630  1  0.717570  0.452450  0.677930  1.0  -0.1425
  C  C1631  1  0.722590  0.431530  0.653700  1.0  0.1035
  C  C1632  1  0.730600  0.503050  0.704150  1.0  0.2252
  C  C1633  1  0.118720  0.991030  0.464290  1.0  0.1109
  C  C1634  1  0.095420  0.994330  0.486230  1.0  -0.186
  C  C1635  1  0.071610  0.015470  0.480180  1.0  -0.1331
  C  C1636  1  0.072070  0.032430  0.452450  1.0  -0.1423
  C  C1637  1  0.096300  0.027410  0.431530  1.0  0.1061
  C  C1638  1  0.045850  0.019400  0.503050  1.0  0.2246
  C  C1639  1  0.631280  0.491030  0.785710  1.0  0.1122
  C  C1640  1  0.654580  0.494330  0.763770  1.0  -0.183
  C  C1641  1  0.678390  0.515470  0.769820  1.0  -0.1325
  C  C1642  1  0.677930  0.532430  0.797550  1.0  -0.1438
  C  C1643  1  0.653700  0.527410  0.818470  1.0  0.1064
  C  C1644  1  0.704150  0.519400  0.746950  1.0  0.225
  C  C1645  1  0.618720  0.258970  0.285710  1.0  0.1117
  C  C1646  1  0.595420  0.255670  0.263770  1.0  -0.1847
  C  C1647  1  0.571610  0.234530  0.269820  1.0  -0.1322
  C  C1648  1  0.572070  0.217570  0.297550  1.0  -0.1421
  C  C1649  1  0.596300  0.222590  0.318470  1.0  0.1056
  C  C1650  1  0.545850  0.230600  0.246950  1.0  0.2223
  C  C1651  1  0.131280  0.758970  0.964290  1.0  0.1127
  C  C1652  1  0.154580  0.755670  0.986230  1.0  -0.1835
  C  C1653  1  0.178390  0.734530  0.980180  1.0  -0.1329
  C  C1654  1  0.177930  0.717570  0.952450  1.0  -0.1453
  C  C1655  1  0.153700  0.722590  0.931530  1.0  0.1064
  C  C1656  1  0.204150  0.730600  0.003050  1.0  0.226
  C  C1657  1  0.868720  0.214290  0.508970  1.0  0.1103
  C  C1658  1  0.845420  0.236230  0.505670  1.0  -0.1844
  C  C1659  1  0.821610  0.230180  0.484530  1.0  -0.131
  C  C1660  1  0.822070  0.202450  0.467570  1.0  -0.1409
  C  C1661  1  0.846300  0.181530  0.472590  1.0  0.1042
  C  C1662  1  0.795850  0.253050  0.480600  1.0  0.2231
  C  C1663  1  0.381280  0.535710  0.008970  1.0  0.1117
  C  C1664  1  0.404580  0.513770  0.005670  1.0  -0.1849
  C  C1665  1  0.428390  0.519820  0.984530  1.0  -0.132
  C  C1666  1  0.427930  0.547550  0.967570  1.0  -0.1424
  C  C1667  1  0.403700  0.568470  0.972590  1.0  0.1058
  C  C1668  1  0.454150  0.496950  0.980600  1.0  0.2244
  C  C1669  1  0.368720  0.035710  0.241030  1.0  0.1096
  C  C1670  1  0.345420  0.013770  0.244330  1.0  -0.1871
  C  C1671  1  0.321610  0.019820  0.265470  1.0  -0.1308
  C  C1672  1  0.322070  0.047550  0.282430  1.0  -0.1419
  C  C1673  1  0.346300  0.068470  0.277410  1.0  0.1043
  C  C1674  1  0.295850  0.996950  0.269400  1.0  0.2246
  C  C1675  1  0.881280  0.714290  0.741030  1.0  0.1115
  C  C1676  1  0.904580  0.736230  0.744330  1.0  -0.1823
  C  C1677  1  0.928390  0.730180  0.765470  1.0  -0.131
  C  C1678  1  0.927930  0.702450  0.782430  1.0  -0.1429
  C  C1679  1  0.903700  0.681530  0.777410  1.0  0.1057
  C  C1680  1  0.954150  0.753050  0.769400  1.0  0.2256
  C  C1681  1  0.714290  0.241030  0.381280  1.0  0.1073
  C  C1682  1  0.736230  0.244330  0.404580  1.0  -0.1874
  C  C1683  1  0.730180  0.265470  0.428390  1.0  -0.1308
  C  C1684  1  0.702450  0.282430  0.427930  1.0  -0.1455
  C  C1685  1  0.681530  0.277410  0.403700  1.0  0.1062
  C  C1686  1  0.753050  0.269400  0.454150  1.0  0.2237
  C  C1687  1  0.035710  0.741030  0.868720  1.0  0.1072
  C  C1688  1  0.013770  0.744330  0.845420  1.0  -0.1877
  C  C1689  1  0.019820  0.765470  0.821610  1.0  -0.1321
  C  C1690  1  0.047550  0.782430  0.822070  1.0  -0.1458
  C  C1691  1  0.068470  0.777410  0.846300  1.0  0.1051
  C  C1692  1  0.996950  0.769400  0.795850  1.0  0.2271
  C  C1693  1  0.535710  0.508970  0.881280  1.0  0.108
  C  C1694  1  0.513770  0.505670  0.904580  1.0  -0.1865
  C  C1695  1  0.519820  0.484530  0.928390  1.0  -0.1326
  C  C1696  1  0.547550  0.467570  0.927930  1.0  -0.146
  C  C1697  1  0.568470  0.472590  0.903700  1.0  0.1042
  C  C1698  1  0.496950  0.480600  0.954150  1.0  0.2235
  C  C1699  1  0.214290  0.008970  0.368720  1.0  0.1073
  C  C1700  1  0.236230  0.005670  0.345420  1.0  -0.1866
  C  C1701  1  0.230180  0.984530  0.321610  1.0  -0.1298
  C  C1702  1  0.202450  0.967570  0.322070  1.0  -0.1466
  C  C1703  1  0.181530  0.972590  0.346300  1.0  0.1053
  C  C1704  1  0.253050  0.980600  0.295850  1.0  0.227
  C  C1705  1  0.741030  0.368720  0.535710  1.0  0.1114
  C  C1706  1  0.744330  0.345420  0.513770  1.0  -0.1852
  C  C1707  1  0.765470  0.321610  0.519820  1.0  -0.13
  C  C1708  1  0.782430  0.322070  0.547550  1.0  -0.1471
  C  C1709  1  0.777410  0.346300  0.568470  1.0  0.1052
  C  C1710  1  0.769400  0.295850  0.496950  1.0  0.2225
  C  C1711  1  0.241030  0.881280  0.214290  1.0  0.1116
  C  C1712  1  0.244330  0.904580  0.236230  1.0  -0.1848
  C  C1713  1  0.265470  0.928390  0.230180  1.0  -0.1325
  C  C1714  1  0.282430  0.927930  0.202450  1.0  -0.1468
  C  C1715  1  0.277410  0.903700  0.181530  1.0  0.1045
  C  C1716  1  0.269400  0.954150  0.253050  1.0  0.2252
  C  C1717  1  0.008970  0.868720  0.714290  1.0  0.1105
  C  C1718  1  0.005670  0.845420  0.736230  1.0  -0.1844
  C  C1719  1  0.984530  0.821610  0.730180  1.0  -0.1307
  C  C1720  1  0.967570  0.822070  0.702450  1.0  -0.1486
  C  C1721  1  0.972590  0.846300  0.681530  1.0  0.1055
  C  C1722  1  0.980600  0.795850  0.753050  1.0  0.2253
  C  C1723  1  0.508970  0.381280  0.035710  1.0  0.1098
  C  C1724  1  0.505670  0.404580  0.013770  1.0  -0.1833
  C  C1725  1  0.484530  0.428390  0.019820  1.0  -0.1325
  C  C1726  1  0.467570  0.427930  0.047550  1.0  -0.1478
  C  C1727  1  0.472590  0.403700  0.068470  1.0  0.1045
  C  C1728  1  0.480600  0.454150  0.996950  1.0  0.2245
  C  C1729  1  0.464290  0.618720  0.491030  1.0  0.1098
  C  C1730  1  0.486230  0.595420  0.494330  1.0  -0.1863
  C  C1731  1  0.480180  0.571610  0.515470  1.0  -0.1278
  C  C1732  1  0.452450  0.572070  0.532430  1.0  -0.1508
  C  C1733  1  0.431530  0.596300  0.527410  1.0  0.1064
  C  C1734  1  0.503050  0.545850  0.519400  1.0  0.2238
  C  C1735  1  0.785710  0.131280  0.991030  1.0  0.1093
  C  C1736  1  0.763770  0.154580  0.994330  1.0  -0.1852
  C  C1737  1  0.769820  0.178390  0.015470  1.0  -0.1312
  C  C1738  1  0.797550  0.177930  0.032430  1.0  -0.1494
  C  C1739  1  0.818470  0.153700  0.027410  1.0  0.1058
  C  C1740  1  0.746950  0.204150  0.019400  1.0  0.2249
  C  C1741  1  0.285710  0.118720  0.758970  1.0  0.1082
  C  C1742  1  0.263770  0.095420  0.755670  1.0  -0.1856
  C  C1743  1  0.269820  0.071610  0.734530  1.0  -0.1307
  C  C1744  1  0.297550  0.072070  0.717570  1.0  -0.1501
  C  C1745  1  0.318470  0.096300  0.722590  1.0  0.1056
  C  C1746  1  0.246950  0.045850  0.730600  1.0  0.2241
  C  C1747  1  0.964290  0.631280  0.258970  1.0  0.1095
  C  C1748  1  0.986230  0.654580  0.255670  1.0  -0.1858
  C  C1749  1  0.980180  0.678390  0.234530  1.0  -0.1306
  C  C1750  1  0.952450  0.677930  0.217570  1.0  -0.1481
  C  C1751  1  0.931530  0.653700  0.222590  1.0  0.1049
  C  C1752  1  0.003050  0.704150  0.230600  1.0  0.2222
  C  C1753  1  0.491030  0.464290  0.618720  1.0  0.1077
  C  C1754  1  0.494330  0.486230  0.595420  1.0  -0.1859
  C  C1755  1  0.515470  0.480180  0.571610  1.0  -0.1312
  C  C1756  1  0.532430  0.452450  0.572070  1.0  -0.1428
  C  C1757  1  0.527410  0.431530  0.596300  1.0  0.1029
  C  C1758  1  0.519400  0.503050  0.545850  1.0  0.2263
  C  C1759  1  0.991030  0.785710  0.131280  1.0  0.1082
  C  C1760  1  0.994330  0.763770  0.154580  1.0  -0.1873
  C  C1761  1  0.015470  0.769820  0.178390  1.0  -0.1322
  C  C1762  1  0.032430  0.797550  0.177930  1.0  -0.1416
  C  C1763  1  0.027410  0.818470  0.153700  1.0  0.1035
  C  C1764  1  0.019400  0.746950  0.204150  1.0  0.2218
  C  C1765  1  0.758970  0.285710  0.118720  1.0  0.1076
  C  C1766  1  0.755670  0.263770  0.095420  1.0  -0.187
  C  C1767  1  0.734530  0.269820  0.071610  1.0  -0.1326
  C  C1768  1  0.717570  0.297550  0.072070  1.0  -0.1444
  C  C1769  1  0.722590  0.318470  0.096300  1.0  0.1026
  C  C1770  1  0.730600  0.246950  0.045850  1.0  0.2272
  C  C1771  1  0.258970  0.964290  0.631280  1.0  0.1071
  C  C1772  1  0.255670  0.986230  0.654580  1.0  -0.1856
  C  C1773  1  0.234530  0.980180  0.678390  1.0  -0.1318
  C  C1774  1  0.217570  0.952450  0.677930  1.0  -0.1425
  C  C1775  1  0.222590  0.931530  0.653700  1.0  0.1035
  C  C1776  1  0.230600  0.003050  0.704150  1.0  0.2252
  C  C1777  1  0.618720  0.491030  0.464290  1.0  0.1109
  C  C1778  1  0.595420  0.494330  0.486230  1.0  -0.186
  C  C1779  1  0.571610  0.515470  0.480180  1.0  -0.1331
  C  C1780  1  0.572070  0.532430  0.452450  1.0  -0.1423
  C  C1781  1  0.596300  0.527410  0.431530  1.0  0.1061
  C  C1782  1  0.545850  0.519400  0.503050  1.0  0.2246
  C  C1783  1  0.131280  0.991030  0.785710  1.0  0.1122
  C  C1784  1  0.154580  0.994330  0.763770  1.0  -0.183
  C  C1785  1  0.178390  0.015470  0.769820  1.0  -0.1325
  C  C1786  1  0.177930  0.032430  0.797550  1.0  -0.1438
  C  C1787  1  0.153700  0.027410  0.818470  1.0  0.1064
  C  C1788  1  0.204150  0.019400  0.746950  1.0  0.225
  C  C1789  1  0.118720  0.758970  0.285710  1.0  0.1117
  C  C1790  1  0.095420  0.755670  0.263770  1.0  -0.1847
  C  C1791  1  0.071610  0.734530  0.269820  1.0  -0.1322
  C  C1792  1  0.072070  0.717570  0.297550  1.0  -0.1421
  C  C1793  1  0.096300  0.722590  0.318470  1.0  0.1056
  C  C1794  1  0.045850  0.730600  0.246950  1.0  0.2223
  C  C1795  1  0.631280  0.258970  0.964290  1.0  0.1127
  C  C1796  1  0.654580  0.255670  0.986230  1.0  -0.1835
  C  C1797  1  0.678390  0.234530  0.980180  1.0  -0.1329
  C  C1798  1  0.677930  0.217570  0.952450  1.0  -0.1453
  C  C1799  1  0.653700  0.222590  0.931530  1.0  0.1064
  C  C1800  1  0.704150  0.230600  0.003050  1.0  0.226
  C  C1801  1  0.368720  0.714290  0.508970  1.0  0.1103
  C  C1802  1  0.345420  0.736230  0.505670  1.0  -0.1844
  C  C1803  1  0.321610  0.730180  0.484530  1.0  -0.131
  C  C1804  1  0.322070  0.702450  0.467570  1.0  -0.1409
  C  C1805  1  0.346300  0.681530  0.472590  1.0  0.1042
  C  C1806  1  0.295850  0.753050  0.480600  1.0  0.2231
  C  C1807  1  0.881280  0.035710  0.008970  1.0  0.1117
  C  C1808  1  0.904580  0.013770  0.005670  1.0  -0.1849
  C  C1809  1  0.928390  0.019820  0.984530  1.0  -0.132
  C  C1810  1  0.927930  0.047550  0.967570  1.0  -0.1424
  C  C1811  1  0.903700  0.068470  0.972590  1.0  0.1058
  C  C1812  1  0.954150  0.996950  0.980600  1.0  0.2244
  C  C1813  1  0.868720  0.535710  0.241030  1.0  0.1096
  C  C1814  1  0.845420  0.513770  0.244330  1.0  -0.1871
  C  C1815  1  0.821610  0.519820  0.265470  1.0  -0.1308
  C  C1816  1  0.822070  0.547550  0.282430  1.0  -0.1419
  C  C1817  1  0.846300  0.568470  0.277410  1.0  0.1043
  C  C1818  1  0.795850  0.496950  0.269400  1.0  0.2246
  C  C1819  1  0.381280  0.214290  0.741030  1.0  0.1115
  C  C1820  1  0.404580  0.236230  0.744330  1.0  -0.1823
  C  C1821  1  0.428390  0.230180  0.765470  1.0  -0.131
  C  C1822  1  0.427930  0.202450  0.782430  1.0  -0.1429
  C  C1823  1  0.403700  0.181530  0.777410  1.0  0.1057
  C  C1824  1  0.454150  0.253050  0.769400  1.0  0.2256
  C  C1825  1  0.214290  0.741030  0.381280  1.0  0.1073
  C  C1826  1  0.236230  0.744330  0.404580  1.0  -0.1874
  C  C1827  1  0.230180  0.765470  0.428390  1.0  -0.1308
  C  C1828  1  0.202450  0.782430  0.427930  1.0  -0.1455
  C  C1829  1  0.181530  0.777410  0.403700  1.0  0.1062
  C  C1830  1  0.253050  0.769400  0.454150  1.0  0.2237
  C  C1831  1  0.535710  0.241030  0.868720  1.0  0.1072
  C  C1832  1  0.513770  0.244330  0.845420  1.0  -0.1877
  C  C1833  1  0.519820  0.265470  0.821610  1.0  -0.1321
  C  C1834  1  0.547550  0.282430  0.822070  1.0  -0.1458
  C  C1835  1  0.568470  0.277410  0.846300  1.0  0.1051
  C  C1836  1  0.496950  0.269400  0.795850  1.0  0.2271
  C  C1837  1  0.035710  0.008970  0.881280  1.0  0.108
  C  C1838  1  0.013770  0.005670  0.904580  1.0  -0.1865
  C  C1839  1  0.019820  0.984530  0.928390  1.0  -0.1326
  C  C1840  1  0.047550  0.967570  0.927930  1.0  -0.146
  C  C1841  1  0.068470  0.972590  0.903700  1.0  0.1042
  C  C1842  1  0.996950  0.980600  0.954150  1.0  0.2235
  C  C1843  1  0.714290  0.508970  0.368720  1.0  0.1073
  C  C1844  1  0.736230  0.505670  0.345420  1.0  -0.1866
  C  C1845  1  0.730180  0.484530  0.321610  1.0  -0.1298
  C  C1846  1  0.702450  0.467570  0.322070  1.0  -0.1466
  C  C1847  1  0.681530  0.472590  0.346300  1.0  0.1053
  C  C1848  1  0.753050  0.480600  0.295850  1.0  0.227
  C  C1849  1  0.241030  0.868720  0.535710  1.0  0.1114
  C  C1850  1  0.244330  0.845420  0.513770  1.0  -0.1852
  C  C1851  1  0.265470  0.821610  0.519820  1.0  -0.13
  C  C1852  1  0.282430  0.822070  0.547550  1.0  -0.1471
  C  C1853  1  0.277410  0.846300  0.568470  1.0  0.1052
  C  C1854  1  0.269400  0.795850  0.496950  1.0  0.2225
  C  C1855  1  0.741030  0.381280  0.214290  1.0  0.1116
  C  C1856  1  0.744330  0.404580  0.236230  1.0  -0.1848
  C  C1857  1  0.765470  0.428390  0.230180  1.0  -0.1325
  C  C1858  1  0.782430  0.427930  0.202450  1.0  -0.1468
  C  C1859  1  0.777410  0.403700  0.181530  1.0  0.1045
  C  C1860  1  0.769400  0.454150  0.253050  1.0  0.2252
  C  C1861  1  0.508970  0.368720  0.714290  1.0  0.1105
  C  C1862  1  0.505670  0.345420  0.736230  1.0  -0.1844
  C  C1863  1  0.484530  0.321610  0.730180  1.0  -0.1307
  C  C1864  1  0.467570  0.322070  0.702450  1.0  -0.1486
  C  C1865  1  0.472590  0.346300  0.681530  1.0  0.1055
  C  C1866  1  0.480600  0.295850  0.753050  1.0  0.2253
  C  C1867  1  0.008970  0.881280  0.035710  1.0  0.1098
  C  C1868  1  0.005670  0.904580  0.013770  1.0  -0.1833
  C  C1869  1  0.984530  0.928390  0.019820  1.0  -0.1325
  C  C1870  1  0.967570  0.927930  0.047550  1.0  -0.1478
  C  C1871  1  0.972590  0.903700  0.068470  1.0  0.1045
  C  C1872  1  0.980600  0.954150  0.996950  1.0  0.2245
  C  C1873  1  0.464290  0.118720  0.991030  1.0  0.1098
  C  C1874  1  0.486230  0.095420  0.994330  1.0  -0.1863
  C  C1875  1  0.480180  0.071610  0.015470  1.0  -0.1278
  C  C1876  1  0.452450  0.072070  0.032430  1.0  -0.1508
  C  C1877  1  0.431530  0.096300  0.027410  1.0  0.1064
  C  C1878  1  0.503050  0.045850  0.019400  1.0  0.2238
  C  C1879  1  0.785710  0.631280  0.491030  1.0  0.1093
  C  C1880  1  0.763770  0.654580  0.494330  1.0  -0.1852
  C  C1881  1  0.769820  0.678390  0.515470  1.0  -0.1312
  C  C1882  1  0.797550  0.677930  0.532430  1.0  -0.1494
  C  C1883  1  0.818470  0.653700  0.527410  1.0  0.1058
  C  C1884  1  0.746950  0.704150  0.519400  1.0  0.2249
  C  C1885  1  0.285710  0.618720  0.258970  1.0  0.1082
  C  C1886  1  0.263770  0.595420  0.255670  1.0  -0.1856
  C  C1887  1  0.269820  0.571610  0.234530  1.0  -0.1307
  C  C1888  1  0.297550  0.572070  0.217570  1.0  -0.1501
  C  C1889  1  0.318470  0.596300  0.222590  1.0  0.1056
  C  C1890  1  0.246950  0.545850  0.230600  1.0  0.2241
  C  C1891  1  0.964290  0.131280  0.758970  1.0  0.1095
  C  C1892  1  0.986230  0.154580  0.755670  1.0  -0.1858
  C  C1893  1  0.980180  0.178390  0.734530  1.0  -0.1306
  C  C1894  1  0.952450  0.177930  0.717570  1.0  -0.1481
  C  C1895  1  0.931530  0.153700  0.722590  1.0  0.1049
  C  C1896  1  0.003050  0.204150  0.730600  1.0  0.2222
  C  C1897  1  0.491030  0.964290  0.118720  1.0  0.1077
  C  C1898  1  0.494330  0.986230  0.095420  1.0  -0.1859
  C  C1899  1  0.515470  0.980180  0.071610  1.0  -0.1312
  C  C1900  1  0.532430  0.952450  0.072070  1.0  -0.1428
  C  C1901  1  0.527410  0.931530  0.096300  1.0  0.1029
  C  C1902  1  0.519400  0.003050  0.045850  1.0  0.2263
  C  C1903  1  0.991030  0.285710  0.631280  1.0  0.1082
  C  C1904  1  0.994330  0.263770  0.654580  1.0  -0.1873
  C  C1905  1  0.015470  0.269820  0.678390  1.0  -0.1322
  C  C1906  1  0.032430  0.297550  0.677930  1.0  -0.1416
  C  C1907  1  0.027410  0.318470  0.653700  1.0  0.1035
  C  C1908  1  0.019400  0.246950  0.704150  1.0  0.2218
  C  C1909  1  0.758970  0.785710  0.618720  1.0  0.1076
  C  C1910  1  0.755670  0.763770  0.595420  1.0  -0.187
  C  C1911  1  0.734530  0.769820  0.571610  1.0  -0.1326
  C  C1912  1  0.717570  0.797550  0.572070  1.0  -0.1444
  C  C1913  1  0.722590  0.818470  0.596300  1.0  0.1026
  C  C1914  1  0.730600  0.746950  0.545850  1.0  0.2272
  C  C1915  1  0.258970  0.464290  0.131280  1.0  0.1071
  C  C1916  1  0.255670  0.486230  0.154580  1.0  -0.1856
  C  C1917  1  0.234530  0.480180  0.178390  1.0  -0.1318
  C  C1918  1  0.217570  0.452450  0.177930  1.0  -0.1425
  C  C1919  1  0.222590  0.431530  0.153700  1.0  0.1035
  C  C1920  1  0.230600  0.503050  0.204150  1.0  0.2252
  C  C1921  1  0.618720  0.991030  0.964290  1.0  0.1109
  C  C1922  1  0.595420  0.994330  0.986230  1.0  -0.186
  C  C1923  1  0.571610  0.015470  0.980180  1.0  -0.1331
  C  C1924  1  0.572070  0.032430  0.952450  1.0  -0.1423
  C  C1925  1  0.596300  0.027410  0.931530  1.0  0.1061
  C  C1926  1  0.545850  0.019400  0.003050  1.0  0.2246
  C  C1927  1  0.131280  0.491030  0.285710  1.0  0.1122
  C  C1928  1  0.154580  0.494330  0.263770  1.0  -0.183
  C  C1929  1  0.178390  0.515470  0.269820  1.0  -0.1325
  C  C1930  1  0.177930  0.532430  0.297550  1.0  -0.1438
  C  C1931  1  0.153700  0.527410  0.318470  1.0  0.1064
  C  C1932  1  0.204150  0.519400  0.246950  1.0  0.225
  C  C1933  1  0.118720  0.258970  0.785710  1.0  0.1117
  C  C1934  1  0.095420  0.255670  0.763770  1.0  -0.1847
  C  C1935  1  0.071610  0.234530  0.769820  1.0  -0.1322
  C  C1936  1  0.072070  0.217570  0.797550  1.0  -0.1421
  C  C1937  1  0.096300  0.222590  0.818470  1.0  0.1056
  C  C1938  1  0.045850  0.230600  0.746950  1.0  0.2223
  C  C1939  1  0.631280  0.758970  0.464290  1.0  0.1127
  C  C1940  1  0.654580  0.755670  0.486230  1.0  -0.1835
  C  C1941  1  0.678390  0.734530  0.480180  1.0  -0.1329
  C  C1942  1  0.677930  0.717570  0.452450  1.0  -0.1453
  C  C1943  1  0.653700  0.722590  0.431530  1.0  0.1064
  C  C1944  1  0.704150  0.730600  0.503050  1.0  0.226
  C  C1945  1  0.368720  0.214290  0.008970  1.0  0.1103
  C  C1946  1  0.345420  0.236230  0.005670  1.0  -0.1844
  C  C1947  1  0.321610  0.230180  0.984530  1.0  -0.131
  C  C1948  1  0.322070  0.202450  0.967570  1.0  -0.1409
  C  C1949  1  0.346300  0.181530  0.972590  1.0  0.1042
  C  C1950  1  0.295850  0.253050  0.980600  1.0  0.2231
  C  C1951  1  0.881280  0.535710  0.508970  1.0  0.1117
  C  C1952  1  0.904580  0.513770  0.505670  1.0  -0.1849
  C  C1953  1  0.928390  0.519820  0.484530  1.0  -0.132
  C  C1954  1  0.927930  0.547550  0.467570  1.0  -0.1424
  C  C1955  1  0.903700  0.568470  0.472590  1.0  0.1058
  C  C1956  1  0.954150  0.496950  0.480600  1.0  0.2244
  C  C1957  1  0.868720  0.035710  0.741030  1.0  0.1096
  C  C1958  1  0.845420  0.013770  0.744330  1.0  -0.1871
  C  C1959  1  0.821610  0.019820  0.765470  1.0  -0.1308
  C  C1960  1  0.822070  0.047550  0.782430  1.0  -0.1419
  C  C1961  1  0.846300  0.068470  0.777410  1.0  0.1043
  C  C1962  1  0.795850  0.996950  0.769400  1.0  0.2246
  C  C1963  1  0.381280  0.714290  0.241030  1.0  0.1115
  C  C1964  1  0.404580  0.736230  0.244330  1.0  -0.1823
  C  C1965  1  0.428390  0.730180  0.265470  1.0  -0.131
  C  C1966  1  0.427930  0.702450  0.282430  1.0  -0.1429
  C  C1967  1  0.403700  0.681530  0.277410  1.0  0.1057
  C  C1968  1  0.454150  0.753050  0.269400  1.0  0.2256
  C  C1969  1  0.214290  0.241030  0.881280  1.0  0.1073
  C  C1970  1  0.236230  0.244330  0.904580  1.0  -0.1874
  C  C1971  1  0.230180  0.265470  0.928390  1.0  -0.1308
  C  C1972  1  0.202450  0.282430  0.927930  1.0  -0.1455
  C  C1973  1  0.181530  0.277410  0.903700  1.0  0.1062
  C  C1974  1  0.253050  0.269400  0.954150  1.0  0.2237
  C  C1975  1  0.535710  0.741030  0.368720  1.0  0.1072
  C  C1976  1  0.513770  0.744330  0.345420  1.0  -0.1877
  C  C1977  1  0.519820  0.765470  0.321610  1.0  -0.1321
  C  C1978  1  0.547550  0.782430  0.322070  1.0  -0.1458
  C  C1979  1  0.568470  0.777410  0.346300  1.0  0.1051
  C  C1980  1  0.496950  0.769400  0.295850  1.0  0.2271
  C  C1981  1  0.035710  0.508970  0.381280  1.0  0.108
  C  C1982  1  0.013770  0.505670  0.404580  1.0  -0.1865
  C  C1983  1  0.019820  0.484530  0.428390  1.0  -0.1326
  C  C1984  1  0.047550  0.467570  0.427930  1.0  -0.146
  C  C1985  1  0.068470  0.472590  0.403700  1.0  0.1042
  C  C1986  1  0.996950  0.480600  0.454150  1.0  0.2235
  C  C1987  1  0.714290  0.008970  0.868720  1.0  0.1073
  C  C1988  1  0.736230  0.005670  0.845420  1.0  -0.1866
  C  C1989  1  0.730180  0.984530  0.821610  1.0  -0.1298
  C  C1990  1  0.702450  0.967570  0.822070  1.0  -0.1466
  C  C1991  1  0.681530  0.972590  0.846300  1.0  0.1053
  C  C1992  1  0.753050  0.980600  0.795850  1.0  0.227
  C  C1993  1  0.241030  0.368720  0.035710  1.0  0.1114
  C  C1994  1  0.244330  0.345420  0.013770  1.0  -0.1852
  C  C1995  1  0.265470  0.321610  0.019820  1.0  -0.13
  C  C1996  1  0.282430  0.322070  0.047550  1.0  -0.1471
  C  C1997  1  0.277410  0.346300  0.068470  1.0  0.1052
  C  C1998  1  0.269400  0.295850  0.996950  1.0  0.2225
  C  C1999  1  0.741030  0.881280  0.714290  1.0  0.1116
  C  C2000  1  0.744330  0.904580  0.736230  1.0  -0.1848
  C  C2001  1  0.765470  0.928390  0.730180  1.0  -0.1325
  C  C2002  1  0.782430  0.927930  0.702450  1.0  -0.1468
  C  C2003  1  0.777410  0.903700  0.681530  1.0  0.1045
  C  C2004  1  0.769400  0.954150  0.753050  1.0  0.2252
  C  C2005  1  0.508970  0.868720  0.214290  1.0  0.1105
  C  C2006  1  0.505670  0.845420  0.236230  1.0  -0.1844
  C  C2007  1  0.484530  0.821610  0.230180  1.0  -0.1307
  C  C2008  1  0.467570  0.822070  0.202450  1.0  -0.1486
  C  C2009  1  0.472590  0.846300  0.181530  1.0  0.1055
  C  C2010  1  0.480600  0.795850  0.253050  1.0  0.2253
  C  C2011  1  0.008970  0.381280  0.535710  1.0  0.1098
  C  C2012  1  0.005670  0.404580  0.513770  1.0  -0.1833
  C  C2013  1  0.984530  0.428390  0.519820  1.0  -0.1325
  C  C2014  1  0.967570  0.427930  0.547550  1.0  -0.1478
  C  C2015  1  0.972590  0.403700  0.568470  1.0  0.1045
  C  C2016  1  0.980600  0.454150  0.496950  1.0  0.2245
  N  N2017  1  0.062640  0.380490  0.992690  1.0  -0.312
  N  N2018  1  0.973710  0.456630  0.001350  1.0  -0.3839
  N  N2019  1  0.687360  0.869510  0.492690  1.0  -0.3143
  N  N2020  1  0.776290  0.793370  0.501350  1.0  -0.3842
  N  N2021  1  0.187360  0.880490  0.757310  1.0  -0.3145
  N  N2022  1  0.276290  0.956630  0.748650  1.0  -0.381
  N  N2023  1  0.562640  0.369510  0.257310  1.0  -0.3161
  N  N2024  1  0.473710  0.293370  0.248650  1.0  -0.3835
  N  N2025  1  0.992690  0.562640  0.880490  1.0  -0.3184
  N  N2026  1  0.001350  0.473710  0.956630  1.0  -0.3802
  N  N2027  1  0.492690  0.187360  0.369510  1.0  -0.3146
  N  N2028  1  0.501350  0.276290  0.293370  1.0  -0.3814
  N  N2029  1  0.757310  0.687360  0.380490  1.0  -0.316
  N  N2030  1  0.748650  0.776290  0.456630  1.0  -0.3843
  N  N2031  1  0.257310  0.062640  0.869510  1.0  -0.3145
  N  N2032  1  0.248650  0.973710  0.793370  1.0  -0.3824
  N  N2033  1  0.880490  0.492690  0.062640  1.0  -0.3151
  N  N2034  1  0.956630  0.501350  0.973710  1.0  -0.3816
  N  N2035  1  0.369510  0.992690  0.687360  1.0  -0.3186
  N  N2036  1  0.293370  0.001350  0.776290  1.0  -0.3825
  N  N2037  1  0.380490  0.257310  0.187360  1.0  -0.3195
  N  N2038  1  0.456630  0.248650  0.276290  1.0  -0.3822
  N  N2039  1  0.869510  0.757310  0.562640  1.0  -0.3157
  N  N2040  1  0.793370  0.748650  0.473710  1.0  -0.3831
  N  N2041  1  0.130490  0.312640  0.007310  1.0  -0.3172
  N  N2042  1  0.206630  0.223710  0.998650  1.0  -0.3836
  N  N2043  1  0.619510  0.937360  0.507310  1.0  -0.3163
  N  N2044  1  0.543370  0.026290  0.498650  1.0  -0.3849
  N  N2045  1  0.630490  0.437360  0.242690  1.0  -0.3182
  N  N2046  1  0.706630  0.526290  0.251350  1.0  -0.3853
  N  N2047  1  0.119510  0.812640  0.742690  1.0  -0.3185
  N  N2048  1  0.043370  0.723710  0.751350  1.0  -0.3851
  N  N2049  1  0.312640  0.242690  0.119510  1.0  -0.3157
  N  N2050  1  0.223710  0.251350  0.043370  1.0  -0.3803
  N  N2051  1  0.937360  0.742690  0.630490  1.0  -0.3154
  N  N2052  1  0.026290  0.751350  0.706630  1.0  -0.3793
  N  N2053  1  0.437360  0.007310  0.619510  1.0  -0.3144
  N  N2054  1  0.526290  0.998650  0.543370  1.0  -0.3809
  N  N2055  1  0.812640  0.507310  0.130490  1.0  -0.3189
  N  N2056  1  0.723710  0.498650  0.206630  1.0  -0.3824
  N  N2057  1  0.242690  0.130490  0.937360  1.0  -0.3154
  N  N2058  1  0.251350  0.206630  0.026290  1.0  -0.3828
  N  N2059  1  0.742690  0.619510  0.312640  1.0  -0.3139
  N  N2060  1  0.751350  0.543370  0.223710  1.0  -0.3842
  N  N2061  1  0.007310  0.630490  0.812640  1.0  -0.3123
  N  N2062  1  0.998650  0.706630  0.723710  1.0  -0.3839
  N  N2063  1  0.507310  0.119510  0.437360  1.0  -0.3177
  N  N2064  1  0.498650  0.043370  0.526290  1.0  -0.3834
  N  N2065  1  0.062640  0.880490  0.492690  1.0  -0.312
  N  N2066  1  0.973710  0.956630  0.501350  1.0  -0.3839
  N  N2067  1  0.687360  0.369510  0.992690  1.0  -0.3143
  N  N2068  1  0.776290  0.293370  0.001350  1.0  -0.3842
  N  N2069  1  0.187360  0.380490  0.257310  1.0  -0.3145
  N  N2070  1  0.276290  0.456630  0.248650  1.0  -0.381
  N  N2071  1  0.562640  0.869510  0.757310  1.0  -0.3161
  N  N2072  1  0.473710  0.793370  0.748650  1.0  -0.3835
  N  N2073  1  0.992690  0.062640  0.380490  1.0  -0.3184
  N  N2074  1  0.001350  0.973710  0.456630  1.0  -0.3802
  N  N2075  1  0.492690  0.687360  0.869510  1.0  -0.3146
  N  N2076  1  0.501350  0.776290  0.793370  1.0  -0.3814
  N  N2077  1  0.757310  0.187360  0.880490  1.0  -0.316
  N  N2078  1  0.748650  0.276290  0.956630  1.0  -0.3843
  N  N2079  1  0.257310  0.562640  0.369510  1.0  -0.3145
  N  N2080  1  0.248650  0.473710  0.293370  1.0  -0.3824
  N  N2081  1  0.880490  0.992690  0.562640  1.0  -0.3151
  N  N2082  1  0.956630  0.001350  0.473710  1.0  -0.3816
  N  N2083  1  0.369510  0.492690  0.187360  1.0  -0.3186
  N  N2084  1  0.293370  0.501350  0.276290  1.0  -0.3825
  N  N2085  1  0.380490  0.757310  0.687360  1.0  -0.3195
  N  N2086  1  0.456630  0.748650  0.776290  1.0  -0.3822
  N  N2087  1  0.869510  0.257310  0.062640  1.0  -0.3157
  N  N2088  1  0.793370  0.248650  0.973710  1.0  -0.3831
  N  N2089  1  0.130490  0.812640  0.507310  1.0  -0.3172
  N  N2090  1  0.206630  0.723710  0.498650  1.0  -0.3836
  N  N2091  1  0.619510  0.437360  0.007310  1.0  -0.3163
  N  N2092  1  0.543370  0.526290  0.998650  1.0  -0.3849
  N  N2093  1  0.630490  0.937360  0.742690  1.0  -0.3182
  N  N2094  1  0.706630  0.026290  0.751350  1.0  -0.3853
  N  N2095  1  0.119510  0.312640  0.242690  1.0  -0.3185
  N  N2096  1  0.043370  0.223710  0.251350  1.0  -0.3851
  N  N2097  1  0.312640  0.742690  0.619510  1.0  -0.3157
  N  N2098  1  0.223710  0.751350  0.543370  1.0  -0.3803
  N  N2099  1  0.937360  0.242690  0.130490  1.0  -0.3154
  N  N2100  1  0.026290  0.251350  0.206630  1.0  -0.3793
  N  N2101  1  0.437360  0.507310  0.119510  1.0  -0.3144
  N  N2102  1  0.526290  0.498650  0.043370  1.0  -0.3809
  N  N2103  1  0.812640  0.007310  0.630490  1.0  -0.3189
  N  N2104  1  0.723710  0.998650  0.706630  1.0  -0.3824
  N  N2105  1  0.242690  0.630490  0.437360  1.0  -0.3154
  N  N2106  1  0.251350  0.706630  0.526290  1.0  -0.3828
  N  N2107  1  0.742690  0.119510  0.812640  1.0  -0.3139
  N  N2108  1  0.751350  0.043370  0.723710  1.0  -0.3842
  N  N2109  1  0.007310  0.130490  0.312640  1.0  -0.3123
  N  N2110  1  0.998650  0.206630  0.223710  1.0  -0.3839
  N  N2111  1  0.507310  0.619510  0.937360  1.0  -0.3177
  N  N2112  1  0.498650  0.543370  0.026290  1.0  -0.3834
  N  N2113  1  0.562640  0.380490  0.492690  1.0  -0.312
  N  N2114  1  0.473710  0.456630  0.501350  1.0  -0.3839
  N  N2115  1  0.187360  0.869510  0.992690  1.0  -0.3143
  N  N2116  1  0.276290  0.793370  0.001350  1.0  -0.3842
  N  N2117  1  0.687360  0.880490  0.257310  1.0  -0.3145
  N  N2118  1  0.776290  0.956630  0.248650  1.0  -0.381
  N  N2119  1  0.062640  0.369510  0.757310  1.0  -0.3161
  N  N2120  1  0.973710  0.293370  0.748650  1.0  -0.3835
  N  N2121  1  0.492690  0.562640  0.380490  1.0  -0.3184
  N  N2122  1  0.501350  0.473710  0.456630  1.0  -0.3802
  N  N2123  1  0.992690  0.187360  0.869510  1.0  -0.3146
  N  N2124  1  0.001350  0.276290  0.793370  1.0  -0.3814
  N  N2125  1  0.257310  0.687360  0.880490  1.0  -0.316
  N  N2126  1  0.248650  0.776290  0.956630  1.0  -0.3843
  N  N2127  1  0.757310  0.062640  0.369510  1.0  -0.3145
  N  N2128  1  0.748650  0.973710  0.293370  1.0  -0.3824
  N  N2129  1  0.380490  0.492690  0.562640  1.0  -0.3151
  N  N2130  1  0.456630  0.501350  0.473710  1.0  -0.3816
  N  N2131  1  0.869510  0.992690  0.187360  1.0  -0.3186
  N  N2132  1  0.793370  0.001350  0.276290  1.0  -0.3825
  N  N2133  1  0.880490  0.257310  0.687360  1.0  -0.3195
  N  N2134  1  0.956630  0.248650  0.776290  1.0  -0.3822
  N  N2135  1  0.369510  0.757310  0.062640  1.0  -0.3157
  N  N2136  1  0.293370  0.748650  0.973710  1.0  -0.3831
  N  N2137  1  0.630490  0.312640  0.507310  1.0  -0.3172
  N  N2138  1  0.706630  0.223710  0.498650  1.0  -0.3836
  N  N2139  1  0.119510  0.937360  0.007310  1.0  -0.3163
  N  N2140  1  0.043370  0.026290  0.998650  1.0  -0.3849
  N  N2141  1  0.130490  0.437360  0.742690  1.0  -0.3182
  N  N2142  1  0.206630  0.526290  0.751350  1.0  -0.3853
  N  N2143  1  0.619510  0.812640  0.242690  1.0  -0.3185
  N  N2144  1  0.543370  0.723710  0.251350  1.0  -0.3851
  N  N2145  1  0.812640  0.242690  0.619510  1.0  -0.3157
  N  N2146  1  0.723710  0.251350  0.543370  1.0  -0.3803
  N  N2147  1  0.437360  0.742690  0.130490  1.0  -0.3154
  N  N2148  1  0.526290  0.751350  0.206630  1.0  -0.3793
  N  N2149  1  0.937360  0.007310  0.119510  1.0  -0.3144
  N  N2150  1  0.026290  0.998650  0.043370  1.0  -0.3809
  N  N2151  1  0.312640  0.507310  0.630490  1.0  -0.3189
  N  N2152  1  0.223710  0.498650  0.706630  1.0  -0.3824
  N  N2153  1  0.742690  0.130490  0.437360  1.0  -0.3154
  N  N2154  1  0.751350  0.206630  0.526290  1.0  -0.3828
  N  N2155  1  0.242690  0.619510  0.812640  1.0  -0.3139
  N  N2156  1  0.251350  0.543370  0.723710  1.0  -0.3842
  N  N2157  1  0.507310  0.630490  0.312640  1.0  -0.3123
  N  N2158  1  0.498650  0.706630  0.223710  1.0  -0.3839
  N  N2159  1  0.007310  0.119510  0.937360  1.0  -0.3177
  N  N2160  1  0.998650  0.043370  0.026290  1.0  -0.3834
  N  N2161  1  0.562640  0.880490  0.992690  1.0  -0.312
  N  N2162  1  0.473710  0.956630  0.001350  1.0  -0.3839
  N  N2163  1  0.187360  0.369510  0.492690  1.0  -0.3143
  N  N2164  1  0.276290  0.293370  0.501350  1.0  -0.3842
  N  N2165  1  0.687360  0.380490  0.757310  1.0  -0.3145
  N  N2166  1  0.776290  0.456630  0.748650  1.0  -0.381
  N  N2167  1  0.062640  0.869510  0.257310  1.0  -0.3161
  N  N2168  1  0.973710  0.793370  0.248650  1.0  -0.3835
  N  N2169  1  0.492690  0.062640  0.880490  1.0  -0.3184
  N  N2170  1  0.501350  0.973710  0.956630  1.0  -0.3802
  N  N2171  1  0.992690  0.687360  0.369510  1.0  -0.3146
  N  N2172  1  0.001350  0.776290  0.293370  1.0  -0.3814
  N  N2173  1  0.257310  0.187360  0.380490  1.0  -0.316
  N  N2174  1  0.248650  0.276290  0.456630  1.0  -0.3843
  N  N2175  1  0.757310  0.562640  0.869510  1.0  -0.3145
  N  N2176  1  0.748650  0.473710  0.793370  1.0  -0.3824
  N  N2177  1  0.380490  0.992690  0.062640  1.0  -0.3151
  N  N2178  1  0.456630  0.001350  0.973710  1.0  -0.3816
  N  N2179  1  0.869510  0.492690  0.687360  1.0  -0.3186
  N  N2180  1  0.793370  0.501350  0.776290  1.0  -0.3825
  N  N2181  1  0.880490  0.757310  0.187360  1.0  -0.3195
  N  N2182  1  0.956630  0.748650  0.276290  1.0  -0.3822
  N  N2183  1  0.369510  0.257310  0.562640  1.0  -0.3157
  N  N2184  1  0.293370  0.248650  0.473710  1.0  -0.3831
  N  N2185  1  0.630490  0.812640  0.007310  1.0  -0.3172
  N  N2186  1  0.706630  0.723710  0.998650  1.0  -0.3836
  N  N2187  1  0.119510  0.437360  0.507310  1.0  -0.3163
  N  N2188  1  0.043370  0.526290  0.498650  1.0  -0.3849
  N  N2189  1  0.130490  0.937360  0.242690  1.0  -0.3182
  N  N2190  1  0.206630  0.026290  0.251350  1.0  -0.3853
  N  N2191  1  0.619510  0.312640  0.742690  1.0  -0.3185
  N  N2192  1  0.543370  0.223710  0.751350  1.0  -0.3851
  N  N2193  1  0.812640  0.742690  0.119510  1.0  -0.3157
  N  N2194  1  0.723710  0.751350  0.043370  1.0  -0.3803
  N  N2195  1  0.437360  0.242690  0.630490  1.0  -0.3154
  N  N2196  1  0.526290  0.251350  0.706630  1.0  -0.3793
  N  N2197  1  0.937360  0.507310  0.619510  1.0  -0.3144
  N  N2198  1  0.026290  0.498650  0.543370  1.0  -0.3809
  N  N2199  1  0.312640  0.007310  0.130490  1.0  -0.3189
  N  N2200  1  0.223710  0.998650  0.206630  1.0  -0.3824
  N  N2201  1  0.742690  0.630490  0.937360  1.0  -0.3154
  N  N2202  1  0.751350  0.706630  0.026290  1.0  -0.3828
  N  N2203  1  0.242690  0.119510  0.312640  1.0  -0.3139
  N  N2204  1  0.251350  0.043370  0.223710  1.0  -0.3842
  N  N2205  1  0.507310  0.130490  0.812640  1.0  -0.3123
  N  N2206  1  0.498650  0.206630  0.723710  1.0  -0.3839
  N  N2207  1  0.007310  0.619510  0.437360  1.0  -0.3177
  N  N2208  1  0.998650  0.543370  0.526290  1.0  -0.3834
  N  N2209  1  0.937360  0.619510  0.007310  1.0  -0.3142
  N  N2210  1  0.026290  0.543370  0.998650  1.0  -0.3829
  N  N2211  1  0.312640  0.130490  0.507310  1.0  -0.312
  N  N2212  1  0.223710  0.206630  0.498650  1.0  -0.382
  N  N2213  1  0.812640  0.119510  0.242690  1.0  -0.3162
  N  N2214  1  0.723710  0.043370  0.251350  1.0  -0.3838
  N  N2215  1  0.437360  0.630490  0.742690  1.0  -0.3147
  N  N2216  1  0.526290  0.706630  0.751350  1.0  -0.3831
  N  N2217  1  0.007310  0.437360  0.119510  1.0  -0.3144
  N  N2218  1  0.998650  0.526290  0.043370  1.0  -0.3828
  N  N2219  1  0.507310  0.812640  0.630490  1.0  -0.3174
  N  N2220  1  0.498650  0.723710  0.706630  1.0  -0.3818
  N  N2221  1  0.242690  0.312640  0.619510  1.0  -0.3156
  N  N2222  1  0.251350  0.223710  0.543370  1.0  -0.381
  N  N2223  1  0.742690  0.937360  0.130490  1.0  -0.3161
  N  N2224  1  0.751350  0.026290  0.206630  1.0  -0.3837
  N  N2225  1  0.119510  0.507310  0.937360  1.0  -0.3195
  N  N2226  1  0.043370  0.498650  0.026290  1.0  -0.3832
  N  N2227  1  0.630490  0.007310  0.312640  1.0  -0.3148
  N  N2228  1  0.706630  0.998650  0.223710  1.0  -0.3831
  N  N2229  1  0.619510  0.742690  0.812640  1.0  -0.3156
  N  N2230  1  0.543370  0.751350  0.723710  1.0  -0.382
  N  N2231  1  0.130490  0.242690  0.437360  1.0  -0.3188
  N  N2232  1  0.206630  0.251350  0.526290  1.0  -0.3814
  N  N2233  1  0.869510  0.687360  0.992690  1.0  -0.3161
  N  N2234  1  0.793370  0.776290  0.001350  1.0  -0.3868
  N  N2235  1  0.380490  0.062640  0.492690  1.0  -0.3176
  N  N2236  1  0.456630  0.973710  0.501350  1.0  -0.3847
  N  N2237  1  0.369510  0.562640  0.757310  1.0  -0.3185
  N  N2238  1  0.293370  0.473710  0.748650  1.0  -0.3832
  N  N2239  1  0.880490  0.187360  0.257310  1.0  -0.318
  N  N2240  1  0.956630  0.276290  0.248650  1.0  -0.3846
  N  N2241  1  0.687360  0.757310  0.880490  1.0  -0.3178
  N  N2242  1  0.776290  0.748650  0.956630  1.0  -0.3811
  N  N2243  1  0.062640  0.257310  0.369510  1.0  -0.3155
  N  N2244  1  0.973710  0.248650  0.293370  1.0  -0.3813
  N  N2245  1  0.562640  0.992690  0.380490  1.0  -0.317
  N  N2246  1  0.473710  0.001350  0.456630  1.0  -0.3794
  N  N2247  1  0.187360  0.492690  0.869510  1.0  -0.315
  N  N2248  1  0.276290  0.501350  0.793370  1.0  -0.3805
  N  N2249  1  0.757310  0.869510  0.062640  1.0  -0.3137
  N  N2250  1  0.748650  0.793370  0.973710  1.0  -0.386
  N  N2251  1  0.257310  0.380490  0.687360  1.0  -0.3151
  N  N2252  1  0.248650  0.456630  0.776290  1.0  -0.3838
  N  N2253  1  0.992690  0.369510  0.187360  1.0  -0.3181
  N  N2254  1  0.001350  0.293370  0.276290  1.0  -0.3823
  N  N2255  1  0.492690  0.880490  0.562640  1.0  -0.3126
  N  N2256  1  0.501350  0.956630  0.473710  1.0  -0.3812
  N  N2257  1  0.937360  0.119510  0.507310  1.0  -0.3142
  N  N2258  1  0.026290  0.043370  0.498650  1.0  -0.3829
  N  N2259  1  0.312640  0.630490  0.007310  1.0  -0.312
  N  N2260  1  0.223710  0.706630  0.998650  1.0  -0.382
  N  N2261  1  0.812640  0.619510  0.742690  1.0  -0.3162
  N  N2262  1  0.723710  0.543370  0.751350  1.0  -0.3838
  N  N2263  1  0.437360  0.130490  0.242690  1.0  -0.3147
  N  N2264  1  0.526290  0.206630  0.251350  1.0  -0.3831
  N  N2265  1  0.007310  0.937360  0.619510  1.0  -0.3144
  N  N2266  1  0.998650  0.026290  0.543370  1.0  -0.3828
  N  N2267  1  0.507310  0.312640  0.130490  1.0  -0.3174
  N  N2268  1  0.498650  0.223710  0.206630  1.0  -0.3818
  N  N2269  1  0.242690  0.812640  0.119510  1.0  -0.3156
  N  N2270  1  0.251350  0.723710  0.043370  1.0  -0.381
  N  N2271  1  0.742690  0.437360  0.630490  1.0  -0.3161
  N  N2272  1  0.751350  0.526290  0.706630  1.0  -0.3837
  N  N2273  1  0.119510  0.007310  0.437360  1.0  -0.3195
  N  N2274  1  0.043370  0.998650  0.526290  1.0  -0.3832
  N  N2275  1  0.630490  0.507310  0.812640  1.0  -0.3148
  N  N2276  1  0.706630  0.498650  0.723710  1.0  -0.3831
  N  N2277  1  0.619510  0.242690  0.312640  1.0  -0.3156
  N  N2278  1  0.543370  0.251350  0.223710  1.0  -0.382
  N  N2279  1  0.130490  0.742690  0.937360  1.0  -0.3188
  N  N2280  1  0.206630  0.751350  0.026290  1.0  -0.3814
  N  N2281  1  0.869510  0.187360  0.492690  1.0  -0.3161
  N  N2282  1  0.793370  0.276290  0.501350  1.0  -0.3868
  N  N2283  1  0.380490  0.562640  0.992690  1.0  -0.3176
  N  N2284  1  0.456630  0.473710  0.001350  1.0  -0.3847
  N  N2285  1  0.369510  0.062640  0.257310  1.0  -0.3185
  N  N2286  1  0.293370  0.973710  0.248650  1.0  -0.3832
  N  N2287  1  0.880490  0.687360  0.757310  1.0  -0.318
  N  N2288  1  0.956630  0.776290  0.748650  1.0  -0.3846
  N  N2289  1  0.687360  0.257310  0.380490  1.0  -0.3178
  N  N2290  1  0.776290  0.248650  0.456630  1.0  -0.3811
  N  N2291  1  0.062640  0.757310  0.869510  1.0  -0.3155
  N  N2292  1  0.973710  0.748650  0.793370  1.0  -0.3813
  N  N2293  1  0.562640  0.492690  0.880490  1.0  -0.317
  N  N2294  1  0.473710  0.501350  0.956630  1.0  -0.3794
  N  N2295  1  0.187360  0.992690  0.369510  1.0  -0.315
  N  N2296  1  0.276290  0.001350  0.293370  1.0  -0.3805
  N  N2297  1  0.757310  0.369510  0.562640  1.0  -0.3137
  N  N2298  1  0.748650  0.293370  0.473710  1.0  -0.386
  N  N2299  1  0.257310  0.880490  0.187360  1.0  -0.3151
  N  N2300  1  0.248650  0.956630  0.276290  1.0  -0.3838
  N  N2301  1  0.992690  0.869510  0.687360  1.0  -0.3181
  N  N2302  1  0.001350  0.793370  0.776290  1.0  -0.3823
  N  N2303  1  0.492690  0.380490  0.062640  1.0  -0.3126
  N  N2304  1  0.501350  0.456630  0.973710  1.0  -0.3812
  N  N2305  1  0.437360  0.619510  0.507310  1.0  -0.3142
  N  N2306  1  0.526290  0.543370  0.498650  1.0  -0.3829
  N  N2307  1  0.812640  0.130490  0.007310  1.0  -0.312
  N  N2308  1  0.723710  0.206630  0.998650  1.0  -0.382
  N  N2309  1  0.312640  0.119510  0.742690  1.0  -0.3162
  N  N2310  1  0.223710  0.043370  0.751350  1.0  -0.3838
  N  N2311  1  0.937360  0.630490  0.242690  1.0  -0.3147
  N  N2312  1  0.026290  0.706630  0.251350  1.0  -0.3831
  N  N2313  1  0.507310  0.437360  0.619510  1.0  -0.3144
  N  N2314  1  0.498650  0.526290  0.543370  1.0  -0.3828
  N  N2315  1  0.007310  0.812640  0.130490  1.0  -0.3174
  N  N2316  1  0.998650  0.723710  0.206630  1.0  -0.3818
  N  N2317  1  0.742690  0.312640  0.119510  1.0  -0.3156
  N  N2318  1  0.751350  0.223710  0.043370  1.0  -0.381
  N  N2319  1  0.242690  0.937360  0.630490  1.0  -0.3161
  N  N2320  1  0.251350  0.026290  0.706630  1.0  -0.3837
  N  N2321  1  0.619510  0.507310  0.437360  1.0  -0.3195
  N  N2322  1  0.543370  0.498650  0.526290  1.0  -0.3832
  N  N2323  1  0.130490  0.007310  0.812640  1.0  -0.3148
  N  N2324  1  0.206630  0.998650  0.723710  1.0  -0.3831
  N  N2325  1  0.119510  0.742690  0.312640  1.0  -0.3156
  N  N2326  1  0.043370  0.751350  0.223710  1.0  -0.382
  N  N2327  1  0.630490  0.242690  0.937360  1.0  -0.3188
  N  N2328  1  0.706630  0.251350  0.026290  1.0  -0.3814
  N  N2329  1  0.369510  0.687360  0.492690  1.0  -0.3161
  N  N2330  1  0.293370  0.776290  0.501350  1.0  -0.3868
  N  N2331  1  0.880490  0.062640  0.992690  1.0  -0.3176
  N  N2332  1  0.956630  0.973710  0.001350  1.0  -0.3847
  N  N2333  1  0.869510  0.562640  0.257310  1.0  -0.3185
  N  N2334  1  0.793370  0.473710  0.248650  1.0  -0.3832
  N  N2335  1  0.380490  0.187360  0.757310  1.0  -0.318
  N  N2336  1  0.456630  0.276290  0.748650  1.0  -0.3846
  N  N2337  1  0.187360  0.757310  0.380490  1.0  -0.3178
  N  N2338  1  0.276290  0.748650  0.456630  1.0  -0.3811
  N  N2339  1  0.562640  0.257310  0.869510  1.0  -0.3155
  N  N2340  1  0.473710  0.248650  0.793370  1.0  -0.3813
  N  N2341  1  0.062640  0.992690  0.880490  1.0  -0.317
  N  N2342  1  0.973710  0.001350  0.956630  1.0  -0.3794
  N  N2343  1  0.687360  0.492690  0.369510  1.0  -0.315
  N  N2344  1  0.776290  0.501350  0.293370  1.0  -0.3805
  N  N2345  1  0.257310  0.869510  0.562640  1.0  -0.3137
  N  N2346  1  0.248650  0.793370  0.473710  1.0  -0.386
  N  N2347  1  0.757310  0.380490  0.187360  1.0  -0.3151
  N  N2348  1  0.748650  0.456630  0.276290  1.0  -0.3838
  N  N2349  1  0.492690  0.369510  0.687360  1.0  -0.3181
  N  N2350  1  0.501350  0.293370  0.776290  1.0  -0.3823
  N  N2351  1  0.992690  0.880490  0.062640  1.0  -0.3126
  N  N2352  1  0.001350  0.956630  0.973710  1.0  -0.3812
  N  N2353  1  0.437360  0.119510  0.007310  1.0  -0.3142
  N  N2354  1  0.526290  0.043370  0.998650  1.0  -0.3829
  N  N2355  1  0.812640  0.630490  0.507310  1.0  -0.312
  N  N2356  1  0.723710  0.706630  0.498650  1.0  -0.382
  N  N2357  1  0.312640  0.619510  0.242690  1.0  -0.3162
  N  N2358  1  0.223710  0.543370  0.251350  1.0  -0.3838
  N  N2359  1  0.937360  0.130490  0.742690  1.0  -0.3147
  N  N2360  1  0.026290  0.206630  0.751350  1.0  -0.3831
  N  N2361  1  0.507310  0.937360  0.119510  1.0  -0.3144
  N  N2362  1  0.498650  0.026290  0.043370  1.0  -0.3828
  N  N2363  1  0.007310  0.312640  0.630490  1.0  -0.3174
  N  N2364  1  0.998650  0.223710  0.706630  1.0  -0.3818
  N  N2365  1  0.742690  0.812640  0.619510  1.0  -0.3156
  N  N2366  1  0.751350  0.723710  0.543370  1.0  -0.381
  N  N2367  1  0.242690  0.437360  0.130490  1.0  -0.3161
  N  N2368  1  0.251350  0.526290  0.206630  1.0  -0.3837
  N  N2369  1  0.619510  0.007310  0.937360  1.0  -0.3195
  N  N2370  1  0.543370  0.998650  0.026290  1.0  -0.3832
  N  N2371  1  0.130490  0.507310  0.312640  1.0  -0.3148
  N  N2372  1  0.206630  0.498650  0.223710  1.0  -0.3831
  N  N2373  1  0.119510  0.242690  0.812640  1.0  -0.3156
  N  N2374  1  0.043370  0.251350  0.723710  1.0  -0.382
  N  N2375  1  0.630490  0.742690  0.437360  1.0  -0.3188
  N  N2376  1  0.706630  0.751350  0.526290  1.0  -0.3814
  N  N2377  1  0.369510  0.187360  0.992690  1.0  -0.3161
  N  N2378  1  0.293370  0.276290  0.001350  1.0  -0.3868
  N  N2379  1  0.880490  0.562640  0.492690  1.0  -0.3176
  N  N2380  1  0.956630  0.473710  0.501350  1.0  -0.3847
  N  N2381  1  0.869510  0.062640  0.757310  1.0  -0.3185
  N  N2382  1  0.793370  0.973710  0.748650  1.0  -0.3832
  N  N2383  1  0.380490  0.687360  0.257310  1.0  -0.318
  N  N2384  1  0.456630  0.776290  0.248650  1.0  -0.3846
  N  N2385  1  0.187360  0.257310  0.880490  1.0  -0.3178
  N  N2386  1  0.276290  0.248650  0.956630  1.0  -0.3811
  N  N2387  1  0.562640  0.757310  0.369510  1.0  -0.3155
  N  N2388  1  0.473710  0.748650  0.293370  1.0  -0.3813
  N  N2389  1  0.062640  0.492690  0.380490  1.0  -0.317
  N  N2390  1  0.973710  0.501350  0.456630  1.0  -0.3794
  N  N2391  1  0.687360  0.992690  0.869510  1.0  -0.315
  N  N2392  1  0.776290  0.001350  0.793370  1.0  -0.3805
  N  N2393  1  0.257310  0.369510  0.062640  1.0  -0.3137
  N  N2394  1  0.248650  0.293370  0.973710  1.0  -0.386
  N  N2395  1  0.757310  0.880490  0.687360  1.0  -0.3151
  N  N2396  1  0.748650  0.956630  0.776290  1.0  -0.3838
  N  N2397  1  0.492690  0.869510  0.187360  1.0  -0.3181
  N  N2398  1  0.501350  0.793370  0.276290  1.0  -0.3823
  N  N2399  1  0.992690  0.380490  0.562640  1.0  -0.3126
  N  N2400  1  0.001350  0.456630  0.473710  1.0  -0.3812
