# generated using pymatgen
data_AgP2H37C39N2
_symmetry_space_group_name_H-M   'P 1'
_cell_length_a   31.52010000
_cell_length_b   39.63650000
_cell_length_c   13.99570000
_cell_angle_alpha   90.00000000
_cell_angle_beta   90.00000000
_cell_angle_gamma   90.00000000
_symmetry_Int_Tables_number   1
_chemical_formula_structural   AgP2H37C39N2
_chemical_formula_sum   'Ag16 P32 H592 C624 N32'
_cell_volume   17485.47802139
_cell_formula_units_Z   16
loop_
 _symmetry_equiv_pos_site_id
 _symmetry_equiv_pos_as_xyz
  1  'x, y, z'
loop_
 _atom_site_type_symbol
 _atom_site_label
 _atom_site_symmetry_multiplicity
 _atom_site_fract_x
 _atom_site_fract_y
 _atom_site_fract_z
 _atom_site_occupancy
 _atom_site_charge
  Ag  Ag1  1  0.274810  0.000060  0.762110  1.0  0.3106
  Ag  Ag2  1  0.274810  0.500060  0.262110  1.0  0.3106
  Ag  Ag3  1  0.774810  0.000060  0.262110  1.0  0.3106
  Ag  Ag4  1  0.774810  0.500060  0.762110  1.0  0.3106
  Ag  Ag5  1  0.725190  0.999940  0.762110  1.0  0.3116
  Ag  Ag6  1  0.725190  0.499940  0.262110  1.0  0.3116
  Ag  Ag7  1  0.225190  0.999940  0.262110  1.0  0.3116
  Ag  Ag8  1  0.225190  0.499940  0.762110  1.0  0.3116
  Ag  Ag9  1  0.524810  0.249940  0.012110  1.0  0.3106
  Ag  Ag10  1  0.524810  0.749940  0.512110  1.0  0.3106
  Ag  Ag11  1  0.024810  0.249940  0.512110  1.0  0.3106
  Ag  Ag12  1  0.024810  0.749940  0.012110  1.0  0.3106
  Ag  Ag13  1  0.975190  0.250060  0.012110  1.0  0.3116
  Ag  Ag14  1  0.975190  0.750050  0.512110  1.0  0.3118
  Ag  Ag15  1  0.475190  0.250060  0.512110  1.0  0.3116
  Ag  Ag16  1  0.475190  0.750050  0.012110  1.0  0.3118
  P  P17  1  0.311580  0.038640  0.653900  1.0  0.6219
  P  P18  1  0.188340  0.038080  0.371830  1.0  0.6482
  P  P19  1  0.311580  0.538640  0.153900  1.0  0.6219
  P  P20  1  0.188340  0.538080  0.871830  1.0  0.6482
  P  P21  1  0.811580  0.038640  0.153900  1.0  0.6219
  P  P22  1  0.688340  0.038080  0.871830  1.0  0.6482
  P  P23  1  0.811580  0.538640  0.653900  1.0  0.6219
  P  P24  1  0.688340  0.538080  0.371830  1.0  0.6482
  P  P25  1  0.688420  0.961360  0.653900  1.0  0.6506
  P  P26  1  0.811660  0.961920  0.371830  1.0  0.6694
  P  P27  1  0.688420  0.461360  0.153900  1.0  0.6506
  P  P28  1  0.811660  0.461920  0.871830  1.0  0.6694
  P  P29  1  0.188420  0.961360  0.153900  1.0  0.6506
  P  P30  1  0.311660  0.961920  0.871830  1.0  0.6694
  P  P31  1  0.188420  0.461360  0.653900  1.0  0.6506
  P  P32  1  0.311660  0.461920  0.371830  1.0  0.6694
  P  P33  1  0.561580  0.211360  0.903900  1.0  0.6504
  P  P34  1  0.438340  0.211920  0.621830  1.0  0.6693
  P  P35  1  0.561580  0.711360  0.403900  1.0  0.6504
  P  P36  1  0.438340  0.711920  0.121830  1.0  0.6693
  P  P37  1  0.061580  0.211360  0.403900  1.0  0.6504
  P  P38  1  0.938340  0.211920  0.121830  1.0  0.6693
  P  P39  1  0.061580  0.711360  0.903900  1.0  0.6504
  P  P40  1  0.938340  0.711920  0.621830  1.0  0.6693
  P  P41  1  0.938420  0.288640  0.903900  1.0  0.622
  P  P42  1  0.061660  0.288080  0.621830  1.0  0.6482
  P  P43  1  0.938420  0.788640  0.403900  1.0  0.6219
  P  P44  1  0.061660  0.788080  0.121830  1.0  0.6482
  P  P45  1  0.438420  0.288640  0.403900  1.0  0.622
  P  P46  1  0.561660  0.288080  0.121830  1.0  0.6482
  P  P47  1  0.438420  0.788640  0.903900  1.0  0.6219
  P  P48  1  0.561660  0.788080  0.621830  1.0  0.6482
  H  H49  1  0.239000  0.079800  0.407300  1.0  0.1375
  H  H50  1  0.203900  0.078400  0.490000  1.0  0.1064
  H  H51  1  0.269500  0.031000  0.463200  1.0  0.0884
  H  H52  1  0.233200  0.027200  0.542200  1.0  0.086
  H  H53  1  0.259400  0.078500  0.621100  1.0  0.1185
  H  H54  1  0.296600  0.080900  0.543600  1.0  0.1151
  H  H55  1  0.179600  0.971100  0.816400  1.0  0.0964
  H  H56  1  0.132900  0.927100  0.772600  1.0  0.078
  H  H57  1  0.147800  0.891400  0.647400  1.0  0.1695
  H  H58  1  0.213500  0.898700  0.561300  1.0  0.0995
  H  H59  1  0.256900  0.944100  0.597600  1.0  0.0931
  H  H60  1  0.072800  0.779500  0.476700  1.0  0.0393
  H  H61  1  0.116900  0.824800  0.513000  1.0  0.0938
  H  H62  1  0.033000  0.850900  0.714500  1.0  0.1018
  H  H63  1  0.996500  0.805700  0.673100  1.0  0.0652
  H  H64  1  0.093500  0.889500  0.692500  1.0  0.0963
  H  H65  1  0.146200  0.857700  0.569500  1.0  0.0998
  H  H66  1  0.206600  0.094600  0.250700  1.0  0.0829
  H  H67  1  0.167000  0.131100  0.154200  1.0  0.0894
  H  H68  1  0.093000  0.127300  0.151400  1.0  0.0834
  H  H69  1  0.058400  0.086800  0.245000  1.0  0.0793
  H  H70  1  0.097900  0.050200  0.341500  1.0  0.0793
  H  H71  1  0.367000  0.062500  0.495100  1.0  0.0901
  H  H72  1  0.412400  0.035400  0.387400  1.0  0.0897
  H  H73  1  0.421000  0.976800  0.394800  1.0  0.0916
  H  H74  1  0.384400  0.945400  0.509800  1.0  0.0858
  H  H75  1  0.339000  0.972600  0.617400  1.0  0.0801
  H  H76  1  0.400700  0.047300  0.691300  1.0  0.0832
  H  H77  1  0.440500  0.082400  0.791700  1.0  0.0802
  H  H78  1  0.406600  0.124200  0.881800  1.0  0.0864
  H  H79  1  0.333000  0.130900  0.871500  1.0  0.0894
  H  H80  1  0.293300  0.095900  0.771100  1.0  0.0892
  H  H81  1  0.135200  0.063500  0.519600  1.0  0.0939
  H  H82  1  0.088200  0.039100  0.629100  1.0  0.089
  H  H83  1  0.077100  0.980800  0.628200  1.0  0.0859
  H  H84  1  0.112900  0.946800  0.517800  1.0  0.0848
  H  H85  1  0.159900  0.971200  0.408300  1.0  0.0792
  H  H86  1  0.239000  0.579800  0.907300  1.0  0.1375
  H  H87  1  0.203900  0.578400  0.990000  1.0  0.1064
  H  H88  1  0.269500  0.531000  0.963200  1.0  0.0884
  H  H89  1  0.233200  0.527200  0.042200  1.0  0.086
  H  H90  1  0.259400  0.578500  0.121100  1.0  0.1185
  H  H91  1  0.296600  0.580900  0.043600  1.0  0.1151
  H  H92  1  0.179600  0.471100  0.316400  1.0  0.0964
  H  H93  1  0.132900  0.427100  0.272600  1.0  0.078
  H  H94  1  0.147800  0.391400  0.147400  1.0  0.1695
  H  H95  1  0.213500  0.398700  0.061300  1.0  0.0995
  H  H96  1  0.256900  0.444100  0.097600  1.0  0.0931
  H  H97  1  0.072800  0.279500  0.976700  1.0  0.0393
  H  H98  1  0.116900  0.324800  0.013000  1.0  0.0938
  H  H99  1  0.033000  0.350900  0.214500  1.0  0.1018
  H  H100  1  0.996500  0.305700  0.173100  1.0  0.0651
  H  H101  1  0.093500  0.389500  0.192500  1.0  0.0963
  H  H102  1  0.146200  0.357700  0.069500  1.0  0.0998
  H  H103  1  0.206600  0.594600  0.750700  1.0  0.0829
  H  H104  1  0.167000  0.631100  0.654200  1.0  0.0894
  H  H105  1  0.093000  0.627300  0.651400  1.0  0.0834
  H  H106  1  0.058400  0.586800  0.745000  1.0  0.0793
  H  H107  1  0.097900  0.550200  0.841500  1.0  0.0793
  H  H108  1  0.367000  0.562500  0.995100  1.0  0.0901
  H  H109  1  0.412400  0.535400  0.887400  1.0  0.0897
  H  H110  1  0.421000  0.476800  0.894800  1.0  0.0916
  H  H111  1  0.384400  0.445400  0.009800  1.0  0.0858
  H  H112  1  0.339000  0.472600  0.117400  1.0  0.0801
  H  H113  1  0.400700  0.547300  0.191300  1.0  0.0832
  H  H114  1  0.440500  0.582400  0.291700  1.0  0.0802
  H  H115  1  0.406600  0.624200  0.381800  1.0  0.0864
  H  H116  1  0.333000  0.630900  0.371500  1.0  0.0894
  H  H117  1  0.293300  0.595900  0.271100  1.0  0.0892
  H  H118  1  0.135200  0.563500  0.019600  1.0  0.0939
  H  H119  1  0.088200  0.539100  0.129100  1.0  0.089
  H  H120  1  0.077100  0.480800  0.128200  1.0  0.0859
  H  H121  1  0.112900  0.446800  0.017800  1.0  0.0848
  H  H122  1  0.159900  0.471200  0.908300  1.0  0.0792
  H  H123  1  0.739000  0.079800  0.907300  1.0  0.1375
  H  H124  1  0.703900  0.078400  0.990000  1.0  0.1064
  H  H125  1  0.769500  0.031000  0.963200  1.0  0.0884
  H  H126  1  0.733200  0.027200  0.042200  1.0  0.086
  H  H127  1  0.759400  0.078500  0.121100  1.0  0.1185
  H  H128  1  0.796600  0.080900  0.043600  1.0  0.1151
  H  H129  1  0.679600  0.971100  0.316400  1.0  0.0964
  H  H130  1  0.632900  0.927100  0.272600  1.0  0.078
  H  H131  1  0.647800  0.891400  0.147400  1.0  0.1695
  H  H132  1  0.713500  0.898700  0.061300  1.0  0.0995
  H  H133  1  0.756900  0.944100  0.097600  1.0  0.0931
  H  H134  1  0.572800  0.779500  0.976700  1.0  0.0393
  H  H135  1  0.616900  0.824800  0.013000  1.0  0.0938
  H  H136  1  0.533000  0.850900  0.214500  1.0  0.1018
  H  H137  1  0.496500  0.805700  0.173100  1.0  0.0652
  H  H138  1  0.593500  0.889500  0.192500  1.0  0.0963
  H  H139  1  0.646200  0.857700  0.069500  1.0  0.0998
  H  H140  1  0.706600  0.094600  0.750700  1.0  0.0829
  H  H141  1  0.667000  0.131100  0.654200  1.0  0.0894
  H  H142  1  0.593000  0.127300  0.651400  1.0  0.0834
  H  H143  1  0.558400  0.086800  0.745000  1.0  0.0793
  H  H144  1  0.597900  0.050200  0.841500  1.0  0.0793
  H  H145  1  0.867000  0.062500  0.995100  1.0  0.0901
  H  H146  1  0.912400  0.035400  0.887400  1.0  0.0897
  H  H147  1  0.921000  0.976800  0.894800  1.0  0.0916
  H  H148  1  0.884400  0.945400  0.009800  1.0  0.0858
  H  H149  1  0.839000  0.972600  0.117400  1.0  0.0801
  H  H150  1  0.900700  0.047300  0.191300  1.0  0.0832
  H  H151  1  0.940500  0.082400  0.291700  1.0  0.0802
  H  H152  1  0.906600  0.124200  0.381800  1.0  0.0864
  H  H153  1  0.833000  0.130900  0.371500  1.0  0.0894
  H  H154  1  0.793300  0.095900  0.271100  1.0  0.0892
  H  H155  1  0.635200  0.063500  0.019600  1.0  0.0939
  H  H156  1  0.588200  0.039100  0.129100  1.0  0.089
  H  H157  1  0.577100  0.980800  0.128200  1.0  0.0859
  H  H158  1  0.612900  0.946800  0.017800  1.0  0.0848
  H  H159  1  0.659900  0.971200  0.908300  1.0  0.0792
  H  H160  1  0.739000  0.579800  0.407300  1.0  0.1375
  H  H161  1  0.703900  0.578400  0.490000  1.0  0.1064
  H  H162  1  0.769500  0.531000  0.463200  1.0  0.0884
  H  H163  1  0.733200  0.527200  0.542200  1.0  0.086
  H  H164  1  0.759400  0.578500  0.621100  1.0  0.1185
  H  H165  1  0.796600  0.580900  0.543600  1.0  0.1151
  H  H166  1  0.679600  0.471100  0.816400  1.0  0.0964
  H  H167  1  0.632900  0.427100  0.772600  1.0  0.078
  H  H168  1  0.647800  0.391400  0.647400  1.0  0.1695
  H  H169  1  0.713500  0.398700  0.561300  1.0  0.0995
  H  H170  1  0.756900  0.444100  0.597600  1.0  0.0931
  H  H171  1  0.572800  0.279500  0.476700  1.0  0.0393
  H  H172  1  0.616900  0.324800  0.513000  1.0  0.0938
  H  H173  1  0.533000  0.350900  0.714500  1.0  0.1018
  H  H174  1  0.496500  0.305700  0.673100  1.0  0.0651
  H  H175  1  0.593500  0.389500  0.692500  1.0  0.0963
  H  H176  1  0.646200  0.357700  0.569500  1.0  0.0998
  H  H177  1  0.706600  0.594600  0.250700  1.0  0.0829
  H  H178  1  0.667000  0.631100  0.154200  1.0  0.0894
  H  H179  1  0.593000  0.627300  0.151400  1.0  0.0834
  H  H180  1  0.558400  0.586800  0.245000  1.0  0.0793
  H  H181  1  0.597900  0.550200  0.341500  1.0  0.0793
  H  H182  1  0.867000  0.562500  0.495100  1.0  0.0901
  H  H183  1  0.912400  0.535400  0.387400  1.0  0.0897
  H  H184  1  0.921000  0.476800  0.394800  1.0  0.0916
  H  H185  1  0.884400  0.445400  0.509800  1.0  0.0858
  H  H186  1  0.839000  0.472600  0.617400  1.0  0.0801
  H  H187  1  0.900700  0.547300  0.691300  1.0  0.0832
  H  H188  1  0.940500  0.582400  0.791700  1.0  0.0802
  H  H189  1  0.906600  0.624200  0.881800  1.0  0.0864
  H  H190  1  0.833000  0.630900  0.871500  1.0  0.0894
  H  H191  1  0.793300  0.595900  0.771100  1.0  0.0892
  H  H192  1  0.635200  0.563500  0.519600  1.0  0.0939
  H  H193  1  0.588200  0.539100  0.629100  1.0  0.089
  H  H194  1  0.577100  0.480800  0.628200  1.0  0.0859
  H  H195  1  0.612900  0.446800  0.517800  1.0  0.0848
  H  H196  1  0.659900  0.471200  0.408300  1.0  0.0792
  H  H197  1  0.761000  0.920200  0.407300  1.0  0.1352
  H  H198  1  0.796100  0.921600  0.490000  1.0  0.1071
  H  H199  1  0.730500  0.969000  0.463200  1.0  0.0885
  H  H200  1  0.766800  0.972800  0.542200  1.0  0.085
  H  H201  1  0.740600  0.921500  0.621100  1.0  0.1185
  H  H202  1  0.703400  0.919100  0.543600  1.0  0.1151
  H  H203  1  0.820400  0.028900  0.816400  1.0  0.0966
  H  H204  1  0.867100  0.072900  0.772600  1.0  0.0779
  H  H205  1  0.852200  0.108600  0.647400  1.0  0.169
  H  H206  1  0.786500  0.101300  0.561300  1.0  0.1001
  H  H207  1  0.743100  0.055900  0.597600  1.0  0.0932
  H  H208  1  0.927200  0.220500  0.476700  1.0  0.0395
  H  H209  1  0.883100  0.175200  0.513000  1.0  0.0952
  H  H210  1  0.967000  0.149100  0.714500  1.0  0.1015
  H  H211  1  0.003500  0.194300  0.673100  1.0  0.0657
  H  H212  1  0.906500  0.110500  0.692500  1.0  0.0965
  H  H213  1  0.853800  0.142300  0.569500  1.0  0.0994
  H  H214  1  0.793400  0.905400  0.250700  1.0  0.0825
  H  H215  1  0.833000  0.868900  0.154200  1.0  0.0897
  H  H216  1  0.907000  0.872700  0.151400  1.0  0.084
  H  H217  1  0.941600  0.913200  0.245000  1.0  0.0806
  H  H218  1  0.902100  0.949800  0.341500  1.0  0.0803
  H  H219  1  0.633000  0.937500  0.495100  1.0  0.0905
  H  H220  1  0.587600  0.964600  0.387400  1.0  0.0894
  H  H221  1  0.579000  0.023200  0.394800  1.0  0.0927
  H  H222  1  0.615600  0.054600  0.509800  1.0  0.085
  H  H223  1  0.661000  0.027400  0.617400  1.0  0.0799
  H  H224  1  0.599300  0.952700  0.691300  1.0  0.0832
  H  H225  1  0.559500  0.917600  0.791700  1.0  0.0791
  H  H226  1  0.593400  0.875800  0.881800  1.0  0.0859
  H  H227  1  0.667000  0.869100  0.871500  1.0  0.089
  H  H228  1  0.706700  0.904100  0.771100  1.0  0.0891
  H  H229  1  0.864800  0.936500  0.519600  1.0  0.0945
  H  H230  1  0.911800  0.960900  0.629100  1.0  0.0888
  H  H231  1  0.922900  0.019200  0.628200  1.0  0.0847
  H  H232  1  0.887100  0.053200  0.517800  1.0  0.0844
  H  H233  1  0.840100  0.028800  0.408300  1.0  0.0793
  H  H234  1  0.761000  0.420200  0.907300  1.0  0.1352
  H  H235  1  0.796100  0.421600  0.990000  1.0  0.1071
  H  H236  1  0.730500  0.469000  0.963200  1.0  0.0885
  H  H237  1  0.766800  0.472800  0.042200  1.0  0.085
  H  H238  1  0.740600  0.421500  0.121100  1.0  0.1185
  H  H239  1  0.703400  0.419100  0.043600  1.0  0.1151
  H  H240  1  0.820400  0.528900  0.316400  1.0  0.0966
  H  H241  1  0.867100  0.572900  0.272600  1.0  0.0779
  H  H242  1  0.852200  0.608600  0.147400  1.0  0.169
  H  H243  1  0.786500  0.601300  0.061300  1.0  0.1001
  H  H244  1  0.743100  0.555900  0.097600  1.0  0.0932
  H  H245  1  0.927200  0.720500  0.976700  1.0  0.0395
  H  H246  1  0.883100  0.675200  0.013000  1.0  0.0952
  H  H247  1  0.967000  0.649100  0.214500  1.0  0.1015
  H  H248  1  0.003500  0.694300  0.173100  1.0  0.0657
  H  H249  1  0.906500  0.610500  0.192500  1.0  0.0965
  H  H250  1  0.853800  0.642300  0.069500  1.0  0.0994
  H  H251  1  0.793400  0.405400  0.750700  1.0  0.0825
  H  H252  1  0.833000  0.368900  0.654200  1.0  0.0897
  H  H253  1  0.907000  0.372700  0.651400  1.0  0.084
  H  H254  1  0.941600  0.413200  0.745000  1.0  0.0806
  H  H255  1  0.902100  0.449800  0.841500  1.0  0.0803
  H  H256  1  0.633000  0.437500  0.995100  1.0  0.0905
  H  H257  1  0.587600  0.464600  0.887400  1.0  0.0894
  H  H258  1  0.579000  0.523200  0.894800  1.0  0.0927
  H  H259  1  0.615600  0.554600  0.009800  1.0  0.085
  H  H260  1  0.661000  0.527400  0.117400  1.0  0.0799
  H  H261  1  0.599300  0.452700  0.191300  1.0  0.0832
  H  H262  1  0.559500  0.417600  0.291700  1.0  0.0791
  H  H263  1  0.593400  0.375800  0.381800  1.0  0.0859
  H  H264  1  0.667000  0.369100  0.371500  1.0  0.089
  H  H265  1  0.706700  0.404100  0.271100  1.0  0.0891
  H  H266  1  0.864800  0.436500  0.019600  1.0  0.0945
  H  H267  1  0.911800  0.460900  0.129100  1.0  0.0888
  H  H268  1  0.922900  0.519200  0.128200  1.0  0.0847
  H  H269  1  0.887100  0.553200  0.017800  1.0  0.0844
  H  H270  1  0.840100  0.528800  0.908300  1.0  0.0793
  H  H271  1  0.261000  0.920200  0.907300  1.0  0.1352
  H  H272  1  0.296100  0.921600  0.990000  1.0  0.1071
  H  H273  1  0.230500  0.969000  0.963200  1.0  0.0885
  H  H274  1  0.266800  0.972800  0.042200  1.0  0.085
  H  H275  1  0.240600  0.921500  0.121100  1.0  0.1185
  H  H276  1  0.203400  0.919100  0.043600  1.0  0.1151
  H  H277  1  0.320400  0.028900  0.316400  1.0  0.0966
  H  H278  1  0.367100  0.072900  0.272600  1.0  0.0779
  H  H279  1  0.352200  0.108600  0.147400  1.0  0.169
  H  H280  1  0.286500  0.101300  0.061300  1.0  0.1001
  H  H281  1  0.243100  0.055900  0.097600  1.0  0.0932
  H  H282  1  0.427200  0.220500  0.976700  1.0  0.0395
  H  H283  1  0.383100  0.175200  0.013000  1.0  0.0952
  H  H284  1  0.467000  0.149100  0.214500  1.0  0.1015
  H  H285  1  0.503500  0.194300  0.173100  1.0  0.0657
  H  H286  1  0.406500  0.110500  0.192500  1.0  0.0965
  H  H287  1  0.353800  0.142300  0.069500  1.0  0.0994
  H  H288  1  0.293400  0.905400  0.750700  1.0  0.0825
  H  H289  1  0.333000  0.868900  0.654200  1.0  0.0897
  H  H290  1  0.407000  0.872700  0.651400  1.0  0.084
  H  H291  1  0.441600  0.913200  0.745000  1.0  0.0806
  H  H292  1  0.402100  0.949800  0.841500  1.0  0.0803
  H  H293  1  0.133000  0.937500  0.995100  1.0  0.0905
  H  H294  1  0.087600  0.964600  0.887400  1.0  0.0894
  H  H295  1  0.079000  0.023200  0.894800  1.0  0.0927
  H  H296  1  0.115600  0.054600  0.009800  1.0  0.085
  H  H297  1  0.161000  0.027400  0.117400  1.0  0.0799
  H  H298  1  0.099300  0.952700  0.191300  1.0  0.0832
  H  H299  1  0.059500  0.917600  0.291700  1.0  0.0791
  H  H300  1  0.093400  0.875800  0.381800  1.0  0.0859
  H  H301  1  0.167000  0.869100  0.371500  1.0  0.089
  H  H302  1  0.206700  0.904100  0.271100  1.0  0.0891
  H  H303  1  0.364800  0.936500  0.019600  1.0  0.0945
  H  H304  1  0.411800  0.960900  0.129100  1.0  0.0888
  H  H305  1  0.422900  0.019200  0.128200  1.0  0.0847
  H  H306  1  0.387100  0.053200  0.017800  1.0  0.0844
  H  H307  1  0.340100  0.028800  0.908300  1.0  0.0793
  H  H308  1  0.261000  0.420200  0.407300  1.0  0.1352
  H  H309  1  0.296100  0.421600  0.490000  1.0  0.1071
  H  H310  1  0.230500  0.469000  0.463200  1.0  0.0885
  H  H311  1  0.266800  0.472800  0.542200  1.0  0.085
  H  H312  1  0.240600  0.421500  0.621100  1.0  0.1185
  H  H313  1  0.203400  0.419100  0.543600  1.0  0.1151
  H  H314  1  0.320400  0.528900  0.816400  1.0  0.0966
  H  H315  1  0.367100  0.572900  0.772600  1.0  0.0779
  H  H316  1  0.352200  0.608600  0.647400  1.0  0.169
  H  H317  1  0.286500  0.601300  0.561300  1.0  0.1001
  H  H318  1  0.243100  0.555900  0.597600  1.0  0.0932
  H  H319  1  0.427200  0.720500  0.476700  1.0  0.0395
  H  H320  1  0.383100  0.675200  0.513000  1.0  0.0952
  H  H321  1  0.467000  0.649100  0.714500  1.0  0.1015
  H  H322  1  0.503500  0.694300  0.673100  1.0  0.0657
  H  H323  1  0.406500  0.610500  0.692500  1.0  0.0965
  H  H324  1  0.353800  0.642300  0.569500  1.0  0.0994
  H  H325  1  0.293400  0.405400  0.250700  1.0  0.0825
  H  H326  1  0.333000  0.368900  0.154200  1.0  0.0897
  H  H327  1  0.407000  0.372700  0.151400  1.0  0.084
  H  H328  1  0.441600  0.413200  0.245000  1.0  0.0806
  H  H329  1  0.402100  0.449800  0.341500  1.0  0.0803
  H  H330  1  0.133000  0.437500  0.495100  1.0  0.0905
  H  H331  1  0.087600  0.464600  0.387400  1.0  0.0894
  H  H332  1  0.079000  0.523200  0.394800  1.0  0.0927
  H  H333  1  0.115600  0.554600  0.509800  1.0  0.085
  H  H334  1  0.161000  0.527400  0.617400  1.0  0.0799
  H  H335  1  0.099300  0.452700  0.691300  1.0  0.0832
  H  H336  1  0.059500  0.417600  0.791700  1.0  0.0791
  H  H337  1  0.093400  0.375800  0.881800  1.0  0.0859
  H  H338  1  0.167000  0.369100  0.871500  1.0  0.089
  H  H339  1  0.206700  0.404100  0.771100  1.0  0.0891
  H  H340  1  0.364800  0.436500  0.519600  1.0  0.0945
  H  H341  1  0.411800  0.460900  0.629100  1.0  0.0888
  H  H342  1  0.422900  0.519200  0.628200  1.0  0.0847
  H  H343  1  0.387100  0.553200  0.517800  1.0  0.0844
  H  H344  1  0.340100  0.528800  0.408300  1.0  0.0793
  H  H345  1  0.489000  0.170200  0.657300  1.0  0.1357
  H  H346  1  0.453900  0.171600  0.740000  1.0  0.1073
  H  H347  1  0.519500  0.219000  0.713200  1.0  0.0887
  H  H348  1  0.483200  0.222800  0.792200  1.0  0.0852
  H  H349  1  0.509400  0.171500  0.871100  1.0  0.1184
  H  H350  1  0.546600  0.169100  0.793600  1.0  0.1151
  H  H351  1  0.429600  0.278900  0.066400  1.0  0.0969
  H  H352  1  0.382900  0.322900  0.022600  1.0  0.078
  H  H353  1  0.397800  0.358600  0.897400  1.0  0.168
  H  H354  1  0.463500  0.351300  0.811300  1.0  0.1
  H  H355  1  0.506900  0.305900  0.847600  1.0  0.0921
  H  H356  1  0.322800  0.470500  0.726700  1.0  0.0393
  H  H357  1  0.366900  0.425200  0.763000  1.0  0.0937
  H  H358  1  0.283000  0.399100  0.964500  1.0  0.1016
  H  H359  1  0.246500  0.444300  0.923100  1.0  0.0654
  H  H360  1  0.343500  0.360500  0.942500  1.0  0.0967
  H  H361  1  0.396200  0.392300  0.819500  1.0  0.1009
  H  H362  1  0.456600  0.155400  0.500700  1.0  0.0826
  H  H363  1  0.417000  0.118900  0.404200  1.0  0.0891
  H  H364  1  0.343000  0.122700  0.401400  1.0  0.0836
  H  H365  1  0.308400  0.163200  0.495000  1.0  0.0789
  H  H366  1  0.347900  0.199800  0.591500  1.0  0.0793
  H  H367  1  0.617000  0.187500  0.745100  1.0  0.0903
  H  H368  1  0.662400  0.214600  0.637400  1.0  0.0894
  H  H369  1  0.671000  0.273200  0.644800  1.0  0.0921
  H  H370  1  0.634400  0.304600  0.759800  1.0  0.0846
  H  H371  1  0.589000  0.277400  0.867400  1.0  0.0796
  H  H372  1  0.650700  0.202700  0.941300  1.0  0.0832
  H  H373  1  0.690500  0.167600  0.041700  1.0  0.0801
  H  H374  1  0.656600  0.125800  0.131800  1.0  0.0862
  H  H375  1  0.583000  0.119100  0.121500  1.0  0.0897
  H  H376  1  0.543300  0.154100  0.021100  1.0  0.0892
  H  H377  1  0.385200  0.186500  0.769600  1.0  0.0941
  H  H378  1  0.338200  0.210900  0.879100  1.0  0.089
  H  H379  1  0.327100  0.269200  0.878200  1.0  0.0859
  H  H380  1  0.362900  0.303200  0.767800  1.0  0.0843
  H  H381  1  0.409900  0.278800  0.658300  1.0  0.0793
  H  H382  1  0.489000  0.670200  0.157300  1.0  0.1357
  H  H383  1  0.453900  0.671600  0.240000  1.0  0.1073
  H  H384  1  0.519500  0.719000  0.213200  1.0  0.0887
  H  H385  1  0.483200  0.722800  0.292200  1.0  0.0852
  H  H386  1  0.509400  0.671500  0.371100  1.0  0.1184
  H  H387  1  0.546600  0.669100  0.293600  1.0  0.1151
  H  H388  1  0.429600  0.778900  0.566400  1.0  0.0969
  H  H389  1  0.382900  0.822900  0.522600  1.0  0.078
  H  H390  1  0.397800  0.858600  0.397400  1.0  0.168
  H  H391  1  0.463500  0.851300  0.311300  1.0  0.1
  H  H392  1  0.506900  0.805900  0.347600  1.0  0.0921
  H  H393  1  0.322800  0.970500  0.226700  1.0  0.0393
  H  H394  1  0.366900  0.925200  0.263000  1.0  0.0937
  H  H395  1  0.283000  0.899100  0.464500  1.0  0.1016
  H  H396  1  0.246500  0.944300  0.423100  1.0  0.0654
  H  H397  1  0.343500  0.860500  0.442500  1.0  0.0967
  H  H398  1  0.396200  0.892300  0.319500  1.0  0.1009
  H  H399  1  0.456600  0.655400  0.000700  1.0  0.0826
  H  H400  1  0.417000  0.618900  0.904200  1.0  0.0891
  H  H401  1  0.343000  0.622700  0.901400  1.0  0.0836
  H  H402  1  0.308400  0.663200  0.995000  1.0  0.0789
  H  H403  1  0.347900  0.699800  0.091500  1.0  0.0793
  H  H404  1  0.617000  0.687500  0.245100  1.0  0.0903
  H  H405  1  0.662400  0.714600  0.137400  1.0  0.0894
  H  H406  1  0.671000  0.773200  0.144800  1.0  0.0921
  H  H407  1  0.634400  0.804600  0.259800  1.0  0.0846
  H  H408  1  0.589000  0.777400  0.367400  1.0  0.0796
  H  H409  1  0.650700  0.702700  0.441300  1.0  0.0832
  H  H410  1  0.690500  0.667600  0.541700  1.0  0.0801
  H  H411  1  0.656600  0.625800  0.631800  1.0  0.0862
  H  H412  1  0.583000  0.619100  0.621500  1.0  0.0897
  H  H413  1  0.543300  0.654100  0.521100  1.0  0.0892
  H  H414  1  0.385200  0.686500  0.269600  1.0  0.0941
  H  H415  1  0.338200  0.710900  0.379100  1.0  0.089
  H  H416  1  0.327100  0.769200  0.378200  1.0  0.0859
  H  H417  1  0.362900  0.803200  0.267800  1.0  0.0843
  H  H418  1  0.409900  0.778800  0.158300  1.0  0.0793
  H  H419  1  0.989000  0.170200  0.157300  1.0  0.1357
  H  H420  1  0.953900  0.171600  0.240000  1.0  0.1073
  H  H421  1  0.019500  0.219000  0.213200  1.0  0.0887
  H  H422  1  0.983200  0.222800  0.292200  1.0  0.0852
  H  H423  1  0.009400  0.171500  0.371100  1.0  0.1184
  H  H424  1  0.046600  0.169100  0.293600  1.0  0.1151
  H  H425  1  0.929600  0.278900  0.566400  1.0  0.0969
  H  H426  1  0.882900  0.322900  0.522600  1.0  0.078
  H  H427  1  0.897800  0.358600  0.397400  1.0  0.168
  H  H428  1  0.963500  0.351300  0.311300  1.0  0.1
  H  H429  1  0.006900  0.305900  0.347600  1.0  0.0921
  H  H430  1  0.822800  0.470500  0.226700  1.0  0.0393
  H  H431  1  0.866900  0.425200  0.263000  1.0  0.0937
  H  H432  1  0.783000  0.399100  0.464500  1.0  0.1016
  H  H433  1  0.746500  0.444300  0.423100  1.0  0.0654
  H  H434  1  0.843500  0.360500  0.442500  1.0  0.0967
  H  H435  1  0.896200  0.392300  0.319500  1.0  0.1009
  H  H436  1  0.956600  0.155400  0.000700  1.0  0.0826
  H  H437  1  0.917000  0.118900  0.904200  1.0  0.0891
  H  H438  1  0.843000  0.122700  0.901400  1.0  0.0836
  H  H439  1  0.808400  0.163200  0.995000  1.0  0.0789
  H  H440  1  0.847900  0.199800  0.091500  1.0  0.0793
  H  H441  1  0.117000  0.187500  0.245100  1.0  0.0903
  H  H442  1  0.162400  0.214600  0.137400  1.0  0.0894
  H  H443  1  0.171000  0.273200  0.144800  1.0  0.0921
  H  H444  1  0.134400  0.304600  0.259800  1.0  0.0846
  H  H445  1  0.089000  0.277400  0.367400  1.0  0.0796
  H  H446  1  0.150700  0.202700  0.441300  1.0  0.0832
  H  H447  1  0.190500  0.167600  0.541700  1.0  0.0801
  H  H448  1  0.156600  0.125800  0.631800  1.0  0.0862
  H  H449  1  0.083000  0.119100  0.621500  1.0  0.0897
  H  H450  1  0.043300  0.154100  0.521100  1.0  0.0892
  H  H451  1  0.885200  0.186500  0.269600  1.0  0.0941
  H  H452  1  0.838200  0.210900  0.379100  1.0  0.089
  H  H453  1  0.827100  0.269200  0.378200  1.0  0.0859
  H  H454  1  0.862900  0.303200  0.267800  1.0  0.0843
  H  H455  1  0.909900  0.278800  0.158300  1.0  0.0793
  H  H456  1  0.989000  0.670200  0.657300  1.0  0.1357
  H  H457  1  0.953900  0.671600  0.740000  1.0  0.1073
  H  H458  1  0.019500  0.719000  0.713200  1.0  0.0887
  H  H459  1  0.983200  0.722800  0.792200  1.0  0.0852
  H  H460  1  0.009400  0.671500  0.871100  1.0  0.1184
  H  H461  1  0.046600  0.669100  0.793600  1.0  0.1151
  H  H462  1  0.929600  0.778900  0.066400  1.0  0.0969
  H  H463  1  0.882900  0.822900  0.022600  1.0  0.078
  H  H464  1  0.897800  0.858600  0.897400  1.0  0.168
  H  H465  1  0.963500  0.851300  0.811300  1.0  0.1
  H  H466  1  0.006900  0.805900  0.847600  1.0  0.0921
  H  H467  1  0.822800  0.970500  0.726700  1.0  0.0393
  H  H468  1  0.866900  0.925200  0.763000  1.0  0.0937
  H  H469  1  0.783000  0.899100  0.964500  1.0  0.1016
  H  H470  1  0.746500  0.944300  0.923100  1.0  0.0654
  H  H471  1  0.843500  0.860500  0.942500  1.0  0.0967
  H  H472  1  0.896200  0.892300  0.819500  1.0  0.1009
  H  H473  1  0.956600  0.655400  0.500700  1.0  0.0826
  H  H474  1  0.917000  0.618900  0.404200  1.0  0.0891
  H  H475  1  0.843000  0.622700  0.401400  1.0  0.0836
  H  H476  1  0.808400  0.663200  0.495000  1.0  0.0789
  H  H477  1  0.847900  0.699800  0.591500  1.0  0.0793
  H  H478  1  0.117000  0.687500  0.745100  1.0  0.0903
  H  H479  1  0.162400  0.714600  0.637400  1.0  0.0894
  H  H480  1  0.171000  0.773200  0.644800  1.0  0.0921
  H  H481  1  0.134400  0.804600  0.759800  1.0  0.0846
  H  H482  1  0.089000  0.777400  0.867400  1.0  0.0796
  H  H483  1  0.150700  0.702700  0.941300  1.0  0.0832
  H  H484  1  0.190500  0.667600  0.041700  1.0  0.0801
  H  H485  1  0.156600  0.625800  0.131800  1.0  0.0862
  H  H486  1  0.083000  0.619100  0.121500  1.0  0.0897
  H  H487  1  0.043300  0.654100  0.021100  1.0  0.0892
  H  H488  1  0.885200  0.686500  0.769600  1.0  0.0941
  H  H489  1  0.838200  0.710900  0.879100  1.0  0.089
  H  H490  1  0.827100  0.769200  0.878200  1.0  0.0859
  H  H491  1  0.862900  0.803200  0.767800  1.0  0.0843
  H  H492  1  0.909900  0.778800  0.658300  1.0  0.0793
  H  H493  1  0.011000  0.329800  0.657300  1.0  0.1375
  H  H494  1  0.046100  0.328400  0.740000  1.0  0.1063
  H  H495  1  0.980500  0.281000  0.713200  1.0  0.0882
  H  H496  1  0.016800  0.277200  0.792200  1.0  0.0861
  H  H497  1  0.990600  0.328500  0.871100  1.0  0.1186
  H  H498  1  0.953400  0.330900  0.793600  1.0  0.1154
  H  H499  1  0.070400  0.221100  0.066400  1.0  0.0961
  H  H500  1  0.117100  0.177100  0.022600  1.0  0.0778
  H  H501  1  0.102200  0.141400  0.897400  1.0  0.1705
  H  H502  1  0.036500  0.148700  0.811300  1.0  0.0997
  H  H503  1  0.993100  0.194100  0.847600  1.0  0.0921
  H  H504  1  0.177200  0.029500  0.726700  1.0  0.0393
  H  H505  1  0.133100  0.074800  0.763000  1.0  0.0951
  H  H506  1  0.217000  0.100900  0.964500  1.0  0.1015
  H  H507  1  0.253500  0.055700  0.923100  1.0  0.0654
  H  H508  1  0.156500  0.139500  0.942500  1.0  0.0961
  H  H509  1  0.103800  0.107700  0.819500  1.0  0.0984
  H  H510  1  0.043400  0.344600  0.500700  1.0  0.0829
  H  H511  1  0.083000  0.381100  0.404200  1.0  0.09
  H  H512  1  0.157000  0.377300  0.401400  1.0  0.0843
  H  H513  1  0.191600  0.336800  0.495000  1.0  0.0803
  H  H514  1  0.152100  0.300200  0.591500  1.0  0.0803
  H  H515  1  0.883000  0.312500  0.745100  1.0  0.0905
  H  H516  1  0.837600  0.285400  0.637400  1.0  0.0898
  H  H517  1  0.829000  0.226800  0.644800  1.0  0.0925
  H  H518  1  0.865600  0.195400  0.759800  1.0  0.0864
  H  H519  1  0.911000  0.222600  0.867400  1.0  0.0803
  H  H520  1  0.849300  0.297300  0.941300  1.0  0.0827
  H  H521  1  0.809500  0.332400  0.041700  1.0  0.0793
  H  H522  1  0.843400  0.374200  0.131800  1.0  0.0863
  H  H523  1  0.917000  0.380900  0.121500  1.0  0.0888
  H  H524  1  0.956700  0.345900  0.021100  1.0  0.0892
  H  H525  1  0.114800  0.313500  0.769600  1.0  0.0942
  H  H526  1  0.161800  0.289100  0.879100  1.0  0.0886
  H  H527  1  0.172900  0.230800  0.878200  1.0  0.085
  H  H528  1  0.137100  0.196800  0.767800  1.0  0.0849
  H  H529  1  0.090100  0.221200  0.658300  1.0  0.0786
  H  H530  1  0.011000  0.829800  0.157300  1.0  0.1375
  H  H531  1  0.046100  0.828400  0.240000  1.0  0.1063
  H  H532  1  0.980500  0.781000  0.213200  1.0  0.0882
  H  H533  1  0.016800  0.777200  0.292200  1.0  0.0861
  H  H534  1  0.990600  0.828500  0.371100  1.0  0.1186
  H  H535  1  0.953400  0.830900  0.293600  1.0  0.1154
  H  H536  1  0.070400  0.721100  0.566400  1.0  0.0961
  H  H537  1  0.117100  0.677100  0.522600  1.0  0.0778
  H  H538  1  0.102200  0.641400  0.397400  1.0  0.1705
  H  H539  1  0.036500  0.648700  0.311300  1.0  0.0997
  H  H540  1  0.993100  0.694100  0.347600  1.0  0.0921
  H  H541  1  0.177200  0.529500  0.226700  1.0  0.0393
  H  H542  1  0.133100  0.574800  0.263000  1.0  0.0951
  H  H543  1  0.217000  0.600900  0.464500  1.0  0.1015
  H  H544  1  0.253500  0.555700  0.423100  1.0  0.0654
  H  H545  1  0.156500  0.639500  0.442500  1.0  0.0961
  H  H546  1  0.103800  0.607700  0.319500  1.0  0.0984
  H  H547  1  0.043400  0.844600  0.000700  1.0  0.0829
  H  H548  1  0.083000  0.881100  0.904200  1.0  0.09
  H  H549  1  0.157000  0.877300  0.901400  1.0  0.0843
  H  H550  1  0.191600  0.836800  0.995000  1.0  0.0803
  H  H551  1  0.152100  0.800200  0.091500  1.0  0.0803
  H  H552  1  0.883000  0.812500  0.245100  1.0  0.0905
  H  H553  1  0.837600  0.785400  0.137400  1.0  0.0898
  H  H554  1  0.829000  0.726800  0.144800  1.0  0.0925
  H  H555  1  0.865600  0.695400  0.259800  1.0  0.0864
  H  H556  1  0.911000  0.722600  0.367400  1.0  0.0803
  H  H557  1  0.849300  0.797300  0.441300  1.0  0.0827
  H  H558  1  0.809500  0.832400  0.541700  1.0  0.0793
  H  H559  1  0.843400  0.874200  0.631800  1.0  0.0863
  H  H560  1  0.917000  0.880900  0.621500  1.0  0.0888
  H  H561  1  0.956700  0.845900  0.521100  1.0  0.0892
  H  H562  1  0.114800  0.813500  0.269600  1.0  0.0942
  H  H563  1  0.161800  0.789100  0.379100  1.0  0.0886
  H  H564  1  0.172900  0.730800  0.378200  1.0  0.085
  H  H565  1  0.137100  0.696800  0.267800  1.0  0.0849
  H  H566  1  0.090100  0.721200  0.158300  1.0  0.0786
  H  H567  1  0.511000  0.329800  0.157300  1.0  0.1375
  H  H568  1  0.546100  0.328400  0.240000  1.0  0.1063
  H  H569  1  0.480500  0.281000  0.213200  1.0  0.0882
  H  H570  1  0.516800  0.277200  0.292200  1.0  0.0861
  H  H571  1  0.490600  0.328500  0.371100  1.0  0.1186
  H  H572  1  0.453400  0.330900  0.293600  1.0  0.1154
  H  H573  1  0.570400  0.221100  0.566400  1.0  0.0961
  H  H574  1  0.617100  0.177100  0.522600  1.0  0.0778
  H  H575  1  0.602200  0.141400  0.397400  1.0  0.1705
  H  H576  1  0.536500  0.148700  0.311300  1.0  0.0997
  H  H577  1  0.493100  0.194100  0.347600  1.0  0.0921
  H  H578  1  0.677200  0.029500  0.226700  1.0  0.0393
  H  H579  1  0.633100  0.074800  0.263000  1.0  0.0951
  H  H580  1  0.717000  0.100900  0.464500  1.0  0.1015
  H  H581  1  0.753500  0.055700  0.423100  1.0  0.0654
  H  H582  1  0.656500  0.139500  0.442500  1.0  0.0961
  H  H583  1  0.603800  0.107700  0.319500  1.0  0.0984
  H  H584  1  0.543400  0.344600  0.000700  1.0  0.0829
  H  H585  1  0.583000  0.381100  0.904200  1.0  0.09
  H  H586  1  0.657000  0.377300  0.901400  1.0  0.0843
  H  H587  1  0.691600  0.336800  0.995000  1.0  0.0803
  H  H588  1  0.652100  0.300200  0.091500  1.0  0.0803
  H  H589  1  0.383000  0.312500  0.245100  1.0  0.0905
  H  H590  1  0.337600  0.285400  0.137400  1.0  0.0898
  H  H591  1  0.329000  0.226800  0.144800  1.0  0.0925
  H  H592  1  0.365600  0.195400  0.259800  1.0  0.0864
  H  H593  1  0.411000  0.222600  0.367400  1.0  0.0803
  H  H594  1  0.349300  0.297300  0.441300  1.0  0.0827
  H  H595  1  0.309500  0.332400  0.541700  1.0  0.0793
  H  H596  1  0.343400  0.374200  0.631800  1.0  0.0863
  H  H597  1  0.417000  0.380900  0.621500  1.0  0.0888
  H  H598  1  0.456700  0.345900  0.521100  1.0  0.0892
  H  H599  1  0.614800  0.313500  0.269600  1.0  0.0942
  H  H600  1  0.661800  0.289100  0.379100  1.0  0.0886
  H  H601  1  0.672900  0.230800  0.378200  1.0  0.085
  H  H602  1  0.637100  0.196800  0.267800  1.0  0.0849
  H  H603  1  0.590100  0.221200  0.158300  1.0  0.0786
  H  H604  1  0.511000  0.829800  0.657300  1.0  0.1375
  H  H605  1  0.546100  0.828400  0.740000  1.0  0.1063
  H  H606  1  0.480500  0.781000  0.713200  1.0  0.0882
  H  H607  1  0.516800  0.777200  0.792200  1.0  0.0861
  H  H608  1  0.490600  0.828500  0.871100  1.0  0.1186
  H  H609  1  0.453400  0.830900  0.793600  1.0  0.1154
  H  H610  1  0.570400  0.721100  0.066400  1.0  0.0961
  H  H611  1  0.617100  0.677100  0.022600  1.0  0.0778
  H  H612  1  0.602200  0.641400  0.897400  1.0  0.1705
  H  H613  1  0.536500  0.648700  0.811300  1.0  0.0997
  H  H614  1  0.493100  0.694100  0.847600  1.0  0.0921
  H  H615  1  0.677200  0.529500  0.726700  1.0  0.0393
  H  H616  1  0.633100  0.574800  0.763000  1.0  0.0951
  H  H617  1  0.717000  0.600900  0.964500  1.0  0.1015
  H  H618  1  0.753500  0.555700  0.923100  1.0  0.0654
  H  H619  1  0.656500  0.639500  0.942500  1.0  0.0961
  H  H620  1  0.603800  0.607700  0.819500  1.0  0.0984
  H  H621  1  0.543400  0.844600  0.500700  1.0  0.0829
  H  H622  1  0.583000  0.881100  0.404200  1.0  0.09
  H  H623  1  0.657000  0.877300  0.401400  1.0  0.0843
  H  H624  1  0.691600  0.836800  0.495000  1.0  0.0803
  H  H625  1  0.652100  0.800200  0.591500  1.0  0.0803
  H  H626  1  0.383000  0.812500  0.745100  1.0  0.0905
  H  H627  1  0.337600  0.785400  0.637400  1.0  0.0898
  H  H628  1  0.329000  0.726800  0.644800  1.0  0.0925
  H  H629  1  0.365600  0.695400  0.759800  1.0  0.0864
  H  H630  1  0.411000  0.722600  0.867400  1.0  0.0803
  H  H631  1  0.349300  0.797300  0.941300  1.0  0.0827
  H  H632  1  0.309500  0.832400  0.041700  1.0  0.0793
  H  H633  1  0.343400  0.874200  0.131800  1.0  0.0863
  H  H634  1  0.417000  0.880900  0.121500  1.0  0.0888
  H  H635  1  0.456700  0.845900  0.021100  1.0  0.0892
  H  H636  1  0.614800  0.813500  0.769600  1.0  0.0942
  H  H637  1  0.661800  0.789100  0.879100  1.0  0.0886
  H  H638  1  0.672900  0.730800  0.878200  1.0  0.085
  H  H639  1  0.637100  0.696800  0.767800  1.0  0.0849
  H  H640  1  0.590100  0.721200  0.658300  1.0  0.0786
  C  C641  1  0.222000  0.064400  0.447800  1.0  -0.3929
  C  C642  1  0.250300  0.043790  0.506000  1.0  -0.1816
  C  C643  1  0.278400  0.065100  0.579700  1.0  -0.367
  C  C644  1  0.185200  0.957000  0.763200  1.0  0.1039
  C  C645  1  0.158300  0.930300  0.737200  1.0  -0.1094
  C  C646  1  0.166900  0.909000  0.663700  1.0  -0.1304
  C  C647  1  0.205900  0.913900  0.611000  1.0  -0.1798
  C  C648  1  0.231600  0.940400  0.633000  1.0  0.1427
  C  C649  1  0.063900  0.794300  0.526200  1.0  0.1754
  C  C650  1  0.091400  0.821400  0.547900  1.0  -0.1991
  C  C651  1  0.079800  0.843500  0.624000  1.0  0.1312
  C  C652  1  0.043500  0.836800  0.665100  1.0  -0.228
  C  C653  1  0.021400  0.809900  0.637000  1.0  0.1277
  C  C654  1  0.103700  0.872600  0.650400  1.0  -0.0296
  C  C655  1  0.136300  0.873300  0.616000  1.0  0.0505
  C  C656  1  0.156000  0.068970  0.305200  1.0  -0.3669
  C  C657  1  0.176500  0.093000  0.249500  1.0  -0.0452
  C  C658  1  0.153000  0.114700  0.192200  1.0  -0.1114
  C  C659  1  0.109000  0.112400  0.190500  1.0  -0.1445
  C  C660  1  0.088500  0.088400  0.246200  1.0  -0.1318
  C  C661  1  0.112000  0.066700  0.303500  1.0  -0.0652
  C  C662  1  0.348700  0.020100  0.566400  1.0  -0.2406
  C  C663  1  0.370500  0.038760  0.498000  1.0  -0.0957
  C  C664  1  0.397500  0.022600  0.434100  1.0  -0.1315
  C  C665  1  0.402600  0.987800  0.438500  1.0  -0.11
  C  C666  1  0.380800  0.969170  0.506800  1.0  -0.1112
  C  C667  1  0.353900  0.985300  0.570700  1.0  -0.0755
  C  C668  1  0.343250  0.068310  0.721700  1.0  -0.3566
  C  C669  1  0.386970  0.064300  0.727900  1.0  -0.0609
  C  C670  1  0.410580  0.085100  0.787500  1.0  -0.1434
  C  C671  1  0.390500  0.109900  0.841100  1.0  -0.1259
  C  C672  1  0.346700  0.113960  0.834900  1.0  -0.1046
  C  C673  1  0.323140  0.093100  0.775300  1.0  -0.075
  C  C674  1  0.152000  0.019700  0.453700  1.0  -0.2365
  C  C675  1  0.130700  0.039800  0.519200  1.0  -0.0867
  C  C676  1  0.102800  0.025300  0.584300  1.0  -0.1238
  C  C677  1  0.096200  0.990700  0.583800  1.0  -0.1036
  C  C678  1  0.117500  0.970500  0.518200  1.0  -0.1116
  C  C679  1  0.145300  0.985000  0.453100  1.0  -0.0446
  C  C680  1  0.222000  0.564400  0.947800  1.0  -0.3929
  C  C681  1  0.250300  0.543790  0.006000  1.0  -0.1816
  C  C682  1  0.278400  0.565100  0.079700  1.0  -0.367
  C  C683  1  0.185200  0.457000  0.263200  1.0  0.1039
  C  C684  1  0.158300  0.430300  0.237200  1.0  -0.1094
  C  C685  1  0.166900  0.409000  0.163700  1.0  -0.1304
  C  C686  1  0.205900  0.413900  0.111000  1.0  -0.1798
  C  C687  1  0.231600  0.440400  0.133000  1.0  0.1427
  C  C688  1  0.063900  0.294300  0.026200  1.0  0.1754
  C  C689  1  0.091400  0.321400  0.047900  1.0  -0.1991
  C  C690  1  0.079800  0.343500  0.124000  1.0  0.1312
  C  C691  1  0.043500  0.336800  0.165100  1.0  -0.228
  C  C692  1  0.021400  0.309900  0.137000  1.0  0.1277
  C  C693  1  0.103700  0.372600  0.150400  1.0  -0.0296
  C  C694  1  0.136300  0.373300  0.116000  1.0  0.0505
  C  C695  1  0.156000  0.568970  0.805200  1.0  -0.3669
  C  C696  1  0.176500  0.593000  0.749500  1.0  -0.0452
  C  C697  1  0.153000  0.614700  0.692200  1.0  -0.1114
  C  C698  1  0.109000  0.612400  0.690500  1.0  -0.1445
  C  C699  1  0.088500  0.588400  0.746200  1.0  -0.1318
  C  C700  1  0.112000  0.566700  0.803500  1.0  -0.0652
  C  C701  1  0.348700  0.520100  0.066400  1.0  -0.2406
  C  C702  1  0.370500  0.538760  0.998000  1.0  -0.0957
  C  C703  1  0.397500  0.522600  0.934100  1.0  -0.1315
  C  C704  1  0.402600  0.487800  0.938500  1.0  -0.11
  C  C705  1  0.380800  0.469170  0.006800  1.0  -0.1112
  C  C706  1  0.353900  0.485300  0.070700  1.0  -0.0755
  C  C707  1  0.343250  0.568310  0.221700  1.0  -0.3566
  C  C708  1  0.386970  0.564300  0.227900  1.0  -0.0609
  C  C709  1  0.410580  0.585100  0.287500  1.0  -0.1434
  C  C710  1  0.390500  0.609900  0.341100  1.0  -0.1259
  C  C711  1  0.346700  0.613960  0.334900  1.0  -0.1046
  C  C712  1  0.323140  0.593100  0.275300  1.0  -0.075
  C  C713  1  0.152000  0.519700  0.953700  1.0  -0.2365
  C  C714  1  0.130700  0.539800  0.019200  1.0  -0.0867
  C  C715  1  0.102800  0.525300  0.084300  1.0  -0.1238
  C  C716  1  0.096200  0.490700  0.083800  1.0  -0.1036
  C  C717  1  0.117500  0.470500  0.018200  1.0  -0.1116
  C  C718  1  0.145300  0.485000  0.953100  1.0  -0.0446
  C  C719  1  0.722000  0.064400  0.947800  1.0  -0.3929
  C  C720  1  0.750300  0.043790  0.006000  1.0  -0.1816
  C  C721  1  0.778400  0.065100  0.079700  1.0  -0.367
  C  C722  1  0.685200  0.957000  0.263200  1.0  0.1039
  C  C723  1  0.658300  0.930300  0.237200  1.0  -0.1094
  C  C724  1  0.666900  0.909000  0.163700  1.0  -0.1304
  C  C725  1  0.705900  0.913900  0.111000  1.0  -0.1798
  C  C726  1  0.731600  0.940400  0.133000  1.0  0.1427
  C  C727  1  0.563900  0.794300  0.026200  1.0  0.1754
  C  C728  1  0.591400  0.821400  0.047900  1.0  -0.1991
  C  C729  1  0.579800  0.843500  0.124000  1.0  0.1312
  C  C730  1  0.543500  0.836800  0.165100  1.0  -0.228
  C  C731  1  0.521400  0.809900  0.137000  1.0  0.1277
  C  C732  1  0.603700  0.872600  0.150400  1.0  -0.0296
  C  C733  1  0.636300  0.873300  0.116000  1.0  0.0505
  C  C734  1  0.656000  0.068970  0.805200  1.0  -0.3669
  C  C735  1  0.676500  0.093000  0.749500  1.0  -0.0452
  C  C736  1  0.653000  0.114700  0.692200  1.0  -0.1114
  C  C737  1  0.609000  0.112400  0.690500  1.0  -0.1445
  C  C738  1  0.588500  0.088400  0.746200  1.0  -0.1318
  C  C739  1  0.612000  0.066700  0.803500  1.0  -0.0652
  C  C740  1  0.848700  0.020100  0.066400  1.0  -0.2406
  C  C741  1  0.870500  0.038760  0.998000  1.0  -0.0957
  C  C742  1  0.897500  0.022600  0.934100  1.0  -0.1315
  C  C743  1  0.902600  0.987800  0.938500  1.0  -0.11
  C  C744  1  0.880800  0.969170  0.006800  1.0  -0.1112
  C  C745  1  0.853900  0.985300  0.070700  1.0  -0.0755
  C  C746  1  0.843250  0.068310  0.221700  1.0  -0.3566
  C  C747  1  0.886970  0.064300  0.227900  1.0  -0.0609
  C  C748  1  0.910580  0.085100  0.287500  1.0  -0.1434
  C  C749  1  0.890500  0.109900  0.341100  1.0  -0.1259
  C  C750  1  0.846700  0.113960  0.334900  1.0  -0.1046
  C  C751  1  0.823140  0.093100  0.275300  1.0  -0.075
  C  C752  1  0.652000  0.019700  0.953700  1.0  -0.2365
  C  C753  1  0.630700  0.039800  0.019200  1.0  -0.0867
  C  C754  1  0.602800  0.025300  0.084300  1.0  -0.1238
  C  C755  1  0.596200  0.990700  0.083800  1.0  -0.1036
  C  C756  1  0.617500  0.970500  0.018200  1.0  -0.1116
  C  C757  1  0.645300  0.985000  0.953100  1.0  -0.0446
  C  C758  1  0.722000  0.564400  0.447800  1.0  -0.3929
  C  C759  1  0.750300  0.543790  0.506000  1.0  -0.1816
  C  C760  1  0.778400  0.565100  0.579700  1.0  -0.367
  C  C761  1  0.685200  0.457000  0.763200  1.0  0.1039
  C  C762  1  0.658300  0.430300  0.737200  1.0  -0.1094
  C  C763  1  0.666900  0.409000  0.663700  1.0  -0.1304
  C  C764  1  0.705900  0.413900  0.611000  1.0  -0.1798
  C  C765  1  0.731600  0.440400  0.633000  1.0  0.1427
  C  C766  1  0.563900  0.294300  0.526200  1.0  0.1754
  C  C767  1  0.591400  0.321400  0.547900  1.0  -0.1991
  C  C768  1  0.579800  0.343500  0.624000  1.0  0.1312
  C  C769  1  0.543500  0.336800  0.665100  1.0  -0.228
  C  C770  1  0.521400  0.309900  0.637000  1.0  0.1277
  C  C771  1  0.603700  0.372600  0.650400  1.0  -0.0296
  C  C772  1  0.636300  0.373300  0.616000  1.0  0.0505
  C  C773  1  0.656000  0.568970  0.305200  1.0  -0.3669
  C  C774  1  0.676500  0.593000  0.249500  1.0  -0.0452
  C  C775  1  0.653000  0.614700  0.192200  1.0  -0.1114
  C  C776  1  0.609000  0.612400  0.190500  1.0  -0.1445
  C  C777  1  0.588500  0.588400  0.246200  1.0  -0.1318
  C  C778  1  0.612000  0.566700  0.303500  1.0  -0.0652
  C  C779  1  0.848700  0.520100  0.566400  1.0  -0.2406
  C  C780  1  0.870500  0.538760  0.498000  1.0  -0.0957
  C  C781  1  0.897500  0.522600  0.434100  1.0  -0.1315
  C  C782  1  0.902600  0.487800  0.438500  1.0  -0.11
  C  C783  1  0.880800  0.469170  0.506800  1.0  -0.1112
  C  C784  1  0.853900  0.485300  0.570700  1.0  -0.0755
  C  C785  1  0.843250  0.568310  0.721700  1.0  -0.3566
  C  C786  1  0.886970  0.564300  0.727900  1.0  -0.0609
  C  C787  1  0.910580  0.585100  0.787500  1.0  -0.1434
  C  C788  1  0.890500  0.609900  0.841100  1.0  -0.1259
  C  C789  1  0.846700  0.613960  0.834900  1.0  -0.1046
  C  C790  1  0.823140  0.593100  0.775300  1.0  -0.075
  C  C791  1  0.652000  0.519700  0.453700  1.0  -0.2365
  C  C792  1  0.630700  0.539800  0.519200  1.0  -0.0867
  C  C793  1  0.602800  0.525300  0.584300  1.0  -0.1238
  C  C794  1  0.596200  0.490700  0.583800  1.0  -0.1036
  C  C795  1  0.617500  0.470500  0.518200  1.0  -0.1116
  C  C796  1  0.645300  0.485000  0.453100  1.0  -0.0446
  C  C797  1  0.778000  0.935600  0.447800  1.0  -0.3922
  C  C798  1  0.749700  0.956210  0.506000  1.0  -0.179
  C  C799  1  0.721600  0.934900  0.579700  1.0  -0.3691
  C  C800  1  0.814800  0.043000  0.763200  1.0  0.1066
  C  C801  1  0.841700  0.069700  0.737200  1.0  -0.1095
  C  C802  1  0.833100  0.091000  0.663700  1.0  -0.1312
  C  C803  1  0.794100  0.086100  0.611000  1.0  -0.1804
  C  C804  1  0.768400  0.059600  0.633000  1.0  0.1421
  C  C805  1  0.936100  0.205700  0.526200  1.0  0.1754
  C  C806  1  0.908600  0.178600  0.547900  1.0  -0.2001
  C  C807  1  0.920200  0.156500  0.624000  1.0  0.1305
  C  C808  1  0.956500  0.163200  0.665100  1.0  -0.2228
  C  C809  1  0.978600  0.190100  0.637000  1.0  0.1273
  C  C810  1  0.896300  0.127400  0.650400  1.0  -0.0292
  C  C811  1  0.863700  0.126700  0.616000  1.0  0.0511
  C  C812  1  0.844000  0.931030  0.305200  1.0  -0.3663
  C  C813  1  0.823500  0.907000  0.249500  1.0  -0.0442
  C  C814  1  0.847000  0.885300  0.192200  1.0  -0.1121
  C  C815  1  0.891000  0.887600  0.190500  1.0  -0.1445
  C  C816  1  0.911500  0.911600  0.246200  1.0  -0.133
  C  C817  1  0.888000  0.933300  0.303500  1.0  -0.0648
  C  C818  1  0.651300  0.979900  0.566400  1.0  -0.2386
  C  C819  1  0.629500  0.961240  0.498000  1.0  -0.0947
  C  C820  1  0.602500  0.977400  0.434100  1.0  -0.1302
  C  C821  1  0.597400  0.012200  0.438500  1.0  -0.111
  C  C822  1  0.619200  0.030830  0.506800  1.0  -0.1105
  C  C823  1  0.646100  0.014700  0.570700  1.0  -0.0766
  C  C824  1  0.656750  0.931690  0.721700  1.0  -0.3566
  C  C825  1  0.613030  0.935700  0.727900  1.0  -0.061
  C  C826  1  0.589420  0.914900  0.787500  1.0  -0.1444
  C  C827  1  0.609500  0.890100  0.841100  1.0  -0.1261
  C  C828  1  0.653300  0.886040  0.834900  1.0  -0.1056
  C  C829  1  0.676860  0.906900  0.775300  1.0  -0.0751
  C  C830  1  0.848000  0.980300  0.453700  1.0  -0.2355
  C  C831  1  0.869300  0.960200  0.519200  1.0  -0.0894
  C  C832  1  0.897200  0.974700  0.584300  1.0  -0.1243
  C  C833  1  0.903800  0.009300  0.583800  1.0  -0.1043
  C  C834  1  0.882500  0.029500  0.518200  1.0  -0.1107
  C  C835  1  0.854700  0.015000  0.453100  1.0  -0.043
  C  C836  1  0.778000  0.435600  0.947800  1.0  -0.3922
  C  C837  1  0.749700  0.456210  0.006000  1.0  -0.179
  C  C838  1  0.721600  0.434900  0.079700  1.0  -0.3691
  C  C839  1  0.814800  0.543000  0.263200  1.0  0.1066
  C  C840  1  0.841700  0.569700  0.237200  1.0  -0.1095
  C  C841  1  0.833100  0.591000  0.163700  1.0  -0.1312
  C  C842  1  0.794100  0.586100  0.111000  1.0  -0.1804
  C  C843  1  0.768400  0.559600  0.133000  1.0  0.1421
  C  C844  1  0.936100  0.705700  0.026200  1.0  0.1754
  C  C845  1  0.908600  0.678600  0.047900  1.0  -0.2001
  C  C846  1  0.920200  0.656500  0.124000  1.0  0.1305
  C  C847  1  0.956500  0.663200  0.165100  1.0  -0.2228
  C  C848  1  0.978600  0.690100  0.137000  1.0  0.1273
  C  C849  1  0.896300  0.627400  0.150400  1.0  -0.0292
  C  C850  1  0.863700  0.626700  0.116000  1.0  0.0511
  C  C851  1  0.844000  0.431030  0.805200  1.0  -0.3663
  C  C852  1  0.823500  0.407000  0.749500  1.0  -0.0442
  C  C853  1  0.847000  0.385300  0.692200  1.0  -0.1121
  C  C854  1  0.891000  0.387600  0.690500  1.0  -0.1445
  C  C855  1  0.911500  0.411600  0.746200  1.0  -0.133
  C  C856  1  0.888000  0.433300  0.803500  1.0  -0.0648
  C  C857  1  0.651300  0.479900  0.066400  1.0  -0.2386
  C  C858  1  0.629500  0.461240  0.998000  1.0  -0.0947
  C  C859  1  0.602500  0.477400  0.934100  1.0  -0.1302
  C  C860  1  0.597400  0.512200  0.938500  1.0  -0.111
  C  C861  1  0.619200  0.530830  0.006800  1.0  -0.1105
  C  C862  1  0.646100  0.514700  0.070700  1.0  -0.0766
  C  C863  1  0.656750  0.431690  0.221700  1.0  -0.3566
  C  C864  1  0.613030  0.435700  0.227900  1.0  -0.061
  C  C865  1  0.589420  0.414900  0.287500  1.0  -0.1444
  C  C866  1  0.609500  0.390100  0.341100  1.0  -0.1261
  C  C867  1  0.653300  0.386040  0.334900  1.0  -0.1056
  C  C868  1  0.676860  0.406900  0.275300  1.0  -0.0751
  C  C869  1  0.848000  0.480300  0.953700  1.0  -0.2355
  C  C870  1  0.869300  0.460200  0.019200  1.0  -0.0894
  C  C871  1  0.897200  0.474700  0.084300  1.0  -0.1243
  C  C872  1  0.903800  0.509300  0.083800  1.0  -0.1043
  C  C873  1  0.882500  0.529500  0.018200  1.0  -0.1107
  C  C874  1  0.854700  0.515000  0.953100  1.0  -0.043
  C  C875  1  0.278000  0.935600  0.947800  1.0  -0.3922
  C  C876  1  0.249700  0.956210  0.006000  1.0  -0.179
  C  C877  1  0.221600  0.934900  0.079700  1.0  -0.3691
  C  C878  1  0.314800  0.043000  0.263200  1.0  0.1066
  C  C879  1  0.341700  0.069700  0.237200  1.0  -0.1095
  C  C880  1  0.333100  0.091000  0.163700  1.0  -0.1312
  C  C881  1  0.294100  0.086100  0.111000  1.0  -0.1804
  C  C882  1  0.268400  0.059600  0.133000  1.0  0.1421
  C  C883  1  0.436100  0.205700  0.026200  1.0  0.1754
  C  C884  1  0.408600  0.178600  0.047900  1.0  -0.2001
  C  C885  1  0.420200  0.156500  0.124000  1.0  0.1305
  C  C886  1  0.456500  0.163200  0.165100  1.0  -0.2228
  C  C887  1  0.478600  0.190100  0.137000  1.0  0.1273
  C  C888  1  0.396300  0.127400  0.150400  1.0  -0.0292
  C  C889  1  0.363700  0.126700  0.116000  1.0  0.0511
  C  C890  1  0.344000  0.931030  0.805200  1.0  -0.3663
  C  C891  1  0.323500  0.907000  0.749500  1.0  -0.0442
  C  C892  1  0.347000  0.885300  0.692200  1.0  -0.1121
  C  C893  1  0.391000  0.887600  0.690500  1.0  -0.1445
  C  C894  1  0.411500  0.911600  0.746200  1.0  -0.133
  C  C895  1  0.388000  0.933300  0.803500  1.0  -0.0648
  C  C896  1  0.151300  0.979900  0.066400  1.0  -0.2386
  C  C897  1  0.129500  0.961240  0.998000  1.0  -0.0947
  C  C898  1  0.102500  0.977400  0.934100  1.0  -0.1302
  C  C899  1  0.097400  0.012200  0.938500  1.0  -0.111
  C  C900  1  0.119200  0.030830  0.006800  1.0  -0.1105
  C  C901  1  0.146100  0.014700  0.070700  1.0  -0.0766
  C  C902  1  0.156750  0.931690  0.221700  1.0  -0.3566
  C  C903  1  0.113030  0.935700  0.227900  1.0  -0.061
  C  C904  1  0.089420  0.914900  0.287500  1.0  -0.1444
  C  C905  1  0.109500  0.890100  0.341100  1.0  -0.1261
  C  C906  1  0.153300  0.886040  0.334900  1.0  -0.1056
  C  C907  1  0.176860  0.906900  0.275300  1.0  -0.0751
  C  C908  1  0.348000  0.980300  0.953700  1.0  -0.2355
  C  C909  1  0.369300  0.960200  0.019200  1.0  -0.0894
  C  C910  1  0.397200  0.974700  0.084300  1.0  -0.1243
  C  C911  1  0.403800  0.009300  0.083800  1.0  -0.1043
  C  C912  1  0.382500  0.029500  0.018200  1.0  -0.1107
  C  C913  1  0.354700  0.015000  0.953100  1.0  -0.043
  C  C914  1  0.278000  0.435600  0.447800  1.0  -0.3922
  C  C915  1  0.249700  0.456210  0.506000  1.0  -0.179
  C  C916  1  0.221600  0.434900  0.579700  1.0  -0.3691
  C  C917  1  0.314800  0.543000  0.763200  1.0  0.1066
  C  C918  1  0.341700  0.569700  0.737200  1.0  -0.1095
  C  C919  1  0.333100  0.591000  0.663700  1.0  -0.1312
  C  C920  1  0.294100  0.586100  0.611000  1.0  -0.1804
  C  C921  1  0.268400  0.559600  0.633000  1.0  0.1421
  C  C922  1  0.436100  0.705700  0.526200  1.0  0.1754
  C  C923  1  0.408600  0.678600  0.547900  1.0  -0.2001
  C  C924  1  0.420200  0.656500  0.624000  1.0  0.1305
  C  C925  1  0.456500  0.663200  0.665100  1.0  -0.2228
  C  C926  1  0.478600  0.690100  0.637000  1.0  0.1273
  C  C927  1  0.396300  0.627400  0.650400  1.0  -0.0292
  C  C928  1  0.363700  0.626700  0.616000  1.0  0.0511
  C  C929  1  0.344000  0.431030  0.305200  1.0  -0.3663
  C  C930  1  0.323500  0.407000  0.249500  1.0  -0.0442
  C  C931  1  0.347000  0.385300  0.192200  1.0  -0.1121
  C  C932  1  0.391000  0.387600  0.190500  1.0  -0.1445
  C  C933  1  0.411500  0.411600  0.246200  1.0  -0.133
  C  C934  1  0.388000  0.433300  0.303500  1.0  -0.0648
  C  C935  1  0.151300  0.479900  0.566400  1.0  -0.2386
  C  C936  1  0.129500  0.461240  0.498000  1.0  -0.0947
  C  C937  1  0.102500  0.477400  0.434100  1.0  -0.1302
  C  C938  1  0.097400  0.512200  0.438500  1.0  -0.111
  C  C939  1  0.119200  0.530830  0.506800  1.0  -0.1105
  C  C940  1  0.146100  0.514700  0.570700  1.0  -0.0766
  C  C941  1  0.156750  0.431690  0.721700  1.0  -0.3566
  C  C942  1  0.113030  0.435700  0.727900  1.0  -0.061
  C  C943  1  0.089420  0.414900  0.787500  1.0  -0.1444
  C  C944  1  0.109500  0.390100  0.841100  1.0  -0.1261
  C  C945  1  0.153300  0.386040  0.834900  1.0  -0.1056
  C  C946  1  0.176860  0.406900  0.775300  1.0  -0.0751
  C  C947  1  0.348000  0.480300  0.453700  1.0  -0.2355
  C  C948  1  0.369300  0.460200  0.519200  1.0  -0.0894
  C  C949  1  0.397200  0.474700  0.584300  1.0  -0.1243
  C  C950  1  0.403800  0.509300  0.583800  1.0  -0.1043
  C  C951  1  0.382500  0.529500  0.518200  1.0  -0.1107
  C  C952  1  0.354700  0.515000  0.453100  1.0  -0.043
  C  C953  1  0.472000  0.185600  0.697800  1.0  -0.3927
  C  C954  1  0.500300  0.206210  0.756000  1.0  -0.1789
  C  C955  1  0.528400  0.184900  0.829700  1.0  -0.3685
  C  C956  1  0.435200  0.293000  0.013200  1.0  0.1055
  C  C957  1  0.408300  0.319700  0.987200  1.0  -0.1096
  C  C958  1  0.416900  0.341000  0.913700  1.0  -0.1317
  C  C959  1  0.455900  0.336100  0.861000  1.0  -0.1803
  C  C960  1  0.481600  0.309600  0.883000  1.0  0.1421
  C  C961  1  0.313900  0.455700  0.776200  1.0  0.1753
  C  C962  1  0.341400  0.428600  0.797900  1.0  -0.1989
  C  C963  1  0.329800  0.406500  0.874000  1.0  0.1302
  C  C964  1  0.293500  0.413200  0.915100  1.0  -0.226
  C  C965  1  0.271400  0.440100  0.887000  1.0  0.1278
  C  C966  1  0.353700  0.377400  0.900400  1.0  -0.0294
  C  C967  1  0.386300  0.376700  0.866000  1.0  0.0504
  C  C968  1  0.406000  0.181030  0.555200  1.0  -0.3673
  C  C969  1  0.426500  0.157000  0.499500  1.0  -0.0455
  C  C970  1  0.403000  0.135300  0.442200  1.0  -0.1122
  C  C971  1  0.359000  0.137600  0.440500  1.0  -0.1448
  C  C972  1  0.338500  0.161600  0.496200  1.0  -0.1324
  C  C973  1  0.362000  0.183300  0.553500  1.0  -0.0653
  C  C974  1  0.598700  0.229900  0.816400  1.0  -0.2403
  C  C975  1  0.620500  0.211240  0.748000  1.0  -0.0957
  C  C976  1  0.647500  0.227400  0.684100  1.0  -0.132
  C  C977  1  0.652600  0.262200  0.688500  1.0  -0.1095
  C  C978  1  0.630800  0.280830  0.756800  1.0  -0.1102
  C  C979  1  0.603900  0.264700  0.820700  1.0  -0.0755
  C  C980  1  0.593250  0.181690  0.971700  1.0  -0.3563
  C  C981  1  0.636970  0.185700  0.977900  1.0  -0.0606
  C  C982  1  0.660580  0.164900  0.037500  1.0  -0.1437
  C  C983  1  0.640500  0.140100  0.091100  1.0  -0.1263
  C  C984  1  0.596700  0.136040  0.084900  1.0  -0.1048
  C  C985  1  0.573140  0.156900  0.025300  1.0  -0.0747
  C  C986  1  0.402000  0.230300  0.703700  1.0  -0.237
  C  C987  1  0.380700  0.210200  0.769200  1.0  -0.0868
  C  C988  1  0.352800  0.224700  0.834300  1.0  -0.1233
  C  C989  1  0.346200  0.259300  0.833800  1.0  -0.1047
  C  C990  1  0.367500  0.279500  0.768200  1.0  -0.1121
  C  C991  1  0.395300  0.265000  0.703100  1.0  -0.0448
  C  C992  1  0.472000  0.685600  0.197800  1.0  -0.3927
  C  C993  1  0.500300  0.706210  0.256000  1.0  -0.1789
  C  C994  1  0.528400  0.684900  0.329700  1.0  -0.3685
  C  C995  1  0.435200  0.793000  0.513200  1.0  0.1055
  C  C996  1  0.408300  0.819700  0.487200  1.0  -0.1096
  C  C997  1  0.416900  0.841000  0.413700  1.0  -0.1317
  C  C998  1  0.455900  0.836100  0.361000  1.0  -0.1803
  C  C999  1  0.481600  0.809600  0.383000  1.0  0.1421
  C  C1000  1  0.313900  0.955700  0.276200  1.0  0.1753
  C  C1001  1  0.341400  0.928600  0.297900  1.0  -0.1989
  C  C1002  1  0.329800  0.906500  0.374000  1.0  0.1302
  C  C1003  1  0.293500  0.913200  0.415100  1.0  -0.226
  C  C1004  1  0.271400  0.940100  0.387000  1.0  0.1278
  C  C1005  1  0.353700  0.877400  0.400400  1.0  -0.0294
  C  C1006  1  0.386300  0.876700  0.366000  1.0  0.0504
  C  C1007  1  0.406000  0.681030  0.055200  1.0  -0.3673
  C  C1008  1  0.426500  0.657000  0.999500  1.0  -0.0455
  C  C1009  1  0.403000  0.635300  0.942200  1.0  -0.1122
  C  C1010  1  0.359000  0.637600  0.940500  1.0  -0.1448
  C  C1011  1  0.338500  0.661600  0.996200  1.0  -0.1324
  C  C1012  1  0.362000  0.683300  0.053500  1.0  -0.0653
  C  C1013  1  0.598700  0.729900  0.316400  1.0  -0.2403
  C  C1014  1  0.620500  0.711240  0.248000  1.0  -0.0957
  C  C1015  1  0.647500  0.727400  0.184100  1.0  -0.132
  C  C1016  1  0.652600  0.762200  0.188500  1.0  -0.1095
  C  C1017  1  0.630800  0.780830  0.256800  1.0  -0.1102
  C  C1018  1  0.603900  0.764700  0.320700  1.0  -0.0755
  C  C1019  1  0.593250  0.681690  0.471700  1.0  -0.3563
  C  C1020  1  0.636970  0.685700  0.477900  1.0  -0.0606
  C  C1021  1  0.660580  0.664900  0.537500  1.0  -0.1437
  C  C1022  1  0.640500  0.640100  0.591100  1.0  -0.1263
  C  C1023  1  0.596700  0.636040  0.584900  1.0  -0.1048
  C  C1024  1  0.573140  0.656900  0.525300  1.0  -0.0747
  C  C1025  1  0.402000  0.730300  0.203700  1.0  -0.237
  C  C1026  1  0.380700  0.710200  0.269200  1.0  -0.0868
  C  C1027  1  0.352800  0.724700  0.334300  1.0  -0.1233
  C  C1028  1  0.346200  0.759300  0.333800  1.0  -0.1047
  C  C1029  1  0.367500  0.779500  0.268200  1.0  -0.1121
  C  C1030  1  0.395300  0.765000  0.203100  1.0  -0.0448
  C  C1031  1  0.972000  0.185600  0.197800  1.0  -0.3927
  C  C1032  1  0.000300  0.206210  0.256000  1.0  -0.1789
  C  C1033  1  0.028400  0.184900  0.329700  1.0  -0.3685
  C  C1034  1  0.935200  0.293000  0.513200  1.0  0.1055
  C  C1035  1  0.908300  0.319700  0.487200  1.0  -0.1096
  C  C1036  1  0.916900  0.341000  0.413700  1.0  -0.1317
  C  C1037  1  0.955900  0.336100  0.361000  1.0  -0.1803
  C  C1038  1  0.981600  0.309600  0.383000  1.0  0.1421
  C  C1039  1  0.813900  0.455700  0.276200  1.0  0.1753
  C  C1040  1  0.841400  0.428600  0.297900  1.0  -0.1989
  C  C1041  1  0.829800  0.406500  0.374000  1.0  0.1302
  C  C1042  1  0.793500  0.413200  0.415100  1.0  -0.226
  C  C1043  1  0.771400  0.440100  0.387000  1.0  0.1278
  C  C1044  1  0.853700  0.377400  0.400400  1.0  -0.0294
  C  C1045  1  0.886300  0.376700  0.366000  1.0  0.0504
  C  C1046  1  0.906000  0.181030  0.055200  1.0  -0.3673
  C  C1047  1  0.926500  0.157000  0.999500  1.0  -0.0455
  C  C1048  1  0.903000  0.135300  0.942200  1.0  -0.1122
  C  C1049  1  0.859000  0.137600  0.940500  1.0  -0.1448
  C  C1050  1  0.838500  0.161600  0.996200  1.0  -0.1324
  C  C1051  1  0.862000  0.183300  0.053500  1.0  -0.0653
  C  C1052  1  0.098700  0.229900  0.316400  1.0  -0.2403
  C  C1053  1  0.120500  0.211240  0.248000  1.0  -0.0957
  C  C1054  1  0.147500  0.227400  0.184100  1.0  -0.132
  C  C1055  1  0.152600  0.262200  0.188500  1.0  -0.1095
  C  C1056  1  0.130800  0.280830  0.256800  1.0  -0.1102
  C  C1057  1  0.103900  0.264700  0.320700  1.0  -0.0755
  C  C1058  1  0.093250  0.181690  0.471700  1.0  -0.3563
  C  C1059  1  0.136970  0.185700  0.477900  1.0  -0.0606
  C  C1060  1  0.160580  0.164900  0.537500  1.0  -0.1437
  C  C1061  1  0.140500  0.140100  0.591100  1.0  -0.1263
  C  C1062  1  0.096700  0.136040  0.584900  1.0  -0.1048
  C  C1063  1  0.073140  0.156900  0.525300  1.0  -0.0747
  C  C1064  1  0.902000  0.230300  0.203700  1.0  -0.237
  C  C1065  1  0.880700  0.210200  0.269200  1.0  -0.0868
  C  C1066  1  0.852800  0.224700  0.334300  1.0  -0.1233
  C  C1067  1  0.846200  0.259300  0.333800  1.0  -0.1047
  C  C1068  1  0.867500  0.279500  0.268200  1.0  -0.1121
  C  C1069  1  0.895300  0.265000  0.203100  1.0  -0.0448
  C  C1070  1  0.972000  0.685600  0.697800  1.0  -0.3927
  C  C1071  1  0.000300  0.706210  0.756000  1.0  -0.1789
  C  C1072  1  0.028400  0.684900  0.829700  1.0  -0.3685
  C  C1073  1  0.935200  0.793000  0.013200  1.0  0.1055
  C  C1074  1  0.908300  0.819700  0.987200  1.0  -0.1096
  C  C1075  1  0.916900  0.841000  0.913700  1.0  -0.1317
  C  C1076  1  0.955900  0.836100  0.861000  1.0  -0.1803
  C  C1077  1  0.981600  0.809600  0.883000  1.0  0.1421
  C  C1078  1  0.813900  0.955700  0.776200  1.0  0.1753
  C  C1079  1  0.841400  0.928600  0.797900  1.0  -0.1989
  C  C1080  1  0.829800  0.906500  0.874000  1.0  0.1302
  C  C1081  1  0.793500  0.913200  0.915100  1.0  -0.226
  C  C1082  1  0.771400  0.940100  0.887000  1.0  0.1278
  C  C1083  1  0.853700  0.877400  0.900400  1.0  -0.0294
  C  C1084  1  0.886300  0.876700  0.866000  1.0  0.0504
  C  C1085  1  0.906000  0.681030  0.555200  1.0  -0.3673
  C  C1086  1  0.926500  0.657000  0.499500  1.0  -0.0455
  C  C1087  1  0.903000  0.635300  0.442200  1.0  -0.1122
  C  C1088  1  0.859000  0.637600  0.440500  1.0  -0.1448
  C  C1089  1  0.838500  0.661600  0.496200  1.0  -0.1324
  C  C1090  1  0.862000  0.683300  0.553500  1.0  -0.0653
  C  C1091  1  0.098700  0.729900  0.816400  1.0  -0.2403
  C  C1092  1  0.120500  0.711240  0.748000  1.0  -0.0957
  C  C1093  1  0.147500  0.727400  0.684100  1.0  -0.132
  C  C1094  1  0.152600  0.762200  0.688500  1.0  -0.1095
  C  C1095  1  0.130800  0.780830  0.756800  1.0  -0.1102
  C  C1096  1  0.103900  0.764700  0.820700  1.0  -0.0755
  C  C1097  1  0.093250  0.681690  0.971700  1.0  -0.3563
  C  C1098  1  0.136970  0.685700  0.977900  1.0  -0.0606
  C  C1099  1  0.160580  0.664900  0.037500  1.0  -0.1437
  C  C1100  1  0.140500  0.640100  0.091100  1.0  -0.1263
  C  C1101  1  0.096700  0.636040  0.084900  1.0  -0.1048
  C  C1102  1  0.073140  0.656900  0.025300  1.0  -0.0747
  C  C1103  1  0.902000  0.730300  0.703700  1.0  -0.237
  C  C1104  1  0.880700  0.710200  0.769200  1.0  -0.0868
  C  C1105  1  0.852800  0.724700  0.834300  1.0  -0.1233
  C  C1106  1  0.846200  0.759300  0.833800  1.0  -0.1047
  C  C1107  1  0.867500  0.779500  0.768200  1.0  -0.1121
  C  C1108  1  0.895300  0.765000  0.703100  1.0  -0.0448
  C  C1109  1  0.028000  0.314400  0.697800  1.0  -0.3928
  C  C1110  1  0.999700  0.293790  0.756000  1.0  -0.1817
  C  C1111  1  0.971600  0.315100  0.829700  1.0  -0.3676
  C  C1112  1  0.064800  0.207000  0.013200  1.0  0.1073
  C  C1113  1  0.091700  0.180300  0.987200  1.0  -0.1092
  C  C1114  1  0.083100  0.159000  0.913700  1.0  -0.1298
  C  C1115  1  0.044100  0.163900  0.861000  1.0  -0.1807
  C  C1116  1  0.018400  0.190400  0.883000  1.0  0.1426
  C  C1117  1  0.186100  0.044300  0.776200  1.0  0.1757
  C  C1118  1  0.158600  0.071400  0.797900  1.0  -0.1999
  C  C1119  1  0.170200  0.093500  0.874000  1.0  0.1313
  C  C1120  1  0.206500  0.086800  0.915100  1.0  -0.2246
  C  C1121  1  0.228600  0.059900  0.887000  1.0  0.127
  C  C1122  1  0.146300  0.122600  0.900400  1.0  -0.0297
  C  C1123  1  0.113700  0.123300  0.866000  1.0  0.051
  C  C1124  1  0.094000  0.318970  0.555200  1.0  -0.3657
  C  C1125  1  0.073500  0.343000  0.499500  1.0  -0.0446
  C  C1126  1  0.097000  0.364700  0.442200  1.0  -0.1114
  C  C1127  1  0.141000  0.362400  0.440500  1.0  -0.144
  C  C1128  1  0.161500  0.338400  0.496200  1.0  -0.133
  C  C1129  1  0.138000  0.316700  0.553500  1.0  -0.0647
  C  C1130  1  0.901300  0.270100  0.816400  1.0  -0.2389
  C  C1131  1  0.879500  0.288760  0.748000  1.0  -0.0941
  C  C1132  1  0.852500  0.272600  0.684100  1.0  -0.1305
  C  C1133  1  0.847400  0.237800  0.688500  1.0  -0.1107
  C  C1134  1  0.869200  0.219170  0.756800  1.0  -0.1112
  C  C1135  1  0.896100  0.235300  0.820700  1.0  -0.0768
  C  C1136  1  0.906750  0.318310  0.971700  1.0  -0.3573
  C  C1137  1  0.863030  0.314300  0.977900  1.0  -0.061
  C  C1138  1  0.839420  0.335100  0.037500  1.0  -0.1442
  C  C1139  1  0.859500  0.359900  0.091100  1.0  -0.1258
  C  C1140  1  0.903300  0.363960  0.084900  1.0  -0.1052
  C  C1141  1  0.926860  0.343100  0.025300  1.0  -0.0748
  C  C1142  1  0.098000  0.269700  0.703700  1.0  -0.2353
  C  C1143  1  0.119300  0.289800  0.769200  1.0  -0.0892
  C  C1144  1  0.147200  0.275300  0.834300  1.0  -0.124
  C  C1145  1  0.153800  0.240700  0.833800  1.0  -0.1046
  C  C1146  1  0.132500  0.220500  0.768200  1.0  -0.1108
  C  C1147  1  0.104700  0.235000  0.703100  1.0  -0.0426
  C  C1148  1  0.028000  0.814400  0.197800  1.0  -0.3928
  C  C1149  1  0.999700  0.793790  0.256000  1.0  -0.1817
  C  C1150  1  0.971600  0.815100  0.329700  1.0  -0.3676
  C  C1151  1  0.064800  0.707000  0.513200  1.0  0.1073
  C  C1152  1  0.091700  0.680300  0.487200  1.0  -0.1092
  C  C1153  1  0.083100  0.659000  0.413700  1.0  -0.1298
  C  C1154  1  0.044100  0.663900  0.361000  1.0  -0.1807
  C  C1155  1  0.018400  0.690400  0.383000  1.0  0.1426
  C  C1156  1  0.186100  0.544300  0.276200  1.0  0.1757
  C  C1157  1  0.158600  0.571400  0.297900  1.0  -0.1999
  C  C1158  1  0.170200  0.593500  0.374000  1.0  0.1313
  C  C1159  1  0.206500  0.586800  0.415100  1.0  -0.2246
  C  C1160  1  0.228600  0.559900  0.387000  1.0  0.127
  C  C1161  1  0.146300  0.622600  0.400400  1.0  -0.0297
  C  C1162  1  0.113700  0.623300  0.366000  1.0  0.051
  C  C1163  1  0.094000  0.818970  0.055200  1.0  -0.3657
  C  C1164  1  0.073500  0.843000  0.999500  1.0  -0.0446
  C  C1165  1  0.097000  0.864700  0.942200  1.0  -0.1114
  C  C1166  1  0.141000  0.862400  0.940500  1.0  -0.144
  C  C1167  1  0.161500  0.838400  0.996200  1.0  -0.133
  C  C1168  1  0.138000  0.816700  0.053500  1.0  -0.0647
  C  C1169  1  0.901300  0.770100  0.316400  1.0  -0.2389
  C  C1170  1  0.879500  0.788760  0.248000  1.0  -0.0941
  C  C1171  1  0.852500  0.772600  0.184100  1.0  -0.1305
  C  C1172  1  0.847400  0.737800  0.188500  1.0  -0.1107
  C  C1173  1  0.869200  0.719170  0.256800  1.0  -0.1112
  C  C1174  1  0.896100  0.735300  0.320700  1.0  -0.0768
  C  C1175  1  0.906750  0.818310  0.471700  1.0  -0.3573
  C  C1176  1  0.863030  0.814300  0.477900  1.0  -0.061
  C  C1177  1  0.839420  0.835100  0.537500  1.0  -0.1442
  C  C1178  1  0.859500  0.859900  0.591100  1.0  -0.1258
  C  C1179  1  0.903300  0.863960  0.584900  1.0  -0.1052
  C  C1180  1  0.926860  0.843100  0.525300  1.0  -0.0748
  C  C1181  1  0.098000  0.769700  0.203700  1.0  -0.2353
  C  C1182  1  0.119300  0.789800  0.269200  1.0  -0.0892
  C  C1183  1  0.147200  0.775300  0.334300  1.0  -0.124
  C  C1184  1  0.153800  0.740700  0.333800  1.0  -0.1046
  C  C1185  1  0.132500  0.720500  0.268200  1.0  -0.1108
  C  C1186  1  0.104700  0.735000  0.203100  1.0  -0.0426
  C  C1187  1  0.528000  0.314400  0.197800  1.0  -0.3928
  C  C1188  1  0.499700  0.293790  0.256000  1.0  -0.1817
  C  C1189  1  0.471600  0.315100  0.329700  1.0  -0.3676
  C  C1190  1  0.564800  0.207000  0.513200  1.0  0.1073
  C  C1191  1  0.591700  0.180300  0.487200  1.0  -0.1092
  C  C1192  1  0.583100  0.159000  0.413700  1.0  -0.1298
  C  C1193  1  0.544100  0.163900  0.361000  1.0  -0.1807
  C  C1194  1  0.518400  0.190400  0.383000  1.0  0.1426
  C  C1195  1  0.686100  0.044300  0.276200  1.0  0.1757
  C  C1196  1  0.658600  0.071400  0.297900  1.0  -0.1999
  C  C1197  1  0.670200  0.093500  0.374000  1.0  0.1313
  C  C1198  1  0.706500  0.086800  0.415100  1.0  -0.2246
  C  C1199  1  0.728600  0.059900  0.387000  1.0  0.127
  C  C1200  1  0.646300  0.122600  0.400400  1.0  -0.0297
  C  C1201  1  0.613700  0.123300  0.366000  1.0  0.051
  C  C1202  1  0.594000  0.318970  0.055200  1.0  -0.3657
  C  C1203  1  0.573500  0.343000  0.999500  1.0  -0.0446
  C  C1204  1  0.597000  0.364700  0.942200  1.0  -0.1114
  C  C1205  1  0.641000  0.362400  0.940500  1.0  -0.144
  C  C1206  1  0.661500  0.338400  0.996200  1.0  -0.133
  C  C1207  1  0.638000  0.316700  0.053500  1.0  -0.0647
  C  C1208  1  0.401300  0.270100  0.316400  1.0  -0.2389
  C  C1209  1  0.379500  0.288760  0.248000  1.0  -0.0941
  C  C1210  1  0.352500  0.272600  0.184100  1.0  -0.1305
  C  C1211  1  0.347400  0.237800  0.188500  1.0  -0.1107
  C  C1212  1  0.369200  0.219170  0.256800  1.0  -0.1112
  C  C1213  1  0.396100  0.235300  0.320700  1.0  -0.0768
  C  C1214  1  0.406750  0.318310  0.471700  1.0  -0.3573
  C  C1215  1  0.363030  0.314300  0.477900  1.0  -0.061
  C  C1216  1  0.339420  0.335100  0.537500  1.0  -0.1442
  C  C1217  1  0.359500  0.359900  0.591100  1.0  -0.1258
  C  C1218  1  0.403300  0.363960  0.584900  1.0  -0.1052
  C  C1219  1  0.426860  0.343100  0.525300  1.0  -0.0748
  C  C1220  1  0.598000  0.269700  0.203700  1.0  -0.2353
  C  C1221  1  0.619300  0.289800  0.269200  1.0  -0.0892
  C  C1222  1  0.647200  0.275300  0.334300  1.0  -0.124
  C  C1223  1  0.653800  0.240700  0.333800  1.0  -0.1046
  C  C1224  1  0.632500  0.220500  0.268200  1.0  -0.1108
  C  C1225  1  0.604700  0.235000  0.203100  1.0  -0.0426
  C  C1226  1  0.528000  0.814400  0.697800  1.0  -0.3928
  C  C1227  1  0.499700  0.793790  0.756000  1.0  -0.1817
  C  C1228  1  0.471600  0.815100  0.829700  1.0  -0.3676
  C  C1229  1  0.564800  0.707000  0.013200  1.0  0.1073
  C  C1230  1  0.591700  0.680300  0.987200  1.0  -0.1092
  C  C1231  1  0.583100  0.659000  0.913700  1.0  -0.1298
  C  C1232  1  0.544100  0.663900  0.861000  1.0  -0.1807
  C  C1233  1  0.518400  0.690400  0.883000  1.0  0.1426
  C  C1234  1  0.686100  0.544300  0.776200  1.0  0.1757
  C  C1235  1  0.658600  0.571400  0.797900  1.0  -0.1999
  C  C1236  1  0.670200  0.593500  0.874000  1.0  0.1313
  C  C1237  1  0.706500  0.586800  0.915100  1.0  -0.2246
  C  C1238  1  0.728600  0.559900  0.887000  1.0  0.127
  C  C1239  1  0.646300  0.622600  0.900400  1.0  -0.0297
  C  C1240  1  0.613700  0.623300  0.866000  1.0  0.051
  C  C1241  1  0.594000  0.818970  0.555200  1.0  -0.3657
  C  C1242  1  0.573500  0.843000  0.499500  1.0  -0.0446
  C  C1243  1  0.597000  0.864700  0.442200  1.0  -0.1114
  C  C1244  1  0.641000  0.862400  0.440500  1.0  -0.144
  C  C1245  1  0.661500  0.838400  0.496200  1.0  -0.133
  C  C1246  1  0.638000  0.816700  0.553500  1.0  -0.0647
  C  C1247  1  0.401300  0.770100  0.816400  1.0  -0.2389
  C  C1248  1  0.379500  0.788760  0.748000  1.0  -0.0941
  C  C1249  1  0.352500  0.772600  0.684100  1.0  -0.1305
  C  C1250  1  0.347400  0.737800  0.688500  1.0  -0.1107
  C  C1251  1  0.369200  0.719170  0.756800  1.0  -0.1112
  C  C1252  1  0.396100  0.735300  0.820700  1.0  -0.0768
  C  C1253  1  0.406750  0.818310  0.971700  1.0  -0.3573
  C  C1254  1  0.363030  0.814300  0.977900  1.0  -0.061
  C  C1255  1  0.339420  0.835100  0.037500  1.0  -0.1442
  C  C1256  1  0.359500  0.859900  0.091100  1.0  -0.1258
  C  C1257  1  0.403300  0.863960  0.084900  1.0  -0.1052
  C  C1258  1  0.426860  0.843100  0.025300  1.0  -0.0748
  C  C1259  1  0.598000  0.769700  0.703700  1.0  -0.2353
  C  C1260  1  0.619300  0.789800  0.769200  1.0  -0.0892
  C  C1261  1  0.647200  0.775300  0.834300  1.0  -0.124
  C  C1262  1  0.653800  0.740700  0.833800  1.0  -0.1046
  C  C1263  1  0.632500  0.720500  0.768200  1.0  -0.1108
  C  C1264  1  0.604700  0.735000  0.703100  1.0  -0.0426
  N  N1265  1  0.221100  0.961200  0.704800  1.0  -0.3976
  N  N1266  1  0.028700  0.787630  0.565400  1.0  -0.3212
  N  N1267  1  0.221100  0.461200  0.204800  1.0  -0.3976
  N  N1268  1  0.028700  0.287630  0.065400  1.0  -0.3212
  N  N1269  1  0.721100  0.961200  0.204800  1.0  -0.3976
  N  N1270  1  0.528700  0.787630  0.065400  1.0  -0.3212
  N  N1271  1  0.721100  0.461200  0.704800  1.0  -0.3976
  N  N1272  1  0.528700  0.287630  0.565400  1.0  -0.3212
  N  N1273  1  0.778900  0.038800  0.704800  1.0  -0.3966
  N  N1274  1  0.971300  0.212370  0.565400  1.0  -0.3195
  N  N1275  1  0.778900  0.538800  0.204800  1.0  -0.3966
  N  N1276  1  0.971300  0.712370  0.065400  1.0  -0.3195
  N  N1277  1  0.278900  0.038800  0.204800  1.0  -0.3966
  N  N1278  1  0.471300  0.212370  0.065400  1.0  -0.3195
  N  N1279  1  0.278900  0.538800  0.704800  1.0  -0.3966
  N  N1280  1  0.471300  0.712370  0.565400  1.0  -0.3195
  N  N1281  1  0.471100  0.288800  0.954800  1.0  -0.3952
  N  N1282  1  0.278700  0.462370  0.815400  1.0  -0.3204
  N  N1283  1  0.471100  0.788800  0.454800  1.0  -0.3952
  N  N1284  1  0.278700  0.962370  0.315400  1.0  -0.3204
  N  N1285  1  0.971100  0.288800  0.454800  1.0  -0.3952
  N  N1286  1  0.778700  0.462370  0.315400  1.0  -0.3204
  N  N1287  1  0.971100  0.788800  0.954800  1.0  -0.3952
  N  N1288  1  0.778700  0.962370  0.815400  1.0  -0.3204
  N  N1289  1  0.028900  0.211200  0.954800  1.0  -0.3974
  N  N1290  1  0.221300  0.037630  0.815400  1.0  -0.3184
  N  N1291  1  0.028900  0.711200  0.454800  1.0  -0.3974
  N  N1292  1  0.221300  0.537630  0.315400  1.0  -0.3184
  N  N1293  1  0.528900  0.211200  0.454800  1.0  -0.3974
  N  N1294  1  0.721300  0.037630  0.315400  1.0  -0.3184
  N  N1295  1  0.528900  0.711200  0.954800  1.0  -0.3974
  N  N1296  1  0.721300  0.537630  0.815400  1.0  -0.3184
