# generated using pymatgen
data_MnH28C30N2(O3F5)2
_symmetry_space_group_name_H-M   'P 1'
_cell_length_a   20.17160000
_cell_length_b   20.17160000
_cell_length_c   41.23000000
_cell_angle_alpha   90.00000000
_cell_angle_beta   90.00000000
_cell_angle_gamma   90.00000000
_symmetry_Int_Tables_number   1
_chemical_formula_structural   MnH28C30N2(O3F5)2
_chemical_formula_sum   'Mn16 H448 C480 N32 O96 F160'
_cell_volume   16776.21680167
_cell_formula_units_Z   16
loop_
 _symmetry_equiv_pos_site_id
 _symmetry_equiv_pos_as_xyz
  1  'x, y, z'
loop_
 _atom_site_type_symbol
 _atom_site_label
 _atom_site_symmetry_multiplicity
 _atom_site_fract_x
 _atom_site_fract_y
 _atom_site_fract_z
 _atom_site_occupancy
 _atom_site_charge
  Mn  Mn1  1  0.047270  0.727230  0.891730  1.0  1.148
  Mn  Mn2  1  0.550800  0.736000  0.880270  1.0  1.1333
  Mn  Mn3  1  0.952730  0.272770  0.391730  1.0  1.1468
  Mn  Mn4  1  0.449200  0.264000  0.380270  1.0  1.1341
  Mn  Mn5  1  0.772770  0.547270  0.641730  1.0  1.1475
  Mn  Mn6  1  0.764000  0.050800  0.630270  1.0  1.1341
  Mn  Mn7  1  0.227230  0.452730  0.141730  1.0  1.1491
  Mn  Mn8  1  0.236000  0.949200  0.130270  1.0  1.1341
  Mn  Mn9  1  0.452730  0.227230  0.858270  1.0  1.1477
  Mn  Mn10  1  0.949200  0.236000  0.869730  1.0  1.1341
  Mn  Mn11  1  0.547270  0.772770  0.358270  1.0  1.147
  Mn  Mn12  1  0.050800  0.764000  0.369730  1.0  1.1336
  Mn  Mn13  1  0.727230  0.047270  0.108270  1.0  1.1497
  Mn  Mn14  1  0.736000  0.550800  0.119730  1.0  1.1342
  Mn  Mn15  1  0.272770  0.952730  0.608270  1.0  1.1467
  Mn  Mn16  1  0.264000  0.449200  0.619730  1.0  1.1343
  H  H17  1  0.868700  0.690500  0.755500  1.0  0.1304
  H  H18  1  0.957100  0.643000  0.779300  1.0  0.1808
  H  H19  1  0.998500  0.812900  0.824600  1.0  0.1448
  H  H20  1  0.904700  0.859300  0.803800  1.0  0.1433
  H  H21  1  0.001000  0.576500  0.807300  1.0  0.147
  H  H22  1  0.067100  0.536000  0.810600  1.0  0.1545
  H  H23  1  0.039400  0.575400  0.840400  1.0  0.156
  H  H24  1  0.152700  0.638100  0.844800  1.0  0.1468
  H  H25  1  0.181100  0.602900  0.813900  1.0  0.1503
  H  H26  1  0.175500  0.680400  0.814900  1.0  0.1544
  H  H27  1  0.050400  0.635300  0.758800  1.0  0.1516
  H  H28  1  0.114100  0.678700  0.763500  1.0  0.1506
  H  H29  1  0.119800  0.601200  0.762500  1.0  0.1486
  H  H30  1  0.757100  0.925300  0.792300  1.0  0.1298
  H  H31  1  0.692900  0.937000  0.836900  1.0  0.1874
  H  H32  1  0.708600  0.743900  0.854700  1.0  0.1539
  H  H33  1  0.770100  0.733000  0.808400  1.0  0.1349
  H  H34  1  0.596900  0.952600  0.856500  1.0  0.151
  H  H35  1  0.543900  0.910600  0.875200  1.0  0.1575
  H  H36  1  0.564700  0.980500  0.888300  1.0  0.1551
  H  H37  1  0.643100  0.870000  0.944600  1.0  0.1544
  H  H38  1  0.593300  0.929500  0.942700  1.0  0.1576
  H  H39  1  0.572400  0.859600  0.929600  1.0  0.1508
  H  H40  1  0.714000  0.966100  0.881000  1.0  0.1553
  H  H41  1  0.683900  0.994100  0.913300  1.0  0.1452
  H  H42  1  0.730500  0.932000  0.914200  1.0  0.1555
  H  H43  1  0.689800  0.753800  0.764500  1.0  0.1268
  H  H44  1  0.635700  0.690400  0.726400  1.0  0.1473
  H  H45  1  0.792500  0.703700  0.667600  1.0  0.1568
  H  H46  1  0.843100  0.768600  0.703900  1.0  0.1332
  H  H47  1  0.541900  0.589700  0.632300  1.0  0.1555
  H  H48  1  0.595600  0.638300  0.618500  1.0  0.1504
  H  H49  1  0.616100  0.567000  0.629900  1.0  0.1541
  H  H50  1  0.597100  0.597900  0.716300  1.0  0.1518
  H  H51  1  0.543100  0.564400  0.694400  1.0  0.156
  H  H52  1  0.617300  0.541900  0.691900  1.0  0.1593
  H  H53  1  0.565700  0.711800  0.695700  1.0  0.1521
  H  H54  1  0.570600  0.727300  0.658500  1.0  0.1528
  H  H55  1  0.512100  0.684000  0.671800  1.0  0.1594
  H  H56  1  0.733900  0.909200  0.738700  1.0  0.141
  H  H57  1  0.755900  0.003200  0.709100  1.0  0.156
  H  H58  1  0.948900  0.951700  0.707100  1.0  0.1547
  H  H59  1  0.926700  0.863400  0.739900  1.0  0.1446
  H  H60  1  0.945900  0.029500  0.633700  1.0  0.1473
  H  H61  1  0.013800  0.053600  0.648000  1.0  0.1539
  H  H62  1  0.978600  0.991000  0.662600  1.0  0.1469
  H  H63  1  0.015800  0.106600  0.704300  1.0  0.1529
  H  H64  1  0.948800  0.115800  0.723100  1.0  0.1489
  H  H65  1  0.979500  0.044800  0.719100  1.0  0.1443
  H  H66  1  0.899200  0.139500  0.642800  1.0  0.157
  H  H67  1  0.898000  0.170800  0.677600  1.0  0.1549
  H  H68  1  0.965000  0.165300  0.658600  1.0  0.1573
  H  H69  1  0.071800  0.585500  0.973000  1.0  0.1374
  H  H70  1  0.832400  0.757500  0.897000  1.0  0.1089
  H  H71  1  0.556000  0.696400  0.776600  1.0  0.156
  H  H72  1  0.334100  0.754300  0.888700  1.0  0.1162
  H  H73  1  0.131300  0.309500  0.255500  1.0  0.13
  H  H74  1  0.042900  0.357000  0.279300  1.0  0.1823
  H  H75  1  0.001500  0.187100  0.324600  1.0  0.1445
  H  H76  1  0.095300  0.140700  0.303800  1.0  0.1438
  H  H77  1  0.999000  0.423500  0.307300  1.0  0.1516
  H  H78  1  0.932900  0.464000  0.310600  1.0  0.1569
  H  H79  1  0.960600  0.424600  0.340400  1.0  0.156
  H  H80  1  0.847300  0.361900  0.344800  1.0  0.1469
  H  H81  1  0.818900  0.397100  0.313900  1.0  0.1517
  H  H82  1  0.824500  0.319600  0.314900  1.0  0.1514
  H  H83  1  0.949600  0.364700  0.258800  1.0  0.1503
  H  H84  1  0.885900  0.321300  0.263500  1.0  0.1462
  H  H85  1  0.880200  0.398800  0.262500  1.0  0.1494
  H  H86  1  0.242900  0.074700  0.292300  1.0  0.1288
  H  H87  1  0.307100  0.063000  0.336900  1.0  0.1865
  H  H88  1  0.291400  0.256100  0.354700  1.0  0.1542
  H  H89  1  0.229900  0.267000  0.308400  1.0  0.1345
  H  H90  1  0.403100  0.047400  0.356500  1.0  0.1519
  H  H91  1  0.456100  0.089400  0.375200  1.0  0.1587
  H  H92  1  0.435300  0.019500  0.388300  1.0  0.1557
  H  H93  1  0.356900  0.130000  0.444600  1.0  0.1551
  H  H94  1  0.406700  0.070500  0.442700  1.0  0.1574
  H  H95  1  0.427600  0.140400  0.429600  1.0  0.1496
  H  H96  1  0.286000  0.033900  0.381000  1.0  0.1547
  H  H97  1  0.316100  0.005900  0.413300  1.0  0.1466
  H  H98  1  0.269500  0.068000  0.414200  1.0  0.155
  H  H99  1  0.310200  0.246200  0.264500  1.0  0.1272
  H  H100  1  0.364300  0.309600  0.226400  1.0  0.1463
  H  H101  1  0.207500  0.296300  0.167600  1.0  0.1566
  H  H102  1  0.156900  0.231400  0.203900  1.0  0.1327
  H  H103  1  0.458100  0.410300  0.132300  1.0  0.154
  H  H104  1  0.404400  0.361700  0.118500  1.0  0.1503
  H  H105  1  0.383900  0.433000  0.129900  1.0  0.1548
  H  H106  1  0.402900  0.402100  0.216300  1.0  0.1511
  H  H107  1  0.456900  0.435600  0.194400  1.0  0.1542
  H  H108  1  0.382700  0.458100  0.191900  1.0  0.1585
  H  H109  1  0.434300  0.288200  0.195700  1.0  0.153
  H  H110  1  0.429400  0.272700  0.158500  1.0  0.1525
  H  H111  1  0.487900  0.316000  0.171800  1.0  0.1592
  H  H112  1  0.266100  0.090800  0.238700  1.0  0.1407
  H  H113  1  0.244100  0.996800  0.209100  1.0  0.1555
  H  H114  1  0.051100  0.048300  0.207100  1.0  0.1549
  H  H115  1  0.073300  0.136600  0.239900  1.0  0.1446
  H  H116  1  0.054100  0.970500  0.133700  1.0  0.1473
  H  H117  1  0.986200  0.946400  0.148000  1.0  0.1493
  H  H118  1  0.021400  0.009000  0.162600  1.0  0.1434
  H  H119  1  0.984200  0.893400  0.204300  1.0  0.1476
  H  H120  1  0.051200  0.884200  0.223100  1.0  0.1486
  H  H121  1  0.020500  0.955200  0.219100  1.0  0.1433
  H  H122  1  0.100800  0.860500  0.142800  1.0  0.159
  H  H123  1  0.102000  0.829200  0.177600  1.0  0.1553
  H  H124  1  0.035000  0.834700  0.158600  1.0  0.1543
  H  H125  1  0.928200  0.414500  0.473000  1.0  0.1373
  H  H126  1  0.167600  0.242500  0.397000  1.0  0.1083
  H  H127  1  0.444000  0.303600  0.276600  1.0  0.1556
  H  H128  1  0.665900  0.245700  0.388700  1.0  0.1153
  H  H129  1  0.809500  0.368700  0.505500  1.0  0.1305
  H  H130  1  0.857000  0.457100  0.529300  1.0  0.1821
  H  H131  1  0.687100  0.498500  0.574600  1.0  0.1441
  H  H132  1  0.640700  0.404700  0.553800  1.0  0.1431
  H  H133  1  0.923500  0.501000  0.557300  1.0  0.1568
  H  H134  1  0.964000  0.567100  0.560600  1.0  0.159
  H  H135  1  0.924600  0.539400  0.590400  1.0  0.157
  H  H136  1  0.861900  0.652700  0.594800  1.0  0.1451
  H  H137  1  0.897100  0.681100  0.563900  1.0  0.1492
  H  H138  1  0.819600  0.675500  0.564900  1.0  0.1522
  H  H139  1  0.864700  0.550400  0.508800  1.0  0.1531
  H  H140  1  0.821300  0.614100  0.513500  1.0  0.1473
  H  H141  1  0.898800  0.619800  0.512500  1.0  0.1475
  H  H142  1  0.574700  0.257100  0.542300  1.0  0.1267
  H  H143  1  0.563000  0.192900  0.586900  1.0  0.1885
  H  H144  1  0.756100  0.208600  0.604700  1.0  0.1542
  H  H145  1  0.767000  0.270100  0.558400  1.0  0.1334
  H  H146  1  0.547400  0.096900  0.606500  1.0  0.149
  H  H147  1  0.589400  0.043900  0.625200  1.0  0.159
  H  H148  1  0.519500  0.064700  0.638300  1.0  0.1514
  H  H149  1  0.630000  0.143100  0.694600  1.0  0.1549
  H  H150  1  0.570500  0.093300  0.692700  1.0  0.156
  H  H151  1  0.640400  0.072400  0.679600  1.0  0.1505
  H  H152  1  0.533900  0.214000  0.631000  1.0  0.1554
  H  H153  1  0.505900  0.183900  0.663300  1.0  0.1409
  H  H154  1  0.568000  0.230500  0.664200  1.0  0.1562
  H  H155  1  0.746200  0.189800  0.514500  1.0  0.1272
  H  H156  1  0.809600  0.135700  0.476400  1.0  0.1482
  H  H157  1  0.796300  0.292500  0.417600  1.0  0.156
  H  H158  1  0.731400  0.343100  0.453900  1.0  0.133
  H  H159  1  0.910300  0.041900  0.382300  1.0  0.1547
  H  H160  1  0.861700  0.095600  0.368500  1.0  0.1503
  H  H161  1  0.933000  0.116100  0.379900  1.0  0.1531
  H  H162  1  0.902100  0.097100  0.466300  1.0  0.1529
  H  H163  1  0.935600  0.043100  0.444400  1.0  0.1563
  H  H164  1  0.958100  0.117300  0.441900  1.0  0.1574
  H  H165  1  0.788200  0.065700  0.445700  1.0  0.1515
  H  H166  1  0.772700  0.070600  0.408500  1.0  0.1512
  H  H167  1  0.816000  0.012100  0.421800  1.0  0.1555
  H  H168  1  0.590800  0.233900  0.488700  1.0  0.1436
  H  H169  1  0.496800  0.255900  0.459100  1.0  0.1553
  H  H170  1  0.548300  0.448900  0.457100  1.0  0.1567
  H  H171  1  0.636600  0.426700  0.489900  1.0  0.1469
  H  H172  1  0.470500  0.445900  0.383700  1.0  0.1476
  H  H173  1  0.446400  0.513800  0.398000  1.0  0.1515
  H  H174  1  0.509000  0.478600  0.412600  1.0  0.1479
  H  H175  1  0.393400  0.515800  0.454300  1.0  0.1508
  H  H176  1  0.384200  0.448800  0.473100  1.0  0.1492
  H  H177  1  0.455200  0.479500  0.469100  1.0  0.1423
  H  H178  1  0.360500  0.399200  0.392800  1.0  0.1586
  H  H179  1  0.329200  0.398000  0.427600  1.0  0.1533
  H  H180  1  0.334700  0.465000  0.408600  1.0  0.1578
  H  H181  1  0.914500  0.571800  0.723000  1.0  0.1369
  H  H182  1  0.742500  0.332400  0.647000  1.0  0.108
  H  H183  1  0.803600  0.056000  0.526600  1.0  0.1555
  H  H184  1  0.745700  0.834100  0.638700  1.0  0.1144
  H  H185  1  0.190500  0.631300  0.005500  1.0  0.1304
  H  H186  1  0.143000  0.542900  0.029300  1.0  0.1841
  H  H187  1  0.312900  0.501500  0.074600  1.0  0.1439
  H  H188  1  0.359300  0.595300  0.053800  1.0  0.1439
  H  H189  1  0.076500  0.499000  0.057300  1.0  0.1543
  H  H190  1  0.036000  0.432900  0.060600  1.0  0.1577
  H  H191  1  0.075400  0.460600  0.090400  1.0  0.1578
  H  H192  1  0.138100  0.347300  0.094800  1.0  0.1456
  H  H193  1  0.102900  0.318900  0.063900  1.0  0.1495
  H  H194  1  0.180400  0.324500  0.064900  1.0  0.1542
  H  H195  1  0.135300  0.449600  0.008800  1.0  0.1519
  H  H196  1  0.178700  0.385900  0.013500  1.0  0.1481
  H  H197  1  0.101200  0.380200  0.012500  1.0  0.1478
  H  H198  1  0.425300  0.742900  0.042300  1.0  0.1269
  H  H199  1  0.437000  0.807100  0.086900  1.0  0.1865
  H  H200  1  0.243900  0.791400  0.104700  1.0  0.1541
  H  H201  1  0.233000  0.729900  0.058400  1.0  0.1341
  H  H202  1  0.452600  0.903100  0.106500  1.0  0.1507
  H  H203  1  0.410600  0.956100  0.125200  1.0  0.159
  H  H204  1  0.480500  0.935300  0.138300  1.0  0.1531
  H  H205  1  0.370000  0.856900  0.194600  1.0  0.1554
  H  H206  1  0.429500  0.906700  0.192700  1.0  0.1552
  H  H207  1  0.359600  0.927600  0.179600  1.0  0.1513
  H  H208  1  0.466100  0.786000  0.131000  1.0  0.1557
  H  H209  1  0.494100  0.816100  0.163300  1.0  0.1415
  H  H210  1  0.432000  0.769500  0.164200  1.0  0.1564
  H  H211  1  0.253800  0.810200  0.014500  1.0  0.1269
  H  H212  1  0.190400  0.864300  0.976400  1.0  0.1475
  H  H213  1  0.203700  0.707500  0.917600  1.0  0.156
  H  H214  1  0.268600  0.656900  0.953900  1.0  0.1326
  H  H215  1  0.089700  0.958100  0.882300  1.0  0.1555
  H  H216  1  0.138300  0.904400  0.868500  1.0  0.1501
  H  H217  1  0.067000  0.883900  0.879900  1.0  0.1527
  H  H218  1  0.097900  0.902900  0.966300  1.0  0.1521
  H  H219  1  0.064400  0.956900  0.944400  1.0  0.1561
  H  H220  1  0.041900  0.882700  0.941900  1.0  0.1576
  H  H221  1  0.211800  0.934300  0.945700  1.0  0.1507
  H  H222  1  0.227300  0.929400  0.908500  1.0  0.1533
  H  H223  1  0.184000  0.987900  0.921800  1.0  0.157
  H  H224  1  0.409200  0.766100  0.988700  1.0  0.1441
  H  H225  1  0.503200  0.744100  0.959100  1.0  0.1553
  H  H226  1  0.451700  0.551100  0.957100  1.0  0.1561
  H  H227  1  0.363400  0.573300  0.989900  1.0  0.1463
  H  H228  1  0.529500  0.554100  0.883700  1.0  0.1476
  H  H229  1  0.553600  0.486200  0.898000  1.0  0.1504
  H  H230  1  0.491000  0.521400  0.912600  1.0  0.1442
  H  H231  1  0.606600  0.484200  0.954300  1.0  0.1492
  H  H232  1  0.615800  0.551200  0.973100  1.0  0.1485
  H  H233  1  0.544800  0.520500  0.969100  1.0  0.1418
  H  H234  1  0.639500  0.600800  0.892800  1.0  0.1583
  H  H235  1  0.670800  0.602000  0.927600  1.0  0.1532
  H  H236  1  0.665300  0.535000  0.908600  1.0  0.1579
  H  H237  1  0.085500  0.428200  0.223000  1.0  0.137
  H  H238  1  0.257500  0.667600  0.147000  1.0  0.1081
  H  H239  1  0.196400  0.944000  0.026600  1.0  0.1562
  H  H240  1  0.254300  0.165900  0.138700  1.0  0.1133
  H  H241  1  0.631300  0.190500  0.994500  1.0  0.13
  H  H242  1  0.542900  0.143000  0.970700  1.0  0.1819
  H  H243  1  0.501500  0.312900  0.925400  1.0  0.1446
  H  H244  1  0.595300  0.359300  0.946200  1.0  0.1433
  H  H245  1  0.499000  0.076500  0.942700  1.0  0.1513
  H  H246  1  0.432900  0.036000  0.939400  1.0  0.1545
  H  H247  1  0.460600  0.075400  0.909600  1.0  0.1557
  H  H248  1  0.347300  0.138100  0.905200  1.0  0.1467
  H  H249  1  0.318900  0.102900  0.936100  1.0  0.1515
  H  H250  1  0.324500  0.180400  0.935100  1.0  0.1541
  H  H251  1  0.449600  0.135300  0.991200  1.0  0.1517
  H  H252  1  0.385900  0.178700  0.986500  1.0  0.149
  H  H253  1  0.380200  0.101200  0.987500  1.0  0.1494
  H  H254  1  0.742900  0.425300  0.957700  1.0  0.1294
  H  H255  1  0.807100  0.437000  0.913100  1.0  0.1856
  H  H256  1  0.791400  0.243900  0.895300  1.0  0.1534
  H  H257  1  0.729900  0.233000  0.941600  1.0  0.1341
  H  H258  1  0.903100  0.452600  0.893500  1.0  0.1524
  H  H259  1  0.956100  0.410600  0.874800  1.0  0.1585
  H  H260  1  0.935300  0.480500  0.861700  1.0  0.1555
  H  H261  1  0.856900  0.370000  0.805400  1.0  0.1552
  H  H262  1  0.906700  0.429500  0.807300  1.0  0.1577
  H  H263  1  0.927600  0.359600  0.820400  1.0  0.1505
  H  H264  1  0.786000  0.466100  0.869000  1.0  0.1549
  H  H265  1  0.816100  0.494100  0.836700  1.0  0.148
  H  H266  1  0.769500  0.432000  0.835800  1.0  0.1547
  H  H267  1  0.810200  0.253800  0.985500  1.0  0.127
  H  H268  1  0.864300  0.190400  0.023600  1.0  0.1462
  H  H269  1  0.707500  0.203700  0.082400  1.0  0.1563
  H  H270  1  0.656900  0.268600  0.046100  1.0  0.1329
  H  H271  1  0.958100  0.089700  0.117700  1.0  0.1533
  H  H272  1  0.904400  0.138300  0.131500  1.0  0.1507
  H  H273  1  0.883900  0.067000  0.120100  1.0  0.1546
  H  H274  1  0.902900  0.097900  0.033700  1.0  0.1517
  H  H275  1  0.956900  0.064400  0.055600  1.0  0.1552
  H  H276  1  0.882700  0.041900  0.058100  1.0  0.1591
  H  H277  1  0.934300  0.211800  0.054300  1.0  0.1543
  H  H278  1  0.929400  0.227300  0.091500  1.0  0.1519
  H  H279  1  0.987900  0.184000  0.078200  1.0  0.1599
  H  H280  1  0.766100  0.409200  0.011300  1.0  0.141
  H  H281  1  0.744100  0.503200  0.040900  1.0  0.1557
  H  H282  1  0.551100  0.451700  0.042900  1.0  0.154
  H  H283  1  0.573300  0.363400  0.010100  1.0  0.1448
  H  H284  1  0.554100  0.529500  0.116300  1.0  0.1477
  H  H285  1  0.486200  0.553600  0.102000  1.0  0.1499
  H  H286  1  0.521400  0.491000  0.087400  1.0  0.1435
  H  H287  1  0.484200  0.606600  0.045700  1.0  0.1479
  H  H288  1  0.551200  0.615800  0.026900  1.0  0.149
  H  H289  1  0.520500  0.544800  0.030900  1.0  0.1432
  H  H290  1  0.600800  0.639500  0.107200  1.0  0.1574
  H  H291  1  0.602000  0.670800  0.072400  1.0  0.1553
  H  H292  1  0.535000  0.665300  0.091400  1.0  0.1554
  H  H293  1  0.428200  0.085500  0.777000  1.0  0.138
  H  H294  1  0.667600  0.257500  0.853000  1.0  0.1092
  H  H295  1  0.944000  0.196400  0.973400  1.0  0.1548
  H  H296  1  0.165900  0.254300  0.861300  1.0  0.1153
  H  H297  1  0.368700  0.809500  0.494500  1.0  0.1307
  H  H298  1  0.457100  0.857000  0.470700  1.0  0.1809
  H  H299  1  0.498500  0.687100  0.425400  1.0  0.1444
  H  H300  1  0.404700  0.640700  0.446200  1.0  0.1436
  H  H301  1  0.501000  0.923500  0.442700  1.0  0.1482
  H  H302  1  0.567100  0.964000  0.439400  1.0  0.1565
  H  H303  1  0.539400  0.924600  0.409600  1.0  0.1561
  H  H304  1  0.652700  0.861900  0.405200  1.0  0.1468
  H  H305  1  0.681100  0.897100  0.436100  1.0  0.1505
  H  H306  1  0.675500  0.819600  0.435100  1.0  0.1527
  H  H307  1  0.550400  0.864700  0.491200  1.0  0.1512
  H  H308  1  0.614100  0.821300  0.486500  1.0  0.1483
  H  H309  1  0.619800  0.898800  0.487500  1.0  0.148
  H  H310  1  0.257100  0.574700  0.457700  1.0  0.1295
  H  H311  1  0.192900  0.563000  0.413100  1.0  0.187
  H  H312  1  0.208600  0.756100  0.395300  1.0  0.1544
  H  H313  1  0.270100  0.767000  0.441600  1.0  0.1347
  H  H314  1  0.096900  0.547400  0.393500  1.0  0.1539
  H  H315  1  0.043900  0.589400  0.374800  1.0  0.1574
  H  H316  1  0.064700  0.519500  0.361700  1.0  0.1555
  H  H317  1  0.143100  0.630000  0.305400  1.0  0.155
  H  H318  1  0.093300  0.570500  0.307300  1.0  0.1571
  H  H319  1  0.072400  0.640400  0.320400  1.0  0.1515
  H  H320  1  0.214000  0.533900  0.369000  1.0  0.1554
  H  H321  1  0.183900  0.505900  0.336700  1.0  0.146
  H  H322  1  0.230500  0.568000  0.335800  1.0  0.1555
  H  H323  1  0.189800  0.746200  0.485500  1.0  0.1266
  H  H324  1  0.135700  0.809600  0.523600  1.0  0.1465
  H  H325  1  0.292500  0.796300  0.582400  1.0  0.156
  H  H326  1  0.343100  0.731400  0.546100  1.0  0.1334
  H  H327  1  0.041900  0.910300  0.617700  1.0  0.1548
  H  H328  1  0.095600  0.861700  0.631500  1.0  0.151
  H  H329  1  0.116100  0.933000  0.620100  1.0  0.1545
  H  H330  1  0.097100  0.902100  0.533700  1.0  0.1506
  H  H331  1  0.043100  0.935600  0.555600  1.0  0.1535
  H  H332  1  0.117300  0.958100  0.558100  1.0  0.1588
  H  H333  1  0.065700  0.788200  0.554300  1.0  0.1547
  H  H334  1  0.070600  0.772700  0.591500  1.0  0.154
  H  H335  1  0.012100  0.816000  0.578200  1.0  0.1582
  H  H336  1  0.233900  0.590800  0.511300  1.0  0.141
  H  H337  1  0.255900  0.496800  0.540900  1.0  0.155
  H  H338  1  0.448900  0.548300  0.542900  1.0  0.1557
  H  H339  1  0.426700  0.636600  0.510100  1.0  0.1445
  H  H340  1  0.445900  0.470500  0.616300  1.0  0.147
  H  H341  1  0.513800  0.446400  0.602000  1.0  0.154
  H  H342  1  0.478600  0.509000  0.587400  1.0  0.1429
  H  H343  1  0.515800  0.393400  0.545700  1.0  0.1527
  H  H344  1  0.448800  0.384200  0.526900  1.0  0.1489
  H  H345  1  0.479500  0.455200  0.530900  1.0  0.1442
  H  H346  1  0.399200  0.360500  0.607200  1.0  0.1572
  H  H347  1  0.398000  0.329200  0.572400  1.0  0.1543
  H  H348  1  0.465000  0.334700  0.591400  1.0  0.1564
  H  H349  1  0.571800  0.914500  0.277000  1.0  0.1381
  H  H350  1  0.332400  0.742500  0.353000  1.0  0.1095
  H  H351  1  0.056000  0.803600  0.473400  1.0  0.1552
  H  H352  1  0.834100  0.745700  0.361300  1.0  0.1174
  H  H353  1  0.690500  0.868700  0.244500  1.0  0.1307
  H  H354  1  0.643000  0.957100  0.220700  1.0  0.183
  H  H355  1  0.812900  0.998500  0.175400  1.0  0.1441
  H  H356  1  0.859300  0.904700  0.196200  1.0  0.144
  H  H357  1  0.576500  0.001000  0.192700  1.0  0.155
  H  H358  1  0.536000  0.067100  0.189400  1.0  0.1582
  H  H359  1  0.575400  0.039400  0.159600  1.0  0.1585
  H  H360  1  0.638100  0.152700  0.155200  1.0  0.1451
  H  H361  1  0.602900  0.181100  0.186100  1.0  0.1491
  H  H362  1  0.680400  0.175500  0.185100  1.0  0.1533
  H  H363  1  0.635300  0.050400  0.241200  1.0  0.1527
  H  H364  1  0.678700  0.114100  0.236500  1.0  0.1476
  H  H365  1  0.601200  0.119800  0.237500  1.0  0.1479
  H  H366  1  0.925300  0.757100  0.207700  1.0  0.1272
  H  H367  1  0.937000  0.692900  0.163100  1.0  0.1876
  H  H368  1  0.743900  0.708600  0.145300  1.0  0.1541
  H  H369  1  0.733000  0.770100  0.191600  1.0  0.1337
  H  H370  1  0.952600  0.596900  0.143500  1.0  0.1509
  H  H371  1  0.910600  0.543900  0.124800  1.0  0.1596
  H  H372  1  0.980500  0.564700  0.111700  1.0  0.1526
  H  H373  1  0.870000  0.643100  0.055400  1.0  0.1557
  H  H374  1  0.929500  0.593300  0.057300  1.0  0.1548
  H  H375  1  0.859600  0.572400  0.070400  1.0  0.1512
  H  H376  1  0.966100  0.714000  0.119000  1.0  0.1558
  H  H377  1  0.994100  0.683900  0.086700  1.0  0.1422
  H  H378  1  0.932000  0.730500  0.085800  1.0  0.1567
  H  H379  1  0.753800  0.689800  0.235500  1.0  0.1266
  H  H380  1  0.690400  0.635700  0.273600  1.0  0.1478
  H  H381  1  0.703700  0.792500  0.332400  1.0  0.1558
  H  H382  1  0.768600  0.843100  0.296100  1.0  0.1328
  H  H383  1  0.589700  0.541900  0.367700  1.0  0.1546
  H  H384  1  0.638300  0.595600  0.381500  1.0  0.1504
  H  H385  1  0.567000  0.616100  0.370100  1.0  0.1527
  H  H386  1  0.597900  0.597100  0.283700  1.0  0.1522
  H  H387  1  0.564400  0.543100  0.305600  1.0  0.1544
  H  H388  1  0.541900  0.617300  0.308100  1.0  0.1558
  H  H389  1  0.711800  0.565700  0.304300  1.0  0.1517
  H  H390  1  0.727300  0.570600  0.341500  1.0  0.1524
  H  H391  1  0.684000  0.512100  0.328200  1.0  0.1574
  H  H392  1  0.909200  0.733900  0.261300  1.0  0.144
  H  H393  1  0.003200  0.755900  0.290900  1.0  0.1548
  H  H394  1  0.951700  0.948900  0.292900  1.0  0.1576
  H  H395  1  0.863400  0.926700  0.260100  1.0  0.147
  H  H396  1  0.029500  0.945900  0.366300  1.0  0.1477
  H  H397  1  0.053600  0.013800  0.352000  1.0  0.1505
  H  H398  1  0.991000  0.978600  0.337400  1.0  0.1443
  H  H399  1  0.106600  0.015800  0.295700  1.0  0.1513
  H  H400  1  0.115800  0.948800  0.276900  1.0  0.1483
  H  H401  1  0.044800  0.979500  0.280900  1.0  0.1421
  H  H402  1  0.139500  0.899200  0.357200  1.0  0.1579
  H  H403  1  0.170800  0.898000  0.322400  1.0  0.1533
  H  H404  1  0.165300  0.965000  0.341400  1.0  0.1572
  H  H405  1  0.585500  0.071800  0.027000  1.0  0.1378
  H  H406  1  0.757500  0.832400  0.103000  1.0  0.1086
  H  H407  1  0.696400  0.556000  0.223400  1.0  0.1554
  H  H408  1  0.754300  0.334100  0.111300  1.0  0.1148
  H  H409  1  0.309500  0.131300  0.744500  1.0  0.1302
  H  H410  1  0.357000  0.042900  0.720700  1.0  0.1822
  H  H411  1  0.187100  0.001500  0.675400  1.0  0.1437
  H  H412  1  0.140700  0.095300  0.696200  1.0  0.1432
  H  H413  1  0.423500  0.999000  0.692700  1.0  0.1545
  H  H414  1  0.464000  0.932900  0.689400  1.0  0.1588
  H  H415  1  0.424600  0.960600  0.659600  1.0  0.1576
  H  H416  1  0.361900  0.847300  0.655200  1.0  0.1448
  H  H417  1  0.397100  0.818900  0.686100  1.0  0.1497
  H  H418  1  0.319600  0.824500  0.685100  1.0  0.1535
  H  H419  1  0.364700  0.949600  0.741200  1.0  0.153
  H  H420  1  0.321300  0.885900  0.736500  1.0  0.1491
  H  H421  1  0.398800  0.880200  0.737500  1.0  0.1483
  H  H422  1  0.074700  0.242900  0.707700  1.0  0.1271
  H  H423  1  0.063000  0.307100  0.663100  1.0  0.1872
  H  H424  1  0.256100  0.291400  0.645300  1.0  0.1539
  H  H425  1  0.267000  0.229900  0.691600  1.0  0.1336
  H  H426  1  0.047400  0.403100  0.643500  1.0  0.1522
  H  H427  1  0.089400  0.456100  0.624800  1.0  0.1582
  H  H428  1  0.019500  0.435300  0.611700  1.0  0.1521
  H  H429  1  0.130000  0.356900  0.555400  1.0  0.1554
  H  H430  1  0.070500  0.406700  0.557300  1.0  0.1559
  H  H431  1  0.140400  0.427600  0.570400  1.0  0.1515
  H  H432  1  0.033900  0.286000  0.619000  1.0  0.1554
  H  H433  1  0.005900  0.316100  0.586700  1.0  0.1411
  H  H434  1  0.068000  0.269500  0.585800  1.0  0.156
  H  H435  1  0.246200  0.310200  0.735500  1.0  0.1269
  H  H436  1  0.309600  0.364300  0.773600  1.0  0.1476
  H  H437  1  0.296300  0.207500  0.832400  1.0  0.1558
  H  H438  1  0.231400  0.156900  0.796100  1.0  0.133
  H  H439  1  0.410300  0.458100  0.867700  1.0  0.1555
  H  H440  1  0.361700  0.404400  0.881500  1.0  0.1511
  H  H441  1  0.433000  0.383900  0.870100  1.0  0.1543
  H  H442  1  0.402100  0.402900  0.783700  1.0  0.1522
  H  H443  1  0.435600  0.456900  0.805600  1.0  0.1549
  H  H444  1  0.458100  0.382700  0.808100  1.0  0.1587
  H  H445  1  0.288200  0.434300  0.804300  1.0  0.1512
  H  H446  1  0.272700  0.429400  0.841500  1.0  0.153
  H  H447  1  0.316000  0.487900  0.828200  1.0  0.1578
  H  H448  1  0.090800  0.266100  0.761300  1.0  0.144
  H  H449  1  0.996800  0.244100  0.790900  1.0  0.1559
  H  H450  1  0.048300  0.051100  0.792900  1.0  0.156
  H  H451  1  0.136600  0.073300  0.760100  1.0  0.147
  H  H452  1  0.970500  0.054100  0.866300  1.0  0.1478
  H  H453  1  0.946400  0.986200  0.852000  1.0  0.1514
  H  H454  1  0.009000  0.021400  0.837400  1.0  0.147
  H  H455  1  0.893400  0.984200  0.795700  1.0  0.1493
  H  H456  1  0.884200  0.051200  0.776900  1.0  0.1494
  H  H457  1  0.955200  0.020500  0.780900  1.0  0.1427
  H  H458  1  0.860500  0.100800  0.857200  1.0  0.1574
  H  H459  1  0.829200  0.102000  0.822400  1.0  0.153
  H  H460  1  0.834700  0.035000  0.841400  1.0  0.1569
  H  H461  1  0.414500  0.928200  0.527000  1.0  0.1377
  H  H462  1  0.242500  0.167600  0.603000  1.0  0.1077
  H  H463  1  0.303600  0.444000  0.723400  1.0  0.1554
  H  H464  1  0.245700  0.665900  0.611300  1.0  0.1132
  C  C465  1  0.810860  0.813810  0.763670  1.0  0.0364
  C  C466  1  0.874640  0.780710  0.776540  1.0  0.0796
  C  C467  1  0.894050  0.715340  0.769920  1.0  -0.0643
  C  C468  1  0.947350  0.687230  0.783390  1.0  -0.1007
  C  C469  1  0.988130  0.724290  0.803550  1.0  0.1073
  C  C470  1  0.971560  0.788230  0.810880  1.0  -0.092
  C  C471  1  0.915850  0.816120  0.798180  1.0  -0.042
  C  C472  1  0.082840  0.635120  0.806930  1.0  0.2361
  C  C473  1  0.044100  0.575390  0.817230  1.0  -0.3448
  C  C474  1  0.155140  0.639580  0.821600  1.0  -0.3256
  C  C475  1  0.092740  0.637900  0.769300  1.0  -0.3092
  C  C476  1  0.769330  0.828020  0.794120  1.0  0.0649
  C  C477  1  0.746610  0.887830  0.804380  1.0  -0.1145
  C  C478  1  0.709200  0.895250  0.831590  1.0  -0.1658
  C  C479  1  0.695130  0.842330  0.851340  1.0  0.2412
  C  C480  1  0.717930  0.780990  0.842100  1.0  -0.1684
  C  C481  1  0.754560  0.774760  0.814140  1.0  -0.0527
  C  C482  1  0.635970  0.908600  0.897890  1.0  0.2855
  C  C483  1  0.580020  0.941210  0.877520  1.0  -0.3369
  C  C484  1  0.608590  0.890170  0.931950  1.0  -0.3359
  C  C485  1  0.696900  0.954570  0.901970  1.0  -0.3387
  C  C486  1  0.773030  0.769430  0.739260  1.0  0.0674
  C  C487  1  0.710620  0.744660  0.744910  1.0  -0.101
  C  C488  1  0.678000  0.706210  0.721930  1.0  -0.147
  C  C489  1  0.707250  0.691120  0.692630  1.0  0.1895
  C  C490  1  0.770940  0.714500  0.686840  1.0  -0.1382
  C  C491  1  0.801100  0.752340  0.708800  1.0  -0.0506
  C  C492  1  0.600470  0.631040  0.669230  1.0  0.2377
  C  C493  1  0.587230  0.603860  0.634060  1.0  -0.3237
  C  C494  1  0.588360  0.579000  0.695410  1.0  -0.3274
  C  C495  1  0.558170  0.694590  0.674260  1.0  -0.3521
  C  C496  1  0.828060  0.876640  0.743440  1.0  0.0703
  C  C497  1  0.777500  0.918920  0.733090  1.0  -0.091
  C  C498  1  0.790320  0.974770  0.714810  1.0  -0.1159
  C  C499  1  0.855920  0.988690  0.704750  1.0  0.1528
  C  C500  1  0.905620  0.944550  0.714120  1.0  -0.078
  C  C501  1  0.892170  0.890890  0.733410  1.0  -0.0606
  C  C502  1  0.934900  0.077880  0.677130  1.0  0.3242
  C  C503  1  0.971690  0.033920  0.653130  1.0  -0.3434
  C  C504  1  0.973360  0.087120  0.708890  1.0  -0.3378
  C  C505  1  0.923240  0.144220  0.662770  1.0  -0.3513
  C  C506  1  0.027900  0.690900  0.997770  1.0  0.2743
  C  C507  1  0.045820  0.679050  0.962680  1.0  0.3312
  C  C508  1  0.070790  0.616830  0.956450  1.0  -0.0536
  C  C509  1  0.093960  0.600550  0.926530  1.0  0.272
  C  C510  1  0.851010  0.635590  0.876680  1.0  0.3009
  C  C511  1  0.897670  0.689650  0.883540  1.0  0.3094
  C  C512  1  0.877330  0.751410  0.892880  1.0  -0.0831
  C  C513  1  0.916730  0.802940  0.896470  1.0  0.3255
  C  C514  1  0.883070  0.868860  0.904300  1.0  0.3293
  C  C515  1  0.607600  0.591810  0.807900  1.0  0.2416
  C  C516  1  0.586270  0.660270  0.819850  1.0  0.3191
  C  C517  1  0.559920  0.706730  0.798470  1.0  -0.1189
  C  C518  1  0.540080  0.766460  0.809330  1.0  0.2824
  C  C519  1  0.520300  0.810200  0.785240  1.0  0.1663
  C  C520  1  0.354700  0.645390  0.870160  1.0  0.1955
  C  C521  1  0.403620  0.692920  0.879050  1.0  0.391
  C  C522  1  0.379820  0.748450  0.889030  1.0  -0.0853
  C  C523  1  0.418960  0.799800  0.900180  1.0  0.3327
  C  C524  1  0.375100  0.864490  0.907490  1.0  0.6333
  C  C525  1  0.189140  0.186190  0.263670  1.0  0.0354
  C  C526  1  0.125360  0.219290  0.276540  1.0  0.0784
  C  C527  1  0.105950  0.284660  0.269920  1.0  -0.0635
  C  C528  1  0.052650  0.312770  0.283390  1.0  -0.1003
  C  C529  1  0.011870  0.275710  0.303550  1.0  0.1041
  C  C530  1  0.028440  0.211770  0.310880  1.0  -0.09
  C  C531  1  0.084150  0.183880  0.298180  1.0  -0.0441
  C  C532  1  0.917160  0.364880  0.306930  1.0  0.2361
  C  C533  1  0.955900  0.424610  0.317230  1.0  -0.3463
  C  C534  1  0.844860  0.360420  0.321600  1.0  -0.3262
  C  C535  1  0.907260  0.362100  0.269300  1.0  -0.308
  C  C536  1  0.230670  0.171980  0.294120  1.0  0.0651
  C  C537  1  0.253390  0.112170  0.304380  1.0  -0.1134
  C  C538  1  0.290800  0.104750  0.331590  1.0  -0.1623
  C  C539  1  0.304870  0.157670  0.351340  1.0  0.2412
  C  C540  1  0.282070  0.219010  0.342100  1.0  -0.1678
  C  C541  1  0.245440  0.225240  0.314140  1.0  -0.0556
  C  C542  1  0.364030  0.091400  0.397890  1.0  0.2852
  C  C543  1  0.419980  0.058790  0.377520  1.0  -0.3383
  C  C544  1  0.391410  0.109830  0.431950  1.0  -0.3356
  C  C545  1  0.303100  0.045430  0.401970  1.0  -0.3399
  C  C546  1  0.226970  0.230570  0.239260  1.0  0.0677
  C  C547  1  0.289380  0.255340  0.244910  1.0  -0.1025
  C  C548  1  0.322000  0.293790  0.221930  1.0  -0.1485
  C  C549  1  0.292750  0.308880  0.192630  1.0  0.1893
  C  C550  1  0.229060  0.285500  0.186840  1.0  -0.1385
  C  C551  1  0.198900  0.247660  0.208800  1.0  -0.0503
  C  C552  1  0.399530  0.368960  0.169230  1.0  0.2375
  C  C553  1  0.412770  0.396140  0.134060  1.0  -0.3242
  C  C554  1  0.411640  0.421000  0.195410  1.0  -0.3291
  C  C555  1  0.441830  0.305410  0.174260  1.0  -0.3523
  C  C556  1  0.171940  0.123360  0.243440  1.0  0.07
  C  C557  1  0.222500  0.081080  0.233090  1.0  -0.0906
  C  C558  1  0.209680  0.025230  0.214810  1.0  -0.1159
  C  C559  1  0.144080  0.011310  0.204750  1.0  0.1533
  C  C560  1  0.094380  0.055450  0.214120  1.0  -0.0777
  C  C561  1  0.107830  0.109110  0.233410  1.0  -0.0593
  C  C562  1  0.065100  0.922120  0.177130  1.0  0.3244
  C  C563  1  0.028310  0.966080  0.153130  1.0  -0.3416
  C  C564  1  0.026640  0.912880  0.208890  1.0  -0.3369
  C  C565  1  0.076760  0.855780  0.162770  1.0  -0.3518
  C  C566  1  0.972100  0.309100  0.497770  1.0  0.2719
  C  C567  1  0.954180  0.320950  0.462680  1.0  0.329
  C  C568  1  0.929210  0.383170  0.456450  1.0  -0.0539
  C  C569  1  0.906040  0.399450  0.426530  1.0  0.2683
  C  C570  1  0.148990  0.364410  0.376680  1.0  0.3012
  C  C571  1  0.102330  0.310350  0.383540  1.0  0.3109
  C  C572  1  0.122670  0.248590  0.392880  1.0  -0.0804
  C  C573  1  0.083270  0.197060  0.396470  1.0  0.3241
  C  C574  1  0.116930  0.131140  0.404300  1.0  0.3296
  C  C575  1  0.392400  0.408190  0.307900  1.0  0.2426
  C  C576  1  0.413730  0.339730  0.319850  1.0  0.3199
  C  C577  1  0.440080  0.293270  0.298470  1.0  -0.1201
  C  C578  1  0.459920  0.233540  0.309330  1.0  0.2833
  C  C579  1  0.479700  0.189800  0.285240  1.0  0.1629
  C  C580  1  0.645300  0.354610  0.370160  1.0  0.1953
  C  C581  1  0.596380  0.307080  0.379050  1.0  0.3921
  C  C582  1  0.620180  0.251550  0.389030  1.0  -0.0828
  C  C583  1  0.581040  0.200200  0.400180  1.0  0.3317
  C  C584  1  0.624900  0.135510  0.407490  1.0  0.6342
  C  C585  1  0.686190  0.310860  0.513670  1.0  0.0366
  C  C586  1  0.719290  0.374640  0.526540  1.0  0.08
  C  C587  1  0.784660  0.394050  0.519920  1.0  -0.0647
  C  C588  1  0.812770  0.447350  0.533390  1.0  -0.1003
  C  C589  1  0.775710  0.488130  0.553550  1.0  0.1056
  C  C590  1  0.711770  0.471560  0.560880  1.0  -0.0899
  C  C591  1  0.683880  0.415850  0.548180  1.0  -0.0451
  C  C592  1  0.864880  0.582840  0.556930  1.0  0.2347
  C  C593  1  0.924610  0.544100  0.567230  1.0  -0.3467
  C  C594  1  0.860420  0.655140  0.571600  1.0  -0.3226
  C  C595  1  0.862100  0.592740  0.519300  1.0  -0.3113
  C  C596  1  0.671980  0.269330  0.544120  1.0  0.0649
  C  C597  1  0.612170  0.246610  0.554380  1.0  -0.1103
  C  C598  1  0.604750  0.209200  0.581590  1.0  -0.1622
  C  C599  1  0.657670  0.195130  0.601340  1.0  0.2416
  C  C600  1  0.719010  0.217930  0.592100  1.0  -0.1675
  C  C601  1  0.725240  0.254560  0.564140  1.0  -0.0512
  C  C602  1  0.591400  0.135970  0.647890  1.0  0.2856
  C  C603  1  0.558790  0.080020  0.627520  1.0  -0.3357
  C  C604  1  0.609830  0.108590  0.681950  1.0  -0.3356
  C  C605  1  0.545430  0.196900  0.651970  1.0  -0.3392
  C  C606  1  0.730570  0.273030  0.489260  1.0  0.0675
  C  C607  1  0.755340  0.210620  0.494910  1.0  -0.1011
  C  C608  1  0.793790  0.178000  0.471930  1.0  -0.1451
  C  C609  1  0.808880  0.207250  0.442630  1.0  0.1887
  C  C610  1  0.785500  0.270940  0.436840  1.0  -0.137
  C  C611  1  0.747660  0.301100  0.458800  1.0  -0.0537
  C  C612  1  0.868960  0.100470  0.419230  1.0  0.237
  C  C613  1  0.896140  0.087230  0.384060  1.0  -0.3248
  C  C614  1  0.921000  0.088360  0.445410  1.0  -0.3275
  C  C615  1  0.805410  0.058170  0.424260  1.0  -0.3519
  C  C616  1  0.623360  0.328060  0.493440  1.0  0.069
  C  C617  1  0.581080  0.277500  0.483090  1.0  -0.0925
  C  C618  1  0.525230  0.290320  0.464810  1.0  -0.117
  C  C619  1  0.511310  0.355920  0.454750  1.0  0.1526
  C  C620  1  0.555450  0.405620  0.464120  1.0  -0.0773
  C  C621  1  0.609110  0.392170  0.483410  1.0  -0.0694
  C  C622  1  0.422120  0.434900  0.427130  1.0  0.3242
  C  C623  1  0.466080  0.471690  0.403130  1.0  -0.3418
  C  C624  1  0.412880  0.473360  0.458890  1.0  -0.3383
  C  C625  1  0.355780  0.423240  0.412770  1.0  -0.3515
  C  C626  1  0.809100  0.527900  0.747770  1.0  0.2767
  C  C627  1  0.820950  0.545820  0.712680  1.0  0.3271
  C  C628  1  0.883170  0.570790  0.706450  1.0  -0.0535
  C  C629  1  0.899450  0.593960  0.676530  1.0  0.2714
  C  C630  1  0.864410  0.351010  0.626680  1.0  0.3022
  C  C631  1  0.810350  0.397670  0.633540  1.0  0.3104
  C  C632  1  0.748590  0.377330  0.642880  1.0  -0.083
  C  C633  1  0.697060  0.416730  0.646470  1.0  0.3271
  C  C634  1  0.631140  0.383070  0.654300  1.0  0.3285
  C  C635  1  0.908190  0.107600  0.557900  1.0  0.2421
  C  C636  1  0.839730  0.086270  0.569850  1.0  0.3198
  C  C637  1  0.793270  0.059920  0.548470  1.0  -0.1225
  C  C638  1  0.733540  0.040080  0.559330  1.0  0.2793
  C  C639  1  0.689800  0.020300  0.535240  1.0  0.1588
  C  C640  1  0.854610  0.854700  0.620160  1.0  0.1949
  C  C641  1  0.807080  0.903620  0.629050  1.0  0.3916
  C  C642  1  0.751550  0.879820  0.639030  1.0  -0.0839
  C  C643  1  0.700200  0.918960  0.650180  1.0  0.3353
  C  C644  1  0.635510  0.875100  0.657490  1.0  0.6341
  C  C645  1  0.313810  0.689140  0.013670  1.0  0.0364
  C  C646  1  0.280710  0.625360  0.026540  1.0  0.0795
  C  C647  1  0.215340  0.605950  0.019920  1.0  -0.0634
  C  C648  1  0.187230  0.552650  0.033390  1.0  -0.0994
  C  C649  1  0.224290  0.511870  0.053550  1.0  0.1077
  C  C650  1  0.288230  0.528440  0.060880  1.0  -0.0912
  C  C651  1  0.316120  0.584150  0.048180  1.0  -0.0478
  C  C652  1  0.135120  0.417160  0.056930  1.0  0.2345
  C  C653  1  0.075390  0.455900  0.067230  1.0  -0.3453
  C  C654  1  0.139580  0.344860  0.071600  1.0  -0.322
  C  C655  1  0.137900  0.407260  0.019300  1.0  -0.3108
  C  C656  1  0.328020  0.730670  0.044120  1.0  0.0659
  C  C657  1  0.387830  0.753390  0.054380  1.0  -0.1087
  C  C658  1  0.395250  0.790800  0.081590  1.0  -0.163
  C  C659  1  0.342330  0.804870  0.101340  1.0  0.2415
  C  C660  1  0.280990  0.782070  0.092100  1.0  -0.1666
  C  C661  1  0.274760  0.745440  0.064140  1.0  -0.0507
  C  C662  1  0.408600  0.864030  0.147890  1.0  0.2857
  C  C663  1  0.441210  0.919980  0.127520  1.0  -0.3377
  C  C664  1  0.390170  0.891410  0.181950  1.0  -0.3355
  C  C665  1  0.454570  0.803100  0.151970  1.0  -0.34
  C  C666  1  0.269430  0.726970  0.989260  1.0  0.0678
  C  C667  1  0.244660  0.789380  0.994910  1.0  -0.1017
  C  C668  1  0.206210  0.822000  0.971930  1.0  -0.1459
  C  C669  1  0.191120  0.792750  0.942630  1.0  0.1895
  C  C670  1  0.214500  0.729060  0.936840  1.0  -0.1375
  C  C671  1  0.252340  0.698900  0.958800  1.0  -0.0532
  C  C672  1  0.131040  0.899530  0.919230  1.0  0.2367
  C  C673  1  0.103860  0.912770  0.884060  1.0  -0.3241
  C  C674  1  0.079000  0.911640  0.945410  1.0  -0.3279
  C  C675  1  0.194590  0.941830  0.924260  1.0  -0.3507
  C  C676  1  0.376640  0.671940  0.993440  1.0  0.0684
  C  C677  1  0.418920  0.722500  0.983090  1.0  -0.0944
  C  C678  1  0.474770  0.709680  0.964810  1.0  -0.121
  C  C679  1  0.488690  0.644080  0.954750  1.0  0.1535
  C  C680  1  0.444550  0.594380  0.964120  1.0  -0.0762
  C  C681  1  0.390890  0.607830  0.983410  1.0  -0.0642
  C  C682  1  0.577880  0.565100  0.927130  1.0  0.3235
  C  C683  1  0.533920  0.528310  0.903130  1.0  -0.3416
  C  C684  1  0.587120  0.526640  0.958890  1.0  -0.3393
  C  C685  1  0.644220  0.576760  0.912770  1.0  -0.3506
  C  C686  1  0.190900  0.472100  0.247770  1.0  0.2747
  C  C687  1  0.179050  0.454180  0.212680  1.0  0.3263
  C  C688  1  0.116830  0.429210  0.206450  1.0  -0.0548
  C  C689  1  0.100550  0.406040  0.176530  1.0  0.2714
  C  C690  1  0.135590  0.648990  0.126680  1.0  0.3005
  C  C691  1  0.189650  0.602330  0.133540  1.0  0.309
  C  C692  1  0.251410  0.622670  0.142880  1.0  -0.0833
  C  C693  1  0.302940  0.583270  0.146470  1.0  0.3276
  C  C694  1  0.368860  0.616930  0.154300  1.0  0.327
  C  C695  1  0.091810  0.892400  0.057900  1.0  0.242
  C  C696  1  0.160270  0.913730  0.069850  1.0  0.319
  C  C697  1  0.206730  0.940080  0.048470  1.0  -0.1239
  C  C698  1  0.266460  0.959920  0.059330  1.0  0.276
  C  C699  1  0.310200  0.979700  0.035240  1.0  0.162
  C  C700  1  0.145390  0.145300  0.120160  1.0  0.1934
  C  C701  1  0.192920  0.096380  0.129050  1.0  0.3902
  C  C702  1  0.248450  0.120180  0.139030  1.0  -0.0844
  C  C703  1  0.299800  0.081040  0.150180  1.0  0.3357
  C  C704  1  0.364490  0.124900  0.157490  1.0  0.633
  C  C705  1  0.689140  0.313810  0.986330  1.0  0.0351
  C  C706  1  0.625360  0.280710  0.973460  1.0  0.0788
  C  C707  1  0.605950  0.215340  0.980080  1.0  -0.0643
  C  C708  1  0.552650  0.187230  0.966610  1.0  -0.101
  C  C709  1  0.511870  0.224290  0.946450  1.0  0.1064
  C  C710  1  0.528440  0.288230  0.939120  1.0  -0.0894
  C  C711  1  0.584150  0.316120  0.951820  1.0  -0.0427
  C  C712  1  0.417160  0.135120  0.943070  1.0  0.2359
  C  C713  1  0.455900  0.075390  0.932770  1.0  -0.3464
  C  C714  1  0.344860  0.139580  0.928400  1.0  -0.3254
  C  C715  1  0.407260  0.137900  0.980700  1.0  -0.3094
  C  C716  1  0.730670  0.328020  0.955880  1.0  0.0656
  C  C717  1  0.753390  0.387830  0.945620  1.0  -0.1149
  C  C718  1  0.790800  0.395250  0.918410  1.0  -0.164
  C  C719  1  0.804870  0.342330  0.898660  1.0  0.2416
  C  C720  1  0.782070  0.280990  0.907900  1.0  -0.1654
  C  C721  1  0.745440  0.274760  0.935860  1.0  -0.0522
  C  C722  1  0.864030  0.408600  0.852110  1.0  0.2836
  C  C723  1  0.919980  0.441210  0.872480  1.0  -0.3366
  C  C724  1  0.891410  0.390170  0.818050  1.0  -0.3366
  C  C725  1  0.803100  0.454570  0.848030  1.0  -0.3401
  C  C726  1  0.726970  0.269430  0.010740  1.0  0.0671
  C  C727  1  0.789380  0.244660  0.005090  1.0  -0.1021
  C  C728  1  0.822000  0.206210  0.028070  1.0  -0.1493
  C  C729  1  0.792750  0.191120  0.057370  1.0  0.1897
  C  C730  1  0.729060  0.214500  0.063160  1.0  -0.1387
  C  C731  1  0.698900  0.252340  0.041200  1.0  -0.0508
  C  C732  1  0.899530  0.131040  0.080770  1.0  0.2377
  C  C733  1  0.912770  0.103860  0.115940  1.0  -0.3225
  C  C734  1  0.911640  0.079000  0.054590  1.0  -0.3271
  C  C735  1  0.941830  0.194590  0.075740  1.0  -0.3515
  C  C736  1  0.671940  0.376640  0.006560  1.0  0.0701
  C  C737  1  0.722500  0.418920  0.016910  1.0  -0.0906
  C  C738  1  0.709680  0.474770  0.035190  1.0  -0.1169
  C  C739  1  0.644080  0.488690  0.045250  1.0  0.1532
  C  C740  1  0.594380  0.444550  0.035880  1.0  -0.076
  C  C741  1  0.607830  0.390890  0.016590  1.0  -0.0587
  C  C742  1  0.565100  0.577880  0.072870  1.0  0.3239
  C  C743  1  0.528310  0.533920  0.096870  1.0  -0.3418
  C  C744  1  0.526640  0.587120  0.041110  1.0  -0.3365
  C  C745  1  0.576760  0.644220  0.087230  1.0  -0.3521
  C  C746  1  0.472100  0.190900  0.752230  1.0  0.271
  C  C747  1  0.454180  0.179050  0.787320  1.0  0.3306
  C  C748  1  0.429210  0.116830  0.793550  1.0  -0.0542
  C  C749  1  0.406040  0.100550  0.823470  1.0  0.2697
  C  C750  1  0.648990  0.135590  0.873320  1.0  0.3023
  C  C751  1  0.602330  0.189650  0.866460  1.0  0.3103
  C  C752  1  0.622670  0.251410  0.857120  1.0  -0.0805
  C  C753  1  0.583270  0.302940  0.853530  1.0  0.3238
  C  C754  1  0.616930  0.368860  0.845700  1.0  0.3286
  C  C755  1  0.892400  0.091810  0.942100  1.0  0.2422
  C  C756  1  0.913730  0.160270  0.930150  1.0  0.319
  C  C757  1  0.940080  0.206730  0.951530  1.0  -0.1193
  C  C758  1  0.959920  0.266460  0.940670  1.0  0.2837
  C  C759  1  0.979700  0.310200  0.964760  1.0  0.164
  C  C760  1  0.145300  0.145390  0.879840  1.0  0.1972
  C  C761  1  0.096380  0.192920  0.870950  1.0  0.392
  C  C762  1  0.120180  0.248450  0.860970  1.0  -0.0824
  C  C763  1  0.081040  0.299800  0.849820  1.0  0.3309
  C  C764  1  0.124900  0.364490  0.842510  1.0  0.6328
  C  C765  1  0.310860  0.686190  0.486330  1.0  0.0361
  C  C766  1  0.374640  0.719290  0.473460  1.0  0.0793
  C  C767  1  0.394050  0.784660  0.480080  1.0  -0.0658
  C  C768  1  0.447350  0.812770  0.466610  1.0  -0.0999
  C  C769  1  0.488130  0.775710  0.446450  1.0  0.1071
  C  C770  1  0.471560  0.711770  0.439120  1.0  -0.091
  C  C771  1  0.415850  0.683880  0.451820  1.0  -0.0407
  C  C772  1  0.582840  0.864880  0.443070  1.0  0.2363
  C  C773  1  0.544100  0.924610  0.432770  1.0  -0.3452
  C  C774  1  0.655140  0.860420  0.428400  1.0  -0.3253
  C  C775  1  0.592740  0.862100  0.480700  1.0  -0.307
  C  C776  1  0.269330  0.671980  0.455880  1.0  0.0643
  C  C777  1  0.246610  0.612170  0.445620  1.0  -0.1143
  C  C778  1  0.209200  0.604750  0.418410  1.0  -0.1638
  C  C779  1  0.195130  0.657670  0.398660  1.0  0.2416
  C  C780  1  0.217930  0.719010  0.407900  1.0  -0.1674
  C  C781  1  0.254560  0.725240  0.435860  1.0  -0.0548
  C  C782  1  0.135970  0.591400  0.352110  1.0  0.2842
  C  C783  1  0.080020  0.558790  0.372480  1.0  -0.3375
  C  C784  1  0.108590  0.609830  0.318050  1.0  -0.3364
  C  C785  1  0.196900  0.545430  0.348030  1.0  -0.3397
  C  C786  1  0.273030  0.730570  0.510740  1.0  0.0677
  C  C787  1  0.210620  0.755340  0.505090  1.0  -0.101
  C  C788  1  0.178000  0.793790  0.528070  1.0  -0.1476
  C  C789  1  0.207250  0.808880  0.557370  1.0  0.1896
  C  C790  1  0.270940  0.785500  0.563160  1.0  -0.1386
  C  C791  1  0.301100  0.747660  0.541200  1.0  -0.0511
  C  C792  1  0.100470  0.868960  0.580770  1.0  0.2379
  C  C793  1  0.087230  0.896140  0.615940  1.0  -0.3232
  C  C794  1  0.088360  0.921000  0.554590  1.0  -0.3256
  C  C795  1  0.058170  0.805410  0.575740  1.0  -0.3525
  C  C796  1  0.328060  0.623360  0.506560  1.0  0.07
  C  C797  1  0.277500  0.581080  0.516910  1.0  -0.0899
  C  C798  1  0.290320  0.525230  0.535190  1.0  -0.1149
  C  C799  1  0.355920  0.511310  0.545250  1.0  0.1526
  C  C800  1  0.405620  0.555450  0.535880  1.0  -0.0787
  C  C801  1  0.392170  0.609110  0.516590  1.0  -0.062
  C  C802  1  0.434900  0.422120  0.572870  1.0  0.3246
  C  C803  1  0.471690  0.466080  0.596870  1.0  -0.3415
  C  C804  1  0.473360  0.412880  0.541110  1.0  -0.3377
  C  C805  1  0.423240  0.355780  0.587230  1.0  -0.3503
  C  C806  1  0.527900  0.809100  0.252230  1.0  0.2744
  C  C807  1  0.545820  0.820950  0.287320  1.0  0.3299
  C  C808  1  0.570790  0.883170  0.293550  1.0  -0.0541
  C  C809  1  0.593960  0.899450  0.323470  1.0  0.2674
  C  C810  1  0.351010  0.864410  0.373320  1.0  0.3032
  C  C811  1  0.397670  0.810350  0.366460  1.0  0.3085
  C  C812  1  0.377330  0.748590  0.357120  1.0  -0.0813
  C  C813  1  0.416730  0.697060  0.353530  1.0  0.3253
  C  C814  1  0.383070  0.631140  0.345700  1.0  0.3283
  C  C815  1  0.107600  0.908190  0.442100  1.0  0.2435
  C  C816  1  0.086270  0.839730  0.430150  1.0  0.3176
  C  C817  1  0.059920  0.793270  0.451530  1.0  -0.1187
  C  C818  1  0.040080  0.733540  0.440670  1.0  0.283
  C  C819  1  0.020300  0.689800  0.464760  1.0  0.1644
  C  C820  1  0.854700  0.854610  0.379840  1.0  0.1951
  C  C821  1  0.903620  0.807080  0.370950  1.0  0.3898
  C  C822  1  0.879820  0.751550  0.360970  1.0  -0.0845
  C  C823  1  0.918960  0.700200  0.349820  1.0  0.3326
  C  C824  1  0.875100  0.635510  0.342510  1.0  0.6336
  C  C825  1  0.813810  0.810860  0.236330  1.0  0.0362
  C  C826  1  0.780710  0.874640  0.223460  1.0  0.0798
  C  C827  1  0.715340  0.894050  0.230080  1.0  -0.0649
  C  C828  1  0.687230  0.947350  0.216610  1.0  -0.1
  C  C829  1  0.724290  0.988130  0.196450  1.0  0.1077
  C  C830  1  0.788230  0.971560  0.189120  1.0  -0.0917
  C  C831  1  0.816120  0.915850  0.201820  1.0  -0.0457
  C  C832  1  0.635120  0.082840  0.193070  1.0  0.2344
  C  C833  1  0.575390  0.044100  0.182770  1.0  -0.3447
  C  C834  1  0.639580  0.155140  0.178400  1.0  -0.3211
  C  C835  1  0.637900  0.092740  0.230700  1.0  -0.31
  C  C836  1  0.828020  0.769330  0.205880  1.0  0.0657
  C  C837  1  0.887830  0.746610  0.195620  1.0  -0.1093
  C  C838  1  0.895250  0.709200  0.168410  1.0  -0.1636
  C  C839  1  0.842330  0.695130  0.148660  1.0  0.2418
  C  C840  1  0.780990  0.717930  0.157900  1.0  -0.1644
  C  C841  1  0.774760  0.754560  0.185860  1.0  -0.0496
  C  C842  1  0.908600  0.635970  0.102110  1.0  0.2842
  C  C843  1  0.941210  0.580020  0.122480  1.0  -0.3375
  C  C844  1  0.890170  0.608590  0.068050  1.0  -0.3353
  C  C845  1  0.954570  0.696900  0.098030  1.0  -0.3399
  C  C846  1  0.769430  0.773030  0.260740  1.0  0.0675
  C  C847  1  0.744660  0.710620  0.255090  1.0  -0.1011
  C  C848  1  0.706210  0.678000  0.278070  1.0  -0.1459
  C  C849  1  0.691120  0.707250  0.307370  1.0  0.1891
  C  C850  1  0.714500  0.770940  0.313160  1.0  -0.1386
  C  C851  1  0.752340  0.801100  0.291200  1.0  -0.0546
  C  C852  1  0.631040  0.600470  0.330770  1.0  0.2368
  C  C853  1  0.603860  0.587230  0.365940  1.0  -0.3223
  C  C854  1  0.579000  0.588360  0.304590  1.0  -0.3261
  C  C855  1  0.694590  0.558170  0.325740  1.0  -0.3507
  C  C856  1  0.876640  0.828060  0.256560  1.0  0.0684
  C  C857  1  0.918920  0.777500  0.266910  1.0  -0.0918
  C  C858  1  0.974770  0.790320  0.285190  1.0  -0.1189
  C  C859  1  0.988690  0.855920  0.295250  1.0  0.1532
  C  C860  1  0.944550  0.905620  0.285880  1.0  -0.0766
  C  C861  1  0.890890  0.892170  0.266590  1.0  -0.0681
  C  C862  1  0.077880  0.934900  0.322870  1.0  0.3233
  C  C863  1  0.033920  0.971690  0.346870  1.0  -0.3407
  C  C864  1  0.087120  0.973360  0.291110  1.0  -0.3391
  C  C865  1  0.144220  0.923240  0.337230  1.0  -0.3506
  C  C866  1  0.690900  0.027900  0.002230  1.0  0.2757
  C  C867  1  0.679050  0.045820  0.037320  1.0  0.328
  C  C868  1  0.616830  0.070790  0.043550  1.0  -0.0543
  C  C869  1  0.600550  0.093960  0.073470  1.0  0.2695
  C  C870  1  0.635590  0.851010  0.123320  1.0  0.3022
  C  C871  1  0.689650  0.897670  0.116460  1.0  0.3091
  C  C872  1  0.751410  0.877330  0.107120  1.0  -0.0817
  C  C873  1  0.802940  0.916730  0.103530  1.0  0.3259
  C  C874  1  0.868860  0.883070  0.095700  1.0  0.3256
  C  C875  1  0.591810  0.607600  0.192100  1.0  0.2438
  C  C876  1  0.660270  0.586270  0.180150  1.0  0.3179
  C  C877  1  0.706730  0.559920  0.201530  1.0  -0.1245
  C  C878  1  0.766460  0.540080  0.190670  1.0  0.28
  C  C879  1  0.810200  0.520300  0.214760  1.0  0.1601
  C  C880  1  0.645390  0.354700  0.129840  1.0  0.1954
  C  C881  1  0.692920  0.403620  0.120950  1.0  0.39
  C  C882  1  0.748450  0.379820  0.110970  1.0  -0.0819
  C  C883  1  0.799800  0.418960  0.099820  1.0  0.3354
  C  C884  1  0.864490  0.375100  0.092510  1.0  0.6327
  C  C885  1  0.186190  0.189140  0.736330  1.0  0.0361
  C  C886  1  0.219290  0.125360  0.723460  1.0  0.0802
  C  C887  1  0.284660  0.105950  0.730080  1.0  -0.0657
  C  C888  1  0.312770  0.052650  0.716610  1.0  -0.0993
  C  C889  1  0.275710  0.011870  0.696450  1.0  0.1062
  C  C890  1  0.211770  0.028440  0.689120  1.0  -0.0884
  C  C891  1  0.183880  0.084150  0.701820  1.0  -0.0444
  C  C892  1  0.364880  0.917160  0.693070  1.0  0.2348
  C  C893  1  0.424610  0.955900  0.682770  1.0  -0.3457
  C  C894  1  0.360420  0.844860  0.678400  1.0  -0.3215
  C  C895  1  0.362100  0.907260  0.730700  1.0  -0.3108
  C  C896  1  0.171980  0.230670  0.705880  1.0  0.065
  C  C897  1  0.112170  0.253390  0.695620  1.0  -0.1104
  C  C898  1  0.104750  0.290800  0.668410  1.0  -0.1623
  C  C899  1  0.157670  0.304870  0.648660  1.0  0.242
  C  C900  1  0.219010  0.282070  0.657900  1.0  -0.1659
  C  C901  1  0.225240  0.245440  0.685860  1.0  -0.0514
  C  C902  1  0.091400  0.364030  0.602110  1.0  0.284
  C  C903  1  0.058790  0.419980  0.622480  1.0  -0.3357
  C  C904  1  0.109830  0.391410  0.568050  1.0  -0.3361
  C  C905  1  0.045430  0.303100  0.598030  1.0  -0.3395
  C  C906  1  0.230570  0.226970  0.760740  1.0  0.0676
  C  C907  1  0.255340  0.289380  0.755090  1.0  -0.1009
  C  C908  1  0.293790  0.322000  0.778070  1.0  -0.147
  C  C909  1  0.308880  0.292750  0.807370  1.0  0.1894
  C  C910  1  0.285500  0.229060  0.813160  1.0  -0.1367
  C  C911  1  0.247660  0.198900  0.791200  1.0  -0.0532
  C  C912  1  0.368960  0.399530  0.830770  1.0  0.237
  C  C913  1  0.396140  0.412770  0.865940  1.0  -0.3234
  C  C914  1  0.421000  0.411640  0.804590  1.0  -0.3274
  C  C915  1  0.305410  0.441830  0.825740  1.0  -0.3512
  C  C916  1  0.123360  0.171940  0.756560  1.0  0.069
  C  C917  1  0.081080  0.222500  0.766910  1.0  -0.0936
  C  C918  1  0.025230  0.209680  0.785190  1.0  -0.1187
  C  C919  1  0.011310  0.144080  0.795250  1.0  0.1529
  C  C920  1  0.055450  0.094380  0.785880  1.0  -0.076
  C  C921  1  0.109110  0.107830  0.766590  1.0  -0.0674
  C  C922  1  0.922120  0.065100  0.822870  1.0  0.3247
  C  C923  1  0.966080  0.028310  0.846870  1.0  -0.3414
  C  C924  1  0.912880  0.026640  0.791110  1.0  -0.3378
  C  C925  1  0.855780  0.076760  0.837230  1.0  -0.3517
  C  C926  1  0.309100  0.972100  0.502230  1.0  0.2755
  C  C927  1  0.320950  0.954180  0.537320  1.0  0.3266
  C  C928  1  0.383170  0.929210  0.543550  1.0  -0.0545
  C  C929  1  0.399450  0.906040  0.573470  1.0  0.2703
  C  C930  1  0.364410  0.148990  0.623320  1.0  0.3033
  C  C931  1  0.310350  0.102330  0.616460  1.0  0.3087
  C  C932  1  0.248590  0.122670  0.607120  1.0  -0.0845
  C  C933  1  0.197060  0.083270  0.603530  1.0  0.3279
  C  C934  1  0.131140  0.116930  0.595700  1.0  0.3278
  C  C935  1  0.408190  0.392400  0.692100  1.0  0.2419
  C  C936  1  0.339730  0.413730  0.680150  1.0  0.3185
  C  C937  1  0.293270  0.440080  0.701530  1.0  -0.123
  C  C938  1  0.233540  0.459920  0.690670  1.0  0.2758
  C  C939  1  0.189800  0.479700  0.714760  1.0  0.1598
  C  C940  1  0.354610  0.645300  0.629840  1.0  0.1955
  C  C941  1  0.307080  0.596380  0.620950  1.0  0.3902
  C  C942  1  0.251550  0.620180  0.610970  1.0  -0.0856
  C  C943  1  0.200200  0.581040  0.599820  1.0  0.3345
  C  C944  1  0.135510  0.624900  0.592510  1.0  0.6324
  N  N945  1  0.047280  0.696720  0.818340  1.0  -0.1514
  N  N946  1  0.656140  0.845700  0.879480  1.0  -0.0337
  N  N947  1  0.675030  0.652160  0.668910  1.0  -0.1463
  N  N948  1  0.867660  0.046830  0.685280  1.0  -0.1665
  N  N949  1  0.952720  0.303280  0.318340  1.0  -0.1516
  N  N950  1  0.343860  0.154300  0.379480  1.0  -0.0338
  N  N951  1  0.324970  0.347840  0.168910  1.0  -0.1476
  N  N952  1  0.132340  0.953170  0.185280  1.0  -0.1665
  N  N953  1  0.803280  0.547280  0.568340  1.0  -0.1508
  N  N954  1  0.654300  0.156140  0.629480  1.0  -0.0342
  N  N955  1  0.847840  0.175030  0.418910  1.0  -0.1469
  N  N956  1  0.453170  0.367660  0.435280  1.0  -0.1693
  N  N957  1  0.196720  0.452720  0.068340  1.0  -0.1513
  N  N958  1  0.345700  0.843860  0.129480  1.0  -0.0344
  N  N959  1  0.152160  0.824970  0.918910  1.0  -0.1486
  N  N960  1  0.546830  0.632340  0.935280  1.0  -0.1685
  N  N961  1  0.452720  0.196720  0.931660  1.0  -0.1505
  N  N962  1  0.843860  0.345700  0.870520  1.0  -0.0338
  N  N963  1  0.824970  0.152160  0.081090  1.0  -0.1484
  N  N964  1  0.632340  0.546830  0.064720  1.0  -0.1661
  N  N965  1  0.547280  0.803280  0.431660  1.0  -0.1522
  N  N966  1  0.156140  0.654300  0.370520  1.0  -0.0342
  N  N967  1  0.175030  0.847840  0.581090  1.0  -0.1478
  N  N968  1  0.367660  0.453170  0.564720  1.0  -0.1664
  N  N969  1  0.696720  0.047280  0.181660  1.0  -0.1512
  N  N970  1  0.845700  0.656140  0.120520  1.0  -0.0349
  N  N971  1  0.652160  0.675030  0.331090  1.0  -0.1487
  N  N972  1  0.046830  0.867660  0.314720  1.0  -0.1692
  N  N973  1  0.303280  0.952720  0.681660  1.0  -0.1519
  N  N974  1  0.154300  0.343860  0.620520  1.0  -0.0345
  N  N975  1  0.347840  0.324970  0.831090  1.0  -0.15
  N  N976  1  0.953170  0.132340  0.814720  1.0  -0.1677
  O  O977  1  0.072370  0.730700  0.842200  1.0  -0.5627
  O  O978  1  0.636250  0.790400  0.891770  1.0  -0.5746
  O  O979  1  0.711850  0.631090  0.645440  1.0  -0.5883
  O  O980  1  0.815760  0.074080  0.672900  1.0  -0.5764
  O  O981  1  0.035850  0.726730  0.943100  1.0  -0.5558
  O  O982  1  0.095460  0.635130  0.901020  1.0  -0.5642
  O  O983  1  0.958270  0.672360  0.880220  1.0  -0.5551
  O  O984  1  0.976820  0.806940  0.893690  1.0  -0.5272
  O  O985  1  0.594740  0.665430  0.849400  1.0  -0.523
  O  O986  1  0.539580  0.790110  0.836620  1.0  -0.5298
  O  O987  1  0.463530  0.676610  0.874420  1.0  -0.5487
  O  O988  1  0.481230  0.804030  0.900160  1.0  -0.5465
  O  O989  1  0.927630  0.269300  0.342200  1.0  -0.5626
  O  O990  1  0.363750  0.209600  0.391770  1.0  -0.5739
  O  O991  1  0.288150  0.368910  0.145440  1.0  -0.5868
  O  O992  1  0.184240  0.925920  0.172900  1.0  -0.5756
  O  O993  1  0.964150  0.273270  0.443100  1.0  -0.5564
  O  O994  1  0.904540  0.364870  0.401020  1.0  -0.5632
  O  O995  1  0.041730  0.327640  0.380220  1.0  -0.5557
  O  O996  1  0.023180  0.193060  0.393690  1.0  -0.5264
  O  O997  1  0.405260  0.334570  0.349400  1.0  -0.5232
  O  O998  1  0.460420  0.209890  0.336620  1.0  -0.5307
  O  O999  1  0.536470  0.323390  0.374420  1.0  -0.5478
  O  O1000  1  0.518770  0.195970  0.400160  1.0  -0.5469
  O  O1001  1  0.769300  0.572370  0.592200  1.0  -0.5612
  O  O1002  1  0.709600  0.136250  0.641770  1.0  -0.5717
  O  O1003  1  0.868910  0.211850  0.395440  1.0  -0.5901
  O  O1004  1  0.425920  0.315760  0.422900  1.0  -0.5735
  O  O1005  1  0.773270  0.535850  0.693100  1.0  -0.5588
  O  O1006  1  0.864870  0.595460  0.651020  1.0  -0.5655
  O  O1007  1  0.827640  0.458270  0.630220  1.0  -0.5573
  O  O1008  1  0.693060  0.476820  0.643690  1.0  -0.5241
  O  O1009  1  0.834570  0.094740  0.599400  1.0  -0.5246
  O  O1010  1  0.709890  0.039580  0.586620  1.0  -0.5311
  O  O1011  1  0.823390  0.963530  0.624420  1.0  -0.5485
  O  O1012  1  0.695970  0.981230  0.650160  1.0  -0.5462
  O  O1013  1  0.230700  0.427630  0.092200  1.0  -0.5619
  O  O1014  1  0.290400  0.863750  0.141770  1.0  -0.5724
  O  O1015  1  0.131090  0.788150  0.895440  1.0  -0.5908
  O  O1016  1  0.574080  0.684240  0.922900  1.0  -0.573
  O  O1017  1  0.226730  0.464150  0.193100  1.0  -0.5588
  O  O1018  1  0.135130  0.404540  0.151020  1.0  -0.5648
  O  O1019  1  0.172360  0.541730  0.130220  1.0  -0.5565
  O  O1020  1  0.306940  0.523180  0.143690  1.0  -0.5233
  O  O1021  1  0.165430  0.905260  0.099400  1.0  -0.5251
  O  O1022  1  0.290110  0.960420  0.086620  1.0  -0.5304
  O  O1023  1  0.176610  0.036470  0.124420  1.0  -0.5467
  O  O1024  1  0.304030  0.018770  0.150160  1.0  -0.5467
  O  O1025  1  0.427630  0.230700  0.907800  1.0  -0.5627
  O  O1026  1  0.863750  0.290400  0.858230  1.0  -0.5746
  O  O1027  1  0.788150  0.131090  0.104560  1.0  -0.589
  O  O1028  1  0.684240  0.574080  0.077100  1.0  -0.5754
  O  O1029  1  0.464150  0.226730  0.806900  1.0  -0.5555
  O  O1030  1  0.404540  0.135130  0.848980  1.0  -0.5634
  O  O1031  1  0.541730  0.172360  0.869780  1.0  -0.5548
  O  O1032  1  0.523180  0.306940  0.856310  1.0  -0.5263
  O  O1033  1  0.905260  0.165430  0.900600  1.0  -0.5247
  O  O1034  1  0.960420  0.290110  0.913380  1.0  -0.5298
  O  O1035  1  0.036470  0.176610  0.875580  1.0  -0.548
  O  O1036  1  0.018770  0.304030  0.849840  1.0  -0.5461
  O  O1037  1  0.572370  0.769300  0.407800  1.0  -0.5632
  O  O1038  1  0.136250  0.709600  0.358230  1.0  -0.5726
  O  O1039  1  0.211850  0.868910  0.604560  1.0  -0.5909
  O  O1040  1  0.315760  0.425920  0.577100  1.0  -0.5757
  O  O1041  1  0.535850  0.773270  0.306900  1.0  -0.5553
  O  O1042  1  0.595460  0.864870  0.348980  1.0  -0.5619
  O  O1043  1  0.458270  0.827640  0.369780  1.0  -0.5552
  O  O1044  1  0.476820  0.693060  0.356310  1.0  -0.5274
  O  O1045  1  0.094740  0.834570  0.400600  1.0  -0.5244
  O  O1046  1  0.039580  0.709890  0.413380  1.0  -0.5308
  O  O1047  1  0.963530  0.823390  0.375580  1.0  -0.5492
  O  O1048  1  0.981230  0.695970  0.349840  1.0  -0.5472
  O  O1049  1  0.730700  0.072370  0.157800  1.0  -0.5622
  O  O1050  1  0.790400  0.636250  0.108230  1.0  -0.5711
  O  O1051  1  0.631090  0.711850  0.354560  1.0  -0.5934
  O  O1052  1  0.074080  0.815760  0.327100  1.0  -0.5726
  O  O1053  1  0.726730  0.035850  0.056900  1.0  -0.5599
  O  O1054  1  0.635130  0.095460  0.098980  1.0  -0.5648
  O  O1055  1  0.672360  0.958270  0.119780  1.0  -0.5567
  O  O1056  1  0.806940  0.976820  0.106310  1.0  -0.5245
  O  O1057  1  0.665430  0.594740  0.150600  1.0  -0.5265
  O  O1058  1  0.790110  0.539580  0.163380  1.0  -0.5313
  O  O1059  1  0.676610  0.463530  0.125580  1.0  -0.5473
  O  O1060  1  0.804030  0.481230  0.099840  1.0  -0.546
  O  O1061  1  0.269300  0.927630  0.657800  1.0  -0.5621
  O  O1062  1  0.209600  0.363750  0.608230  1.0  -0.5715
  O  O1063  1  0.368910  0.288150  0.854560  1.0  -0.5914
  O  O1064  1  0.925920  0.184240  0.827100  1.0  -0.573
  O  O1065  1  0.273270  0.964150  0.556900  1.0  -0.5578
  O  O1066  1  0.364870  0.904540  0.598980  1.0  -0.5635
  O  O1067  1  0.327640  0.041730  0.619780  1.0  -0.5544
  O  O1068  1  0.193060  0.023180  0.606310  1.0  -0.523
  O  O1069  1  0.334570  0.405260  0.650600  1.0  -0.5252
  O  O1070  1  0.209890  0.460420  0.663380  1.0  -0.5299
  O  O1071  1  0.323390  0.536470  0.625580  1.0  -0.5489
  O  O1072  1  0.195970  0.518770  0.599840  1.0  -0.5463
  F  F1073  1  0.074100  0.727530  0.010930  1.0  -0.1977
  F  F1074  1  0.977010  0.719600  0.002060  1.0  -0.1571
  F  F1075  1  0.029740  0.641920  0.016940  1.0  -0.2135
  F  F1076  1  0.858640  0.613520  0.845880  1.0  -0.1765
  F  F1077  1  0.789610  0.649560  0.881630  1.0  -0.2135
  F  F1078  1  0.857690  0.584010  0.894570  1.0  -0.185
  F  F1079  1  0.858270  0.898680  0.877750  1.0  -0.2388
  F  F1080  1  0.919090  0.911500  0.914700  1.0  -0.2008
  F  F1081  1  0.829230  0.861420  0.920990  1.0  -0.2116
  F  F1082  1  0.575300  0.547600  0.817680  1.0  -0.285
  F  F1083  1  0.661340  0.569180  0.820810  1.0  -0.3078
  F  F1084  1  0.608700  0.585420  0.778610  1.0  -0.2179
  F  F1085  1  0.561900  0.857500  0.778250  1.0  -0.3122
  F  F1086  1  0.512110  0.792340  0.754360  1.0  -0.2604
  F  F1087  1  0.475620  0.851470  0.789140  1.0  -0.2608
  F  F1088  1  0.354060  0.593350  0.891380  1.0  -0.2392
  F  F1089  1  0.364730  0.613030  0.844200  1.0  -0.1959
  F  F1090  1  0.293270  0.657230  0.869480  1.0  -0.1922
  F  F1091  1  0.401750  0.915580  0.901490  1.0  -0.1601
  F  F1092  1  0.336660  0.854920  0.931170  1.0  -0.1189
  F  F1093  1  0.925900  0.272470  0.510930  1.0  -0.1952
  F  F1094  1  0.022990  0.280400  0.502060  1.0  -0.1569
  F  F1095  1  0.970260  0.358080  0.516940  1.0  -0.2137
  F  F1096  1  0.141360  0.386480  0.345880  1.0  -0.1764
  F  F1097  1  0.210390  0.350440  0.381630  1.0  -0.2084
  F  F1098  1  0.142310  0.415990  0.394570  1.0  -0.1847
  F  F1099  1  0.141730  0.101320  0.377750  1.0  -0.2389
  F  F1100  1  0.080910  0.088500  0.414700  1.0  -0.1996
  F  F1101  1  0.170770  0.138580  0.420990  1.0  -0.2122
  F  F1102  1  0.424700  0.452400  0.317680  1.0  -0.2854
  F  F1103  1  0.338660  0.430820  0.320810  1.0  -0.3122
  F  F1104  1  0.391300  0.414580  0.278610  1.0  -0.2173
  F  F1105  1  0.438100  0.142500  0.278250  1.0  -0.307
  F  F1106  1  0.487890  0.207660  0.254360  1.0  -0.2599
  F  F1107  1  0.524380  0.148530  0.289140  1.0  -0.2643
  F  F1108  1  0.645940  0.406650  0.391380  1.0  -0.24
  F  F1109  1  0.635270  0.386970  0.344200  1.0  -0.1937
  F  F1110  1  0.706730  0.342770  0.369480  1.0  -0.1908
  F  F1111  1  0.598250  0.084420  0.401490  1.0  -0.1598
  F  F1112  1  0.663340  0.145080  0.431170  1.0  -0.1186
  F  F1113  1  0.772470  0.574100  0.760930  1.0  -0.1941
  F  F1114  1  0.780400  0.477010  0.752060  1.0  -0.1577
  F  F1115  1  0.858080  0.529740  0.766940  1.0  -0.2151
  F  F1116  1  0.886480  0.358640  0.595880  1.0  -0.1757
  F  F1117  1  0.850440  0.289610  0.631630  1.0  -0.2102
  F  F1118  1  0.915990  0.357690  0.644570  1.0  -0.1848
  F  F1119  1  0.601320  0.358270  0.627750  1.0  -0.2378
  F  F1120  1  0.588500  0.419090  0.664700  1.0  -0.1997
  F  F1121  1  0.638580  0.329230  0.670990  1.0  -0.2126
  F  F1122  1  0.952400  0.075300  0.567680  1.0  -0.2872
  F  F1123  1  0.930820  0.161340  0.570810  1.0  -0.3135
  F  F1124  1  0.914580  0.108700  0.528610  1.0  -0.2172
  F  F1125  1  0.642500  0.061900  0.528250  1.0  -0.3042
  F  F1126  1  0.707660  0.012110  0.504360  1.0  -0.2598
  F  F1127  1  0.648530  0.975620  0.539140  1.0  -0.2633
  F  F1128  1  0.906650  0.854060  0.641380  1.0  -0.2396
  F  F1129  1  0.886970  0.864730  0.594200  1.0  -0.1948
  F  F1130  1  0.842770  0.793270  0.619480  1.0  -0.1878
  F  F1131  1  0.584420  0.901750  0.651490  1.0  -0.1582
  F  F1132  1  0.645080  0.836660  0.681170  1.0  -0.1176
  F  F1133  1  0.227530  0.425900  0.260930  1.0  -0.1953
  F  F1134  1  0.219600  0.522990  0.252060  1.0  -0.1586
  F  F1135  1  0.141920  0.470260  0.266940  1.0  -0.2152
  F  F1136  1  0.113520  0.641360  0.095880  1.0  -0.1752
  F  F1137  1  0.149560  0.710390  0.131630  1.0  -0.2107
  F  F1138  1  0.084010  0.642310  0.144570  1.0  -0.1848
  F  F1139  1  0.398680  0.641730  0.127750  1.0  -0.2386
  F  F1140  1  0.411500  0.580910  0.164700  1.0  -0.1997
  F  F1141  1  0.361420  0.670770  0.170990  1.0  -0.2149
  F  F1142  1  0.047600  0.924700  0.067680  1.0  -0.2872
  F  F1143  1  0.069180  0.838660  0.070810  1.0  -0.3132
  F  F1144  1  0.085420  0.891300  0.028610  1.0  -0.2097
  F  F1145  1  0.357500  0.938100  0.028250  1.0  -0.309
  F  F1146  1  0.292340  0.987890  0.004360  1.0  -0.2604
  F  F1147  1  0.351470  0.024380  0.039140  1.0  -0.2634
  F  F1148  1  0.093350  0.145940  0.141380  1.0  -0.2406
  F  F1149  1  0.113030  0.135270  0.094200  1.0  -0.193
  F  F1150  1  0.157230  0.206730  0.119480  1.0  -0.1874
  F  F1151  1  0.415580  0.098250  0.151490  1.0  -0.1552
  F  F1152  1  0.354920  0.163340  0.181170  1.0  -0.1192
  F  F1153  1  0.425900  0.227530  0.739070  1.0  -0.1951
  F  F1154  1  0.522990  0.219600  0.747940  1.0  -0.156
  F  F1155  1  0.470260  0.141920  0.733060  1.0  -0.215
  F  F1156  1  0.641360  0.113520  0.904120  1.0  -0.1767
  F  F1157  1  0.710390  0.149560  0.868370  1.0  -0.2071
  F  F1158  1  0.642310  0.084010  0.855430  1.0  -0.1858
  F  F1159  1  0.641730  0.398680  0.872250  1.0  -0.2397
  F  F1160  1  0.580910  0.411500  0.835300  1.0  -0.2001
  F  F1161  1  0.670770  0.361420  0.829010  1.0  -0.2125
  F  F1162  1  0.924700  0.047600  0.932320  1.0  -0.2876
  F  F1163  1  0.838660  0.069180  0.929190  1.0  -0.3112
  F  F1164  1  0.891300  0.085420  0.971390  1.0  -0.2186
  F  F1165  1  0.938100  0.357500  0.971750  1.0  -0.3092
  F  F1166  1  0.987890  0.292340  0.995640  1.0  -0.2629
  F  F1167  1  0.024380  0.351470  0.960860  1.0  -0.2644
  F  F1168  1  0.145940  0.093350  0.858620  1.0  -0.2404
  F  F1169  1  0.135270  0.113030  0.905800  1.0  -0.1947
  F  F1170  1  0.206730  0.157230  0.880520  1.0  -0.19
  F  F1171  1  0.098250  0.415580  0.848510  1.0  -0.1597
  F  F1172  1  0.163340  0.354920  0.818830  1.0  -0.1169
  F  F1173  1  0.574100  0.772470  0.239070  1.0  -0.1946
  F  F1174  1  0.477010  0.780400  0.247940  1.0  -0.1562
  F  F1175  1  0.529740  0.858080  0.233060  1.0  -0.2131
  F  F1176  1  0.358640  0.886480  0.404120  1.0  -0.1768
  F  F1177  1  0.289610  0.850440  0.368370  1.0  -0.2126
  F  F1178  1  0.357690  0.915990  0.355430  1.0  -0.184
  F  F1179  1  0.358270  0.601320  0.372250  1.0  -0.2381
  F  F1180  1  0.419090  0.588500  0.335300  1.0  -0.2004
  F  F1181  1  0.329230  0.638580  0.329010  1.0  -0.2109
  F  F1182  1  0.075300  0.952400  0.432320  1.0  -0.2874
  F  F1183  1  0.161340  0.930820  0.429190  1.0  -0.3077
  F  F1184  1  0.108700  0.914580  0.471390  1.0  -0.2205
  F  F1185  1  0.061900  0.642500  0.471750  1.0  -0.3073
  F  F1186  1  0.012110  0.707660  0.495640  1.0  -0.2626
  F  F1187  1  0.975620  0.648530  0.460860  1.0  -0.2606
  F  F1188  1  0.854060  0.906650  0.358620  1.0  -0.2409
  F  F1189  1  0.864730  0.886970  0.405800  1.0  -0.196
  F  F1190  1  0.793270  0.842770  0.380520  1.0  -0.1924
  F  F1191  1  0.901750  0.584420  0.348510  1.0  -0.1597
  F  F1192  1  0.836660  0.645080  0.318830  1.0  -0.1187
  F  F1193  1  0.727530  0.074100  0.989070  1.0  -0.1942
  F  F1194  1  0.719600  0.977010  0.997940  1.0  -0.1582
  F  F1195  1  0.641920  0.029740  0.983060  1.0  -0.2156
  F  F1196  1  0.613520  0.858640  0.154120  1.0  -0.1758
  F  F1197  1  0.649560  0.789610  0.118370  1.0  -0.2092
  F  F1198  1  0.584010  0.857690  0.105430  1.0  -0.1848
  F  F1199  1  0.898680  0.858270  0.122250  1.0  -0.2384
  F  F1200  1  0.911500  0.919090  0.085300  1.0  -0.1997
  F  F1201  1  0.861420  0.829230  0.079010  1.0  -0.2123
  F  F1202  1  0.547600  0.575300  0.182320  1.0  -0.2888
  F  F1203  1  0.569180  0.661340  0.179190  1.0  -0.3147
  F  F1204  1  0.585420  0.608700  0.221390  1.0  -0.2099
  F  F1205  1  0.857500  0.561900  0.221750  1.0  -0.3085
  F  F1206  1  0.792340  0.512110  0.245640  1.0  -0.2627
  F  F1207  1  0.851470  0.475620  0.210860  1.0  -0.264
  F  F1208  1  0.593350  0.354060  0.108620  1.0  -0.2389
  F  F1209  1  0.613030  0.364730  0.155800  1.0  -0.1926
  F  F1210  1  0.657230  0.293270  0.130520  1.0  -0.1874
  F  F1211  1  0.915580  0.401750  0.098510  1.0  -0.1552
  F  F1212  1  0.854920  0.336660  0.068830  1.0  -0.1183
  F  F1213  1  0.272470  0.925900  0.489070  1.0  -0.1929
  F  F1214  1  0.280400  0.022990  0.497940  1.0  -0.1582
  F  F1215  1  0.358080  0.970260  0.483060  1.0  -0.2136
  F  F1216  1  0.386480  0.141360  0.654120  1.0  -0.1759
  F  F1217  1  0.350440  0.210390  0.618370  1.0  -0.209
  F  F1218  1  0.415990  0.142310  0.605430  1.0  -0.1854
  F  F1219  1  0.101320  0.141730  0.622250  1.0  -0.2381
  F  F1220  1  0.088500  0.080910  0.585300  1.0  -0.2002
  F  F1221  1  0.138580  0.170770  0.579010  1.0  -0.2124
  F  F1222  1  0.452400  0.424700  0.682320  1.0  -0.2887
  F  F1223  1  0.430820  0.338660  0.679190  1.0  -0.3105
  F  F1224  1  0.414580  0.391300  0.721390  1.0  -0.2185
  F  F1225  1  0.142500  0.438100  0.721750  1.0  -0.3019
  F  F1226  1  0.207660  0.487890  0.745640  1.0  -0.2626
  F  F1227  1  0.148530  0.524380  0.710860  1.0  -0.2638
  F  F1228  1  0.406650  0.645940  0.608620  1.0  -0.2398
  F  F1229  1  0.386970  0.635270  0.655800  1.0  -0.1959
  F  F1230  1  0.342770  0.706730  0.630520  1.0  -0.1863
  F  F1231  1  0.084420  0.598250  0.598510  1.0  -0.1588
  F  F1232  1  0.145080  0.663340  0.568830  1.0  -0.1174
