# generated using pymatgen
data_Ag13B14H176C208(N8F7)8
_symmetry_space_group_name_H-M   'P 1'
_cell_length_a   23.16700000
_cell_length_b   23.16700000
_cell_length_c   26.46000000
_cell_angle_alpha   86.53220000
_cell_angle_beta   86.53220000
_cell_angle_gamma   84.92340000
_symmetry_Int_Tables_number   1
_chemical_formula_structural   Ag13B14H176C208(N8F7)8
_chemical_formula_sum   'Ag26 B28 H352 C416 N128 F112'
_cell_volume   14098.00777663
_cell_formula_units_Z   2
loop_
 _symmetry_equiv_pos_site_id
 _symmetry_equiv_pos_as_xyz
  1  'x, y, z'
loop_
 _atom_site_type_symbol
 _atom_site_label
 _atom_site_symmetry_multiplicity
 _atom_site_fract_x
 _atom_site_fract_y
 _atom_site_fract_z
 _atom_site_occupancy
 _atom_site_charge
  Ag  Ag1  1  0.245470  0.000950  0.935390  1.0  0.3794
  Ag  Ag2  1  0.239750  0.991670  0.064260  1.0  0.3802
  Ag  Ag3  1  0.492640  0.808960  0.465780  1.0  0.4633
  Ag  Ag4  1  0.527630  0.678430  0.473240  1.0  0.3578
  Ag  Ag5  1  0.599400  0.533080  0.713100  1.0  0.2048
  Ag  Ag6  1  0.484720  0.982380  0.229190  1.0  0.2565
  Ag  Ag7  1  0.999050  0.754530  0.564610  1.0  0.38
  Ag  Ag8  1  0.008330  0.760250  0.435740  1.0  0.3808
  Ag  Ag9  1  0.191040  0.507360  0.034220  1.0  0.4633
  Ag  Ag10  1  0.321570  0.472370  0.026760  1.0  0.3579
  Ag  Ag11  1  0.466920  0.400600  0.786900  1.0  0.2093
  Ag  Ag12  1  0.017620  0.515280  0.270810  1.0  0.2542
  Ag  Ag13  1  0.754530  0.999050  0.064610  1.0  0.3798
  Ag  Ag14  1  0.760250  0.008330  0.935740  1.0  0.3809
  Ag  Ag15  1  0.507360  0.191040  0.534220  1.0  0.4633
  Ag  Ag16  1  0.472370  0.321570  0.526760  1.0  0.3572
  Ag  Ag17  1  0.400600  0.466920  0.286900  1.0  0.2089
  Ag  Ag18  1  0.515280  0.017620  0.770810  1.0  0.2526
  Ag  Ag19  1  0.000950  0.245470  0.435390  1.0  0.3798
  Ag  Ag20  1  0.991670  0.239750  0.564260  1.0  0.3804
  Ag  Ag21  1  0.808960  0.492640  0.965780  1.0  0.4635
  Ag  Ag22  1  0.678430  0.527630  0.973240  1.0  0.3575
  Ag  Ag23  1  0.533080  0.599400  0.213100  1.0  0.2053
  Ag  Ag24  1  0.982380  0.484720  0.729190  1.0  0.2565
  Ag  Ag25  1  0.020520  0.979480  0.750000  1.0  0.3585
  Ag  Ag26  1  0.979480  0.020520  0.250000  1.0  0.3598
  B  B27  1  0.489440  0.105060  0.087890  1.0  0.95
  B  B28  1  0.365420  0.988180  0.352190  1.0  0.9455
  B  B29  1  0.992870  0.809130  0.842400  1.0  0.9967
  B  B30  1  0.193560  0.499900  0.322500  1.0  1.0391
  B  B31  1  0.363140  0.307280  0.278240  1.0  1.0382
  B  B32  1  0.012670  0.912350  0.090630  1.0  0.9998
  B  B33  1  0.430200  0.330000  0.113400  1.0  1.0346
  B  B34  1  0.894940  0.510560  0.412110  1.0  0.9496
  B  B35  1  0.011820  0.634580  0.147810  1.0  0.9464
  B  B36  1  0.190870  0.007130  0.657600  1.0  0.9982
  B  B37  1  0.500100  0.806440  0.177500  1.0  1.0397
  B  B38  1  0.692720  0.636860  0.221760  1.0  1.0381
  B  B39  1  0.087650  0.987330  0.409370  1.0  0.9978
  B  B40  1  0.670000  0.569800  0.386600  1.0  1.0373
  B  B41  1  0.510560  0.894940  0.912110  1.0  0.9508
  B  B42  1  0.634580  0.011820  0.647810  1.0  0.9476
  B  B43  1  0.007130  0.190870  0.157600  1.0  0.9973
  B  B44  1  0.806440  0.500100  0.677500  1.0  1.0396
  B  B45  1  0.636860  0.692720  0.721760  1.0  1.0394
  B  B46  1  0.987330  0.087650  0.909370  1.0  0.9977
  B  B47  1  0.569800  0.670000  0.886600  1.0  1.0343
  B  B48  1  0.105060  0.489440  0.587890  1.0  0.9491
  B  B49  1  0.988180  0.365420  0.852190  1.0  0.9469
  B  B50  1  0.809130  0.992870  0.342400  1.0  0.9956
  B  B51  1  0.499900  0.193560  0.822500  1.0  1.0386
  B  B52  1  0.307280  0.363140  0.778240  1.0  1.0379
  B  B53  1  0.912350  0.012670  0.590630  1.0  1.0
  B  B54  1  0.330000  0.430200  0.613400  1.0  1.0372
  H  H55  1  0.282000  0.049200  0.171000  1.0  0.1119
  H  H56  1  0.360400  0.044600  0.217200  1.0  0.0591
  H  H57  1  0.442300  0.931900  0.127900  1.0  0.0791
  H  H58  1  0.415400  0.873800  0.012300  1.0  0.1134
  H  H59  1  0.452500  0.917900  0.035600  1.0  0.1065
  H  H60  1  0.433400  0.863600  0.068500  1.0  0.1148
  H  H61  1  0.359300  0.870700  0.908400  1.0  0.092
  H  H62  1  0.364600  0.820000  0.834700  1.0  0.1033
  H  H63  1  0.290500  0.763300  0.819100  1.0  0.0972
  H  H64  1  0.213400  0.753800  0.878800  1.0  0.1016
  H  H65  1  0.209600  0.803400  0.952700  1.0  0.0852
  H  H66  1  0.147500  0.869100  0.095400  1.0  0.118
  H  H67  1  0.151500  0.815500  0.174600  1.0  0.0958
  H  H68  1  0.234500  0.753700  0.191400  1.0  0.1172
  H  H69  1  0.307600  0.744000  0.130600  1.0  0.0836
  H  H70  1  0.309900  0.801500  0.059200  1.0  0.1096
  H  H71  1  0.097700  0.868700  0.978400  1.0  0.1143
  H  H72  1  0.053100  0.905100  0.944400  1.0  0.107
  H  H73  1  0.097200  0.857400  0.920700  1.0  0.1023
  H  H74  1  0.068100  0.928500  0.860000  1.0  0.1013
  H  H75  1  0.130100  0.048500  0.765200  1.0  0.0943
  H  H76  1  0.203400  0.055400  0.822300  1.0  0.0643
  H  H77  1  0.951900  0.300900  0.320700  1.0  0.0859
  H  H78  1  0.956200  0.390200  0.269400  1.0  0.0801
  H  H79  1  0.045700  0.451700  0.369500  1.0  0.0812
  H  H80  1  0.094800  0.406200  0.489400  1.0  0.1104
  H  H81  1  0.048000  0.448000  0.462300  1.0  0.1115
  H  H82  1  0.107100  0.429500  0.433300  1.0  0.1117
  H  H83  1  0.187400  0.179600  0.555100  1.0  0.092
  H  H84  1  0.241000  0.184000  0.627100  1.0  0.0915
  H  H85  1  0.231000  0.257800  0.679600  1.0  0.1232
  H  H86  1  0.181900  0.344700  0.649500  1.0  0.0974
  H  H87  1  0.123700  0.349100  0.580100  1.0  0.1094
  H  H88  1  0.130300  0.138300  0.413400  1.0  0.1034
  H  H89  1  0.189100  0.140300  0.336100  1.0  0.0996
  H  H90  1  0.227100  0.224300  0.306700  1.0  0.0912
  H  H91  1  0.233400  0.299800  0.358200  1.0  0.1013
  H  H92  1  0.181600  0.297000  0.441600  1.0  0.0981
  H  H93  1  0.129700  0.082500  0.521800  1.0  0.108
  H  H94  1  0.092300  0.037500  0.552200  1.0  0.1046
  H  H95  1  0.141600  0.064600  0.578600  1.0  0.1161
  H  H96  1  0.069700  0.040500  0.644400  1.0  0.0794
  H  H97  1  0.956900  0.113300  0.741600  1.0  0.1023
  H  H98  1  0.941400  0.190600  0.683200  1.0  0.09
  H  H99  1  0.599500  0.555700  0.515700  1.0  0.1191
  H  H100  1  0.623100  0.513100  0.595800  1.0  0.0872
  H  H101  1  0.511000  0.626800  0.663700  1.0  0.0979
  H  H102  1  0.416000  0.745600  0.619900  1.0  0.118
  H  H103  1  0.474500  0.734300  0.647100  1.0  0.126
  H  H104  1  0.428300  0.688500  0.653900  1.0  0.1244
  H  H105  1  0.350000  0.835600  0.574600  1.0  0.105
  H  H106  1  0.285900  0.917900  0.569800  1.0  0.0962
  H  H107  1  0.235100  0.941100  0.498100  1.0  0.1064
  H  H108  1  0.247100  0.881100  0.430600  1.0  0.0935
  H  H109  1  0.312700  0.798900  0.434100  1.0  0.0929
  H  H110  1  0.329500  0.678900  0.551700  1.0  0.0842
  H  H111  1  0.260600  0.606800  0.572900  1.0  0.1029
  H  H112  1  0.249200  0.546400  0.509900  1.0  0.0734
  H  H113  1  0.294600  0.554800  0.431500  1.0  0.0982
  H  H114  1  0.349300  0.631700  0.408600  1.0  0.0891
  H  H115  1  0.380500  0.734900  0.339600  1.0  0.124
  H  H116  1  0.427700  0.753900  0.298400  1.0  0.1254
  H  H117  1  0.373600  0.796800  0.312300  1.0  0.1199
  H  H118  1  0.437400  0.866800  0.285000  1.0  0.0817
  H  H119  1  0.556100  0.962700  0.325800  1.0  0.0879
  H  H120  1  0.573900  0.899700  0.392200  1.0  0.0833
  H  H121  1  0.475000  0.596600  0.405700  1.0  0.0662
  H  H122  1  0.467800  0.572200  0.318900  1.0  0.0802
  H  H123  1  0.582800  0.683400  0.279800  1.0  0.0946
  H  H124  1  0.647900  0.788700  0.339700  1.0  0.1187
  H  H125  1  0.601600  0.773600  0.302800  1.0  0.1116
  H  H126  1  0.655400  0.729600  0.313300  1.0  0.1254
  H  H127  1  0.667100  0.876900  0.414400  1.0  0.1007
  H  H128  1  0.718900  0.954300  0.431300  1.0  0.0961
  H  H129  1  0.755200  0.958800  0.510100  1.0  0.0934
  H  H130  1  0.738900  0.887300  0.573300  1.0  0.0983
  H  H131  1  0.688600  0.809000  0.556100  1.0  0.0875
  H  H132  1  0.646900  0.683700  0.602100  1.0  0.0913
  H  H133  1  0.710500  0.602900  0.616900  1.0  0.0927
  H  H134  1  0.768800  0.564600  0.550600  1.0  0.0976
  H  H135  1  0.764400  0.608400  0.469900  1.0  0.0911
  H  H136  1  0.701700  0.690500  0.454900  1.0  0.0991
  H  H137  1  0.582300  0.806700  0.628300  1.0  0.1216
  H  H138  1  0.525200  0.842400  0.647100  1.0  0.119
  H  H139  1  0.578500  0.874700  0.624900  1.0  0.1204
  H  H140  1  0.503100  0.936500  0.611900  1.0  0.0487
  H  H141  1  0.400800  0.015400  0.514900  1.0  0.0742
  H  H142  1  0.411800  0.935400  0.468100  1.0  0.0998
  H  H143  1  0.950800  0.718000  0.329000  1.0  0.1101
  H  H144  1  0.955400  0.639600  0.282800  1.0  0.0603
  H  H145  1  0.068100  0.557700  0.372100  1.0  0.0801
  H  H146  1  0.126200  0.584600  0.487700  1.0  0.1148
  H  H147  1  0.082100  0.547500  0.464400  1.0  0.1063
  H  H148  1  0.136400  0.566600  0.431500  1.0  0.1147
  H  H149  1  0.129300  0.640700  0.591600  1.0  0.093
  H  H150  1  0.180000  0.635400  0.665300  1.0  0.103
  H  H151  1  0.236700  0.709500  0.680900  1.0  0.098
  H  H152  1  0.246200  0.786600  0.621200  1.0  0.1012
  H  H153  1  0.196600  0.790400  0.547300  1.0  0.0848
  H  H154  1  0.130900  0.852500  0.404600  1.0  0.1171
  H  H155  1  0.184500  0.848500  0.325400  1.0  0.0971
  H  H156  1  0.246300  0.765500  0.308600  1.0  0.1178
  H  H157  1  0.256000  0.692400  0.369400  1.0  0.0834
  H  H158  1  0.198500  0.690100  0.440800  1.0  0.1107
  H  H159  1  0.131300  0.902300  0.521600  1.0  0.1134
  H  H160  1  0.094900  0.946900  0.555600  1.0  0.1098
  H  H161  1  0.142600  0.902800  0.579300  1.0  0.1021
  H  H162  1  0.071500  0.931900  0.640000  1.0  0.1013
  H  H163  1  0.951500  0.869900  0.734800  1.0  0.094
  H  H164  1  0.944600  0.796600  0.677700  1.0  0.0639
  H  H165  1  0.699100  0.048100  0.179300  1.0  0.0867
  H  H166  1  0.609800  0.043800  0.230600  1.0  0.0811
  H  H167  1  0.548300  0.954300  0.130500  1.0  0.0816
  H  H168  1  0.593800  0.905200  0.010600  1.0  0.1102
  H  H169  1  0.552000  0.952000  0.037700  1.0  0.1116
  H  H170  1  0.570500  0.892900  0.066700  1.0  0.1126
  H  H171  1  0.820400  0.812600  0.944900  1.0  0.0922
  H  H172  1  0.816000  0.759000  0.872900  1.0  0.0913
  H  H173  1  0.742200  0.769000  0.820400  1.0  0.1225
  H  H174  1  0.655300  0.818100  0.850500  1.0  0.0973
  H  H175  1  0.650900  0.876300  0.919900  1.0  0.1084
  H  H176  1  0.861700  0.869700  0.086600  1.0  0.1039
  H  H177  1  0.859700  0.810900  0.163900  1.0  0.0996
  H  H178  1  0.775700  0.772900  0.193300  1.0  0.091
  H  H179  1  0.700200  0.766600  0.141800  1.0  0.1017
  H  H180  1  0.703000  0.818400  0.058400  1.0  0.0976
  H  H181  1  0.917500  0.870300  0.978200  1.0  0.108
  H  H182  1  0.962500  0.907700  0.947800  1.0  0.1057
  H  H183  1  0.935400  0.858400  0.921400  1.0  0.1167
  H  H184  1  0.959500  0.930300  0.855600  1.0  0.0794
  H  H185  1  0.886700  0.043100  0.758400  1.0  0.1013
  H  H186  1  0.809400  0.058600  0.816800  1.0  0.09
  H  H187  1  0.444300  0.400500  0.984300  1.0  0.1189
  H  H188  1  0.486900  0.376900  0.904200  1.0  0.0883
  H  H189  1  0.373200  0.489000  0.836300  1.0  0.0979
  H  H190  1  0.254400  0.584000  0.880100  1.0  0.1171
  H  H191  1  0.265700  0.525500  0.852900  1.0  0.126
  H  H192  1  0.311500  0.571700  0.846100  1.0  0.123
  H  H193  1  0.164400  0.650000  0.925400  1.0  0.1049
  H  H194  1  0.082100  0.714100  0.930200  1.0  0.096
  H  H195  1  0.058900  0.764900  0.001900  1.0  0.107
  H  H196  1  0.118900  0.752900  0.069400  1.0  0.0941
  H  H197  1  0.201100  0.687300  0.065900  1.0  0.093
  H  H198  1  0.321100  0.670500  0.948300  1.0  0.0848
  H  H199  1  0.393200  0.739400  0.927100  1.0  0.1036
  H  H200  1  0.453600  0.750800  0.990100  1.0  0.0732
  H  H201  1  0.445200  0.705400  0.068500  1.0  0.0992
  H  H202  1  0.368300  0.650700  0.091400  1.0  0.0894
  H  H203  1  0.265100  0.619500  0.160400  1.0  0.1232
  H  H204  1  0.246100  0.572300  0.201600  1.0  0.1254
  H  H205  1  0.203200  0.626400  0.187700  1.0  0.1201
  H  H206  1  0.133200  0.562600  0.215000  1.0  0.0808
  H  H207  1  0.037300  0.443900  0.174200  1.0  0.0888
  H  H208  1  0.100300  0.426100  0.107800  1.0  0.0837
  H  H209  1  0.403400  0.525000  0.094300  1.0  0.0667
  H  H210  1  0.427800  0.532200  0.181100  1.0  0.0799
  H  H211  1  0.316600  0.417200  0.220200  1.0  0.0956
  H  H212  1  0.211300  0.352100  0.160300  1.0  0.1185
  H  H213  1  0.226400  0.398400  0.197200  1.0  0.1116
  H  H214  1  0.270400  0.344600  0.186700  1.0  0.1271
  H  H215  1  0.123100  0.332900  0.085600  1.0  0.1008
  H  H216  1  0.045700  0.281100  0.068700  1.0  0.0977
  H  H217  1  0.041200  0.244800  0.989900  1.0  0.0927
  H  H218  1  0.112700  0.261100  0.926700  1.0  0.0992
  H  H219  1  0.191000  0.311400  0.943900  1.0  0.0866
  H  H220  1  0.316300  0.353100  0.897900  1.0  0.091
  H  H221  1  0.397100  0.289500  0.883100  1.0  0.0931
  H  H222  1  0.435400  0.231200  0.949400  1.0  0.0964
  H  H223  1  0.391600  0.235600  0.030100  1.0  0.091
  H  H224  1  0.309500  0.298300  0.045100  1.0  0.0989
  H  H225  1  0.193300  0.417700  0.871700  1.0  0.1215
  H  H226  1  0.157600  0.474800  0.852900  1.0  0.1178
  H  H227  1  0.125300  0.421500  0.875100  1.0  0.1198
  H  H228  1  0.063500  0.496900  0.888100  1.0  0.0505
  H  H229  1  0.984600  0.599200  0.985100  1.0  0.0741
  H  H230  1  0.064600  0.588200  0.031900  1.0  0.099
  H  H231  1  0.718000  0.950800  0.829000  1.0  0.1122
  H  H232  1  0.639600  0.955400  0.782800  1.0  0.0596
  H  H233  1  0.557700  0.068100  0.872100  1.0  0.0795
  H  H234  1  0.584600  0.126200  0.987700  1.0  0.1143
  H  H235  1  0.547500  0.082100  0.964400  1.0  0.1069
  H  H236  1  0.566600  0.136400  0.931500  1.0  0.1137
  H  H237  1  0.640700  0.129300  0.091600  1.0  0.0927
  H  H238  1  0.635400  0.180000  0.165300  1.0  0.1038
  H  H239  1  0.709500  0.236700  0.180900  1.0  0.0984
  H  H240  1  0.786600  0.246200  0.121200  1.0  0.1016
  H  H241  1  0.790400  0.196600  0.047300  1.0  0.0847
  H  H242  1  0.852500  0.130900  0.904600  1.0  0.1167
  H  H243  1  0.848500  0.184500  0.825400  1.0  0.0967
  H  H244  1  0.765500  0.246300  0.808600  1.0  0.1174
  H  H245  1  0.692400  0.256000  0.869400  1.0  0.0831
  H  H246  1  0.690100  0.198500  0.940800  1.0  0.1103
  H  H247  1  0.902300  0.131300  0.021600  1.0  0.1137
  H  H248  1  0.946900  0.094900  0.055600  1.0  0.1097
  H  H249  1  0.902800  0.142600  0.079300  1.0  0.1006
  H  H250  1  0.931900  0.071500  0.140000  1.0  0.1005
  H  H251  1  0.869900  0.951500  0.234800  1.0  0.0939
  H  H252  1  0.796600  0.944600  0.177700  1.0  0.0637
  H  H253  1  0.048100  0.699100  0.679300  1.0  0.0863
  H  H254  1  0.043800  0.609800  0.730600  1.0  0.0805
  H  H255  1  0.954300  0.548300  0.630500  1.0  0.0818
  H  H256  1  0.905200  0.593800  0.510600  1.0  0.1101
  H  H257  1  0.952000  0.552000  0.537700  1.0  0.1112
  H  H258  1  0.892900  0.570500  0.566700  1.0  0.1101
  H  H259  1  0.812600  0.820400  0.444900  1.0  0.0928
  H  H260  1  0.759000  0.816000  0.372900  1.0  0.0918
  H  H261  1  0.769000  0.742200  0.320400  1.0  0.1227
  H  H262  1  0.818100  0.655300  0.350500  1.0  0.0976
  H  H263  1  0.876300  0.650900  0.419900  1.0  0.1092
  H  H264  1  0.869700  0.861700  0.586600  1.0  0.1049
  H  H265  1  0.810900  0.859700  0.663900  1.0  0.0996
  H  H266  1  0.772900  0.775700  0.693300  1.0  0.0912
  H  H267  1  0.766600  0.700200  0.641800  1.0  0.0996
  H  H268  1  0.818400  0.703000  0.558400  1.0  0.098
  H  H269  1  0.870300  0.917500  0.478200  1.0  0.108
  H  H270  1  0.907700  0.962500  0.447800  1.0  0.105
  H  H271  1  0.858400  0.935400  0.421400  1.0  0.1165
  H  H272  1  0.930300  0.959500  0.355600  1.0  0.0795
  H  H273  1  0.043100  0.886700  0.258400  1.0  0.1013
  H  H274  1  0.058600  0.809400  0.316800  1.0  0.0904
  H  H275  1  0.400500  0.444300  0.484300  1.0  0.119
  H  H276  1  0.376900  0.486900  0.404200  1.0  0.0881
  H  H277  1  0.489000  0.373200  0.336300  1.0  0.0986
  H  H278  1  0.584000  0.254400  0.380100  1.0  0.1174
  H  H279  1  0.525500  0.265700  0.352900  1.0  0.1271
  H  H280  1  0.571700  0.311500  0.346100  1.0  0.1227
  H  H281  1  0.650000  0.164400  0.425400  1.0  0.1052
  H  H282  1  0.714100  0.082100  0.430200  1.0  0.0963
  H  H283  1  0.764900  0.058900  0.501900  1.0  0.1067
  H  H284  1  0.752900  0.118900  0.569400  1.0  0.0937
  H  H285  1  0.687300  0.201100  0.565900  1.0  0.0934
  H  H286  1  0.670500  0.321100  0.448300  1.0  0.0856
  H  H287  1  0.739400  0.393200  0.427100  1.0  0.1033
  H  H288  1  0.750800  0.453600  0.490100  1.0  0.0734
  H  H289  1  0.705400  0.445200  0.568500  1.0  0.0983
  H  H290  1  0.650700  0.368300  0.591400  1.0  0.0894
  H  H291  1  0.619500  0.265100  0.660400  1.0  0.1241
  H  H292  1  0.572300  0.246100  0.701600  1.0  0.1256
  H  H293  1  0.626400  0.203200  0.687700  1.0  0.1193
  H  H294  1  0.562600  0.133200  0.715000  1.0  0.0815
  H  H295  1  0.443900  0.037300  0.674200  1.0  0.088
  H  H296  1  0.426100  0.100300  0.607800  1.0  0.0833
  H  H297  1  0.525000  0.403400  0.594300  1.0  0.0666
  H  H298  1  0.532200  0.427800  0.681100  1.0  0.0811
  H  H299  1  0.417200  0.316600  0.720200  1.0  0.0955
  H  H300  1  0.352100  0.211300  0.660300  1.0  0.1182
  H  H301  1  0.398400  0.226400  0.697200  1.0  0.1117
  H  H302  1  0.344600  0.270400  0.686700  1.0  0.1255
  H  H303  1  0.332900  0.123100  0.585600  1.0  0.1002
  H  H304  1  0.281100  0.045700  0.568700  1.0  0.0969
  H  H305  1  0.244800  0.041200  0.489900  1.0  0.0928
  H  H306  1  0.261100  0.112700  0.426700  1.0  0.0993
  H  H307  1  0.311400  0.191000  0.443900  1.0  0.0867
  H  H308  1  0.353100  0.316300  0.397900  1.0  0.0914
  H  H309  1  0.289500  0.397100  0.383100  1.0  0.0919
  H  H310  1  0.231200  0.435400  0.449400  1.0  0.0978
  H  H311  1  0.235600  0.391600  0.530100  1.0  0.0901
  H  H312  1  0.298300  0.309500  0.545100  1.0  0.0988
  H  H313  1  0.417700  0.193300  0.371700  1.0  0.1219
  H  H314  1  0.474800  0.157600  0.352900  1.0  0.1172
  H  H315  1  0.421500  0.125300  0.375100  1.0  0.1212
  H  H316  1  0.496900  0.063500  0.388100  1.0  0.0494
  H  H317  1  0.599200  0.984600  0.485100  1.0  0.0739
  H  H318  1  0.588200  0.064600  0.531900  1.0  0.1
  H  H319  1  0.049200  0.282000  0.671000  1.0  0.1104
  H  H320  1  0.044600  0.360400  0.717200  1.0  0.0595
  H  H321  1  0.931900  0.442300  0.627900  1.0  0.0801
  H  H322  1  0.873800  0.415400  0.512300  1.0  0.1142
  H  H323  1  0.917900  0.452500  0.535600  1.0  0.1063
  H  H324  1  0.863600  0.433400  0.568500  1.0  0.114
  H  H325  1  0.870700  0.359300  0.408400  1.0  0.0928
  H  H326  1  0.820000  0.364600  0.334700  1.0  0.1032
  H  H327  1  0.763300  0.290500  0.319100  1.0  0.0975
  H  H328  1  0.753800  0.213400  0.378800  1.0  0.1013
  H  H329  1  0.803400  0.209600  0.452700  1.0  0.0851
  H  H330  1  0.869100  0.147500  0.595400  1.0  0.1177
  H  H331  1  0.815500  0.151500  0.674600  1.0  0.0975
  H  H332  1  0.753700  0.234500  0.691400  1.0  0.1177
  H  H333  1  0.744000  0.307600  0.630600  1.0  0.0841
  H  H334  1  0.801500  0.309900  0.559200  1.0  0.1108
  H  H335  1  0.868700  0.097700  0.478400  1.0  0.1142
  H  H336  1  0.905100  0.053100  0.444400  1.0  0.1099
  H  H337  1  0.857400  0.097200  0.420700  1.0  0.1011
  H  H338  1  0.928500  0.068100  0.360000  1.0  0.1014
  H  H339  1  0.048500  0.130100  0.265200  1.0  0.0941
  H  H340  1  0.055400  0.203400  0.322300  1.0  0.0638
  H  H341  1  0.300900  0.951900  0.820700  1.0  0.0865
  H  H342  1  0.390200  0.956200  0.769400  1.0  0.0812
  H  H343  1  0.451700  0.045700  0.869500  1.0  0.0807
  H  H344  1  0.406200  0.094800  0.989400  1.0  0.1101
  H  H345  1  0.448000  0.048000  0.962300  1.0  0.1116
  H  H346  1  0.429500  0.107100  0.933300  1.0  0.1123
  H  H347  1  0.179600  0.187400  0.055100  1.0  0.0922
  H  H348  1  0.184000  0.241000  0.127100  1.0  0.0904
  H  H349  1  0.257800  0.231000  0.179600  1.0  0.122
  H  H350  1  0.344700  0.181900  0.149500  1.0  0.0977
  H  H351  1  0.349100  0.123700  0.080100  1.0  0.1083
  H  H352  1  0.138300  0.130300  0.913400  1.0  0.1047
  H  H353  1  0.140300  0.189100  0.836100  1.0  0.0992
  H  H354  1  0.224300  0.227100  0.806700  1.0  0.0911
  H  H355  1  0.299800  0.233400  0.858200  1.0  0.0991
  H  H356  1  0.297000  0.181600  0.941600  1.0  0.0976
  H  H357  1  0.082500  0.129700  0.021800  1.0  0.1082
  H  H358  1  0.037500  0.092300  0.052200  1.0  0.1053
  H  H359  1  0.064600  0.141600  0.078600  1.0  0.1165
  H  H360  1  0.040500  0.069700  0.144400  1.0  0.0783
  H  H361  1  0.113300  0.956900  0.241600  1.0  0.1022
  H  H362  1  0.190600  0.941400  0.183200  1.0  0.0905
  H  H363  1  0.555700  0.599500  0.015700  1.0  0.1192
  H  H364  1  0.513100  0.623100  0.095800  1.0  0.087
  H  H365  1  0.626800  0.511000  0.163700  1.0  0.0979
  H  H366  1  0.745600  0.416000  0.119900  1.0  0.117
  H  H367  1  0.734300  0.474500  0.147100  1.0  0.1266
  H  H368  1  0.688500  0.428300  0.153900  1.0  0.1248
  H  H369  1  0.835600  0.350000  0.074600  1.0  0.1045
  H  H370  1  0.917900  0.285900  0.069800  1.0  0.0967
  H  H371  1  0.941100  0.235100  0.998100  1.0  0.1054
  H  H372  1  0.881100  0.247100  0.930600  1.0  0.0941
  H  H373  1  0.798900  0.312700  0.934100  1.0  0.0925
  H  H374  1  0.678900  0.329500  0.051700  1.0  0.0837
  H  H375  1  0.606800  0.260600  0.072900  1.0  0.1032
  H  H376  1  0.546400  0.249200  0.009900  1.0  0.0737
  H  H377  1  0.554800  0.294600  0.931500  1.0  0.0984
  H  H378  1  0.631700  0.349300  0.908600  1.0  0.0894
  H  H379  1  0.734900  0.380500  0.839600  1.0  0.1216
  H  H380  1  0.753900  0.427700  0.798400  1.0  0.125
  H  H381  1  0.796800  0.373600  0.812300  1.0  0.1189
  H  H382  1  0.866800  0.437400  0.785000  1.0  0.081
  H  H383  1  0.962700  0.556100  0.825800  1.0  0.0888
  H  H384  1  0.899700  0.573900  0.892200  1.0  0.0838
  H  H385  1  0.596600  0.475000  0.905700  1.0  0.0662
  H  H386  1  0.572200  0.467800  0.818900  1.0  0.0794
  H  H387  1  0.683400  0.582800  0.779800  1.0  0.0945
  H  H388  1  0.788700  0.647900  0.839700  1.0  0.1198
  H  H389  1  0.773600  0.601600  0.802800  1.0  0.1116
  H  H390  1  0.729600  0.655400  0.813300  1.0  0.1276
  H  H391  1  0.876900  0.667100  0.914400  1.0  0.1015
  H  H392  1  0.954300  0.718900  0.931300  1.0  0.0967
  H  H393  1  0.958800  0.755200  0.010100  1.0  0.0934
  H  H394  1  0.887300  0.738900  0.073300  1.0  0.1002
  H  H395  1  0.809000  0.688600  0.056100  1.0  0.0863
  H  H396  1  0.683700  0.646900  0.102100  1.0  0.0918
  H  H397  1  0.602900  0.710500  0.116900  1.0  0.0916
  H  H398  1  0.564600  0.768800  0.050600  1.0  0.097
  H  H399  1  0.608400  0.764400  0.969900  1.0  0.0901
  H  H400  1  0.690500  0.701700  0.954900  1.0  0.0987
  H  H401  1  0.806700  0.582300  0.128300  1.0  0.1198
  H  H402  1  0.842400  0.525200  0.147100  1.0  0.1193
  H  H403  1  0.874700  0.578500  0.124900  1.0  0.12
  H  H404  1  0.936500  0.503100  0.111900  1.0  0.0504
  H  H405  1  0.015400  0.400800  0.014900  1.0  0.074
  H  H406  1  0.935400  0.411800  0.968100  1.0  0.0999
  C  C407  1  0.314920  0.025380  0.161680  1.0  0.0905
  C  C408  1  0.361670  0.022150  0.189130  1.0  0.1632
  C  C409  1  0.409570  0.956750  0.135770  1.0  0.1323
  C  C410  1  0.364720  0.960460  0.105860  1.0  0.1903
  C  C411  1  0.365040  0.928560  0.061030  1.0  0.1412
  C  C412  1  0.422100  0.892460  0.042560  1.0  -0.3772
  C  C413  1  0.280430  0.873290  0.984020  1.0  0.1487
  C  C414  1  0.283920  0.841360  0.937640  1.0  -0.1274
  C  C415  1  0.330290  0.846970  0.902430  1.0  -0.0502
  C  C416  1  0.333210  0.817010  0.858110  1.0  -0.1095
  C  C417  1  0.289070  0.782690  0.849030  1.0  -0.0843
  C  C418  1  0.242690  0.777210  0.884650  1.0  -0.1137
  C  C419  1  0.240450  0.806830  0.928880  1.0  -0.1387
  C  C420  1  0.180260  0.845000  0.103600  1.0  -0.0898
  C  C421  1  0.182560  0.812300  0.150630  1.0  -0.1042
  C  C422  1  0.232020  0.775120  0.160620  1.0  -0.1427
  C  C423  1  0.276250  0.770950  0.124710  1.0  -0.0869
  C  C424  1  0.277200  0.803400  0.081410  1.0  -0.1489
  C  C425  1  0.229140  0.839700  0.070130  1.0  -0.1175
  C  C426  1  0.227190  0.872690  0.019920  1.0  0.0666
  C  C427  1  0.134420  0.930620  0.933200  1.0  0.1522
  C  C428  1  0.091820  0.886520  0.945240  1.0  -0.379
  C  C429  1  0.134830  0.964890  0.884180  1.0  0.1804
  C  C430  1  0.094630  0.955870  0.851720  1.0  0.0726
  C  C431  1  0.131100  0.025540  0.795290  1.0  0.1332
  C  C432  1  0.174330  0.030750  0.831240  1.0  0.1428
  C  C433  1  0.971110  0.331150  0.331490  1.0  0.1136
  C  C434  1  0.974480  0.385500  0.299880  1.0  0.1286
  C  C435  1  0.026260  0.421740  0.358520  1.0  0.1405
  C  C436  1  0.022000  0.370840  0.389670  1.0  0.1584
  C  C437  1  0.051520  0.365220  0.438700  1.0  0.1903
  C  C438  1  0.077730  0.416970  0.457700  1.0  -0.3755
  C  C439  1  0.116780  0.267080  0.516290  1.0  0.112
  C  C440  1  0.148400  0.263800  0.563080  1.0  -0.1034
  C  C441  1  0.184600  0.212100  0.574420  1.0  -0.1493
  C  C442  1  0.215710  0.215930  0.618420  1.0  -0.1028
  C  C443  1  0.212800  0.260440  0.649010  1.0  -0.1642
  C  C444  1  0.180430  0.311450  0.631780  1.0  -0.1379
  C  C445  1  0.146140  0.315400  0.589800  1.0  -0.1883
  C  C446  1  0.151640  0.169340  0.402840  1.0  -0.1142
  C  C447  1  0.184750  0.172350  0.355990  1.0  -0.1055
  C  C448  1  0.210510  0.221930  0.339590  1.0  -0.1092
  C  C449  1  0.212820  0.268380  0.369610  1.0  -0.1378
  C  C450  1  0.182180  0.267120  0.419650  1.0  -0.1174
  C  C451  1  0.154230  0.217130  0.431120  1.0  -0.0403
  C  C452  1  0.121670  0.217370  0.480800  1.0  0.0254
  C  C453  1  0.069210  0.120670  0.571240  1.0  0.1738
  C  C454  1  0.112090  0.071870  0.554430  1.0  -0.3682
  C  C455  1  0.035550  0.118390  0.618640  1.0  0.2283
  C  C456  1  0.043260  0.071340  0.653180  1.0  0.1577
  C  C457  1  0.976890  0.113190  0.710080  1.0  0.1102
  C  C458  1  0.967820  0.159780  0.674520  1.0  0.1203
  C  C459  1  0.582420  0.570580  0.545400  1.0  0.1204
  C  C460  1  0.595780  0.544900  0.593230  1.0  0.1192
  C  C461  1  0.530210  0.612430  0.634540  1.0  0.1154
  C  C462  1  0.519640  0.638940  0.585000  1.0  0.2211
  C  C463  1  0.474140  0.684960  0.583130  1.0  0.1522
  C  C464  1  0.445480  0.716400  0.630630  1.0  -0.3806
  C  C465  1  0.380540  0.755680  0.502310  1.0  0.2345
  C  C466  1  0.337790  0.809170  0.504650  1.0  -0.1343
  C  C467  1  0.329680  0.844780  0.545520  1.0  -0.065
  C  C468  1  0.291200  0.894000  0.542630  1.0  -0.0895
  C  C469  1  0.260660  0.907820  0.499810  1.0  -0.0823
  C  C470  1  0.268140  0.872080  0.459300  1.0  -0.0888
  C  C471  1  0.307200  0.822640  0.461450  1.0  -0.1361
  C  C472  1  0.319280  0.655760  0.526750  1.0  -0.0942
  C  C473  1  0.279530  0.610890  0.540990  1.0  -0.1349
  C  C474  1  0.273200  0.576440  0.503210  1.0  -0.0703
  C  C475  1  0.299520  0.581920  0.455050  1.0  -0.1568
  C  C476  1  0.333333  0.627540  0.441570  1.0  -0.151
  C  C477  1  0.343260  0.665620  0.475350  1.0  -0.0286
  C  C478  1  0.375510  0.713510  0.468920  1.0  0.1839
  C  C479  1  0.433980  0.790460  0.365990  1.0  0.2842
  C  C480  1  0.400930  0.766870  0.325300  1.0  -0.3817
  C  C481  1  0.467890  0.838890  0.353250  1.0  0.2225
  C  C482  1  0.463560  0.875240  0.308340  1.0  0.1741
  C  C483  1  0.534500  0.930660  0.331210  1.0  0.1286
  C  C484  1  0.543080  0.894860  0.372270  1.0  0.1488
  C  C485  1  0.495630  0.616570  0.380030  1.0  0.1786
  C  C486  1  0.492590  0.599510  0.326530  1.0  0.1514
  C  C487  1  0.559940  0.665600  0.305280  1.0  0.1316
  C  C488  1  0.562480  0.682940  0.356420  1.0  0.1243
  C  C489  1  0.593930  0.729990  0.371980  1.0  0.1848
  C  C490  1  0.627790  0.758030  0.327900  1.0  -0.3718
  C  C491  1  0.641320  0.789080  0.470840  1.0  0.2135
  C  C492  1  0.672690  0.834950  0.483520  1.0  0.002
  C  C493  1  0.681720  0.878660  0.446140  1.0  -0.1376
  C  C494  1  0.712750  0.925190  0.456330  1.0  -0.1052
  C  C495  1  0.734240  0.927920  0.503500  1.0  -0.0818
  C  C496  1  0.724900  0.884860  0.541340  1.0  -0.0781
  C  C497  1  0.694480  0.838220  0.531100  1.0  -0.1453
  C  C498  1  0.670620  0.668720  0.575580  1.0  -0.0921
  C  C499  1  0.708440  0.620280  0.584420  1.0  -0.0978
  C  C500  1  0.743500  0.597500  0.544710  1.0  -0.1067
  C  C501  1  0.740810  0.623730  0.496410  1.0  -0.0747
  C  C502  1  0.703230  0.672710  0.487350  1.0  -0.1619
  C  C503  1  0.667750  0.695190  0.527230  1.0  -0.0812
  C  C504  1  0.629700  0.747940  0.514050  1.0  0.0824
  C  C505  1  0.533760  0.842120  0.567830  1.0  0.0993
  C  C506  1  0.557230  0.841430  0.622350  1.0  -0.3671
  C  C507  1  0.495410  0.891870  0.553750  1.0  0.2978
  C  C508  1  0.484530  0.937170  0.581680  1.0  0.1239
  C  C509  1  0.424210  0.983010  0.526090  1.0  0.1409
  C  C510  1  0.432000  0.936460  0.497320  1.0  0.115
  C  C511  1  0.974620  0.685080  0.338320  1.0  0.0926
  C  C512  1  0.977850  0.638330  0.310870  1.0  0.1649
  C  C513  1  0.043250  0.590430  0.364230  1.0  0.1331
  C  C514  1  0.039540  0.635280  0.394140  1.0  0.1893
  C  C515  1  0.071440  0.634960  0.438970  1.0  0.1395
  C  C516  1  0.107540  0.577900  0.457440  1.0  -0.3789
  C  C517  1  0.126710  0.719570  0.515980  1.0  0.1508
  C  C518  1  0.158640  0.716080  0.562360  1.0  -0.1256
  C  C519  1  0.153030  0.669710  0.597570  1.0  -0.0525
  C  C520  1  0.182990  0.666790  0.641890  1.0  -0.106
  C  C521  1  0.217310  0.710930  0.650970  1.0  -0.0836
  C  C522  1  0.222790  0.757310  0.615350  1.0  -0.1103
  C  C523  1  0.193170  0.759550  0.571120  1.0  -0.1386
  C  C524  1  0.155000  0.819740  0.396400  1.0  -0.0894
  C  C525  1  0.187700  0.817440  0.349370  1.0  -0.1014
  C  C526  1  0.224880  0.767980  0.339380  1.0  -0.1424
  C  C527  1  0.229050  0.723750  0.375290  1.0  -0.088
  C  C528  1  0.196600  0.722800  0.418590  1.0  -0.1455
  C  C529  1  0.160300  0.770860  0.429870  1.0  -0.1191
  C  C530  1  0.127310  0.772810  0.480080  1.0  0.0677
  C  C531  1  0.069380  0.865580  0.566800  1.0  0.1501
  C  C532  1  0.113480  0.908180  0.554760  1.0  -0.3786
  C  C533  1  0.035110  0.865170  0.615820  1.0  0.1802
  C  C534  1  0.044130  0.905370  0.648280  1.0  0.0763
  C  C535  1  0.974460  0.868900  0.704710  1.0  0.1331
  C  C536  1  0.969250  0.825670  0.668760  1.0  0.1442
  C  C537  1  0.668850  0.028890  0.168510  1.0  0.115
  C  C538  1  0.614500  0.025520  0.200120  1.0  0.1243
  C  C539  1  0.578260  0.973740  0.141480  1.0  0.139
  C  C540  1  0.629160  0.978000  0.110330  1.0  0.1583
  C  C541  1  0.634780  0.948480  0.061300  1.0  0.1917
  C  C542  1  0.583030  0.922270  0.042300  1.0  -0.3758
  C  C543  1  0.732920  0.883220  0.983710  1.0  0.1104
  C  C544  1  0.736200  0.851600  0.936920  1.0  -0.102
  C  C545  1  0.787900  0.815400  0.925580  1.0  -0.1509
  C  C546  1  0.784070  0.784290  0.881580  1.0  -0.1064
  C  C547  1  0.739560  0.787200  0.850990  1.0  -0.1613
  C  C548  1  0.688550  0.819570  0.868220  1.0  -0.1426
  C  C549  1  0.684600  0.853860  0.910200  1.0  -0.1912
  C  C550  1  0.830660  0.848360  0.097160  1.0  -0.1133
  C  C551  1  0.827650  0.815250  0.144010  1.0  -0.1093
  C  C552  1  0.778070  0.789490  0.160410  1.0  -0.1119
  C  C553  1  0.731620  0.787180  0.130390  1.0  -0.1387
  C  C554  1  0.732880  0.817820  0.080350  1.0  -0.1183
  C  C555  1  0.782870  0.845770  0.068880  1.0  -0.0404
  C  C556  1  0.782630  0.878330  0.019200  1.0  0.0258
  C  C557  1  0.879330  0.930790  0.928760  1.0  0.1721
  C  C558  1  0.928130  0.887910  0.945570  1.0  -0.3683
  C  C559  1  0.881610  0.964450  0.881360  1.0  0.2248
  C  C560  1  0.928660  0.956740  0.846820  1.0  0.1538
  C  C561  1  0.886810  0.023110  0.789920  1.0  0.1117
  C  C562  1  0.840220  0.032180  0.825480  1.0  0.121
  C  C563  1  0.429420  0.417580  0.954600  1.0  0.1203
  C  C564  1  0.455100  0.404220  0.906770  1.0  0.1219
  C  C565  1  0.387570  0.469790  0.865460  1.0  0.115
  C  C566  1  0.361060  0.480360  0.915000  1.0  0.2219
  C  C567  1  0.315040  0.525860  0.916870  1.0  0.1528
  C  C568  1  0.283600  0.554520  0.869370  1.0  -0.3846
  C  C569  1  0.244320  0.619460  0.997690  1.0  0.2344
  C  C570  1  0.190830  0.662210  0.995350  1.0  -0.1366
  C  C571  1  0.155220  0.670320  0.954480  1.0  -0.0666
  C  C572  1  0.106000  0.708800  0.957370  1.0  -0.0905
  C  C573  1  0.092180  0.739340  0.000190  1.0  -0.0859
  C  C574  1  0.127920  0.731860  0.040700  1.0  -0.0895
  C  C575  1  0.177360  0.692800  0.038550  1.0  -0.1372
  C  C576  1  0.344240  0.680720  0.973250  1.0  -0.0924
  C  C577  1  0.389110  0.720470  0.959010  1.0  -0.1351
  C  C578  1  0.423560  0.726800  0.996790  1.0  -0.0704
  C  C579  1  0.418080  0.700480  0.044950  1.0  -0.1551
  C  C580  1  0.372460  0.666667  0.058430  1.0  -0.1501
  C  C581  1  0.334380  0.656740  0.024650  1.0  -0.0273
  C  C582  1  0.286490  0.624490  0.031080  1.0  0.1843
  C  C583  1  0.209540  0.566020  0.134010  1.0  0.2812
  C  C584  1  0.233130  0.599070  0.174700  1.0  -0.3813
  C  C585  1  0.161110  0.532110  0.146750  1.0  0.2208
  C  C586  1  0.124760  0.536440  0.191660  1.0  0.1752
  C  C587  1  0.069340  0.465500  0.168790  1.0  0.1275
  C  C588  1  0.105140  0.456920  0.127730  1.0  0.1491
  C  C589  1  0.383430  0.504370  0.119970  1.0  0.1779
  C  C590  1  0.400490  0.507410  0.173470  1.0  0.1528
  C  C591  1  0.334400  0.440060  0.194720  1.0  0.1331
  C  C592  1  0.317060  0.437520  0.143580  1.0  0.1246
  C  C593  1  0.270010  0.406070  0.128020  1.0  0.184
  C  C594  1  0.241970  0.372210  0.172100  1.0  -0.374
  C  C595  1  0.210920  0.358680  0.029160  1.0  0.2139
  C  C596  1  0.165050  0.327310  0.016480  1.0  0.0005
  C  C597  1  0.121340  0.318280  0.053860  1.0  -0.1371
  C  C598  1  0.074810  0.287250  0.043670  1.0  -0.1074
  C  C599  1  0.072080  0.265760  0.996500  1.0  -0.0847
  C  C600  1  0.115140  0.275100  0.958660  1.0  -0.0795
  C  C601  1  0.161780  0.305520  0.968900  1.0  -0.1432
  C  C602  1  0.331280  0.329380  0.924420  1.0  -0.0928
  C  C603  1  0.379720  0.291560  0.915580  1.0  -0.1008
  C  C604  1  0.402500  0.256500  0.955290  1.0  -0.1091
  C  C605  1  0.376270  0.259190  0.003590  1.0  -0.0778
  C  C606  1  0.327290  0.296770  0.012650  1.0  -0.164
  C  C607  1  0.304810  0.332250  0.972770  1.0  -0.0828
  C  C608  1  0.252060  0.370300  0.985950  1.0  0.0813
  C  C609  1  0.157880  0.466240  0.932170  1.0  0.0986
  C  C610  1  0.158570  0.442770  0.877650  1.0  -0.367
  C  C611  1  0.108130  0.504590  0.946250  1.0  0.299
  C  C612  1  0.062830  0.515470  0.918320  1.0  0.1232
  C  C613  1  0.016990  0.575790  0.973910  1.0  0.1412
  C  C614  1  0.063540  0.568000  0.002680  1.0  0.1155
  C  C615  1  0.685080  0.974620  0.838320  1.0  0.0914
  C  C616  1  0.638330  0.977850  0.810870  1.0  0.1632
  C  C617  1  0.590430  0.043250  0.864230  1.0  0.1313
  C  C618  1  0.635280  0.039540  0.894140  1.0  0.1901
  C  C619  1  0.634960  0.071440  0.938970  1.0  0.1363
  C  C620  1  0.577900  0.107540  0.957440  1.0  -0.3784
  C  C621  1  0.719570  0.126710  0.015980  1.0  0.1471
  C  C622  1  0.716080  0.158640  0.062360  1.0  -0.1257
  C  C623  1  0.669710  0.153030  0.097570  1.0  -0.0513
  C  C624  1  0.666790  0.182990  0.141890  1.0  -0.1119
  C  C625  1  0.710930  0.217310  0.150970  1.0  -0.083
  C  C626  1  0.757310  0.222790  0.115350  1.0  -0.1122
  C  C627  1  0.759550  0.193170  0.071120  1.0  -0.1402
  C  C628  1  0.819740  0.155000  0.896400  1.0  -0.0902
  C  C629  1  0.817440  0.187700  0.849370  1.0  -0.1038
  C  C630  1  0.767980  0.224880  0.839380  1.0  -0.141
  C  C631  1  0.723750  0.229050  0.875290  1.0  -0.0871
  C  C632  1  0.722800  0.196600  0.918590  1.0  -0.1468
  C  C633  1  0.770860  0.160300  0.929870  1.0  -0.1179
  C  C634  1  0.772810  0.127310  0.980080  1.0  0.0654
  C  C635  1  0.865580  0.069380  0.066800  1.0  0.1517
  C  C636  1  0.908180  0.113480  0.054760  1.0  -0.3775
  C  C637  1  0.865170  0.035110  0.115820  1.0  0.1795
  C  C638  1  0.905370  0.044130  0.148280  1.0  0.0731
  C  C639  1  0.868900  0.974460  0.204710  1.0  0.134
  C  C640  1  0.825670  0.969250  0.168760  1.0  0.1442
  C  C641  1  0.028890  0.668850  0.668510  1.0  0.1153
  C  C642  1  0.025520  0.614500  0.700120  1.0  0.1261
  C  C643  1  0.973740  0.578260  0.641480  1.0  0.139
  C  C644  1  0.978000  0.629160  0.610330  1.0  0.1587
  C  C645  1  0.948480  0.634780  0.561300  1.0  0.1908
  C  C646  1  0.922270  0.583030  0.542300  1.0  -0.376
  C  C647  1  0.883220  0.732920  0.483710  1.0  0.1124
  C  C648  1  0.851600  0.736200  0.436920  1.0  -0.1044
  C  C649  1  0.815400  0.787900  0.425580  1.0  -0.1489
  C  C650  1  0.784290  0.784070  0.381580  1.0  -0.1029
  C  C651  1  0.787200  0.739560  0.350990  1.0  -0.1631
  C  C652  1  0.819570  0.688550  0.368220  1.0  -0.1386
  C  C653  1  0.853860  0.684600  0.410200  1.0  -0.1893
  C  C654  1  0.848360  0.830660  0.597160  1.0  -0.1152
  C  C655  1  0.815250  0.827650  0.644010  1.0  -0.1073
  C  C656  1  0.789490  0.778070  0.660410  1.0  -0.1114
  C  C657  1  0.787180  0.731620  0.630390  1.0  -0.1365
  C  C658  1  0.817820  0.732880  0.580350  1.0  -0.1162
  C  C659  1  0.845770  0.782870  0.568880  1.0  -0.0403
  C  C660  1  0.878330  0.782630  0.519200  1.0  0.0265
  C  C661  1  0.930790  0.879330  0.428760  1.0  0.1734
  C  C662  1  0.887910  0.928130  0.445570  1.0  -0.3694
  C  C663  1  0.964450  0.881610  0.381360  1.0  0.2266
  C  C664  1  0.956740  0.928660  0.346820  1.0  0.1566
  C  C665  1  0.023110  0.886810  0.289920  1.0  0.1117
  C  C666  1  0.032180  0.840220  0.325480  1.0  0.1219
  C  C667  1  0.417580  0.429420  0.454600  1.0  0.1186
  C  C668  1  0.404220  0.455100  0.406770  1.0  0.1207
  C  C669  1  0.469790  0.387570  0.365460  1.0  0.1167
  C  C670  1  0.480360  0.361060  0.415000  1.0  0.2205
  C  C671  1  0.525860  0.315040  0.416870  1.0  0.1551
  C  C672  1  0.554520  0.283600  0.369370  1.0  -0.3839
  C  C673  1  0.619460  0.244320  0.497690  1.0  0.2351
  C  C674  1  0.662210  0.190830  0.495350  1.0  -0.133
  C  C675  1  0.670320  0.155220  0.454480  1.0  -0.0652
  C  C676  1  0.708800  0.106000  0.457370  1.0  -0.0896
  C  C677  1  0.739340  0.092180  0.500190  1.0  -0.0833
  C  C678  1  0.731860  0.127920  0.540700  1.0  -0.0867
  C  C679  1  0.692800  0.177360  0.538550  1.0  -0.1354
  C  C680  1  0.680720  0.344240  0.473250  1.0  -0.0922
  C  C681  1  0.720470  0.389110  0.459010  1.0  -0.1346
  C  C682  1  0.726800  0.423560  0.496790  1.0  -0.0686
  C  C683  1  0.700480  0.418080  0.544950  1.0  -0.1549
  C  C684  1  0.666667  0.372460  0.558430  1.0  -0.1513
  C  C685  1  0.656740  0.334380  0.524650  1.0  -0.0287
  C  C686  1  0.624490  0.286490  0.531080  1.0  0.1837
  C  C687  1  0.566020  0.209540  0.634010  1.0  0.2817
  C  C688  1  0.599070  0.233130  0.674700  1.0  -0.3824
  C  C689  1  0.532110  0.161110  0.646750  1.0  0.2214
  C  C690  1  0.536440  0.124760  0.691660  1.0  0.1758
  C  C691  1  0.465500  0.069340  0.668790  1.0  0.1284
  C  C692  1  0.456920  0.105140  0.627730  1.0  0.149
  C  C693  1  0.504370  0.383430  0.619970  1.0  0.1764
  C  C694  1  0.507410  0.400490  0.673470  1.0  0.1498
  C  C695  1  0.440060  0.334400  0.694720  1.0  0.1324
  C  C696  1  0.437520  0.317060  0.643580  1.0  0.1238
  C  C697  1  0.406070  0.270010  0.628020  1.0  0.1852
  C  C698  1  0.372210  0.241970  0.672100  1.0  -0.3728
  C  C699  1  0.358680  0.210920  0.529160  1.0  0.2144
  C  C700  1  0.327310  0.165050  0.516480  1.0  0.0024
  C  C701  1  0.318280  0.121340  0.553860  1.0  -0.1386
  C  C702  1  0.287250  0.074810  0.543670  1.0  -0.1054
  C  C703  1  0.265760  0.072080  0.496500  1.0  -0.0829
  C  C704  1  0.275100  0.115140  0.458660  1.0  -0.0796
  C  C705  1  0.305520  0.161780  0.468900  1.0  -0.1427
  C  C706  1  0.329380  0.331280  0.424420  1.0  -0.0929
  C  C707  1  0.291560  0.379720  0.415580  1.0  -0.0982
  C  C708  1  0.256500  0.402500  0.455290  1.0  -0.1064
  C  C709  1  0.259190  0.376270  0.503590  1.0  -0.0755
  C  C710  1  0.296770  0.327290  0.512650  1.0  -0.1622
  C  C711  1  0.332250  0.304810  0.472770  1.0  -0.0823
  C  C712  1  0.370300  0.252060  0.485950  1.0  0.082
  C  C713  1  0.466240  0.157880  0.432170  1.0  0.0989
  C  C714  1  0.442770  0.158570  0.377650  1.0  -0.3676
  C  C715  1  0.504590  0.108130  0.446250  1.0  0.2981
  C  C716  1  0.515470  0.062830  0.418320  1.0  0.1234
  C  C717  1  0.575790  0.016990  0.473910  1.0  0.1409
  C  C718  1  0.568000  0.063540  0.502680  1.0  0.1151
  C  C719  1  0.025380  0.314920  0.661680  1.0  0.0897
  C  C720  1  0.022150  0.361670  0.689130  1.0  0.1638
  C  C721  1  0.956750  0.409570  0.635770  1.0  0.1325
  C  C722  1  0.960460  0.364720  0.605860  1.0  0.191
  C  C723  1  0.928560  0.365040  0.561030  1.0  0.1389
  C  C724  1  0.892460  0.422100  0.542560  1.0  -0.3792
  C  C725  1  0.873290  0.280430  0.484020  1.0  0.1522
  C  C726  1  0.841360  0.283920  0.437640  1.0  -0.1266
  C  C727  1  0.846970  0.330290  0.402430  1.0  -0.0511
  C  C728  1  0.817010  0.333210  0.358110  1.0  -0.1062
  C  C729  1  0.782690  0.289070  0.349030  1.0  -0.0827
  C  C730  1  0.777210  0.242690  0.384650  1.0  -0.1104
  C  C731  1  0.806830  0.240450  0.428880  1.0  -0.1386
  C  C732  1  0.845000  0.180260  0.603600  1.0  -0.0894
  C  C733  1  0.812300  0.182560  0.650630  1.0  -0.1024
  C  C734  1  0.775120  0.232020  0.660620  1.0  -0.1434
  C  C735  1  0.770950  0.276250  0.624710  1.0  -0.0801
  C  C736  1  0.803400  0.277200  0.581410  1.0  -0.1467
  C  C737  1  0.839700  0.229140  0.570130  1.0  -0.1181
  C  C738  1  0.872690  0.227190  0.519920  1.0  0.0683
  C  C739  1  0.930620  0.134420  0.433200  1.0  0.1519
  C  C740  1  0.886520  0.091820  0.445240  1.0  -0.3795
  C  C741  1  0.964890  0.134830  0.384180  1.0  0.1796
  C  C742  1  0.955870  0.094630  0.351720  1.0  0.0739
  C  C743  1  0.025540  0.131100  0.295290  1.0  0.1322
  C  C744  1  0.030750  0.174330  0.331240  1.0  0.1431
  C  C745  1  0.331150  0.971110  0.831490  1.0  0.1146
  C  C746  1  0.385500  0.974480  0.799880  1.0  0.1271
  C  C747  1  0.421740  0.026260  0.858520  1.0  0.1393
  C  C748  1  0.370840  0.022000  0.889670  1.0  0.1582
  C  C749  1  0.365220  0.051520  0.938700  1.0  0.1925
  C  C750  1  0.416970  0.077730  0.957700  1.0  -0.3749
  C  C751  1  0.267080  0.116780  0.016290  1.0  0.1086
  C  C752  1  0.263800  0.148400  0.063080  1.0  -0.1014
  C  C753  1  0.212100  0.184600  0.074420  1.0  -0.1527
  C  C754  1  0.215930  0.215710  0.118420  1.0  -0.1042
  C  C755  1  0.260440  0.212800  0.149010  1.0  -0.1621
  C  C756  1  0.311450  0.180430  0.131780  1.0  -0.1411
  C  C757  1  0.315400  0.146140  0.089800  1.0  -0.19
  C  C758  1  0.169340  0.151640  0.902840  1.0  -0.1136
  C  C759  1  0.172350  0.184750  0.855990  1.0  -0.1082
  C  C760  1  0.221930  0.210510  0.839590  1.0  -0.11
  C  C761  1  0.268380  0.212820  0.869610  1.0  -0.1389
  C  C762  1  0.267120  0.182180  0.919650  1.0  -0.1202
  C  C763  1  0.217130  0.154230  0.931120  1.0  -0.0407
  C  C764  1  0.217370  0.121670  0.980800  1.0  0.0253
  C  C765  1  0.120670  0.069210  0.071240  1.0  0.1728
  C  C766  1  0.071870  0.112090  0.054430  1.0  -0.3685
  C  C767  1  0.118390  0.035550  0.118640  1.0  0.226
  C  C768  1  0.071340  0.043260  0.153180  1.0  0.1551
  C  C769  1  0.113190  0.976890  0.210080  1.0  0.1098
  C  C770  1  0.159780  0.967820  0.174520  1.0  0.1204
  C  C771  1  0.570580  0.582420  0.045400  1.0  0.1212
  C  C772  1  0.544900  0.595780  0.093230  1.0  0.1202
  C  C773  1  0.612430  0.530210  0.134540  1.0  0.1175
  C  C774  1  0.638940  0.519640  0.085000  1.0  0.2217
  C  C775  1  0.684960  0.474140  0.083130  1.0  0.1513
  C  C776  1  0.716400  0.445480  0.130630  1.0  -0.3816
  C  C777  1  0.755680  0.380540  0.002310  1.0  0.2344
  C  C778  1  0.809170  0.337790  0.004650  1.0  -0.1364
  C  C779  1  0.844780  0.329680  0.045520  1.0  -0.0655
  C  C780  1  0.894000  0.291200  0.042630  1.0  -0.0912
  C  C781  1  0.907820  0.260660  0.999810  1.0  -0.0869
  C  C782  1  0.872080  0.268140  0.959300  1.0  -0.0903
  C  C783  1  0.822640  0.307200  0.961450  1.0  -0.1382
  C  C784  1  0.655760  0.319280  0.026750  1.0  -0.0942
  C  C785  1  0.610890  0.279530  0.040990  1.0  -0.1356
  C  C786  1  0.576440  0.273200  0.003210  1.0  -0.0722
  C  C787  1  0.581920  0.299520  0.955050  1.0  -0.1568
  C  C788  1  0.627540  0.333333  0.941570  1.0  -0.1499
  C  C789  1  0.665620  0.343260  0.975350  1.0  -0.0286
  C  C790  1  0.713510  0.375510  0.968920  1.0  0.1848
  C  C791  1  0.790460  0.433980  0.865990  1.0  0.2837
  C  C792  1  0.766870  0.400930  0.825300  1.0  -0.3821
  C  C793  1  0.838890  0.467890  0.853250  1.0  0.2207
  C  C794  1  0.875240  0.463560  0.808340  1.0  0.1737
  C  C795  1  0.930660  0.534500  0.831210  1.0  0.1281
  C  C796  1  0.894860  0.543080  0.872270  1.0  0.1494
  C  C797  1  0.616570  0.495630  0.880030  1.0  0.1783
  C  C798  1  0.599510  0.492590  0.826530  1.0  0.1529
  C  C799  1  0.665600  0.559940  0.805280  1.0  0.1326
  C  C800  1  0.682940  0.562480  0.856420  1.0  0.124
  C  C801  1  0.729990  0.593930  0.871980  1.0  0.1838
  C  C802  1  0.758030  0.627790  0.827900  1.0  -0.3736
  C  C803  1  0.789080  0.641320  0.970840  1.0  0.2147
  C  C804  1  0.834950  0.672690  0.983520  1.0  0.0002
  C  C805  1  0.878660  0.681720  0.946140  1.0  -0.137
  C  C806  1  0.925190  0.712750  0.956330  1.0  -0.1083
  C  C807  1  0.927920  0.734240  0.003500  1.0  -0.0847
  C  C808  1  0.884860  0.724900  0.041340  1.0  -0.0798
  C  C809  1  0.838220  0.694480  0.031100  1.0  -0.145
  C  C810  1  0.668720  0.670620  0.075580  1.0  -0.0933
  C  C811  1  0.620280  0.708440  0.084420  1.0  -0.1009
  C  C812  1  0.597500  0.743500  0.044710  1.0  -0.11
  C  C813  1  0.623730  0.740810  0.996410  1.0  -0.0776
  C  C814  1  0.672710  0.703230  0.987350  1.0  -0.1646
  C  C815  1  0.695190  0.667750  0.027230  1.0  -0.0834
  C  C816  1  0.747940  0.629700  0.014050  1.0  0.082
  C  C817  1  0.842120  0.533760  0.067830  1.0  0.0994
  C  C818  1  0.841430  0.557230  0.122350  1.0  -0.3667
  C  C819  1  0.891870  0.495410  0.053750  1.0  0.3
  C  C820  1  0.937170  0.484530  0.081680  1.0  0.1253
  C  C821  1  0.983010  0.424210  0.026090  1.0  0.143
  C  C822  1  0.936460  0.432000  0.997320  1.0  0.1161
  N  N823  1  0.315840  0.993960  0.120440  1.0  -0.3529
  N  N824  1  0.408350  0.989630  0.178890  1.0  -0.3669
  N  N825  1  0.318000  0.930440  0.037040  1.0  -0.2364
  N  N826  1  0.324740  0.898180  0.993520  1.0  -0.2568
  N  N827  1  0.179790  0.901550  0.007750  1.0  -0.3039
  N  N828  1  0.180820  0.933820  0.960110  1.0  -0.2866
  N  N829  1  0.175130  0.003290  0.874900  1.0  -0.3318
  N  N830  1  0.093230  0.987390  0.806430  1.0  -0.3163
  N  N831  1  0.996050  0.326130  0.375720  1.0  -0.3526
  N  N832  1  0.003370  0.427650  0.314630  1.0  -0.3665
  N  N833  1  0.054800  0.315260  0.460500  1.0  -0.2039
  N  N834  1  0.085040  0.313580  0.505330  1.0  -0.2827
  N  N835  1  0.094110  0.169530  0.495470  1.0  -0.2915
  N  N836  1  0.065110  0.169270  0.542590  1.0  -0.2781
  N  N837  1  0.996410  0.162210  0.626920  1.0  -0.416
  N  N838  1  0.014800  0.068220  0.698180  1.0  -0.3509
  N  N839  1  0.542500  0.619400  0.544540  1.0  -0.3401
  N  N840  1  0.568070  0.567190  0.636520  1.0  -0.3371
  N  N841  1  0.453800  0.703020  0.540250  1.0  -0.2444
  N  N842  1  0.414530  0.752010  0.540390  1.0  -0.2778
  N  N843  1  0.400760  0.720760  0.419470  1.0  -0.3261
  N  N844  1  0.432000  0.768120  0.410610  1.0  -0.2471
  N  N845  1  0.507000  0.850400  0.385960  1.0  -0.3869
  N  N846  1  0.494720  0.921140  0.297150  1.0  -0.3433
  N  N847  1  0.525050  0.656970  0.391970  1.0  -0.3502
  N  N848  1  0.524540  0.623060  0.291870  1.0  -0.3442
  N  N849  1  0.595440  0.736140  0.419120  1.0  -0.2754
  N  N850  1  0.628520  0.784020  0.426670  1.0  -0.2549
  N  N851  1  0.584800  0.752600  0.546830  1.0  -0.3083
  N  N852  1  0.549810  0.803170  0.534180  1.0  -0.3123
  N  N853  1  0.469250  0.891710  0.511530  1.0  -0.3261
  N  N854  1  0.449170  0.983710  0.570050  1.0  -0.434
  N  N855  1  0.006040  0.684160  0.379560  1.0  -0.3529
  N  N856  1  0.010370  0.591650  0.321110  1.0  -0.3703
  N  N857  1  0.069560  0.682000  0.462960  1.0  -0.2357
  N  N858  1  0.101820  0.675260  0.506480  1.0  -0.256
  N  N859  1  0.098450  0.820210  0.492250  1.0  -0.3029
  N  N860  1  0.066180  0.819180  0.539890  1.0  -0.2863
  N  N861  1  0.996710  0.824870  0.625100  1.0  -0.333
  N  N862  1  0.012610  0.906770  0.693570  1.0  -0.3175
  N  N863  1  0.673870  0.003950  0.124280  1.0  -0.3535
  N  N864  1  0.572350  0.996630  0.185370  1.0  -0.3644
  N  N865  1  0.684740  0.945200  0.039500  1.0  -0.207
  N  N866  1  0.686420  0.914960  0.994670  1.0  -0.2825
  N  N867  1  0.830470  0.905890  0.004530  1.0  -0.2906
  N  N868  1  0.830730  0.934890  0.957410  1.0  -0.2799
  N  N869  1  0.837790  0.003590  0.873080  1.0  -0.4137
  N  N870  1  0.931780  0.985200  0.801820  1.0  -0.3507
  N  N871  1  0.380600  0.457500  0.955460  1.0  -0.3397
  N  N872  1  0.432810  0.431930  0.863480  1.0  -0.335
  N  N873  1  0.296980  0.546200  0.959750  1.0  -0.2399
  N  N874  1  0.247990  0.585470  0.959610  1.0  -0.2785
  N  N875  1  0.279240  0.599240  0.080530  1.0  -0.3269
  N  N876  1  0.231880  0.568000  0.089390  1.0  -0.2507
  N  N877  1  0.149600  0.493000  0.114040  1.0  -0.3881
  N  N878  1  0.078860  0.505280  0.202850  1.0  -0.3443
  N  N879  1  0.343030  0.474950  0.108030  1.0  -0.3484
  N  N880  1  0.376940  0.475460  0.208130  1.0  -0.3434
  N  N881  1  0.263860  0.404560  0.080880  1.0  -0.2755
  N  N882  1  0.215980  0.371480  0.073330  1.0  -0.2552
  N  N883  1  0.247400  0.415200  0.953170  1.0  -0.3079
  N  N884  1  0.196830  0.450190  0.965820  1.0  -0.3131
  N  N885  1  0.108290  0.530750  0.988470  1.0  -0.3276
  N  N886  1  0.016290  0.550830  0.929950  1.0  -0.4294
  N  N887  1  0.684160  0.006040  0.879560  1.0  -0.3549
  N  N888  1  0.591650  0.010370  0.821110  1.0  -0.3695
  N  N889  1  0.682000  0.069560  0.962960  1.0  -0.2367
  N  N890  1  0.675260  0.101820  0.006480  1.0  -0.257
  N  N891  1  0.820210  0.098450  0.992250  1.0  -0.3031
  N  N892  1  0.819180  0.066180  0.039890  1.0  -0.2856
  N  N893  1  0.824870  0.996710  0.125100  1.0  -0.3319
  N  N894  1  0.906770  0.012610  0.193570  1.0  -0.3163
  N  N895  1  0.003950  0.673870  0.624280  1.0  -0.3536
  N  N896  1  0.996630  0.572350  0.685370  1.0  -0.3662
  N  N897  1  0.945200  0.684740  0.539500  1.0  -0.2047
  N  N898  1  0.914960  0.686420  0.494670  1.0  -0.2832
  N  N899  1  0.905890  0.830470  0.504530  1.0  -0.2891
  N  N900  1  0.934890  0.830730  0.457410  1.0  -0.2784
  N  N901  1  0.003590  0.837790  0.373080  1.0  -0.4129
  N  N902  1  0.985200  0.931780  0.301820  1.0  -0.3494
  N  N903  1  0.457500  0.380600  0.455460  1.0  -0.3425
  N  N904  1  0.431930  0.432810  0.363480  1.0  -0.3352
  N  N905  1  0.546200  0.296980  0.459750  1.0  -0.2443
  N  N906  1  0.585470  0.247990  0.459610  1.0  -0.2783
  N  N907  1  0.599240  0.279240  0.580530  1.0  -0.3266
  N  N908  1  0.568000  0.231880  0.589390  1.0  -0.2491
  N  N909  1  0.493000  0.149600  0.614040  1.0  -0.3863
  N  N910  1  0.505280  0.078860  0.702850  1.0  -0.345
  N  N911  1  0.474950  0.343030  0.608030  1.0  -0.3528
  N  N912  1  0.475460  0.376940  0.708130  1.0  -0.344
  N  N913  1  0.404560  0.263860  0.580880  1.0  -0.275
  N  N914  1  0.371480  0.215980  0.573330  1.0  -0.254
  N  N915  1  0.415200  0.247400  0.453170  1.0  -0.3082
  N  N916  1  0.450190  0.196830  0.465820  1.0  -0.3123
  N  N917  1  0.530750  0.108290  0.488470  1.0  -0.3292
  N  N918  1  0.550830  0.016290  0.429950  1.0  -0.4345
  N  N919  1  0.993960  0.315840  0.620440  1.0  -0.3514
  N  N920  1  0.989630  0.408350  0.678890  1.0  -0.3708
  N  N921  1  0.930440  0.318000  0.537040  1.0  -0.2352
  N  N922  1  0.898180  0.324740  0.493520  1.0  -0.2561
  N  N923  1  0.901550  0.179790  0.507750  1.0  -0.3018
  N  N924  1  0.933820  0.180820  0.460110  1.0  -0.2862
  N  N925  1  0.003290  0.175130  0.374900  1.0  -0.3346
  N  N926  1  0.987390  0.093230  0.306430  1.0  -0.3169
  N  N927  1  0.326130  0.996050  0.875720  1.0  -0.3536
  N  N928  1  0.427650  0.003370  0.814630  1.0  -0.3648
  N  N929  1  0.315260  0.054800  0.960500  1.0  -0.206
  N  N930  1  0.313580  0.085040  0.005330  1.0  -0.283
  N  N931  1  0.169530  0.094110  0.995470  1.0  -0.2919
  N  N932  1  0.169270  0.065110  0.042590  1.0  -0.2798
  N  N933  1  0.162210  0.996410  0.126920  1.0  -0.4167
  N  N934  1  0.068220  0.014800  0.198180  1.0  -0.3514
  N  N935  1  0.619400  0.542500  0.044540  1.0  -0.3385
  N  N936  1  0.567190  0.568070  0.136520  1.0  -0.3358
  N  N937  1  0.703020  0.453800  0.040250  1.0  -0.2406
  N  N938  1  0.752010  0.414530  0.040390  1.0  -0.2775
  N  N939  1  0.720760  0.400760  0.919470  1.0  -0.3257
  N  N940  1  0.768120  0.432000  0.910610  1.0  -0.249
  N  N941  1  0.850400  0.507000  0.885960  1.0  -0.3876
  N  N942  1  0.921140  0.494720  0.797150  1.0  -0.3415
  N  N943  1  0.656970  0.525050  0.891970  1.0  -0.3472
  N  N944  1  0.623060  0.524540  0.791870  1.0  -0.3408
  N  N945  1  0.736140  0.595440  0.919120  1.0  -0.2767
  N  N946  1  0.784020  0.628520  0.926670  1.0  -0.2551
  N  N947  1  0.752600  0.584800  0.046830  1.0  -0.3071
  N  N948  1  0.803170  0.549810  0.034180  1.0  -0.3132
  N  N949  1  0.891710  0.469250  0.011530  1.0  -0.3273
  N  N950  1  0.983710  0.449170  0.070050  1.0  -0.4316
  F  F951  1  0.477750  0.145710  0.051080  1.0  -0.2568
  F  F952  1  0.539870  0.075690  0.075990  1.0  -0.2527
  F  F953  1  0.447760  0.069480  0.094080  1.0  -0.2519
  F  F954  1  0.494400  0.131080  0.131430  1.0  -0.2252
  F  F955  1  0.415520  0.006480  0.372100  1.0  -0.2655
  F  F956  1  0.375550  0.984890  0.298460  1.0  -0.2278
  F  F957  1  0.317720  0.028320  0.362250  1.0  -0.2282
  F  F958  1  0.354810  0.933310  0.373670  1.0  -0.2245
  F  F959  1  0.004670  0.799610  0.892680  1.0  -0.3079
  F  F960  1  0.934110  0.825470  0.838990  1.0  -0.2903
  F  F961  1  0.006170  0.759290  0.817330  1.0  -0.2176
  F  F962  1  0.023620  0.853420  0.820400  1.0  -0.2536
  F  F963  1  0.212860  0.474340  0.278390  1.0  -0.2394
  F  F964  1  0.154000  0.466800  0.346030  1.0  -0.2573
  F  F965  1  0.239870  0.503070  0.352100  1.0  -0.2328
  F  F966  1  0.168830  0.554970  0.311290  1.0  -0.2437
  F  F967  1  0.323680  0.352060  0.292550  1.0  -0.2562
  F  F968  1  0.343180  0.283920  0.237030  1.0  -0.234
  F  F969  1  0.366940  0.265620  0.317920  1.0  -0.2791
  F  F970  1  0.417060  0.328360  0.266780  1.0  -0.2316
  F  F971  1  0.065690  0.934610  0.088010  1.0  -0.232
  F  F972  1  0.012520  0.857400  0.074540  1.0  -0.2276
  F  F973  1  0.989200  0.913480  0.139860  1.0  -0.2414
  F  F974  1  0.976710  0.950870  0.062950  1.0  -0.246
  F  F975  1  0.445120  0.359620  0.154190  1.0  -0.2366
  F  F976  1  0.371100  0.322920  0.121000  1.0  -0.2688
  F  F977  1  0.460920  0.276340  0.114850  1.0  -0.2106
  F  F978  1  0.440630  0.360850  0.070000  1.0  -0.2291
  F  F979  1  0.854290  0.522250  0.448920  1.0  -0.2561
  F  F980  1  0.924310  0.460130  0.424010  1.0  -0.2541
  F  F981  1  0.930520  0.552240  0.405920  1.0  -0.2531
  F  F982  1  0.868920  0.505600  0.368570  1.0  -0.2273
  F  F983  1  0.993520  0.584480  0.127900  1.0  -0.2668
  F  F984  1  0.015110  0.624450  0.201540  1.0  -0.2296
  F  F985  1  0.971680  0.682280  0.137750  1.0  -0.2268
  F  F986  1  0.066690  0.645190  0.126330  1.0  -0.2278
  F  F987  1  0.200390  0.995330  0.607320  1.0  -0.3101
  F  F988  1  0.174530  0.065890  0.661010  1.0  -0.2919
  F  F989  1  0.240710  0.993830  0.682670  1.0  -0.2192
  F  F990  1  0.146580  0.976380  0.679600  1.0  -0.2547
  F  F991  1  0.525660  0.787140  0.221610  1.0  -0.2391
  F  F992  1  0.533200  0.846000  0.153970  1.0  -0.2583
  F  F993  1  0.496930  0.760130  0.147900  1.0  -0.2322
  F  F994  1  0.445030  0.831170  0.188710  1.0  -0.2396
  F  F995  1  0.647940  0.676320  0.207450  1.0  -0.2556
  F  F996  1  0.716080  0.656820  0.262970  1.0  -0.2347
  F  F997  1  0.734380  0.633060  0.182080  1.0  -0.2827
  F  F998  1  0.671640  0.582940  0.233220  1.0  -0.2314
  F  F999  1  0.065390  0.934310  0.411990  1.0  -0.2337
  F  F1000  1  0.142600  0.987480  0.425460  1.0  -0.2294
  F  F1001  1  0.086520  0.010800  0.360140  1.0  -0.2438
  F  F1002  1  0.049130  0.023290  0.437050  1.0  -0.2466
  F  F1003  1  0.640380  0.554880  0.345810  1.0  -0.2353
  F  F1004  1  0.677080  0.628900  0.379000  1.0  -0.2691
  F  F1005  1  0.723660  0.539080  0.385150  1.0  -0.2123
  F  F1006  1  0.639150  0.559370  0.430000  1.0  -0.2271
  F  F1007  1  0.522250  0.854290  0.948920  1.0  -0.2565
  F  F1008  1  0.460130  0.924310  0.924010  1.0  -0.2517
  F  F1009  1  0.552240  0.930520  0.905920  1.0  -0.2524
  F  F1010  1  0.505600  0.868920  0.868570  1.0  -0.2273
  F  F1011  1  0.584480  0.993520  0.627900  1.0  -0.2673
  F  F1012  1  0.624450  0.015110  0.701540  1.0  -0.2294
  F  F1013  1  0.682280  0.971680  0.637750  1.0  -0.2264
  F  F1014  1  0.645190  0.066690  0.626330  1.0  -0.2254
  F  F1015  1  0.995330  0.200390  0.107320  1.0  -0.312
  F  F1016  1  0.065890  0.174530  0.161010  1.0  -0.2897
  F  F1017  1  0.993830  0.240710  0.182670  1.0  -0.2129
  F  F1018  1  0.976380  0.146580  0.179600  1.0  -0.2532
  F  F1019  1  0.787140  0.525660  0.721610  1.0  -0.2379
  F  F1020  1  0.846000  0.533200  0.653970  1.0  -0.2606
  F  F1021  1  0.760130  0.496930  0.647900  1.0  -0.2318
  F  F1022  1  0.831170  0.445030  0.688710  1.0  -0.2436
  F  F1023  1  0.676320  0.647940  0.707450  1.0  -0.2569
  F  F1024  1  0.656820  0.716080  0.762970  1.0  -0.2347
  F  F1025  1  0.633060  0.734380  0.682080  1.0  -0.2823
  F  F1026  1  0.582940  0.671640  0.733220  1.0  -0.2281
  F  F1027  1  0.934310  0.065390  0.911990  1.0  -0.2321
  F  F1028  1  0.987480  0.142600  0.925460  1.0  -0.2302
  F  F1029  1  0.010800  0.086520  0.860140  1.0  -0.2429
  F  F1030  1  0.023290  0.049130  0.937050  1.0  -0.2468
  F  F1031  1  0.554880  0.640380  0.845810  1.0  -0.2356
  F  F1032  1  0.628900  0.677080  0.879000  1.0  -0.2724
  F  F1033  1  0.539080  0.723660  0.885150  1.0  -0.214
  F  F1034  1  0.559370  0.639150  0.930000  1.0  -0.2283
  F  F1035  1  0.145710  0.477750  0.551080  1.0  -0.2579
  F  F1036  1  0.075690  0.539870  0.575990  1.0  -0.2534
  F  F1037  1  0.069480  0.447760  0.594080  1.0  -0.2532
  F  F1038  1  0.131080  0.494400  0.631430  1.0  -0.2257
  F  F1039  1  0.006480  0.415520  0.872100  1.0  -0.2663
  F  F1040  1  0.984890  0.375550  0.798460  1.0  -0.2268
  F  F1041  1  0.028320  0.317720  0.862250  1.0  -0.2289
  F  F1042  1  0.933310  0.354810  0.873670  1.0  -0.2256
  F  F1043  1  0.799610  0.004670  0.392680  1.0  -0.3092
  F  F1044  1  0.825470  0.934110  0.338990  1.0  -0.2918
  F  F1045  1  0.759290  0.006170  0.317330  1.0  -0.2178
  F  F1046  1  0.853420  0.023620  0.320400  1.0  -0.253
  F  F1047  1  0.474340  0.212860  0.778390  1.0  -0.2398
  F  F1048  1  0.466800  0.154000  0.846030  1.0  -0.258
  F  F1049  1  0.503070  0.239870  0.852100  1.0  -0.2329
  F  F1050  1  0.554970  0.168830  0.811290  1.0  -0.241
  F  F1051  1  0.352060  0.323680  0.792550  1.0  -0.2576
  F  F1052  1  0.283920  0.343180  0.737030  1.0  -0.2343
  F  F1053  1  0.265620  0.366940  0.817920  1.0  -0.2799
  F  F1054  1  0.328360  0.417060  0.766780  1.0  -0.2325
  F  F1055  1  0.934610  0.065690  0.588010  1.0  -0.2324
  F  F1056  1  0.857400  0.012520  0.574540  1.0  -0.227
  F  F1057  1  0.913480  0.989200  0.639860  1.0  -0.2416
  F  F1058  1  0.950870  0.976710  0.562950  1.0  -0.2491
  F  F1059  1  0.359620  0.445120  0.654190  1.0  -0.2351
  F  F1060  1  0.322920  0.371100  0.621000  1.0  -0.2686
  F  F1061  1  0.276340  0.460920  0.614850  1.0  -0.21
  F  F1062  1  0.360850  0.440630  0.570000  1.0  -0.2274
