# generated using pymatgen
data_Zn4H24C48O13
_symmetry_space_group_name_H-M   'P 1'
_cell_length_a   24.93290000
_cell_length_b   24.93290000
_cell_length_c   24.93290000
_cell_angle_alpha   109.47100000
_cell_angle_beta   109.47100000
_cell_angle_gamma   109.47100000
_symmetry_Int_Tables_number   1
_chemical_formula_structural   Zn4H24C48O13
_chemical_formula_sum   'Zn32 H192 C384 O104'
_cell_volume   11931.63727975
_cell_formula_units_Z   8
loop_
 _symmetry_equiv_pos_site_id
 _symmetry_equiv_pos_as_xyz
  1  'x, y, z'
loop_
 _atom_site_type_symbol
 _atom_site_label
 _atom_site_symmetry_multiplicity
 _atom_site_fract_x
 _atom_site_fract_y
 _atom_site_fract_z
 _atom_site_occupancy
 _atom_site_charge
  Zn  Zn1  1  0.947450  0.081920  0.078190  1.0  1.0476
  Zn  Zn2  1  0.503730  0.869260  0.421810  1.0  1.053
  Zn  Zn3  1  0.996270  0.418080  0.365530  1.0  1.0462
  Zn  Zn4  1  0.552550  0.630740  0.134470  1.0  1.0457
  Zn  Zn5  1  0.865530  0.996270  0.918080  1.0  1.0396
  Zn  Zn6  1  0.634470  0.552550  0.130740  1.0  1.0455
  Zn  Zn7  1  0.578190  0.947450  0.581920  1.0  1.0491
  Zn  Zn8  1  0.921810  0.503730  0.369260  1.0  1.0577
  Zn  Zn9  1  0.869260  0.921810  0.003730  1.0  1.0563
  Zn  Zn10  1  0.081920  0.578190  0.447450  1.0  1.0517
  Zn  Zn11  1  0.630740  0.634470  0.052550  1.0  1.0399
  Zn  Zn12  1  0.418080  0.865530  0.496270  1.0  1.0428
  Zn  Zn13  1  0.369260  0.003730  0.921810  1.0  1.0539
  Zn  Zn14  1  0.581920  0.447450  0.578190  1.0  1.049
  Zn  Zn15  1  0.130740  0.052550  0.634470  1.0  1.0451
  Zn  Zn16  1  0.918080  0.496270  0.865530  1.0  1.0443
  Zn  Zn17  1  0.447450  0.078190  0.081920  1.0  1.0471
  Zn  Zn18  1  0.003730  0.421810  0.869260  1.0  1.0585
  Zn  Zn19  1  0.496270  0.365530  0.418080  1.0  1.0395
  Zn  Zn20  1  0.052550  0.134470  0.630740  1.0  1.0432
  Zn  Zn21  1  0.365530  0.918080  0.996270  1.0  1.0416
  Zn  Zn22  1  0.134470  0.130740  0.552550  1.0  1.042
  Zn  Zn23  1  0.078190  0.581920  0.947450  1.0  1.0513
  Zn  Zn24  1  0.421810  0.369260  0.503730  1.0  1.0554
  Zn  Zn25  1  0.994220  0.000000  0.000000  1.0  1.0113
  Zn  Zn26  1  0.500000  0.994220  0.500000  1.0  1.0111
  Zn  Zn27  1  0.000000  0.500000  0.494220  1.0  1.0157
  Zn  Zn28  1  0.505780  0.505780  0.005780  1.0  1.0122
  Zn  Zn29  1  0.494220  0.000000  0.000000  1.0  1.0113
  Zn  Zn30  1  0.500000  0.494220  0.500000  1.0  1.0111
  Zn  Zn31  1  0.005780  0.005780  0.505780  1.0  1.0122
  Zn  Zn32  1  0.000000  0.500000  0.994220  1.0  1.0157
  H  H33  1  0.086700  0.062700  0.206000  1.0  0.1111
  H  H34  1  0.123800  0.044100  0.290900  1.0  0.1108
  H  H35  1  0.297700  0.202900  0.383400  1.0  0.1245
  H  H36  1  0.226700  0.111400  0.374100  1.0  0.1011
  H  H37  1  0.353100  0.329800  0.269900  1.0  0.1277
  H  H38  1  0.147300  0.181500  0.085800  1.0  0.1163
  H  H39  1  0.219100  0.261800  0.085100  1.0  0.1307
  H  H40  1  0.324000  0.336800  0.178400  1.0  0.1025
  H  H41  1  0.356700  0.880700  0.294000  1.0  0.1123
  H  H42  1  0.253200  0.832900  0.209100  1.0  0.1111
  H  H43  1  0.319500  0.914300  0.116600  1.0  0.1262
  H  H44  1  0.237300  0.852600  0.125900  1.0  0.1017
  H  H45  1  0.559900  0.083200  0.230100  1.0  0.1309
  H  H46  1  0.595700  0.061500  0.414200  1.0  0.1167
  H  H47  1  0.676700  0.134000  0.414900  1.0  0.132
  H  H48  1  0.658400  0.145600  0.321600  1.0  0.1025
  H  H49  1  0.143300  0.437300  0.524000  1.0  0.1117
  H  H50  1  0.246800  0.455900  0.579700  1.0  0.111
  H  H51  1  0.180500  0.297100  0.594800  1.0  0.1278
  H  H52  1  0.262700  0.388600  0.615300  1.0  0.0999
  H  H53  1  0.940100  0.170200  0.523300  1.0  0.1284
  H  H54  1  0.904300  0.318500  0.465800  1.0  0.1166
  H  H55  1  0.823300  0.238200  0.457300  1.0  0.1331
  H  H56  1  0.841600  0.163200  0.487200  1.0  0.1025
  H  H57  1  0.413300  0.619300  0.976000  1.0  0.112
  H  H58  1  0.376200  0.667100  0.920300  1.0  0.1112
  H  H59  1  0.202300  0.585700  0.905200  1.0  0.1281
  H  H60  1  0.273300  0.647400  0.884700  1.0  0.1017
  H  H61  1  0.146900  0.416800  0.976700  1.0  0.1307
  H  H62  1  0.352700  0.438500  0.034200  1.0  0.1164
  H  H63  1  0.280900  0.366000  0.042700  1.0  0.1315
  H  H64  1  0.176000  0.354400  0.012800  1.0  0.1024
  H  H65  1  0.024000  0.143300  0.937300  1.0  0.112
  H  H66  1  0.079700  0.246800  0.955900  1.0  0.1112
  H  H67  1  0.094800  0.180500  0.797100  1.0  0.1279
  H  H68  1  0.115300  0.262700  0.888600  1.0  0.1013
  H  H69  1  0.023300  0.940100  0.670200  1.0  0.1299
  H  H70  1  0.965800  0.904300  0.818500  1.0  0.1161
  H  H71  1  0.957300  0.823300  0.738200  1.0  0.1328
  H  H72  1  0.987200  0.841600  0.663200  1.0  0.1027
  H  H73  1  0.476000  0.413300  0.119300  1.0  0.1114
  H  H74  1  0.420300  0.376200  0.167100  1.0  0.1106
  H  H75  1  0.405200  0.202300  0.085700  1.0  0.1262
  H  H76  1  0.384700  0.273300  0.147400  1.0  0.1018
  H  H77  1  0.476700  0.146900  0.916800  1.0  0.1281
  H  H78  1  0.534200  0.352700  0.938500  1.0  0.1164
  H  H79  1  0.542700  0.280900  0.866000  1.0  0.1301
  H  H80  1  0.512800  0.176000  0.854400  1.0  0.1026
  H  H81  1  0.706000  0.086700  0.562700  1.0  0.1118
  H  H82  1  0.790900  0.123800  0.544100  1.0  0.1111
  H  H83  1  0.883400  0.297700  0.702900  1.0  0.1257
  H  H84  1  0.874100  0.226700  0.611400  1.0  0.1011
  H  H85  1  0.769900  0.353100  0.829800  1.0  0.1297
  H  H86  1  0.585800  0.147300  0.681500  1.0  0.1155
  H  H87  1  0.585100  0.219100  0.761800  1.0  0.1324
  H  H88  1  0.678400  0.324000  0.836800  1.0  0.1025
  H  H89  1  0.794000  0.356700  0.380700  1.0  0.111
  H  H90  1  0.709100  0.253200  0.332900  1.0  0.111
  H  H91  1  0.616600  0.319500  0.414300  1.0  0.1259
  H  H92  1  0.625900  0.237300  0.352600  1.0  0.1015
  H  H93  1  0.730100  0.559900  0.583200  1.0  0.128
  H  H94  1  0.914200  0.595700  0.561500  1.0  0.1172
  H  H95  1  0.914900  0.676700  0.634000  1.0  0.1316
  H  H96  1  0.821600  0.658400  0.645600  1.0  0.1024
  H  H97  1  0.880700  0.794000  0.856700  1.0  0.1113
  H  H98  1  0.832900  0.709100  0.753200  1.0  0.1106
  H  H99  1  0.914300  0.616600  0.819500  1.0  0.1269
  H  H100  1  0.852600  0.625900  0.737300  1.0  0.1004
  H  H101  1  0.083200  0.730100  0.059900  1.0  0.1279
  H  H102  1  0.061500  0.914200  0.095700  1.0  0.116
  H  H103  1  0.134000  0.914900  0.176700  1.0  0.1318
  H  H104  1  0.145600  0.821600  0.158400  1.0  0.1018
  H  H105  1  0.062700  0.706000  0.586700  1.0  0.1112
  H  H106  1  0.044100  0.790900  0.623800  1.0  0.1108
  H  H107  1  0.202900  0.883400  0.797700  1.0  0.1247
  H  H108  1  0.111400  0.874100  0.726700  1.0  0.1029
  H  H109  1  0.329800  0.769900  0.853100  1.0  0.1286
  H  H110  1  0.181500  0.585800  0.647300  1.0  0.1168
  H  H111  1  0.261800  0.585100  0.719100  1.0  0.1323
  H  H112  1  0.336800  0.678400  0.824000  1.0  0.1029
  H  H113  1  0.619300  0.476000  0.913300  1.0  0.112
  H  H114  1  0.667100  0.420300  0.876200  1.0  0.1105
  H  H115  1  0.585700  0.405200  0.702300  1.0  0.1268
  H  H116  1  0.647400  0.384700  0.773300  1.0  0.102
  H  H117  1  0.416800  0.476700  0.646900  1.0  0.1293
  H  H118  1  0.438500  0.534200  0.852700  1.0  0.1165
  H  H119  1  0.366000  0.542700  0.780900  1.0  0.1315
  H  H120  1  0.354400  0.512800  0.676000  1.0  0.1027
  H  H121  1  0.437300  0.024000  0.643300  1.0  0.1111
  H  H122  1  0.455900  0.079700  0.746800  1.0  0.1104
  H  H123  1  0.297100  0.094800  0.680500  1.0  0.1274
  H  H124  1  0.388600  0.115300  0.762700  1.0  0.1019
  H  H125  1  0.170200  0.023300  0.440100  1.0  0.1276
  H  H126  1  0.318500  0.965800  0.404300  1.0  0.1144
  H  H127  1  0.238200  0.957300  0.323300  1.0  0.1291
  H  H128  1  0.163200  0.987200  0.341600  1.0  0.1016
  H  H129  1  0.380700  0.856700  0.794000  1.0  0.112
  H  H130  1  0.332900  0.753200  0.709100  1.0  0.111
  H  H131  1  0.414300  0.819500  0.616600  1.0  0.1261
  H  H132  1  0.352600  0.737300  0.625900  1.0  0.1016
  H  H133  1  0.583200  0.059900  0.730100  1.0  0.1296
  H  H134  1  0.561500  0.095700  0.914200  1.0  0.1162
  H  H135  1  0.634000  0.176700  0.914900  1.0  0.1323
  H  H136  1  0.645600  0.158400  0.821600  1.0  0.1028
  H  H137  1  0.562700  0.586700  0.706000  1.0  0.1114
  H  H138  1  0.544100  0.623800  0.790900  1.0  0.1107
  H  H139  1  0.702900  0.797700  0.883400  1.0  0.1244
  H  H140  1  0.611400  0.726700  0.874100  1.0  0.1021
  H  H141  1  0.829800  0.853100  0.769900  1.0  0.1293
  H  H142  1  0.681500  0.647300  0.585800  1.0  0.1158
  H  H143  1  0.761800  0.719100  0.585100  1.0  0.1303
  H  H144  1  0.836800  0.824000  0.678400  1.0  0.1027
  H  H145  1  0.119300  0.913300  0.476000  1.0  0.112
  H  H146  1  0.167100  0.876200  0.420300  1.0  0.1108
  H  H147  1  0.085700  0.702300  0.405200  1.0  0.1274
  H  H148  1  0.147400  0.773300  0.384700  1.0  0.1008
  H  H149  1  0.916800  0.646900  0.476700  1.0  0.1287
  H  H150  1  0.938500  0.852700  0.534200  1.0  0.1164
  H  H151  1  0.866000  0.780900  0.542700  1.0  0.1321
  H  H152  1  0.854400  0.676000  0.512800  1.0  0.1025
  H  H153  1  0.937300  0.643300  0.024000  1.0  0.1112
  H  H154  1  0.955900  0.746800  0.079700  1.0  0.1114
  H  H155  1  0.797100  0.680500  0.094800  1.0  0.1279
  H  H156  1  0.888600  0.762700  0.115300  1.0  0.1013
  H  H157  1  0.670200  0.440100  0.023300  1.0  0.1281
  H  H158  1  0.818500  0.404300  0.965800  1.0  0.117
  H  H159  1  0.738200  0.323300  0.957300  1.0  0.1321
  H  H160  1  0.663200  0.341600  0.987200  1.0  0.1024
  H  H161  1  0.586700  0.206000  0.062700  1.0  0.1116
  H  H162  1  0.623800  0.290900  0.044100  1.0  0.1109
  H  H163  1  0.797700  0.383400  0.202900  1.0  0.1262
  H  H164  1  0.726700  0.374100  0.111400  1.0  0.1008
  H  H165  1  0.853100  0.269900  0.329800  1.0  0.1284
  H  H166  1  0.647300  0.085800  0.181500  1.0  0.1154
  H  H167  1  0.719100  0.085100  0.261800  1.0  0.1322
  H  H168  1  0.824000  0.178400  0.336800  1.0  0.1021
  H  H169  1  0.856700  0.294000  0.880700  1.0  0.1114
  H  H170  1  0.753200  0.209100  0.832900  1.0  0.1104
  H  H171  1  0.819500  0.116600  0.914300  1.0  0.1254
  H  H172  1  0.737300  0.125900  0.852600  1.0  0.1028
  H  H173  1  0.059900  0.230100  0.083200  1.0  0.1284
  H  H174  1  0.095700  0.414200  0.061500  1.0  0.1175
  H  H175  1  0.176700  0.414900  0.134000  1.0  0.132
  H  H176  1  0.158400  0.321600  0.145600  1.0  0.1027
  H  H177  1  0.643300  0.524000  0.437300  1.0  0.1124
  H  H178  1  0.746800  0.579700  0.455900  1.0  0.1105
  H  H179  1  0.680500  0.594800  0.297100  1.0  0.1277
  H  H180  1  0.762700  0.615300  0.388600  1.0  0.1024
  H  H181  1  0.440100  0.523300  0.170200  1.0  0.1295
  H  H182  1  0.404300  0.465800  0.318500  1.0  0.1162
  H  H183  1  0.323300  0.457300  0.238200  1.0  0.1316
  H  H184  1  0.341600  0.487200  0.163200  1.0  0.1026
  H  H185  1  0.913300  0.976000  0.619300  1.0  0.1112
  H  H186  1  0.876200  0.920300  0.667100  1.0  0.1105
  H  H187  1  0.702300  0.905200  0.585700  1.0  0.1264
  H  H188  1  0.773300  0.884700  0.647400  1.0  0.1019
  H  H189  1  0.646900  0.976700  0.416800  1.0  0.1274
  H  H190  1  0.852700  0.034200  0.438500  1.0  0.1148
  H  H191  1  0.780900  0.042700  0.366000  1.0  0.1294
  H  H192  1  0.676000  0.012800  0.354400  1.0  0.1016
  H  H193  1  0.524000  0.937300  0.143300  1.0  0.111
  H  H194  1  0.579700  0.955900  0.246800  1.0  0.1109
  H  H195  1  0.594800  0.797100  0.180500  1.0  0.1277
  H  H196  1  0.615300  0.888600  0.262700  1.0  0.101
  H  H197  1  0.523300  0.670200  0.940100  1.0  0.1277
  H  H198  1  0.465800  0.818500  0.904300  1.0  0.1164
  H  H199  1  0.457300  0.738200  0.823300  1.0  0.1306
  H  H200  1  0.487200  0.663200  0.841600  1.0  0.1023
  H  H201  1  0.976000  0.119300  0.413300  1.0  0.1124
  H  H202  1  0.920300  0.167100  0.376200  1.0  0.1112
  H  H203  1  0.905200  0.085700  0.202300  1.0  0.1273
  H  H204  1  0.884700  0.147400  0.273300  1.0  0.102
  H  H205  1  0.976700  0.916800  0.146900  1.0  0.1305
  H  H206  1  0.034200  0.938500  0.352700  1.0  0.1167
  H  H207  1  0.042700  0.866000  0.280900  1.0  0.1325
  H  H208  1  0.012800  0.854400  0.176000  1.0  0.1023
  H  H209  1  0.206000  0.562700  0.086700  1.0  0.1121
  H  H210  1  0.290900  0.544100  0.123800  1.0  0.1113
  H  H211  1  0.383400  0.702900  0.297700  1.0  0.1246
  H  H212  1  0.374100  0.611400  0.226700  1.0  0.1
  H  H213  1  0.269900  0.829800  0.353100  1.0  0.1284
  H  H214  1  0.085800  0.681500  0.147300  1.0  0.1165
  H  H215  1  0.085100  0.761800  0.219100  1.0  0.133
  H  H216  1  0.178400  0.836800  0.324000  1.0  0.1026
  H  H217  1  0.294000  0.380700  0.356700  1.0  0.1123
  H  H218  1  0.209100  0.332900  0.253200  1.0  0.1109
  H  H219  1  0.116600  0.414300  0.319500  1.0  0.1272
  H  H220  1  0.125900  0.352600  0.237300  1.0  0.1014
  H  H221  1  0.230100  0.583200  0.559900  1.0  0.1307
  H  H222  1  0.414200  0.561500  0.595700  1.0  0.1165
  H  H223  1  0.414900  0.634000  0.676700  1.0  0.131
  H  H224  1  0.321600  0.645600  0.658400  1.0  0.1024
  C  C225  1  0.175100  0.142900  0.236200  1.0  -0.1042
  C  C226  1  0.239100  0.188600  0.292500  1.0  0.0222
  C  C227  1  0.130200  0.089600  0.239400  1.0  -0.1254
  C  C228  1  0.151800  0.079600  0.290600  1.0  -0.0739
  C  C229  1  0.256600  0.174700  0.345700  1.0  -0.1392
  C  C230  1  0.213000  0.120600  0.340400  1.0  -0.1038
  C  C231  1  0.089900  0.107400  0.122300  1.0  0.7096
  C  C232  1  0.311300  0.299200  0.233500  1.0  -0.0479
  C  C233  1  0.188400  0.211200  0.123200  1.0  -0.0467
  C  C234  1  0.268100  0.249900  0.236600  1.0  -0.0912
  C  C235  1  0.157300  0.152100  0.182400  1.0  -0.0504
  C  C236  1  0.230200  0.257700  0.122500  1.0  -0.1075
  C  C237  1  0.204100  0.204000  0.181300  1.0  0.0504
  C  C238  1  0.294100  0.303400  0.179500  1.0  -0.0975
  C  C239  1  0.285000  0.241700  0.293700  1.0  -0.1116
  C  C240  1  0.350700  0.290100  0.354600  1.0  0.7427
  C  C241  1  0.406700  0.938900  0.263800  1.0  -0.1049
  C  C242  1  0.396100  0.946600  0.207500  1.0  0.0209
  C  C243  1  0.350200  0.890800  0.260600  1.0  -0.1283
  C  C244  1  0.289000  0.861200  0.209400  1.0  -0.0708
  C  C245  1  0.329000  0.910900  0.154300  1.0  -0.1382
  C  C246  1  0.280200  0.872600  0.159600  1.0  -0.1046
  C  C247  1  0.485100  0.967600  0.377700  1.0  0.7086
  C  C248  1  0.565700  0.077800  0.266500  1.0  -0.0484
  C  C249  1  0.588000  0.065200  0.376800  1.0  -0.0434
  C  C250  1  0.513300  0.031500  0.263400  1.0  -0.0907
  C  C251  1  0.469700  0.974900  0.317600  1.0  -0.051
  C  C252  1  0.635200  0.107700  0.377500  1.0  -0.1081
  C  C253  1  0.522700  0.022800  0.318700  1.0  0.0511
  C  C254  1  0.623900  0.114600  0.320500  1.0  -0.0972
  C  C255  1  0.448000  0.991300  0.206300  1.0  -0.1118
  C  C256  1  0.435500  0.996100  0.145400  1.0  0.7448
  C  C257  1  0.093300  0.357100  0.532200  1.0  -0.1052
  C  C258  1  0.103900  0.311400  0.550500  1.0  0.0217
  C  C259  1  0.149800  0.410400  0.540600  1.0  -0.1278
  C  C260  1  0.211000  0.420400  0.572200  1.0  -0.0703
  C  C261  1  0.171000  0.325300  0.581900  1.0  -0.1391
  C  C262  1  0.219800  0.379400  0.592400  1.0  -0.1025
  C  C263  1  0.014900  0.392600  0.482500  1.0  0.7089
  C  C264  1  0.934300  0.200800  0.512100  1.0  -0.0473
  C  C265  1  0.912000  0.288800  0.477200  1.0  -0.0432
  C  C266  1  0.986700  0.250100  0.518200  1.0  -0.0912
  C  C267  1  0.030300  0.347900  0.505200  1.0  -0.0499
  C  C268  1  0.864800  0.242300  0.472500  1.0  -0.1129
  C  C269  1  0.977300  0.296000  0.500100  1.0  0.054
  C  C270  1  0.876100  0.196600  0.490700  1.0  -0.0976
  C  C271  1  0.052000  0.258300  0.543300  1.0  -0.1113
  C  C272  1  0.064500  0.209900  0.560600  1.0  0.7457
  C  C273  1  0.324900  0.561100  0.967800  1.0  -0.106
  C  C274  1  0.260900  0.553400  0.949500  1.0  0.0213
  C  C275  1  0.369800  0.609200  0.959400  1.0  -0.1285
  C  C276  1  0.348200  0.638800  0.927800  1.0  -0.0723
  C  C277  1  0.243400  0.589100  0.918100  1.0  -0.1417
  C  C278  1  0.287000  0.627400  0.907600  1.0  -0.1033
  C  C279  1  0.410100  0.532400  0.017500  1.0  0.7087
  C  C280  1  0.188700  0.422200  0.987900  1.0  -0.0463
  C  C281  1  0.311600  0.434800  0.022800  1.0  -0.0419
  C  C282  1  0.231900  0.468500  0.981800  1.0  -0.0896
  C  C283  1  0.342700  0.525100  0.994800  1.0  -0.049
  C  C284  1  0.269800  0.392300  0.027500  1.0  -0.1087
  C  C285  1  0.295900  0.477200  0.999900  1.0  0.0524
  C  C286  1  0.205900  0.385400  0.009300  1.0  -0.0972
  C  C287  1  0.215000  0.508700  0.956700  1.0  -0.1119
  C  C288  1  0.149300  0.503900  0.939400  1.0  0.7439
  C  C289  1  0.032200  0.093300  0.857100  1.0  -0.1047
  C  C290  1  0.050500  0.103900  0.811400  1.0  0.0203
  C  C291  1  0.040600  0.149800  0.910400  1.0  -0.1266
  C  C292  1  0.072200  0.211000  0.920400  1.0  -0.0705
  C  C293  1  0.081900  0.171000  0.825300  1.0  -0.1403
  C  C294  1  0.092400  0.219800  0.879400  1.0  -0.104
  C  C295  1  0.982500  0.014900  0.892600  1.0  0.7086
  C  C296  1  0.012100  0.934300  0.700800  1.0  -0.0473
  C  C297  1  0.977200  0.912000  0.788800  1.0  -0.0406
  C  C298  1  0.018200  0.986700  0.750100  1.0  -0.0917
  C  C299  1  0.005200  0.030300  0.847900  1.0  -0.0509
  C  C300  1  0.972500  0.864800  0.742300  1.0  -0.1068
  C  C301  1  0.000100  0.977300  0.796000  1.0  0.0518
  C  C302  1  0.990700  0.876100  0.696600  1.0  -0.098
  C  C303  1  0.043300  0.052000  0.758300  1.0  -0.1135
  C  C304  1  0.060600  0.064500  0.709900  1.0  0.746
  C  C305  1  0.467800  0.324900  0.061100  1.0  -0.1057
  C  C306  1  0.449500  0.260900  0.053400  1.0  0.0224
  C  C307  1  0.459400  0.369800  0.109200  1.0  -0.1277
  C  C308  1  0.427800  0.348200  0.138800  1.0  -0.0721
  C  C309  1  0.418100  0.243400  0.089100  1.0  -0.1393
  C  C310  1  0.407600  0.287000  0.127400  1.0  -0.1053
  C  C311  1  0.517500  0.410100  0.032400  1.0  0.7081
  C  C312  1  0.487900  0.188700  0.922200  1.0  -0.0496
  C  C313  1  0.522800  0.311600  0.934800  1.0  -0.0443
  C  C314  1  0.481800  0.231900  0.968500  1.0  -0.0896
  C  C315  1  0.494800  0.342700  0.025100  1.0  -0.0503
  C  C316  1  0.527500  0.269800  0.892300  1.0  -0.1038
  C  C317  1  0.499900  0.295900  0.977200  1.0  0.0522
  C  C318  1  0.509300  0.205900  0.885400  1.0  -0.0967
  C  C319  1  0.456700  0.215000  0.008700  1.0  -0.1109
  C  C320  1  0.439400  0.149300  0.003900  1.0  0.746
  C  C321  1  0.736200  0.175100  0.642900  1.0  -0.1052
  C  C322  1  0.792500  0.239100  0.688600  1.0  0.0207
  C  C323  1  0.739400  0.130200  0.589600  1.0  -0.1297
  C  C324  1  0.790600  0.151800  0.579600  1.0  -0.0716
  C  C325  1  0.845700  0.256600  0.674700  1.0  -0.1403
  C  C326  1  0.840400  0.213000  0.620600  1.0  -0.1026
  C  C327  1  0.622300  0.089900  0.607400  1.0  0.7082
  C  C328  1  0.733500  0.311300  0.799200  1.0  -0.0492
  C  C329  1  0.623200  0.188400  0.711200  1.0  -0.0433
  C  C330  1  0.736600  0.268100  0.749900  1.0  -0.0912
  C  C331  1  0.682400  0.157300  0.652100  1.0  -0.0498
  C  C332  1  0.622500  0.230200  0.757700  1.0  -0.1102
  C  C333  1  0.681300  0.204100  0.704000  1.0  0.0522
  C  C334  1  0.679500  0.294100  0.803400  1.0  -0.0969
  C  C335  1  0.793700  0.285000  0.741700  1.0  -0.1136
  C  C336  1  0.854600  0.350700  0.790100  1.0  0.7451
  C  C337  1  0.763800  0.406700  0.438900  1.0  -0.1057
  C  C338  1  0.707500  0.396100  0.446600  1.0  0.0207
  C  C339  1  0.760600  0.350200  0.390800  1.0  -0.129
  C  C340  1  0.709400  0.289000  0.361200  1.0  -0.073
  C  C341  1  0.654300  0.329000  0.410900  1.0  -0.1406
  C  C342  1  0.659600  0.280200  0.372600  1.0  -0.1059
  C  C343  1  0.877700  0.485100  0.467600  1.0  0.707
  C  C344  1  0.766500  0.565700  0.577800  1.0  -0.0459
  C  C345  1  0.876800  0.588000  0.565200  1.0  -0.0423
  C  C346  1  0.763400  0.513300  0.531500  1.0  -0.0899
  C  C347  1  0.817600  0.469700  0.474900  1.0  -0.0505
  C  C348  1  0.877500  0.635200  0.607700  1.0  -0.1093
  C  C349  1  0.818700  0.522700  0.522800  1.0  0.0511
  C  C350  1  0.820500  0.623900  0.614600  1.0  -0.0966
  C  C351  1  0.706300  0.448000  0.491300  1.0  -0.1114
  C  C352  1  0.645400  0.435500  0.496100  1.0  0.7395
  C  C353  1  0.938900  0.763800  0.906700  1.0  -0.1051
  C  C354  1  0.946600  0.707500  0.896100  1.0  0.0196
  C  C355  1  0.890800  0.760600  0.850200  1.0  -0.1265
  C  C356  1  0.861200  0.709400  0.789000  1.0  -0.0711
  C  C357  1  0.910900  0.654300  0.829000  1.0  -0.1418
  C  C358  1  0.872600  0.659600  0.780200  1.0  -0.1036
  C  C359  1  0.967600  0.877700  0.985100  1.0  0.7089
  C  C360  1  0.077800  0.766500  0.065700  1.0  -0.0452
  C  C361  1  0.065200  0.876800  0.088000  1.0  -0.048
  C  C362  1  0.031500  0.763400  0.013300  1.0  -0.0913
  C  C363  1  0.974900  0.817600  0.969700  1.0  -0.0495
  C  C364  1  0.107700  0.877500  0.135200  1.0  -0.1075
  C  C365  1  0.022800  0.818700  0.022700  1.0  0.0534
  C  C366  1  0.114600  0.820500  0.123900  1.0  -0.0971
  C  C367  1  0.991300  0.706300  0.948000  1.0  -0.1131
  C  C368  1  0.996100  0.645400  0.935500  1.0  0.7445
  C  C369  1  0.142900  0.736200  0.675100  1.0  -0.1059
  C  C370  1  0.188600  0.792500  0.739100  1.0  0.0218
  C  C371  1  0.089600  0.739400  0.630200  1.0  -0.1274
  C  C372  1  0.079600  0.790600  0.651800  1.0  -0.0721
  C  C373  1  0.174700  0.845700  0.756600  1.0  -0.1413
  C  C374  1  0.120600  0.840400  0.713000  1.0  -0.1054
  C  C375  1  0.107400  0.622300  0.589900  1.0  0.7096
  C  C376  1  0.299200  0.733500  0.811300  1.0  -0.0464
  C  C377  1  0.211200  0.623200  0.688400  1.0  -0.0452
  C  C378  1  0.249900  0.736600  0.768100  1.0  -0.0916
  C  C379  1  0.152100  0.682400  0.657300  1.0  -0.0505
  C  C380  1  0.257700  0.622500  0.730200  1.0  -0.1121
  C  C381  1  0.204000  0.681300  0.704100  1.0  0.0516
  C  C382  1  0.303400  0.679500  0.794100  1.0  -0.0983
  C  C383  1  0.241700  0.793700  0.785000  1.0  -0.1108
  C  C384  1  0.290100  0.854600  0.850700  1.0  0.7452
  C  C385  1  0.561100  0.467800  0.824900  1.0  -0.1054
  C  C386  1  0.553400  0.449500  0.760900  1.0  0.0201
  C  C387  1  0.609200  0.459400  0.869800  1.0  -0.1278
  C  C388  1  0.638800  0.427800  0.848200  1.0  -0.0723
  C  C389  1  0.589100  0.418100  0.743400  1.0  -0.1393
  C  C390  1  0.627400  0.407600  0.787000  1.0  -0.1041
  C  C391  1  0.532400  0.517500  0.910100  1.0  0.7101
  C  C392  1  0.422200  0.487900  0.688700  1.0  -0.0461
  C  C393  1  0.434800  0.522800  0.811600  1.0  -0.0426
  C  C394  1  0.468500  0.481800  0.731900  1.0  -0.0906
  C  C395  1  0.525100  0.494800  0.842700  1.0  -0.0508
  C  C396  1  0.392300  0.527500  0.769800  1.0  -0.1095
  C  C397  1  0.477200  0.499900  0.795900  1.0  0.0531
  C  C398  1  0.385400  0.509300  0.705900  1.0  -0.0978
  C  C399  1  0.508700  0.456700  0.715000  1.0  -0.1133
  C  C400  1  0.503900  0.439400  0.649300  1.0  0.7443
  C  C401  1  0.357100  0.032200  0.593300  1.0  -0.1056
  C  C402  1  0.311400  0.050500  0.603900  1.0  0.0212
  C  C403  1  0.410400  0.040600  0.649800  1.0  -0.1262
  C  C404  1  0.420400  0.072200  0.711000  1.0  -0.0731
  C  C405  1  0.325300  0.081900  0.671000  1.0  -0.1407
  C  C406  1  0.379400  0.092400  0.719800  1.0  -0.1011
  C  C407  1  0.392600  0.982500  0.514900  1.0  0.7076
  C  C408  1  0.200800  0.012100  0.434300  1.0  -0.0469
  C  C409  1  0.288800  0.977200  0.412000  1.0  -0.0439
  C  C410  1  0.250100  0.018200  0.486700  1.0  -0.0913
  C  C411  1  0.347900  0.005200  0.530300  1.0  -0.0505
  C  C412  1  0.242300  0.972500  0.364800  1.0  -0.108
  C  C413  1  0.296000  0.000100  0.477300  1.0  0.0503
  C  C414  1  0.196600  0.990700  0.376100  1.0  -0.0969
  C  C415  1  0.258300  0.043300  0.552000  1.0  -0.1127
  C  C416  1  0.209900  0.060600  0.564500  1.0  0.7415
  C  C417  1  0.438900  0.906700  0.763800  1.0  -0.1049
  C  C418  1  0.446600  0.896100  0.707500  1.0  0.0199
  C  C419  1  0.390800  0.850200  0.760600  1.0  -0.1266
  C  C420  1  0.361200  0.789000  0.709400  1.0  -0.071
  C  C421  1  0.410900  0.829000  0.654300  1.0  -0.1409
  C  C422  1  0.372600  0.780200  0.659600  1.0  -0.106
  C  C423  1  0.467600  0.985100  0.877700  1.0  0.7087
  C  C424  1  0.577800  0.065700  0.766500  1.0  -0.0468
  C  C425  1  0.565200  0.088000  0.876800  1.0  -0.0403
  C  C426  1  0.531500  0.013300  0.763400  1.0  -0.0914
  C  C427  1  0.474900  0.969700  0.817600  1.0  -0.0514
  C  C428  1  0.607700  0.135200  0.877500  1.0  -0.107
  C  C429  1  0.522800  0.022700  0.818700  1.0  0.0516
  C  C430  1  0.614600  0.123900  0.820500  1.0  -0.0974
  C  C431  1  0.491300  0.948000  0.706300  1.0  -0.1126
  C  C432  1  0.496100  0.935500  0.645400  1.0  0.7446
  C  C433  1  0.642900  0.675100  0.736200  1.0  -0.1052
  C  C434  1  0.688600  0.739100  0.792500  1.0  0.0226
  C  C435  1  0.589600  0.630200  0.739400  1.0  -0.1282
  C  C436  1  0.579600  0.651800  0.790600  1.0  -0.0725
  C  C437  1  0.674700  0.756600  0.845700  1.0  -0.1397
  C  C438  1  0.620600  0.713000  0.840400  1.0  -0.1051
  C  C439  1  0.607400  0.589900  0.622300  1.0  0.7081
  C  C440  1  0.799200  0.811300  0.733500  1.0  -0.0485
  C  C441  1  0.711200  0.688400  0.623200  1.0  -0.0435
  C  C442  1  0.749900  0.768100  0.736600  1.0  -0.0894
  C  C443  1  0.652100  0.657300  0.682400  1.0  -0.0507
  C  C444  1  0.757700  0.730200  0.622500  1.0  -0.1039
  C  C445  1  0.704000  0.704100  0.681300  1.0  0.0519
  C  C446  1  0.803400  0.794100  0.679500  1.0  -0.0963
  C  C447  1  0.741700  0.785000  0.793700  1.0  -0.1112
  C  C448  1  0.790100  0.850700  0.854600  1.0  0.746
  C  C449  1  0.061100  0.824900  0.467800  1.0  -0.1057
  C  C450  1  0.053400  0.760900  0.449500  1.0  0.0203
  C  C451  1  0.109200  0.869800  0.459400  1.0  -0.1283
  C  C452  1  0.138800  0.848200  0.427800  1.0  -0.0706
  C  C453  1  0.089100  0.743400  0.418100  1.0  -0.1396
  C  C454  1  0.127400  0.787000  0.407600  1.0  -0.1029
  C  C455  1  0.032400  0.910100  0.517500  1.0  0.7082
  C  C456  1  0.922200  0.688700  0.487900  1.0  -0.0496
  C  C457  1  0.934800  0.811600  0.522800  1.0  -0.0436
  C  C458  1  0.968500  0.731900  0.481800  1.0  -0.0914
  C  C459  1  0.025100  0.842700  0.494800  1.0  -0.0493
  C  C460  1  0.892300  0.769800  0.527500  1.0  -0.1099
  C  C461  1  0.977200  0.795900  0.499900  1.0  0.053
  C  C462  1  0.885400  0.705900  0.509300  1.0  -0.0976
  C  C463  1  0.008700  0.715000  0.456700  1.0  -0.1135
  C  C464  1  0.003900  0.649300  0.439400  1.0  0.744
  C  C465  1  0.857100  0.593300  0.032200  1.0  -0.1054
  C  C466  1  0.811400  0.603900  0.050500  1.0  0.021
  C  C467  1  0.910400  0.649800  0.040600  1.0  -0.1291
  C  C468  1  0.920400  0.711000  0.072200  1.0  -0.0727
  C  C469  1  0.825300  0.671000  0.081900  1.0  -0.1405
  C  C470  1  0.879400  0.719800  0.092400  1.0  -0.1038
  C  C471  1  0.892600  0.514900  0.982500  1.0  0.7069
  C  C472  1  0.700800  0.434300  0.012100  1.0  -0.046
  C  C473  1  0.788800  0.412000  0.977200  1.0  -0.0424
  C  C474  1  0.750100  0.486700  0.018200  1.0  -0.0905
  C  C475  1  0.847900  0.530300  0.005200  1.0  -0.05
  C  C476  1  0.742300  0.364800  0.972500  1.0  -0.1092
  C  C477  1  0.796000  0.477300  0.000100  1.0  0.0515
  C  C478  1  0.696600  0.376100  0.990700  1.0  -0.0973
  C  C479  1  0.758300  0.552000  0.043300  1.0  -0.1124
  C  C480  1  0.709900  0.564500  0.060600  1.0  0.7399
  C  C481  1  0.675100  0.236200  0.142900  1.0  -0.1051
  C  C482  1  0.739100  0.292500  0.188600  1.0  0.0199
  C  C483  1  0.630200  0.239400  0.089600  1.0  -0.1267
  C  C484  1  0.651800  0.290600  0.079600  1.0  -0.0716
  C  C485  1  0.756600  0.345700  0.174700  1.0  -0.1422
  C  C486  1  0.713000  0.340400  0.120600  1.0  -0.1026
  C  C487  1  0.589900  0.122300  0.107400  1.0  0.7089
  C  C488  1  0.811300  0.233500  0.299200  1.0  -0.0449
  C  C489  1  0.688400  0.123200  0.211200  1.0  -0.0485
  C  C490  1  0.768100  0.236600  0.249900  1.0  -0.0912
  C  C491  1  0.657300  0.182400  0.152100  1.0  -0.0498
  C  C492  1  0.730200  0.122500  0.257700  1.0  -0.1082
  C  C493  1  0.704100  0.181300  0.204000  1.0  0.0529
  C  C494  1  0.794100  0.179500  0.303400  1.0  -0.0972
  C  C495  1  0.785000  0.293700  0.241700  1.0  -0.1131
  C  C496  1  0.850700  0.354600  0.290100  1.0  0.7443
  C  C497  1  0.906700  0.263800  0.938900  1.0  -0.1058
  C  C498  1  0.896100  0.207500  0.946600  1.0  0.0215
  C  C499  1  0.850200  0.260600  0.890800  1.0  -0.1271
  C  C500  1  0.789000  0.209400  0.861200  1.0  -0.0717
  C  C501  1  0.829000  0.154300  0.910900  1.0  -0.1414
  C  C502  1  0.780200  0.159600  0.872600  1.0  -0.1066
  C  C503  1  0.985100  0.377700  0.967600  1.0  0.7093
  C  C504  1  0.065700  0.266500  0.077800  1.0  -0.047
  C  C505  1  0.088000  0.376800  0.065200  1.0  -0.0457
  C  C506  1  0.013300  0.263400  0.031500  1.0  -0.0911
  C  C507  1  0.969700  0.317600  0.974900  1.0  -0.0502
  C  C508  1  0.135200  0.377500  0.107700  1.0  -0.1111
  C  C509  1  0.022700  0.318700  0.022800  1.0  0.052
  C  C510  1  0.123900  0.320500  0.114600  1.0  -0.0981
  C  C511  1  0.948000  0.206300  0.991300  1.0  -0.1103
  C  C512  1  0.935500  0.145400  0.996100  1.0  0.7459
  C  C513  1  0.593300  0.532200  0.357100  1.0  -0.1055
  C  C514  1  0.603900  0.550500  0.311400  1.0  0.0203
  C  C515  1  0.649800  0.540600  0.410400  1.0  -0.1277
  C  C516  1  0.711000  0.572200  0.420400  1.0  -0.0728
  C  C517  1  0.671000  0.581900  0.325300  1.0  -0.1393
  C  C518  1  0.719800  0.592400  0.379400  1.0  -0.1033
  C  C519  1  0.514900  0.482500  0.392600  1.0  0.7093
  C  C520  1  0.434300  0.512100  0.200800  1.0  -0.0479
  C  C521  1  0.412000  0.477200  0.288800  1.0  -0.0431
  C  C522  1  0.486700  0.518200  0.250100  1.0  -0.0904
  C  C523  1  0.530300  0.505200  0.347900  1.0  -0.0508
  C  C524  1  0.364800  0.472500  0.242300  1.0  -0.1102
  C  C525  1  0.477300  0.500100  0.296000  1.0  0.0533
  C  C526  1  0.376100  0.490700  0.196600  1.0  -0.0971
  C  C527  1  0.552000  0.543300  0.258300  1.0  -0.1135
  C  C528  1  0.564500  0.560600  0.209900  1.0  0.7455
  C  C529  1  0.824900  0.967800  0.561100  1.0  -0.1055
  C  C530  1  0.760900  0.949500  0.553400  1.0  0.0213
  C  C531  1  0.869800  0.959400  0.609200  1.0  -0.1256
  C  C532  1  0.848200  0.927800  0.638800  1.0  -0.0728
  C  C533  1  0.743400  0.918100  0.589100  1.0  -0.1404
  C  C534  1  0.787000  0.907600  0.627400  1.0  -0.1016
  C  C535  1  0.910100  0.017500  0.532400  1.0  0.7084
  C  C536  1  0.688700  0.987900  0.422200  1.0  -0.0467
  C  C537  1  0.811600  0.022800  0.434800  1.0  -0.044
  C  C538  1  0.731900  0.981800  0.468500  1.0  -0.091
  C  C539  1  0.842700  0.994800  0.525100  1.0  -0.0504
  C  C540  1  0.769800  0.027500  0.392300  1.0  -0.1072
  C  C541  1  0.795900  0.999900  0.477200  1.0  0.05
  C  C542  1  0.705900  0.009300  0.385400  1.0  -0.0981
  C  C543  1  0.715000  0.956700  0.508700  1.0  -0.1122
  C  C544  1  0.649300  0.939400  0.503900  1.0  0.7417
  C  C545  1  0.532200  0.857100  0.093300  1.0  -0.1042
  C  C546  1  0.550500  0.811400  0.103900  1.0  0.0223
  C  C547  1  0.540600  0.910400  0.149800  1.0  -0.1255
  C  C548  1  0.572200  0.920400  0.211000  1.0  -0.0731
  C  C549  1  0.581900  0.825300  0.171000  1.0  -0.1392
  C  C550  1  0.592400  0.879400  0.219800  1.0  -0.1035
  C  C551  1  0.482500  0.892600  0.014900  1.0  0.7089
  C  C552  1  0.512100  0.700800  0.934300  1.0  -0.0474
  C  C553  1  0.477200  0.788800  0.912000  1.0  -0.0452
  C  C554  1  0.518200  0.750100  0.986700  1.0  -0.0912
  C  C555  1  0.505200  0.847900  0.030300  1.0  -0.0501
  C  C556  1  0.472500  0.742300  0.864800  1.0  -0.1077
  C  C557  1  0.500100  0.796000  0.977300  1.0  0.0506
  C  C558  1  0.490700  0.696600  0.876100  1.0  -0.0967
  C  C559  1  0.543300  0.758300  0.052000  1.0  -0.1124
  C  C560  1  0.560600  0.709900  0.064500  1.0  0.7431
  C  C561  1  0.967800  0.061100  0.324900  1.0  -0.1052
  C  C562  1  0.949500  0.053400  0.260900  1.0  0.0209
  C  C563  1  0.959400  0.109200  0.369800  1.0  -0.1286
  C  C564  1  0.927800  0.138800  0.348200  1.0  -0.0703
  C  C565  1  0.918100  0.089100  0.243400  1.0  -0.1384
  C  C566  1  0.907600  0.127400  0.287000  1.0  -0.1038
  C  C567  1  0.017500  0.032400  0.410100  1.0  0.7094
  C  C568  1  0.987900  0.922200  0.188700  1.0  -0.0484
  C  C569  1  0.022800  0.934800  0.311600  1.0  -0.0434
  C  C570  1  0.981800  0.968500  0.231900  1.0  -0.0915
  C  C571  1  0.994800  0.025100  0.342700  1.0  -0.0512
  C  C572  1  0.027500  0.892300  0.269800  1.0  -0.1096
  C  C573  1  0.999900  0.977200  0.295900  1.0  0.0506
  C  C574  1  0.009300  0.885400  0.205900  1.0  -0.0984
  C  C575  1  0.956700  0.008700  0.215000  1.0  -0.1111
  C  C576  1  0.939400  0.003900  0.149300  1.0  0.7443
  C  C577  1  0.236200  0.642900  0.175100  1.0  -0.1053
  C  C578  1  0.292500  0.688600  0.239100  1.0  0.0216
  C  C579  1  0.239400  0.589600  0.130200  1.0  -0.1282
  C  C580  1  0.290600  0.579600  0.151800  1.0  -0.0716
  C  C581  1  0.345700  0.674700  0.256600  1.0  -0.139
  C  C582  1  0.340400  0.620600  0.213000  1.0  -0.1028
  C  C583  1  0.122300  0.607400  0.089900  1.0  0.7098
  C  C584  1  0.233500  0.799200  0.311300  1.0  -0.0472
  C  C585  1  0.123200  0.711200  0.188400  1.0  -0.0441
  C  C586  1  0.236600  0.749900  0.268100  1.0  -0.0909
  C  C587  1  0.182400  0.652100  0.157300  1.0  -0.0504
  C  C588  1  0.122500  0.757700  0.230200  1.0  -0.113
  C  C589  1  0.181300  0.704000  0.204100  1.0  0.0537
  C  C590  1  0.179500  0.803400  0.294100  1.0  -0.0975
  C  C591  1  0.293700  0.741700  0.285000  1.0  -0.1106
  C  C592  1  0.354600  0.790100  0.350700  1.0  0.7451
  C  C593  1  0.263800  0.438900  0.406700  1.0  -0.1057
  C  C594  1  0.207500  0.446600  0.396100  1.0  0.0213
  C  C595  1  0.260600  0.390800  0.350200  1.0  -0.1284
  C  C596  1  0.209400  0.361200  0.289000  1.0  -0.0732
  C  C597  1  0.154300  0.410900  0.329000  1.0  -0.1417
  C  C598  1  0.159600  0.372600  0.280200  1.0  -0.1039
  C  C599  1  0.377700  0.467600  0.485100  1.0  0.7079
  C  C600  1  0.266500  0.577800  0.565700  1.0  -0.0463
  C  C601  1  0.376800  0.565200  0.588000  1.0  -0.0423
  C  C602  1  0.263400  0.531500  0.513300  1.0  -0.0899
  C  C603  1  0.317600  0.474900  0.469700  1.0  -0.0489
  C  C604  1  0.377500  0.607700  0.635200  1.0  -0.107
  C  C605  1  0.318700  0.522800  0.522700  1.0  0.0527
  C  C606  1  0.320500  0.614600  0.623900  1.0  -0.0963
  C  C607  1  0.206300  0.491300  0.448000  1.0  -0.112
  C  C608  1  0.145400  0.496100  0.435500  1.0  0.744
  O  O609  1  0.051360  0.130050  0.116310  1.0  -0.6014
  O  O610  1  0.401540  0.297450  0.350250  1.0  -0.6153
  O  O611  1  0.351100  0.319600  0.407700  1.0  -0.6018
  O  O612  1  0.075640  0.051890  0.087130  1.0  -0.5265
  O  O613  1  0.513740  0.935050  0.383690  1.0  -0.6023
  O  O614  1  0.447200  0.051290  0.149750  1.0  -0.6176
  O  O615  1  0.411900  0.943400  0.092300  1.0  -0.6026
  O  O616  1  0.464760  0.988510  0.412870  1.0  -0.5321
  O  O617  1  0.986260  0.369950  0.421310  1.0  -0.6032
  O  O618  1  0.052800  0.202550  0.604090  1.0  -0.6169
  O  O619  1  0.088100  0.180400  0.531500  1.0  -0.6003
  O  O620  1  0.035240  0.448110  0.523750  1.0  -0.5353
  O  O621  1  0.448640  0.564950  0.078690  1.0  -0.6009
  O  O622  1  0.098460  0.448710  0.895910  1.0  -0.6148
  O  O623  1  0.148900  0.556600  0.968500  1.0  -0.6024
  O  O624  1  0.424360  0.511490  0.976250  1.0  -0.5324
  O  O625  1  0.921310  0.986260  0.869950  1.0  -0.6032
  O  O626  1  0.104090  0.052800  0.702550  1.0  -0.613
  O  O627  1  0.031500  0.088100  0.680400  1.0  -0.5998
  O  O628  1  0.023750  0.035240  0.948110  1.0  -0.533
  O  O629  1  0.578690  0.448640  0.064950  1.0  -0.6009
  O  O630  1  0.395910  0.098460  0.948710  1.0  -0.615
  O  O631  1  0.468500  0.148900  0.056600  1.0  -0.6029
  O  O632  1  0.476250  0.424360  0.011490  1.0  -0.5341
  O  O633  1  0.616310  0.051360  0.630050  1.0  -0.6012
  O  O634  1  0.850250  0.401540  0.797450  1.0  -0.6165
  O  O635  1  0.907700  0.351100  0.819600  1.0  -0.602
  O  O636  1  0.587130  0.075640  0.551890  1.0  -0.5228
  O  O637  1  0.883690  0.513740  0.435050  1.0  -0.6027
  O  O638  1  0.649750  0.447200  0.551290  1.0  -0.6146
  O  O639  1  0.592300  0.411900  0.443400  1.0  -0.6004
  O  O640  1  0.912870  0.464760  0.488510  1.0  -0.5311
  O  O641  1  0.935050  0.883690  0.013740  1.0  -0.6015
  O  O642  1  0.051290  0.649750  0.947200  1.0  -0.6148
  O  O643  1  0.943400  0.592300  0.911900  1.0  -0.6023
  O  O644  1  0.988510  0.912870  0.964760  1.0  -0.5329
  O  O645  1  0.130050  0.616310  0.551360  1.0  -0.6019
  O  O646  1  0.297450  0.850250  0.901540  1.0  -0.617
  O  O647  1  0.319600  0.907700  0.851100  1.0  -0.6025
  O  O648  1  0.051890  0.587130  0.575640  1.0  -0.5227
  O  O649  1  0.564950  0.578690  0.948640  1.0  -0.6022
  O  O650  1  0.448710  0.395910  0.598460  1.0  -0.6143
  O  O651  1  0.556600  0.468500  0.648900  1.0  -0.6006
  O  O652  1  0.511490  0.476250  0.924360  1.0  -0.533
  O  O653  1  0.369950  0.921310  0.486260  1.0  -0.6008
  O  O654  1  0.202550  0.104090  0.552800  1.0  -0.6155
  O  O655  1  0.180400  0.031500  0.588100  1.0  -0.603
  O  O656  1  0.448110  0.023750  0.535240  1.0  -0.5328
  O  O657  1  0.435050  0.013740  0.883690  1.0  -0.605
  O  O658  1  0.551290  0.947200  0.649750  1.0  -0.6113
  O  O659  1  0.443400  0.911900  0.592300  1.0  -0.6007
  O  O660  1  0.488510  0.964760  0.912870  1.0  -0.5313
  O  O661  1  0.630050  0.551360  0.616310  1.0  -0.6026
  O  O662  1  0.797450  0.901540  0.850250  1.0  -0.6152
  O  O663  1  0.819600  0.851100  0.907700  1.0  -0.6031
  O  O664  1  0.551890  0.575640  0.587130  1.0  -0.5236
  O  O665  1  0.064950  0.948640  0.578690  1.0  -0.603
  O  O666  1  0.948710  0.598460  0.395910  1.0  -0.6127
  O  O667  1  0.056600  0.648900  0.468500  1.0  -0.6016
  O  O668  1  0.011490  0.924360  0.476250  1.0  -0.5333
  O  O669  1  0.869950  0.486260  0.921310  1.0  -0.6045
  O  O670  1  0.702550  0.552800  0.104090  1.0  -0.6133
  O  O671  1  0.680400  0.588100  0.031500  1.0  -0.5995
  O  O672  1  0.948110  0.535240  0.023750  1.0  -0.5327
  O  O673  1  0.551360  0.116310  0.130050  1.0  -0.6031
  O  O674  1  0.901540  0.350250  0.297450  1.0  -0.6138
  O  O675  1  0.851100  0.407700  0.319600  1.0  -0.6021
  O  O676  1  0.575640  0.087130  0.051890  1.0  -0.5238
  O  O677  1  0.013740  0.383690  0.935050  1.0  -0.6031
  O  O678  1  0.947200  0.149750  0.051290  1.0  -0.6154
  O  O679  1  0.911900  0.092300  0.943400  1.0  -0.6024
  O  O680  1  0.964760  0.412870  0.988510  1.0  -0.5317
  O  O681  1  0.486260  0.421310  0.369950  1.0  -0.6047
  O  O682  1  0.552800  0.604090  0.202550  1.0  -0.6133
  O  O683  1  0.588100  0.531500  0.180400  1.0  -0.6003
  O  O684  1  0.535240  0.523750  0.448110  1.0  -0.5336
  O  O685  1  0.948640  0.078690  0.564950  1.0  -0.6015
  O  O686  1  0.598460  0.895910  0.448710  1.0  -0.614
  O  O687  1  0.648900  0.968500  0.556600  1.0  -0.6025
  O  O688  1  0.924360  0.976250  0.511490  1.0  -0.5329
  O  O689  1  0.421310  0.869950  0.986260  1.0  -0.6026
  O  O690  1  0.604090  0.702550  0.052800  1.0  -0.6139
  O  O691  1  0.531500  0.680400  0.088100  1.0  -0.6024
  O  O692  1  0.523750  0.948110  0.035240  1.0  -0.5354
  O  O693  1  0.078690  0.064950  0.448640  1.0  -0.6035
  O  O694  1  0.895910  0.948710  0.098460  1.0  -0.6149
  O  O695  1  0.968500  0.056600  0.148900  1.0  -0.6031
  O  O696  1  0.976250  0.011490  0.424360  1.0  -0.533
  O  O697  1  0.116310  0.630050  0.051360  1.0  -0.6048
  O  O698  1  0.350250  0.797450  0.401540  1.0  -0.6175
  O  O699  1  0.407700  0.819600  0.351100  1.0  -0.6006
  O  O700  1  0.087130  0.551890  0.075640  1.0  -0.5238
  O  O701  1  0.383690  0.435050  0.513740  1.0  -0.6026
  O  O702  1  0.149750  0.551290  0.447200  1.0  -0.6164
  O  O703  1  0.092300  0.443400  0.411900  1.0  -0.6026
  O  O704  1  0.412870  0.488510  0.464760  1.0  -0.5317
  O  O705  1  0.916860  0.000000  0.000000  1.0  -1.1759
  O  O706  1  0.500000  0.916860  0.500000  1.0  -1.1761
  O  O707  1  0.000000  0.500000  0.416860  1.0  -1.1752
  O  O708  1  0.583140  0.583140  0.083140  1.0  -1.1751
  O  O709  1  0.416860  0.000000  0.000000  1.0  -1.1759
  O  O710  1  0.500000  0.416860  0.500000  1.0  -1.1761
  O  O711  1  0.083140  0.083140  0.583140  1.0  -1.1751
  O  O712  1  0.000000  0.500000  0.916860  1.0  -1.1752
