# generated using pymatgen
data_CuH17C26O5
_symmetry_space_group_name_H-M   'P 1'
_cell_length_a   24.54670000
_cell_length_b   24.54670000
_cell_length_c   40.14030000
_cell_angle_alpha   72.19600000
_cell_angle_beta   72.19600000
_cell_angle_gamma   90.00000000
_symmetry_Int_Tables_number   1
_chemical_formula_structural   CuH17C26O5
_chemical_formula_sum   'Cu16 H272 C416 O80'
_cell_volume   21808.07427743
_cell_formula_units_Z   16
loop_
 _symmetry_equiv_pos_site_id
 _symmetry_equiv_pos_as_xyz
  1  'x, y, z'
loop_
 _atom_site_type_symbol
 _atom_site_label
 _atom_site_symmetry_multiplicity
 _atom_site_fract_x
 _atom_site_fract_y
 _atom_site_fract_z
 _atom_site_occupancy
 _atom_site_charge
  Cu  Cu1  1  0.235880  0.561590  0.948100  1.0  0.9372
  Cu  Cu2  1  0.209770  0.964760  0.000240  1.0  0.9432
  Cu  Cu3  1  0.316020  0.490310  0.948100  1.0  0.9352
  Cu  Cu4  1  0.289990  0.035000  0.000240  1.0  0.9443
  Cu  Cu5  1  0.561590  0.316020  0.448100  1.0  0.9388
  Cu  Cu6  1  0.964760  0.289990  0.500240  1.0  0.9451
  Cu  Cu7  1  0.490310  0.235880  0.448100  1.0  0.9379
  Cu  Cu8  1  0.035000  0.209770  0.500240  1.0  0.9434
  Cu  Cu9  1  0.764120  0.438410  0.051900  1.0  0.9352
  Cu  Cu10  1  0.790230  0.035240  0.999760  1.0  0.9436
  Cu  Cu11  1  0.683980  0.509690  0.051900  1.0  0.9363
  Cu  Cu12  1  0.710010  0.965000  0.999760  1.0  0.9439
  Cu  Cu13  1  0.438410  0.683980  0.551900  1.0  0.9381
  Cu  Cu14  1  0.035240  0.710010  0.499760  1.0  0.9434
  Cu  Cu15  1  0.509690  0.764120  0.551900  1.0  0.9382
  Cu  Cu16  1  0.965000  0.790230  0.499760  1.0  0.9449
  H  H17  1  0.137500  0.147300  0.864600  1.0  0.1255
  H  H18  1  0.156100  0.075500  0.912600  1.0  0.1163
  H  H19  1  0.279000  0.185600  0.912800  1.0  0.1158
  H  H20  1  0.260300  0.257300  0.865000  1.0  0.1153
  H  H21  1  0.281800  0.396200  0.817800  1.0  0.1053
  H  H22  1  0.308600  0.431900  0.859000  1.0  0.1157
  H  H23  1  0.167700  0.519300  0.871400  1.0  0.1183
  H  H24  1  0.140900  0.483700  0.830200  1.0  0.122
  H  H25  1  0.179200  0.494000  0.762400  1.0  0.116
  H  H26  1  0.145700  0.271200  0.756200  1.0  0.1137
  H  H27  1  0.169000  0.199800  0.803400  1.0  0.1348
  H  H28  1  0.209400  0.321300  0.841400  1.0  0.113
  H  H29  1  0.450000  0.372600  0.535000  1.0  0.118
  H  H30  1  0.379400  0.386900  0.585000  1.0  0.1248
  H  H31  1  0.267200  0.271200  0.579600  1.0  0.1236
  H  H32  1  0.338000  0.257100  0.529400  1.0  0.1166
  H  H33  1  0.134900  0.249500  0.628400  1.0  0.1166
  H  H34  1  0.102200  0.224400  0.585600  1.0  0.1117
  H  H35  1  0.008000  0.360600  0.577000  1.0  0.116
  H  H36  1  0.040700  0.385700  0.619800  1.0  0.118
  H  H37  1  0.032200  0.344900  0.685600  1.0  0.1148
  H  H38  1  0.258100  0.377800  0.691600  1.0  0.1081
  H  H39  1  0.327000  0.355100  0.646000  1.0  0.1298
  H  H40  1  0.205100  0.328600  0.603000  1.0  0.1123
  H  H41  1  0.977500  0.331100  0.742000  1.0  0.0962
  H  H42  1  0.978500  0.398000  0.725200  1.0  0.1207
  H  H43  1  0.907700  0.362500  0.786200  1.0  0.1281
  H  H44  1  0.953900  0.407400  0.785400  1.0  0.1332
  H  H45  1  0.957000  0.341400  0.802800  1.0  0.135
  H  H46  1  0.211900  0.545200  0.700000  1.0  0.1165
  H  H47  1  0.150200  0.553400  0.722000  1.0  0.1082
  H  H48  1  0.189600  0.628600  0.667400  1.0  0.1116
  H  H49  1  0.131200  0.600200  0.669000  1.0  0.1278
  H  H50  1  0.189600  0.586400  0.645000  1.0  0.1321
  H  H51  1  0.497900  0.988100  0.864600  1.0  0.1263
  H  H52  1  0.431300  0.011900  0.912600  1.0  0.1173
  H  H53  1  0.308200  0.901600  0.912800  1.0  0.1156
  H  H54  1  0.374700  0.877700  0.865000  1.0  0.1138
  H  H55  1  0.400400  0.786000  0.817800  1.0  0.1067
  H  H56  1  0.332400  0.709100  0.859000  1.0  0.1153
  H  H57  1  0.460900  0.609300  0.871400  1.0  0.1185
  H  H58  1  0.528900  0.686100  0.830200  1.0  0.1216
  H  H59  1  0.558400  0.743600  0.762400  1.0  0.1163
  H  H60  1  0.598100  0.972600  0.756200  1.0  0.114
  H  H61  1  0.527600  0.996800  0.803400  1.0  0.1345
  H  H62  1  0.449200  0.837300  0.841400  1.0  0.1119
  H  H63  1  0.515000  0.092400  0.535000  1.0  0.1173
  H  H64  1  0.535600  0.028100  0.585000  1.0  0.125
  H  H65  1  0.653200  0.149200  0.579600  1.0  0.1222
  H  H66  1  0.632600  0.213500  0.529400  1.0  0.1181
  H  H67  1  0.736700  0.122100  0.628400  1.0  0.1163
  H  H68  1  0.812200  0.190000  0.585600  1.0  0.1124
  H  H69  1  0.915000  0.062400  0.577000  1.0  0.1158
  H  H70  1  0.839500  0.994500  0.619800  1.0  0.1195
  H  H71  1  0.782200  0.969500  0.685600  1.0  0.1164
  H  H72  1  0.550300  0.930600  0.691600  1.0  0.1074
  H  H73  1  0.527000  0.998900  0.646000  1.0  0.1268
  H  H74  1  0.691900  0.068400  0.603000  1.0  0.1111
  H  H75  1  0.780500  0.926900  0.742000  1.0  0.0983
  H  H76  1  0.796300  0.876800  0.725200  1.0  0.1211
  H  H77  1  0.806100  0.851300  0.786200  1.0  0.1213
  H  H78  1  0.760700  0.807200  0.785400  1.0  0.1344
  H  H79  1  0.740200  0.855800  0.802800  1.0  0.134
  H  H80  1  0.588100  0.754800  0.700000  1.0  0.1104
  H  H81  1  0.627800  0.724600  0.722000  1.0  0.108
  H  H82  1  0.643000  0.704000  0.667400  1.0  0.1113
  H  H83  1  0.699800  0.730800  0.669000  1.0  0.1265
  H  H84  1  0.665400  0.768600  0.645000  1.0  0.1332
  H  H85  1  0.147300  0.497900  0.364600  1.0  0.1259
  H  H86  1  0.075500  0.431300  0.412600  1.0  0.1165
  H  H87  1  0.185600  0.308200  0.412800  1.0  0.1156
  H  H88  1  0.257300  0.374700  0.365000  1.0  0.1145
  H  H89  1  0.396200  0.400400  0.317800  1.0  0.1069
  H  H90  1  0.431900  0.332400  0.359000  1.0  0.1145
  H  H91  1  0.519300  0.460900  0.371400  1.0  0.1188
  H  H92  1  0.483700  0.528900  0.330200  1.0  0.122
  H  H93  1  0.494000  0.558400  0.262400  1.0  0.116
  H  H94  1  0.271200  0.598100  0.256200  1.0  0.1125
  H  H95  1  0.199800  0.527600  0.303400  1.0  0.1349
  H  H96  1  0.321300  0.449200  0.341400  1.0  0.1119
  H  H97  1  0.372600  0.515000  0.035000  1.0  0.1175
  H  H98  1  0.386900  0.535600  0.085000  1.0  0.1248
  H  H99  1  0.271200  0.653200  0.079600  1.0  0.1221
  H  H100  1  0.257100  0.632600  0.029400  1.0  0.1156
  H  H101  1  0.249500  0.736700  0.128400  1.0  0.1141
  H  H102  1  0.224400  0.812200  0.085600  1.0  0.1124
  H  H103  1  0.360600  0.915000  0.077000  1.0  0.116
  H  H104  1  0.385700  0.839500  0.119800  1.0  0.1181
  H  H105  1  0.344900  0.782200  0.185600  1.0  0.1139
  H  H106  1  0.377800  0.550300  0.191600  1.0  0.1077
  H  H107  1  0.355100  0.527000  0.146000  1.0  0.1288
  H  H108  1  0.328600  0.691900  0.103000  1.0  0.1103
  H  H109  1  0.331100  0.780500  0.242000  1.0  0.0994
  H  H110  1  0.398000  0.796300  0.225200  1.0  0.1191
  H  H111  1  0.362500  0.806100  0.286200  1.0  0.1305
  H  H112  1  0.407400  0.760700  0.285400  1.0  0.1296
  H  H113  1  0.341400  0.740200  0.302800  1.0  0.1348
  H  H114  1  0.545200  0.588100  0.200000  1.0  0.1094
  H  H115  1  0.553400  0.627800  0.222000  1.0  0.1084
  H  H116  1  0.628600  0.643000  0.167400  1.0  0.1097
  H  H117  1  0.600200  0.699800  0.169000  1.0  0.128
  H  H118  1  0.586400  0.665400  0.145000  1.0  0.1327
  H  H119  1  0.988100  0.137500  0.364600  1.0  0.1251
  H  H120  1  0.011900  0.156100  0.412600  1.0  0.1169
  H  H121  1  0.901600  0.279000  0.412800  1.0  0.1153
  H  H122  1  0.877700  0.260300  0.365000  1.0  0.1147
  H  H123  1  0.786000  0.281800  0.317800  1.0  0.1069
  H  H124  1  0.709100  0.308600  0.359000  1.0  0.1145
  H  H125  1  0.609300  0.167700  0.371400  1.0  0.1192
  H  H126  1  0.686100  0.140900  0.330200  1.0  0.1201
  H  H127  1  0.743600  0.179200  0.262400  1.0  0.1154
  H  H128  1  0.972600  0.145700  0.256200  1.0  0.1133
  H  H129  1  0.996800  0.169000  0.303400  1.0  0.1326
  H  H130  1  0.837300  0.209400  0.341400  1.0  0.1109
  H  H131  1  0.092400  0.450000  0.035000  1.0  0.1179
  H  H132  1  0.028100  0.379400  0.085000  1.0  0.1234
  H  H133  1  0.149200  0.267200  0.079600  1.0  0.1223
  H  H134  1  0.213500  0.338000  0.029400  1.0  0.1167
  H  H135  1  0.122100  0.134900  0.128400  1.0  0.1151
  H  H136  1  0.190000  0.102200  0.085600  1.0  0.1115
  H  H137  1  0.062400  0.008000  0.077000  1.0  0.1158
  H  H138  1  0.994500  0.040700  0.119800  1.0  0.12
  H  H139  1  0.969500  0.032200  0.185600  1.0  0.1137
  H  H140  1  0.930600  0.258100  0.191600  1.0  0.1065
  H  H141  1  0.998900  0.327000  0.146000  1.0  0.1248
  H  H142  1  0.068400  0.205100  0.103000  1.0  0.111
  H  H143  1  0.926900  0.977500  0.242000  1.0  0.0994
  H  H144  1  0.876800  0.978500  0.225200  1.0  0.1214
  H  H145  1  0.851300  0.907700  0.286200  1.0  0.1288
  H  H146  1  0.807200  0.953900  0.285400  1.0  0.1321
  H  H147  1  0.855800  0.957000  0.302800  1.0  0.1352
  H  H148  1  0.754800  0.211900  0.200000  1.0  0.1113
  H  H149  1  0.724600  0.150200  0.222000  1.0  0.1074
  H  H150  1  0.704000  0.189600  0.167400  1.0  0.1096
  H  H151  1  0.730800  0.131200  0.169000  1.0  0.1263
  H  H152  1  0.768600  0.189600  0.145000  1.0  0.1324
  H  H153  1  0.862500  0.852700  0.135400  1.0  0.1255
  H  H154  1  0.843900  0.924500  0.087400  1.0  0.1167
  H  H155  1  0.721000  0.814400  0.087200  1.0  0.1152
  H  H156  1  0.739700  0.742700  0.135000  1.0  0.1147
  H  H157  1  0.718200  0.603800  0.182200  1.0  0.1057
  H  H158  1  0.691400  0.568100  0.141000  1.0  0.1154
  H  H159  1  0.832300  0.480700  0.128600  1.0  0.1189
  H  H160  1  0.859100  0.516300  0.169800  1.0  0.1214
  H  H161  1  0.820800  0.506000  0.237600  1.0  0.1167
  H  H162  1  0.854300  0.728800  0.243800  1.0  0.1134
  H  H163  1  0.831000  0.800200  0.196600  1.0  0.1346
  H  H164  1  0.790600  0.678700  0.158600  1.0  0.1131
  H  H165  1  0.550000  0.627400  0.465000  1.0  0.1174
  H  H166  1  0.620600  0.613100  0.415000  1.0  0.1247
  H  H167  1  0.732800  0.728800  0.420400  1.0  0.1234
  H  H168  1  0.662000  0.742900  0.470600  1.0  0.1172
  H  H169  1  0.865100  0.750500  0.371600  1.0  0.1173
  H  H170  1  0.897800  0.775600  0.414400  1.0  0.1116
  H  H171  1  0.992000  0.639400  0.423000  1.0  0.1154
  H  H172  1  0.959300  0.614300  0.380200  1.0  0.1186
  H  H173  1  0.967800  0.655100  0.314400  1.0  0.1147
  H  H174  1  0.741900  0.622200  0.308400  1.0  0.108
  H  H175  1  0.673000  0.644900  0.354000  1.0  0.1309
  H  H176  1  0.794900  0.671400  0.397000  1.0  0.1128
  H  H177  1  0.022500  0.668900  0.258000  1.0  0.097
  H  H178  1  0.021500  0.602000  0.274800  1.0  0.1222
  H  H179  1  0.092300  0.637500  0.213800  1.0  0.1291
  H  H180  1  0.046100  0.592600  0.214600  1.0  0.1349
  H  H181  1  0.043000  0.658600  0.197200  1.0  0.136
  H  H182  1  0.788100  0.454800  0.300000  1.0  0.1169
  H  H183  1  0.849800  0.446600  0.278000  1.0  0.1075
  H  H184  1  0.810400  0.371400  0.332600  1.0  0.1115
  H  H185  1  0.868800  0.399800  0.331000  1.0  0.127
  H  H186  1  0.810400  0.413600  0.355000  1.0  0.133
  H  H187  1  0.502100  0.011900  0.135400  1.0  0.1265
  H  H188  1  0.568700  0.988100  0.087400  1.0  0.1171
  H  H189  1  0.691800  0.098400  0.087200  1.0  0.116
  H  H190  1  0.625300  0.122300  0.135000  1.0  0.1144
  H  H191  1  0.599600  0.214000  0.182200  1.0  0.107
  H  H192  1  0.667600  0.290900  0.141000  1.0  0.1154
  H  H193  1  0.539100  0.390700  0.128600  1.0  0.1192
  H  H194  1  0.471100  0.313900  0.169800  1.0  0.1223
  H  H195  1  0.441600  0.256400  0.237600  1.0  0.1156
  H  H196  1  0.401900  0.027400  0.243800  1.0  0.1146
  H  H197  1  0.472400  0.003200  0.196600  1.0  0.1341
  H  H198  1  0.550800  0.162700  0.158600  1.0  0.1115
  H  H199  1  0.485000  0.907600  0.465000  1.0  0.1176
  H  H200  1  0.464400  0.971900  0.415000  1.0  0.1255
  H  H201  1  0.346800  0.850800  0.420400  1.0  0.1225
  H  H202  1  0.367400  0.786500  0.470600  1.0  0.1173
  H  H203  1  0.263300  0.877900  0.371600  1.0  0.116
  H  H204  1  0.187800  0.810000  0.414400  1.0  0.1124
  H  H205  1  0.085000  0.937600  0.423000  1.0  0.1152
  H  H206  1  0.160500  0.005500  0.380200  1.0  0.1194
  H  H207  1  0.217800  0.030500  0.314400  1.0  0.1153
  H  H208  1  0.449700  0.069400  0.308400  1.0  0.1086
  H  H209  1  0.473000  0.001100  0.354000  1.0  0.126
  H  H210  1  0.308100  0.931600  0.397000  1.0  0.1114
  H  H211  1  0.219500  0.073100  0.258000  1.0  0.0946
  H  H212  1  0.203700  0.123200  0.274800  1.0  0.1194
  H  H213  1  0.193900  0.148700  0.213800  1.0  0.127
  H  H214  1  0.239300  0.192800  0.214600  1.0  0.1328
  H  H215  1  0.259800  0.144200  0.197200  1.0  0.1331
  H  H216  1  0.411900  0.245200  0.300000  1.0  0.1071
  H  H217  1  0.372200  0.275400  0.278000  1.0  0.1083
  H  H218  1  0.357000  0.296000  0.332600  1.0  0.1108
  H  H219  1  0.300200  0.269200  0.331000  1.0  0.1267
  H  H220  1  0.334600  0.231400  0.355000  1.0  0.1328
  H  H221  1  0.852700  0.502100  0.635400  1.0  0.1261
  H  H222  1  0.924500  0.568700  0.587400  1.0  0.1163
  H  H223  1  0.814400  0.691800  0.587200  1.0  0.1158
  H  H224  1  0.742700  0.625300  0.635000  1.0  0.1148
  H  H225  1  0.603800  0.599600  0.682200  1.0  0.1085
  H  H226  1  0.568100  0.667600  0.641000  1.0  0.1148
  H  H227  1  0.480700  0.539100  0.628600  1.0  0.1194
  H  H228  1  0.516300  0.471100  0.669800  1.0  0.1216
  H  H229  1  0.506000  0.441600  0.737600  1.0  0.1165
  H  H230  1  0.728800  0.401900  0.743800  1.0  0.1117
  H  H231  1  0.800200  0.472400  0.696600  1.0  0.1338
  H  H232  1  0.678700  0.550800  0.658600  1.0  0.1105
  H  H233  1  0.627400  0.485000  0.965000  1.0  0.1175
  H  H234  1  0.613100  0.464400  0.915000  1.0  0.1246
  H  H235  1  0.728800  0.346800  0.920400  1.0  0.1224
  H  H236  1  0.742900  0.367400  0.970600  1.0  0.1151
  H  H237  1  0.750500  0.263300  0.871600  1.0  0.1147
  H  H238  1  0.775600  0.187800  0.914400  1.0  0.1127
  H  H239  1  0.639400  0.085000  0.923000  1.0  0.1159
  H  H240  1  0.614300  0.160500  0.880200  1.0  0.1181
  H  H241  1  0.655100  0.217800  0.814400  1.0  0.1131
  H  H242  1  0.622200  0.449700  0.808400  1.0  0.1078
  H  H243  1  0.644900  0.473000  0.854000  1.0  0.1292
  H  H244  1  0.671400  0.308100  0.897000  1.0  0.1115
  H  H245  1  0.668900  0.219500  0.758000  1.0  0.1008
  H  H246  1  0.602000  0.203700  0.774800  1.0  0.12
  H  H247  1  0.637500  0.193900  0.713800  1.0  0.13
  H  H248  1  0.592600  0.239300  0.714600  1.0  0.1326
  H  H249  1  0.658600  0.259800  0.697200  1.0  0.1362
  H  H250  1  0.454800  0.411900  0.800000  1.0  0.111
  H  H251  1  0.446600  0.372200  0.778000  1.0  0.1087
  H  H252  1  0.371400  0.357000  0.832600  1.0  0.1117
  H  H253  1  0.399800  0.300200  0.831000  1.0  0.1269
  H  H254  1  0.413600  0.334600  0.855000  1.0  0.1326
  H  H255  1  0.011900  0.862500  0.635400  1.0  0.1257
  H  H256  1  0.988100  0.843900  0.587400  1.0  0.1174
  H  H257  1  0.098400  0.721000  0.587200  1.0  0.1152
  H  H258  1  0.122300  0.739700  0.635000  1.0  0.1143
  H  H259  1  0.214000  0.718200  0.682200  1.0  0.1069
  H  H260  1  0.290900  0.691400  0.641000  1.0  0.1146
  H  H261  1  0.390700  0.832300  0.628600  1.0  0.1188
  H  H262  1  0.313900  0.859100  0.669800  1.0  0.1208
  H  H263  1  0.256400  0.820800  0.737600  1.0  0.1162
  H  H264  1  0.027400  0.854300  0.743800  1.0  0.1126
  H  H265  1  0.003200  0.831000  0.696600  1.0  0.1328
  H  H266  1  0.162700  0.790600  0.658600  1.0  0.1107
  H  H267  1  0.907600  0.550000  0.965000  1.0  0.1181
  H  H268  1  0.971900  0.620600  0.915000  1.0  0.1238
  H  H269  1  0.850800  0.732800  0.920400  1.0  0.1223
  H  H270  1  0.786500  0.662000  0.970600  1.0  0.1159
  H  H271  1  0.877900  0.865100  0.871600  1.0  0.1146
  H  H272  1  0.810000  0.897800  0.914400  1.0  0.1118
  H  H273  1  0.937600  0.992000  0.923000  1.0  0.116
  H  H274  1  0.005500  0.959300  0.880200  1.0  0.1192
  H  H275  1  0.030500  0.967800  0.814400  1.0  0.1134
  H  H276  1  0.069400  0.741900  0.808400  1.0  0.1069
  H  H277  1  0.001100  0.673000  0.854000  1.0  0.1248
  H  H278  1  0.931600  0.794900  0.897000  1.0  0.1116
  H  H279  1  0.073100  0.022500  0.758000  1.0  0.0997
  H  H280  1  0.123200  0.021500  0.774800  1.0  0.1214
  H  H281  1  0.148700  0.092300  0.713800  1.0  0.1311
  H  H282  1  0.192800  0.046100  0.714600  1.0  0.1324
  H  H283  1  0.144200  0.043000  0.697200  1.0  0.1346
  H  H284  1  0.245200  0.788100  0.800000  1.0  0.1087
  H  H285  1  0.275400  0.849800  0.778000  1.0  0.1088
  H  H286  1  0.296000  0.810400  0.832600  1.0  0.11
  H  H287  1  0.269200  0.868800  0.831000  1.0  0.1256
  H  H288  1  0.231400  0.810400  0.855000  1.0  0.1309
  C  C289  1  0.196950  0.209650  0.859900  1.0  -0.0134
  C  C290  1  0.165610  0.154880  0.874240  1.0  -0.131
  C  C291  1  0.176850  0.111650  0.903100  1.0  -0.0814
  C  C292  1  0.219490  0.123190  0.917620  1.0  -0.0024
  C  C293  1  0.250840  0.177960  0.903280  1.0  -0.0641
  C  C294  1  0.239590  0.221190  0.874420  1.0  -0.1118
  C  C295  1  0.242250  0.490350  0.903300  1.0  0.5157
  C  C296  1  0.208590  0.436290  0.819820  1.0  0.0069
  C  C297  1  0.259180  0.420670  0.828440  1.0  -0.0643
  C  C298  1  0.275310  0.442190  0.853220  1.0  -0.07
  C  C299  1  0.240920  0.479320  0.869360  1.0  -0.134
  C  C300  1  0.190330  0.494860  0.860740  1.0  -0.0721
  C  C301  1  0.174180  0.473310  0.835980  1.0  -0.1042
  C  C302  1  0.450280  0.299080  0.498640  1.0  0.6958
  C  C303  1  0.155210  0.380610  0.739980  1.0  -0.0163
  C  C304  1  0.158750  0.438950  0.737900  1.0  0.1522
  C  C305  1  0.176900  0.455540  0.763800  1.0  -0.1425
  C  C306  1  0.191610  0.413710  0.791780  1.0  -0.0287
  C  C307  1  0.188060  0.355360  0.793880  1.0  0.0443
  C  C308  1  0.169920  0.338850  0.767960  1.0  -0.0156
  C  C309  1  0.160070  0.281870  0.772460  1.0  -0.1301
  C  C310  1  0.171680  0.238380  0.801840  1.0  -0.147
  C  C311  1  0.187210  0.255510  0.827780  1.0  0.0158
  C  C312  1  0.196850  0.311350  0.824100  1.0  -0.189
  C  C313  1  0.401280  0.313380  0.527040  1.0  -0.1329
  C  C314  1  0.413750  0.352510  0.543780  1.0  -0.0415
  C  C315  1  0.371110  0.361110  0.573980  1.0  -0.1061
  C  C316  1  0.316080  0.330580  0.587440  1.0  0.0034
  C  C317  1  0.303580  0.291450  0.570700  1.0  -0.1136
  C  C318  1  0.346150  0.282850  0.540500  1.0  -0.0599
  C  C319  1  0.026990  0.271290  0.549620  1.0  0.7317
  C  C320  1  0.091130  0.320130  0.628540  1.0  0.0481
  C  C321  1  0.109690  0.271590  0.618220  1.0  -0.1036
  C  C322  1  0.090000  0.256400  0.592400  1.0  -0.0342
  C  C323  1  0.051760  0.289960  0.576880  1.0  -0.1354
  C  C324  1  0.033250  0.338510  0.587180  1.0  -0.0491
  C  C325  1  0.052890  0.353590  0.613020  1.0  -0.1216
  C  C326  1  0.223820  0.085120  0.950160  1.0  0.5237
  C  C327  1  0.145240  0.369640  0.708120  1.0  -0.0045
  C  C328  1  0.086840  0.364740  0.710520  1.0  0.1897
  C  C329  1  0.070770  0.348140  0.683920  1.0  -0.2115
  C  C330  1  0.113150  0.336250  0.654900  1.0  0.0028
  C  C331  1  0.171560  0.341060  0.652480  1.0  0.0344
  C  C332  1  0.187620  0.357750  0.679100  1.0  0.0488
  C  C333  1  0.247150  0.364850  0.674900  1.0  -0.0768
  C  C334  1  0.288590  0.353390  0.647220  1.0  -0.1909
  C  C335  1  0.271530  0.338730  0.620340  1.0  0.0008
  C  C336  1  0.214920  0.335120  0.622160  1.0  -0.1837
  C  C337  1  0.986700  0.367700  0.744600  1.0  0.0219
  C  C338  1  0.947400  0.370000  0.783600  1.0  -0.3012
  C  C339  1  0.172300  0.544200  0.700200  1.0  -0.0388
  C  C340  1  0.170500  0.594400  0.667400  1.0  -0.3063
  C  C341  1  0.443150  0.930450  0.859900  1.0  -0.011
  C  C342  1  0.460150  0.970880  0.874240  1.0  -0.1281
  C  C343  1  0.420050  0.985250  0.903100  1.0  -0.0789
  C  C344  1  0.362890  0.959190  0.917620  1.0  -0.0023
  C  C345  1  0.345880  0.918760  0.903280  1.0  -0.0656
  C  C346  1  0.385990  0.904390  0.874420  1.0  -0.1111
  C  C347  1  0.354450  0.606350  0.903300  1.0  0.5125
  C  C348  1  0.471590  0.743890  0.819820  1.0  0.0079
  C  C349  1  0.412380  0.750890  0.828440  1.0  -0.0621
  C  C350  1  0.371470  0.704590  0.853220  1.0  -0.0703
  C  C351  1  0.389720  0.651320  0.869360  1.0  -0.1339
  C  C352  1  0.448930  0.644400  0.860740  1.0  -0.0706
  C  C353  1  0.489840  0.690710  0.835980  1.0  -0.1047
  C  C354  1  0.551080  0.202280  0.498640  1.0  0.6972
  C  C355  1  0.604810  0.879410  0.739980  1.0  -0.0174
  C  C356  1  0.603350  0.823150  0.737900  1.0  0.1524
  C  C357  1  0.559300  0.780660  0.763800  1.0  -0.1411
  C  C358  1  0.516610  0.794510  0.791780  1.0  -0.0282
  C  C359  1  0.518060  0.850760  0.793880  1.0  0.0441
  C  C360  1  0.562120  0.893190  0.767960  1.0  -0.0138
  C  C361  1  0.567470  0.945670  0.772460  1.0  -0.1293
  C  C362  1  0.526480  0.959780  0.801840  1.0  -0.1483
  C  C363  1  0.485010  0.916710  0.827780  1.0  0.0184
  C  C364  1  0.479050  0.864550  0.824100  1.0  -0.1858
  C  C365  1  0.571680  0.159580  0.527040  1.0  -0.1321
  C  C366  1  0.542470  0.103710  0.543780  1.0  -0.0394
  C  C367  1  0.554910  0.064910  0.573980  1.0  -0.1046
  C  C368  1  0.596480  0.081980  0.587440  1.0  0.0029
  C  C369  1  0.625720  0.137850  0.570700  1.0  -0.1164
  C  C370  1  0.613350  0.176650  0.540500  1.0  -0.061
  C  C371  1  0.923390  0.179090  0.549620  1.0  0.7327
  C  C372  1  0.780330  0.051330  0.628540  1.0  0.0464
  C  C373  1  0.772090  0.110190  0.618220  1.0  -0.1049
  C  C374  1  0.817600  0.151200  0.592400  1.0  -0.0312
  C  C375  1  0.871360  0.133160  0.576880  1.0  -0.1331
  C  C376  1  0.879570  0.074310  0.587180  1.0  -0.0496
  C  C377  1  0.834090  0.033390  0.613020  1.0  -0.1174
  C  C378  1  0.326020  0.964720  0.950160  1.0  0.5248
  C  C379  1  0.646640  0.922240  0.708120  1.0  -0.0053
  C  C380  1  0.702640  0.924740  0.710520  1.0  0.1903
  C  C381  1  0.745310  0.967940  0.683920  1.0  -0.2117
  C  C382  1  0.731950  0.008850  0.654900  1.0  0.0039
  C  C383  1  0.675960  0.006460  0.652480  1.0  0.0342
  C  C384  1  0.633280  0.963150  0.679100  1.0  0.0496
  C  C385  1  0.577950  0.960250  0.674900  1.0  -0.0745
  C  C386  1  0.564190  0.999390  0.647220  1.0  -0.1894
  C  C387  1  0.608130  0.040930  0.620340  1.0  0.0008
  C  C388  1  0.662920  0.042720  0.622160  1.0  -0.1816
  C  C389  1  0.768700  0.887700  0.744600  1.0  0.0241
  C  C390  1  0.769000  0.846400  0.783600  1.0  -0.302
  C  C391  1  0.627500  0.755600  0.700200  1.0  -0.033
  C  C392  1  0.662100  0.738200  0.667400  1.0  -0.306
  C  C393  1  0.209650  0.443150  0.359900  1.0  -0.0142
  C  C394  1  0.154880  0.460150  0.374240  1.0  -0.1301
  C  C395  1  0.111650  0.420050  0.403100  1.0  -0.0799
  C  C396  1  0.123190  0.362890  0.417620  1.0  -0.0029
  C  C397  1  0.177960  0.345880  0.403280  1.0  -0.0644
  C  C398  1  0.221190  0.385990  0.374420  1.0  -0.1107
  C  C399  1  0.490350  0.354450  0.403300  1.0  0.5136
  C  C400  1  0.436290  0.471590  0.319820  1.0  0.0074
  C  C401  1  0.420670  0.412380  0.328440  1.0  -0.0628
  C  C402  1  0.442190  0.371470  0.353220  1.0  -0.0681
  C  C403  1  0.479320  0.389720  0.369360  1.0  -0.1307
  C  C404  1  0.494860  0.448930  0.360740  1.0  -0.0715
  C  C405  1  0.473310  0.489840  0.335980  1.0  -0.1078
  C  C406  1  0.299080  0.551080  0.998640  1.0  0.6969
  C  C407  1  0.380610  0.604810  0.239980  1.0  -0.016
  C  C408  1  0.438950  0.603350  0.237900  1.0  0.1526
  C  C409  1  0.455540  0.559300  0.263800  1.0  -0.146
  C  C410  1  0.413710  0.516610  0.291780  1.0  -0.0275
  C  C411  1  0.355360  0.518060  0.293880  1.0  0.0437
  C  C412  1  0.338850  0.562120  0.267960  1.0  -0.0151
  C  C413  1  0.281870  0.567470  0.272460  1.0  -0.129
  C  C414  1  0.238380  0.526480  0.301840  1.0  -0.1502
  C  C415  1  0.255510  0.485010  0.327780  1.0  0.0154
  C  C416  1  0.311350  0.479050  0.324100  1.0  -0.1869
  C  C417  1  0.313380  0.571680  0.027040  1.0  -0.1326
  C  C418  1  0.352510  0.542470  0.043780  1.0  -0.0405
  C  C419  1  0.361110  0.554910  0.073980  1.0  -0.102
  C  C420  1  0.330580  0.596480  0.087440  1.0  0.0039
  C  C421  1  0.291450  0.625720  0.070700  1.0  -0.1126
  C  C422  1  0.282850  0.613350  0.040500  1.0  -0.061
  C  C423  1  0.271290  0.923390  0.049620  1.0  0.7317
  C  C424  1  0.320130  0.780330  0.128540  1.0  0.05
  C  C425  1  0.271590  0.772090  0.118220  1.0  -0.1024
  C  C426  1  0.256400  0.817600  0.092400  1.0  -0.0346
  C  C427  1  0.289960  0.871360  0.076880  1.0  -0.1332
  C  C428  1  0.338510  0.879570  0.087180  1.0  -0.0479
  C  C429  1  0.353590  0.834090  0.113020  1.0  -0.1237
  C  C430  1  0.085120  0.326020  0.450160  1.0  0.5243
  C  C431  1  0.369640  0.646640  0.208120  1.0  -0.0054
  C  C432  1  0.364740  0.702640  0.210520  1.0  0.1897
  C  C433  1  0.348140  0.745310  0.183920  1.0  -0.2098
  C  C434  1  0.336250  0.731950  0.154900  1.0  0.0043
  C  C435  1  0.341060  0.675960  0.152480  1.0  0.0345
  C  C436  1  0.357750  0.633280  0.179100  1.0  0.0482
  C  C437  1  0.364850  0.577950  0.174900  1.0  -0.0776
  C  C438  1  0.353390  0.564190  0.147220  1.0  -0.1891
  C  C439  1  0.338730  0.608130  0.120340  1.0  0.0034
  C  C440  1  0.335120  0.662920  0.122160  1.0  -0.1819
  C  C441  1  0.367700  0.768700  0.244600  1.0  0.0243
  C  C442  1  0.370000  0.769000  0.283600  1.0  -0.3037
  C  C443  1  0.544200  0.627500  0.200200  1.0  -0.0345
  C  C444  1  0.594400  0.662100  0.167400  1.0  -0.3042
  C  C445  1  0.930450  0.196950  0.359900  1.0  -0.0139
  C  C446  1  0.970880  0.165610  0.374240  1.0  -0.13
  C  C447  1  0.985250  0.176850  0.403100  1.0  -0.0789
  C  C448  1  0.959190  0.219490  0.417620  1.0  -0.0019
  C  C449  1  0.918760  0.250840  0.403280  1.0  -0.0665
  C  C450  1  0.904390  0.239590  0.374420  1.0  -0.1095
  C  C451  1  0.606350  0.242250  0.403300  1.0  0.5143
  C  C452  1  0.743890  0.208590  0.319820  1.0  0.0074
  C  C453  1  0.750890  0.259180  0.328440  1.0  -0.0637
  C  C454  1  0.704590  0.275310  0.353220  1.0  -0.0671
  C  C455  1  0.651320  0.240920  0.369360  1.0  -0.1332
  C  C456  1  0.644400  0.190330  0.360740  1.0  -0.0722
  C  C457  1  0.690710  0.174180  0.335980  1.0  -0.1057
  C  C458  1  0.202280  0.450280  0.998640  1.0  0.6958
  C  C459  1  0.879410  0.155210  0.239980  1.0  -0.0163
  C  C460  1  0.823150  0.158750  0.237900  1.0  0.1527
  C  C461  1  0.780660  0.176900  0.263800  1.0  -0.1459
  C  C462  1  0.794510  0.191610  0.291780  1.0  -0.0285
  C  C463  1  0.850760  0.188060  0.293880  1.0  0.0449
  C  C464  1  0.893190  0.169920  0.267960  1.0  -0.013
  C  C465  1  0.945670  0.160070  0.272460  1.0  -0.1265
  C  C466  1  0.959780  0.171680  0.301840  1.0  -0.1465
  C  C467  1  0.916710  0.187210  0.327780  1.0  0.0158
  C  C468  1  0.864550  0.196850  0.324100  1.0  -0.1857
  C  C469  1  0.159580  0.401280  0.027040  1.0  -0.1326
  C  C470  1  0.103710  0.413750  0.043780  1.0  -0.041
  C  C471  1  0.064910  0.371110  0.073980  1.0  -0.1046
  C  C472  1  0.081980  0.316080  0.087440  1.0  0.005
  C  C473  1  0.137850  0.303580  0.070700  1.0  -0.1121
  C  C474  1  0.176650  0.346150  0.040500  1.0  -0.0606
  C  C475  1  0.179090  0.026990  0.049620  1.0  0.7315
  C  C476  1  0.051330  0.091130  0.128540  1.0  0.0479
  C  C477  1  0.110190  0.109690  0.118220  1.0  -0.1073
  C  C478  1  0.151200  0.090000  0.092400  1.0  -0.0334
  C  C479  1  0.133160  0.051760  0.076880  1.0  -0.1347
  C  C480  1  0.074310  0.033250  0.087180  1.0  -0.0483
  C  C481  1  0.033390  0.052890  0.113020  1.0  -0.1255
  C  C482  1  0.964720  0.223820  0.450160  1.0  0.5248
  C  C483  1  0.922240  0.145240  0.208120  1.0  -0.0046
  C  C484  1  0.924740  0.086840  0.210520  1.0  0.19
  C  C485  1  0.967940  0.070770  0.183920  1.0  -0.2064
  C  C486  1  0.008850  0.113150  0.154900  1.0  0.0043
  C  C487  1  0.006460  0.171560  0.152480  1.0  0.0343
  C  C488  1  0.963150  0.187620  0.179100  1.0  0.049
  C  C489  1  0.960250  0.247150  0.174900  1.0  -0.0785
  C  C490  1  0.999390  0.288590  0.147220  1.0  -0.1899
  C  C491  1  0.040930  0.271530  0.120340  1.0  0.0038
  C  C492  1  0.042720  0.214920  0.122160  1.0  -0.1821
  C  C493  1  0.887700  0.986700  0.244600  1.0  0.0237
  C  C494  1  0.846400  0.947400  0.283600  1.0  -0.3005
  C  C495  1  0.755600  0.172300  0.200200  1.0  -0.0328
  C  C496  1  0.738200  0.170500  0.167400  1.0  -0.3058
  C  C497  1  0.803050  0.790350  0.140100  1.0  -0.0136
  C  C498  1  0.834390  0.845120  0.125760  1.0  -0.1304
  C  C499  1  0.823150  0.888350  0.096900  1.0  -0.0799
  C  C500  1  0.780510  0.876810  0.082380  1.0  -0.0027
  C  C501  1  0.749160  0.822040  0.096720  1.0  -0.0644
  C  C502  1  0.760410  0.778810  0.125580  1.0  -0.1101
  C  C503  1  0.757750  0.509650  0.096700  1.0  0.5124
  C  C504  1  0.791410  0.563710  0.180180  1.0  0.0082
  C  C505  1  0.740820  0.579330  0.171560  1.0  -0.0643
  C  C506  1  0.724690  0.557810  0.146780  1.0  -0.0701
  C  C507  1  0.759080  0.520680  0.130640  1.0  -0.1339
  C  C508  1  0.809670  0.505140  0.139260  1.0  -0.0707
  C  C509  1  0.825820  0.526690  0.164020  1.0  -0.1023
  C  C510  1  0.549720  0.700920  0.501360  1.0  0.6968
  C  C511  1  0.844790  0.619390  0.260020  1.0  -0.0167
  C  C512  1  0.841250  0.561050  0.262100  1.0  0.1527
  C  C513  1  0.823100  0.544460  0.236200  1.0  -0.1412
  C  C514  1  0.808390  0.586290  0.208220  1.0  -0.0283
  C  C515  1  0.811940  0.644640  0.206120  1.0  0.0443
  C  C516  1  0.830080  0.661150  0.232040  1.0  -0.0152
  C  C517  1  0.839930  0.718130  0.227540  1.0  -0.1303
  C  C518  1  0.828320  0.761620  0.198160  1.0  -0.1497
  C  C519  1  0.812790  0.744490  0.172220  1.0  0.0157
  C  C520  1  0.803150  0.688650  0.175900  1.0  -0.1889
  C  C521  1  0.598720  0.686620  0.472960  1.0  -0.1317
  C  C522  1  0.586250  0.647490  0.456220  1.0  -0.0422
  C  C523  1  0.628890  0.638890  0.426020  1.0  -0.1055
  C  C524  1  0.683920  0.669420  0.412560  1.0  0.0033
  C  C525  1  0.696420  0.708550  0.429300  1.0  -0.1133
  C  C526  1  0.653850  0.717150  0.459500  1.0  -0.0604
  C  C527  1  0.973010  0.728710  0.450380  1.0  0.7327
  C  C528  1  0.908870  0.679870  0.371460  1.0  0.0472
  C  C529  1  0.890310  0.728410  0.381780  1.0  -0.1033
  C  C530  1  0.910000  0.743600  0.407600  1.0  -0.0344
  C  C531  1  0.948240  0.710040  0.423120  1.0  -0.1347
  C  C532  1  0.966750  0.661490  0.412820  1.0  -0.0489
  C  C533  1  0.947110  0.646410  0.386980  1.0  -0.1193
  C  C534  1  0.776180  0.914880  0.049840  1.0  0.5261
  C  C535  1  0.854760  0.630360  0.291880  1.0  -0.0048
  C  C536  1  0.913160  0.635260  0.289480  1.0  0.1902
  C  C537  1  0.929230  0.651860  0.316080  1.0  -0.2114
  C  C538  1  0.886850  0.663750  0.345100  1.0  0.0044
  C  C539  1  0.828440  0.658940  0.347520  1.0  0.0341
  C  C540  1  0.812380  0.642250  0.320900  1.0  0.0486
  C  C541  1  0.752850  0.635150  0.325100  1.0  -0.0765
  C  C542  1  0.711410  0.646610  0.352780  1.0  -0.1896
  C  C543  1  0.728470  0.661270  0.379660  1.0  0.0012
  C  C544  1  0.785080  0.664880  0.377840  1.0  -0.1808
  C  C545  1  0.013300  0.632300  0.255400  1.0  0.0233
  C  C546  1  0.052600  0.630000  0.216400  1.0  -0.3015
  C  C547  1  0.827700  0.455800  0.299800  1.0  -0.0339
  C  C548  1  0.829500  0.405600  0.332600  1.0  -0.3067
  C  C549  1  0.556850  0.069550  0.140100  1.0  -0.0115
  C  C550  1  0.539850  0.029120  0.125760  1.0  -0.1298
  C  C551  1  0.579950  0.014750  0.096900  1.0  -0.081
  C  C552  1  0.637110  0.040810  0.082380  1.0  -0.002
  C  C553  1  0.654120  0.081240  0.096720  1.0  -0.0633
  C  C554  1  0.614010  0.095610  0.125580  1.0  -0.1124
  C  C555  1  0.645550  0.393650  0.096700  1.0  0.5139
  C  C556  1  0.528410  0.256110  0.180180  1.0  0.0076
  C  C557  1  0.587620  0.249110  0.171560  1.0  -0.0636
  C  C558  1  0.628530  0.295410  0.146780  1.0  -0.069
  C  C559  1  0.610280  0.348680  0.130640  1.0  -0.1337
  C  C560  1  0.551070  0.355600  0.139260  1.0  -0.0711
  C  C561  1  0.510160  0.309290  0.164020  1.0  -0.1101
  C  C562  1  0.448920  0.797720  0.501360  1.0  0.6969
  C  C563  1  0.395190  0.120590  0.260020  1.0  -0.0161
  C  C564  1  0.396650  0.176850  0.262100  1.0  0.1516
  C  C565  1  0.440700  0.219340  0.236200  1.0  -0.143
  C  C566  1  0.483390  0.205490  0.208220  1.0  -0.0282
  C  C567  1  0.481940  0.149240  0.206120  1.0  0.0443
  C  C568  1  0.437880  0.106810  0.232040  1.0  -0.015
  C  C569  1  0.432530  0.054330  0.227540  1.0  -0.1283
  C  C570  1  0.473520  0.040220  0.198160  1.0  -0.147
  C  C571  1  0.514990  0.083290  0.172220  1.0  0.0174
  C  C572  1  0.520950  0.135450  0.175900  1.0  -0.1847
  C  C573  1  0.428320  0.840420  0.472960  1.0  -0.1317
  C  C574  1  0.457530  0.896290  0.456220  1.0  -0.0387
  C  C575  1  0.445090  0.935090  0.426020  1.0  -0.1043
  C  C576  1  0.403520  0.918020  0.412560  1.0  0.0032
  C  C577  1  0.374280  0.862150  0.429300  1.0  -0.1153
  C  C578  1  0.386650  0.823350  0.459500  1.0  -0.0611
  C  C579  1  0.076610  0.820910  0.450380  1.0  0.7328
  C  C580  1  0.219670  0.948670  0.371460  1.0  0.0477
  C  C581  1  0.227910  0.889810  0.381780  1.0  -0.1033
  C  C582  1  0.182400  0.848800  0.407600  1.0  -0.0313
  C  C583  1  0.128640  0.866840  0.423120  1.0  -0.1337
  C  C584  1  0.120430  0.925690  0.412820  1.0  -0.0495
  C  C585  1  0.165910  0.966610  0.386980  1.0  -0.1203
  C  C586  1  0.673980  0.035280  0.049840  1.0  0.5246
  C  C587  1  0.353360  0.077760  0.291880  1.0  -0.0046
  C  C588  1  0.297360  0.075260  0.289480  1.0  0.1894
  C  C589  1  0.254690  0.032060  0.316080  1.0  -0.2117
  C  C590  1  0.268050  0.991150  0.345100  1.0  0.0035
  C  C591  1  0.324040  0.993540  0.347520  1.0  0.0338
  C  C592  1  0.366720  0.036850  0.320900  1.0  0.0496
  C  C593  1  0.422050  0.039750  0.325100  1.0  -0.0742
  C  C594  1  0.435810  0.000610  0.352780  1.0  -0.189
  C  C595  1  0.391870  0.959070  0.379660  1.0  0.0007
  C  C596  1  0.337080  0.957280  0.377840  1.0  -0.1833
  C  C597  1  0.231300  0.112300  0.255400  1.0  0.0243
  C  C598  1  0.231000  0.153600  0.216400  1.0  -0.301
  C  C599  1  0.372500  0.244400  0.299800  1.0  -0.0342
  C  C600  1  0.337900  0.261800  0.332600  1.0  -0.3055
  C  C601  1  0.790350  0.556850  0.640100  1.0  -0.0137
  C  C602  1  0.845120  0.539850  0.625760  1.0  -0.1283
  C  C603  1  0.888350  0.579950  0.596900  1.0  -0.0772
  C  C604  1  0.876810  0.637110  0.582380  1.0  -0.0022
  C  C605  1  0.822040  0.654120  0.596720  1.0  -0.0655
  C  C606  1  0.778810  0.614010  0.625580  1.0  -0.1126
  C  C607  1  0.509650  0.645550  0.596700  1.0  0.5159
  C  C608  1  0.563710  0.528410  0.680180  1.0  0.0062
  C  C609  1  0.579330  0.587620  0.671560  1.0  -0.0635
  C  C610  1  0.557810  0.628530  0.646780  1.0  -0.0682
  C  C611  1  0.520680  0.610280  0.630640  1.0  -0.1334
  C  C612  1  0.505140  0.551070  0.639260  1.0  -0.0705
  C  C613  1  0.526690  0.510160  0.664020  1.0  -0.1066
  C  C614  1  0.700920  0.448920  0.001360  1.0  0.6964
  C  C615  1  0.619390  0.395190  0.760020  1.0  -0.017
  C  C616  1  0.561050  0.396650  0.762100  1.0  0.1524
  C  C617  1  0.544460  0.440700  0.736200  1.0  -0.1456
  C  C618  1  0.586290  0.483390  0.708220  1.0  -0.0287
  C  C619  1  0.644640  0.481940  0.706120  1.0  0.0443
  C  C620  1  0.661150  0.437880  0.732040  1.0  -0.0141
  C  C621  1  0.718130  0.432530  0.727540  1.0  -0.1289
  C  C622  1  0.761620  0.473520  0.698160  1.0  -0.1481
  C  C623  1  0.744490  0.514990  0.672220  1.0  0.0161
  C  C624  1  0.688650  0.520950  0.675900  1.0  -0.1877
  C  C625  1  0.686620  0.428320  0.972960  1.0  -0.1317
  C  C626  1  0.647490  0.457530  0.956220  1.0  -0.0416
  C  C627  1  0.638890  0.445090  0.926020  1.0  -0.1034
  C  C628  1  0.669420  0.403520  0.912560  1.0  0.0045
  C  C629  1  0.708550  0.374280  0.929300  1.0  -0.1116
  C  C630  1  0.717150  0.386650  0.959500  1.0  -0.0612
  C  C631  1  0.728710  0.076610  0.950380  1.0  0.7328
  C  C632  1  0.679870  0.219670  0.871460  1.0  0.0499
  C  C633  1  0.728410  0.227910  0.881780  1.0  -0.1019
  C  C634  1  0.743600  0.182400  0.907600  1.0  -0.0352
  C  C635  1  0.710040  0.128640  0.923120  1.0  -0.1332
  C  C636  1  0.661490  0.120430  0.912820  1.0  -0.0479
  C  C637  1  0.646410  0.165910  0.886980  1.0  -0.1228
  C  C638  1  0.914880  0.673980  0.549840  1.0  0.5252
  C  C639  1  0.630360  0.353360  0.791880  1.0  -0.0047
  C  C640  1  0.635260  0.297360  0.789480  1.0  0.1898
  C  C641  1  0.651860  0.254690  0.816080  1.0  -0.207
  C  C642  1  0.663750  0.268050  0.845100  1.0  0.0045
  C  C643  1  0.658940  0.324040  0.847520  1.0  0.0344
  C  C644  1  0.642250  0.366720  0.820900  1.0  0.0499
  C  C645  1  0.635150  0.422050  0.825100  1.0  -0.078
  C  C646  1  0.646610  0.435810  0.852780  1.0  -0.1899
  C  C647  1  0.661270  0.391870  0.879660  1.0  0.0035
  C  C648  1  0.664880  0.337080  0.877840  1.0  -0.1808
  C  C649  1  0.632300  0.231300  0.755400  1.0  0.0204
  C  C650  1  0.630000  0.231000  0.716400  1.0  -0.3019
  C  C651  1  0.455800  0.372500  0.799800  1.0  -0.0305
  C  C652  1  0.405600  0.337900  0.832600  1.0  -0.3053
  C  C653  1  0.069550  0.803050  0.640100  1.0  -0.0136
  C  C654  1  0.029120  0.834390  0.625760  1.0  -0.1305
  C  C655  1  0.014750  0.823150  0.596900  1.0  -0.079
  C  C656  1  0.040810  0.780510  0.582380  1.0  -0.0031
  C  C657  1  0.081240  0.749160  0.596720  1.0  -0.0646
  C  C658  1  0.095610  0.760410  0.625580  1.0  -0.1099
  C  C659  1  0.393650  0.757750  0.596700  1.0  0.5114
  C  C660  1  0.256110  0.791410  0.680180  1.0  0.0076
  C  C661  1  0.249110  0.740820  0.671560  1.0  -0.0645
  C  C662  1  0.295410  0.724690  0.646780  1.0  -0.0667
  C  C663  1  0.348680  0.759080  0.630640  1.0  -0.1309
  C  C664  1  0.355600  0.809670  0.639260  1.0  -0.0704
  C  C665  1  0.309290  0.825820  0.664020  1.0  -0.1092
  C  C666  1  0.797720  0.549720  0.001360  1.0  0.696
  C  C667  1  0.120590  0.844790  0.760020  1.0  -0.0169
  C  C668  1  0.176850  0.841250  0.762100  1.0  0.1525
  C  C669  1  0.219340  0.823100  0.736200  1.0  -0.146
  C  C670  1  0.205490  0.808390  0.708220  1.0  -0.0274
  C  C671  1  0.149240  0.811940  0.706120  1.0  0.0444
  C  C672  1  0.106810  0.830080  0.732040  1.0  -0.0136
  C  C673  1  0.054330  0.839930  0.727540  1.0  -0.1282
  C  C674  1  0.040220  0.828320  0.698160  1.0  -0.1469
  C  C675  1  0.083290  0.812790  0.672220  1.0  0.0155
  C  C676  1  0.135450  0.803150  0.675900  1.0  -0.1859
  C  C677  1  0.840420  0.598720  0.972960  1.0  -0.1316
  C  C678  1  0.896290  0.586250  0.956220  1.0  -0.04
  C  C679  1  0.935090  0.628890  0.926020  1.0  -0.1027
  C  C680  1  0.918020  0.683920  0.912560  1.0  0.0048
  C  C681  1  0.862150  0.696420  0.929300  1.0  -0.1129
  C  C682  1  0.823350  0.653850  0.959500  1.0  -0.0624
  C  C683  1  0.820910  0.973010  0.950380  1.0  0.7307
  C  C684  1  0.948670  0.908870  0.871460  1.0  0.049
  C  C685  1  0.889810  0.890310  0.881780  1.0  -0.1088
  C  C686  1  0.848800  0.910000  0.907600  1.0  -0.0358
  C  C687  1  0.866840  0.948240  0.923120  1.0  -0.1344
  C  C688  1  0.925690  0.966750  0.912820  1.0  -0.0489
  C  C689  1  0.966610  0.947110  0.886980  1.0  -0.1239
  C  C690  1  0.035280  0.776180  0.549840  1.0  0.5264
  C  C691  1  0.077760  0.854760  0.791880  1.0  -0.005
  C  C692  1  0.075260  0.913160  0.789480  1.0  0.1891
  C  C693  1  0.032060  0.929230  0.816080  1.0  -0.2076
  C  C694  1  0.991150  0.886850  0.845100  1.0  0.0038
  C  C695  1  0.993540  0.828440  0.847520  1.0  0.0341
  C  C696  1  0.036850  0.812380  0.820900  1.0  0.0473
  C  C697  1  0.039750  0.752850  0.825100  1.0  -0.0808
  C  C698  1  0.000610  0.711410  0.852780  1.0  -0.1901
  C  C699  1  0.959070  0.728470  0.879660  1.0  0.0036
  C  C700  1  0.957280  0.785080  0.877840  1.0  -0.1823
  C  C701  1  0.112300  0.013300  0.755400  1.0  0.022
  C  C702  1  0.153600  0.052600  0.716400  1.0  -0.3038
  C  C703  1  0.244400  0.827700  0.799800  1.0  -0.036
  C  C704  1  0.261800  0.829500  0.832600  1.0  -0.3084
  O  O705  1  0.222990  0.531390  0.911420  1.0  -0.5604
  O  O706  1  0.497270  0.327970  0.488260  1.0  -0.5558
  O  O707  1  0.198940  0.030140  0.961320  1.0  -0.5836
  O  O708  1  0.992280  0.304880  0.538240  1.0  -0.5611
  O  O709  1  0.051150  0.234050  0.538700  1.0  -0.542
  O  O710  1  0.267210  0.091410  0.962980  1.0  -0.5843
  O  O711  1  0.292770  0.472810  0.910260  1.0  -0.5874
  O  O712  1  0.434090  0.263490  0.487220  1.0  -0.5776
  O  O713  1  0.153420  0.482020  0.707360  1.0  -0.3048
  O  O714  1  0.049470  0.374870  0.740260  1.0  -0.3714
  O  O715  1  0.365590  0.557190  0.911420  1.0  -0.5605
  O  O716  1  0.514470  0.183770  0.488260  1.0  -0.5565
  O  O717  1  0.339740  0.008540  0.961320  1.0  -0.5838
  O  O718  1  0.969480  0.156880  0.538240  1.0  -0.5601
  O  O719  1  0.910150  0.227250  0.538700  1.0  -0.5413
  O  O720  1  0.269810  0.945610  0.962980  1.0  -0.5861
  O  O721  1  0.296970  0.616930  0.910260  1.0  -0.5856
  O  O722  1  0.578690  0.249290  0.487220  1.0  -0.5786
  O  O723  1  0.639220  0.810620  0.707360  1.0  -0.3059
  O  O724  1  0.710270  0.884870  0.740260  1.0  -0.3721
  O  O725  1  0.531390  0.365590  0.411420  1.0  -0.5617
  O  O726  1  0.327970  0.514470  0.988260  1.0  -0.5571
  O  O727  1  0.030140  0.339740  0.461320  1.0  -0.5827
  O  O728  1  0.304880  0.969480  0.038240  1.0  -0.5605
  O  O729  1  0.234050  0.910150  0.038700  1.0  -0.5405
  O  O730  1  0.091410  0.269810  0.462980  1.0  -0.5855
  O  O731  1  0.472810  0.296970  0.410260  1.0  -0.5859
  O  O732  1  0.263490  0.578690  0.987220  1.0  -0.5781
  O  O733  1  0.482020  0.639220  0.207360  1.0  -0.3072
  O  O734  1  0.374870  0.710270  0.240260  1.0  -0.3737
  O  O735  1  0.557190  0.222990  0.411420  1.0  -0.5593
  O  O736  1  0.183770  0.497270  0.988260  1.0  -0.5565
  O  O737  1  0.008540  0.198940  0.461320  1.0  -0.5836
  O  O738  1  0.156880  0.992280  0.038240  1.0  -0.5612
  O  O739  1  0.227250  0.051150  0.038700  1.0  -0.5406
  O  O740  1  0.945610  0.267210  0.462980  1.0  -0.5856
  O  O741  1  0.616930  0.292770  0.410260  1.0  -0.5857
  O  O742  1  0.249290  0.434090  0.987220  1.0  -0.579
  O  O743  1  0.810620  0.153420  0.207360  1.0  -0.3105
  O  O744  1  0.884870  0.049470  0.240260  1.0  -0.375
  O  O745  1  0.777010  0.468610  0.088580  1.0  -0.5604
  O  O746  1  0.502730  0.672030  0.511740  1.0  -0.5555
  O  O747  1  0.801060  0.969860  0.038680  1.0  -0.5834
  O  O748  1  0.007720  0.695120  0.461760  1.0  -0.5604
  O  O749  1  0.948850  0.765950  0.461300  1.0  -0.5405
  O  O750  1  0.732790  0.908590  0.037020  1.0  -0.5869
  O  O751  1  0.707230  0.527190  0.089740  1.0  -0.5855
  O  O752  1  0.565910  0.736510  0.512780  1.0  -0.5783
  O  O753  1  0.846580  0.517980  0.292640  1.0  -0.3073
  O  O754  1  0.950530  0.625130  0.259740  1.0  -0.3714
  O  O755  1  0.634410  0.442810  0.088580  1.0  -0.5614
  O  O756  1  0.485530  0.816230  0.511740  1.0  -0.5558
  O  O757  1  0.660260  0.991460  0.038680  1.0  -0.5841
  O  O758  1  0.030520  0.843120  0.461760  1.0  -0.5609
  O  O759  1  0.089850  0.772750  0.461300  1.0  -0.5439
  O  O760  1  0.730190  0.054390  0.037020  1.0  -0.5837
  O  O761  1  0.703030  0.383070  0.089740  1.0  -0.5871
  O  O762  1  0.421310  0.750710  0.512780  1.0  -0.5774
  O  O763  1  0.360780  0.189380  0.292640  1.0  -0.3052
  O  O764  1  0.289730  0.115130  0.259740  1.0  -0.3738
  O  O765  1  0.468610  0.634410  0.588580  1.0  -0.5604
  O  O766  1  0.672030  0.485530  0.011740  1.0  -0.557
  O  O767  1  0.969860  0.660260  0.538680  1.0  -0.5832
  O  O768  1  0.695120  0.030520  0.961760  1.0  -0.5602
  O  O769  1  0.765950  0.089850  0.961300  1.0  -0.5413
  O  O770  1  0.908590  0.730190  0.537020  1.0  -0.5851
  O  O771  1  0.527190  0.703030  0.589740  1.0  -0.5856
  O  O772  1  0.736510  0.421310  0.012780  1.0  -0.5786
  O  O773  1  0.517980  0.360780  0.792640  1.0  -0.3092
  O  O774  1  0.625130  0.289730  0.759740  1.0  -0.3734
  O  O775  1  0.442810  0.777010  0.588580  1.0  -0.5608
  O  O776  1  0.816230  0.502730  0.011740  1.0  -0.5572
  O  O777  1  0.991460  0.801060  0.538680  1.0  -0.5832
  O  O778  1  0.843120  0.007720  0.961760  1.0  -0.5601
  O  O779  1  0.772750  0.948850  0.961300  1.0  -0.5403
  O  O780  1  0.054390  0.732790  0.537020  1.0  -0.5862
  O  O781  1  0.383070  0.707230  0.589740  1.0  -0.5858
  O  O782  1  0.750710  0.565910  0.012780  1.0  -0.5775
  O  O783  1  0.189380  0.846580  0.792640  1.0  -0.307
  O  O784  1  0.115130  0.950530  0.759740  1.0  -0.3725
