# generated using pymatgen
data_Fe6Co6H60C108O31
_symmetry_space_group_name_H-M   'P 1'
_cell_length_a   36.15500000
_cell_length_b   18.56600000
_cell_length_c   48.72500000
_cell_angle_alpha   90.00000000
_cell_angle_beta   90.00000000
_cell_angle_gamma   90.00000000
_symmetry_Int_Tables_number   1
_chemical_formula_structural   Fe6Co6H60C108O31
_chemical_formula_sum   'Fe24 Co24 H240 C432 O124'
_cell_volume   32706.83799425
_cell_formula_units_Z   4
loop_
 _symmetry_equiv_pos_site_id
 _symmetry_equiv_pos_as_xyz
  1  'x, y, z'
loop_
 _atom_site_type_symbol
 _atom_site_label
 _atom_site_symmetry_multiplicity
 _atom_site_fract_x
 _atom_site_fract_y
 _atom_site_fract_z
 _atom_site_occupancy
 _atom_site_charge
  Fe  Fe1  1  0.982060  0.965670  0.209410  1.0  0.7474
  Fe  Fe2  1  0.957510  0.025600  0.270700  1.0  0.7245
  Fe  Fe3  1  0.029740  0.096760  0.237950  1.0  0.6981
  Fe  Fe4  1  0.208230  0.520800  0.455010  1.0  0.6754
  Fe  Fe5  1  0.283900  0.596000  0.485610  1.0  0.7714
  Fe  Fe6  1  0.233790  0.469460  0.516470  1.0  0.7307
  Fe  Fe7  1  0.017940  0.034330  0.709410  1.0  0.7465
  Fe  Fe8  1  0.042490  0.974400  0.770700  1.0  0.7276
  Fe  Fe9  1  0.970260  0.903240  0.737950  1.0  0.698
  Fe  Fe10  1  0.791770  0.479200  0.955010  1.0  0.67
  Fe  Fe11  1  0.716100  0.404000  0.985610  1.0  0.778
  Fe  Fe12  1  0.766210  0.530540  0.016470  1.0  0.7332
  Fe  Fe13  1  0.482060  0.034330  0.209410  1.0  0.7479
  Fe  Fe14  1  0.457510  0.974400  0.270700  1.0  0.7255
  Fe  Fe15  1  0.529740  0.903240  0.237950  1.0  0.7025
  Fe  Fe16  1  0.708230  0.479200  0.455010  1.0  0.6738
  Fe  Fe17  1  0.783900  0.404000  0.485610  1.0  0.7744
  Fe  Fe18  1  0.733790  0.530540  0.516470  1.0  0.7314
  Fe  Fe19  1  0.517940  0.965670  0.709410  1.0  0.7474
  Fe  Fe20  1  0.542490  0.025600  0.770700  1.0  0.7267
  Fe  Fe21  1  0.470260  0.096760  0.737950  1.0  0.6945
  Fe  Fe22  1  0.291770  0.520800  0.955010  1.0  0.6709
  Fe  Fe23  1  0.216100  0.596000  0.985610  1.0  0.7728
  Fe  Fe24  1  0.266210  0.469460  0.016470  1.0  0.7326
  Co  Co25  1  0.984000  0.955220  0.209560  1.0  0.7906
  Co  Co26  1  0.962630  0.024400  0.270410  1.0  0.7627
  Co  Co27  1  0.033200  0.086720  0.241330  1.0  0.7538
  Co  Co28  1  0.212790  0.525800  0.455040  1.0  0.7771
  Co  Co29  1  0.278350  0.587400  0.484800  1.0  0.8106
  Co  Co30  1  0.233600  0.458200  0.517490  1.0  0.7691
  Co  Co31  1  0.016000  0.044780  0.709560  1.0  0.7925
  Co  Co32  1  0.037370  0.975600  0.770410  1.0  0.7638
  Co  Co33  1  0.966800  0.913280  0.741330  1.0  0.7555
  Co  Co34  1  0.787210  0.474200  0.955040  1.0  0.7817
  Co  Co35  1  0.721650  0.412600  0.984800  1.0  0.8099
  Co  Co36  1  0.766400  0.541800  0.017490  1.0  0.7664
  Co  Co37  1  0.484000  0.044780  0.209560  1.0  0.7875
  Co  Co38  1  0.462630  0.975600  0.270410  1.0  0.7616
  Co  Co39  1  0.533200  0.913280  0.241330  1.0  0.7516
  Co  Co40  1  0.712790  0.474200  0.455040  1.0  0.7798
  Co  Co41  1  0.778350  0.412600  0.484800  1.0  0.8112
  Co  Co42  1  0.733600  0.541800  0.517490  1.0  0.7653
  Co  Co43  1  0.516000  0.955220  0.709560  1.0  0.7956
  Co  Co44  1  0.537370  0.024400  0.770410  1.0  0.7657
  Co  Co45  1  0.466800  0.086720  0.741330  1.0  0.7609
  Co  Co46  1  0.287210  0.525800  0.955040  1.0  0.7794
  Co  Co47  1  0.221650  0.587400  0.984800  1.0  0.8088
  Co  Co48  1  0.266400  0.458200  0.017490  1.0  0.7702
  H  H49  1  0.093100  0.117700  0.312200  1.0  0.0998
  H  H50  1  0.133800  0.105900  0.346800  1.0  0.1368
  H  H51  1  0.068400  0.956300  0.381300  1.0  0.1164
  H  H52  1  0.024400  0.971100  0.344800  1.0  0.1366
  H  H53  1  0.130400  0.133200  0.399000  1.0  0.1077
  H  H54  1  0.196500  0.023400  0.450100  1.0  0.1188
  H  H55  1  0.129900  0.918300  0.395300  1.0  0.1384
  H  H56  1  0.178200  0.220700  0.403700  1.0  0.1206
  H  H57  1  0.196100  0.327400  0.421900  1.0  0.1305
  H  H58  1  0.205700  0.235700  0.494700  1.0  0.109
  H  H59  1  0.197600  0.125000  0.476500  1.0  0.1286
  H  H60  1  0.221300  0.924200  0.456600  1.0  0.1019
  H  H61  1  0.250100  0.814900  0.464900  1.0  0.1291
  H  H62  1  0.165800  0.716800  0.426500  1.0  0.1314
  H  H63  1  0.132300  0.831200  0.430700  1.0  0.133
  H  H64  1  0.276500  0.437600  0.385900  1.0  0.1255
  H  H65  1  0.314500  0.420200  0.347800  1.0  0.1287
  H  H66  1  0.389600  0.554300  0.379400  1.0  0.1291
  H  H67  1  0.352100  0.573600  0.417300  1.0  0.1224
  H  H68  1  0.380600  0.368600  0.332600  1.0  0.1348
  H  H69  1  0.440100  0.471800  0.272800  1.0  0.1249
  H  H70  1  0.393900  0.584500  0.335600  1.0  0.1146
  H  H71  1  0.416800  0.286300  0.325000  1.0  0.1315
  H  H72  1  0.436200  0.170100  0.306700  1.0  0.125
  H  H73  1  0.456500  0.260900  0.233700  1.0  0.1156
  H  H74  1  0.428900  0.370500  0.249000  1.0  0.1418
  H  H75  1  0.482100  0.574100  0.276200  1.0  0.128
  H  H76  1  0.501600  0.681200  0.258600  1.0  0.1193
  H  H77  1  0.404300  0.774900  0.278400  1.0  0.1304
  H  H78  1  0.391200  0.674400  0.306600  1.0  0.1268
  H  H79  1  0.293000  0.729800  0.552800  1.0  0.1332
  H  H80  1  0.297700  0.794700  0.594900  1.0  0.1253
  H  H81  1  0.215300  0.676100  0.627300  1.0  0.1373
  H  H82  1  0.217400  0.602300  0.588600  1.0  0.108
  H  H83  1  0.315300  0.801400  0.640900  1.0  0.144
  H  H84  1  0.259900  0.909000  0.701200  1.0  0.1243
  H  H85  1  0.202100  0.803500  0.643000  1.0  0.1352
  H  H86  1  0.360400  0.797500  0.672100  1.0  0.1399
  H  H87  1  0.416800  0.848300  0.683600  1.0  0.11
  H  H88  1  0.367600  0.026600  0.709800  1.0  0.123
  H  H89  1  0.310500  0.974600  0.701400  1.0  0.1216
  H  H90  1  0.207000  0.876700  0.726300  1.0  0.1276
  H  H91  1  0.154400  0.922900  0.746300  1.0  0.123
  H  H92  1  0.113400  0.960900  0.670600  1.0  0.1142
  H  H93  1  0.163700  0.903700  0.651600  1.0  0.137
  H  H94  1  0.139500  0.549300  0.554400  1.0  0.129
  H  H95  1  0.087300  0.599700  0.573000  1.0  0.116
  H  H96  1  0.044900  0.630500  0.497700  1.0  0.1366
  H  H97  1  0.097700  0.577800  0.479800  1.0  0.1131
  H  H98  1  0.048200  0.712100  0.577400  1.0  0.1229
  H  H99  1  0.937400  0.711000  0.580900  1.0  0.1256
  H  H100  1  0.989500  0.587600  0.525100  1.0  0.1351
  H  H101  1  0.033500  0.832000  0.596500  1.0  0.1213
  H  H102  1  0.031700  0.911200  0.633200  1.0  0.1298
  H  H103  1  0.952100  0.790000  0.666667  1.0  0.1118
  H  H104  1  0.954300  0.711100  0.631400  1.0  0.1367
  H  H105  1  0.888800  0.699600  0.555200  1.0  0.1247
  H  H106  1  0.833500  0.662500  0.535400  1.0  0.1327
  H  H107  1  0.887000  0.491700  0.502500  1.0  0.1296
  H  H108  1  0.941100  0.524200  0.527600  1.0  0.1357
  H  H109  1  0.906900  0.882300  0.812200  1.0  0.0992
  H  H110  1  0.866200  0.894100  0.846800  1.0  0.1368
  H  H111  1  0.931600  0.043700  0.881300  1.0  0.1152
  H  H112  1  0.975600  0.028900  0.844800  1.0  0.1365
  H  H113  1  0.869600  0.866800  0.899000  1.0  0.1073
  H  H114  1  0.803500  0.976600  0.950100  1.0  0.1189
  H  H115  1  0.870100  0.081700  0.895300  1.0  0.1383
  H  H116  1  0.821800  0.779300  0.903700  1.0  0.1209
  H  H117  1  0.803900  0.672600  0.921900  1.0  0.131
  H  H118  1  0.794300  0.764300  0.994700  1.0  0.1096
  H  H119  1  0.802400  0.875000  0.976500  1.0  0.126
  H  H120  1  0.778700  0.075800  0.956600  1.0  0.1041
  H  H121  1  0.749900  0.185100  0.964900  1.0  0.1305
  H  H122  1  0.834200  0.283200  0.926500  1.0  0.1319
  H  H123  1  0.867700  0.168800  0.930700  1.0  0.1331
  H  H124  1  0.723500  0.562400  0.885900  1.0  0.1255
  H  H125  1  0.685500  0.579800  0.847800  1.0  0.1287
  H  H126  1  0.610400  0.445700  0.879400  1.0  0.1296
  H  H127  1  0.647900  0.426400  0.917300  1.0  0.1224
  H  H128  1  0.619400  0.631400  0.832600  1.0  0.1341
  H  H129  1  0.559900  0.528200  0.772800  1.0  0.1245
  H  H130  1  0.606100  0.415500  0.835600  1.0  0.1154
  H  H131  1  0.583200  0.713700  0.825000  1.0  0.1311
  H  H132  1  0.563800  0.829900  0.806700  1.0  0.1241
  H  H133  1  0.543500  0.739100  0.733700  1.0  0.1159
  H  H134  1  0.571100  0.629500  0.749000  1.0  0.1415
  H  H135  1  0.517900  0.425900  0.776200  1.0  0.1289
  H  H136  1  0.498400  0.318800  0.758600  1.0  0.1191
  H  H137  1  0.595700  0.225100  0.778400  1.0  0.1309
  H  H138  1  0.608800  0.325600  0.806600  1.0  0.1266
  H  H139  1  0.707000  0.270200  0.052800  1.0  0.1318
  H  H140  1  0.702300  0.205300  0.094900  1.0  0.1244
  H  H141  1  0.784700  0.323900  0.127300  1.0  0.1375
  H  H142  1  0.782600  0.397700  0.088600  1.0  0.1083
  H  H143  1  0.684700  0.198600  0.140900  1.0  0.1433
  H  H144  1  0.740100  0.091000  0.201200  1.0  0.1245
  H  H145  1  0.797900  0.196500  0.143000  1.0  0.1353
  H  H146  1  0.639600  0.202500  0.172100  1.0  0.1395
  H  H147  1  0.583200  0.151700  0.183600  1.0  0.1103
  H  H148  1  0.632400  0.973400  0.209800  1.0  0.1229
  H  H149  1  0.689500  0.025400  0.201400  1.0  0.1224
  H  H150  1  0.793000  0.123300  0.226300  1.0  0.1274
  H  H151  1  0.845600  0.077100  0.246300  1.0  0.1229
  H  H152  1  0.886600  0.039100  0.170600  1.0  0.1144
  H  H153  1  0.836300  0.096300  0.151600  1.0  0.1373
  H  H154  1  0.860500  0.450700  0.054400  1.0  0.1289
  H  H155  1  0.912700  0.400300  0.073000  1.0  0.116
  H  H156  1  0.955100  0.369500  0.997700  1.0  0.136
  H  H157  1  0.902300  0.422200  0.979800  1.0  0.1135
  H  H158  1  0.951800  0.287900  0.077400  1.0  0.1236
  H  H159  1  0.062600  0.289000  0.080900  1.0  0.125
  H  H160  1  0.010500  0.412400  0.025100  1.0  0.1347
  H  H161  1  0.966500  0.168000  0.096500  1.0  0.1212
  H  H162  1  0.968300  0.088800  0.133200  1.0  0.1285
  H  H163  1  0.047900  0.210000  0.166700  1.0  0.1115
  H  H164  1  0.045700  0.288900  0.131400  1.0  0.1388
  H  H165  1  0.111200  0.300400  0.055200  1.0  0.1239
  H  H166  1  0.166500  0.337500  0.035400  1.0  0.132
  H  H167  1  0.113000  0.508300  0.002500  1.0  0.1299
  H  H168  1  0.058900  0.475800  0.027600  1.0  0.1346
  H  H169  1  0.593100  0.882300  0.312200  1.0  0.0992
  H  H170  1  0.633800  0.894100  0.346800  1.0  0.1366
  H  H171  1  0.568400  0.043700  0.381300  1.0  0.1173
  H  H172  1  0.524400  0.028900  0.344800  1.0  0.1378
  H  H173  1  0.630400  0.866800  0.399000  1.0  0.107
  H  H174  1  0.696500  0.976600  0.450100  1.0  0.1189
  H  H175  1  0.629900  0.081700  0.395300  1.0  0.1385
  H  H176  1  0.678200  0.779300  0.403700  1.0  0.1209
  H  H177  1  0.696100  0.672600  0.421900  1.0  0.1304
  H  H178  1  0.705700  0.764300  0.494700  1.0  0.109
  H  H179  1  0.697600  0.875000  0.476500  1.0  0.1278
  H  H180  1  0.721300  0.075800  0.456600  1.0  0.1024
  H  H181  1  0.750100  0.185100  0.464900  1.0  0.1291
  H  H182  1  0.665800  0.283200  0.426500  1.0  0.1319
  H  H183  1  0.632300  0.168800  0.430700  1.0  0.1328
  H  H184  1  0.776500  0.562400  0.385900  1.0  0.1255
  H  H185  1  0.814500  0.579800  0.347800  1.0  0.129
  H  H186  1  0.889600  0.445700  0.379400  1.0  0.1287
  H  H187  1  0.852100  0.426400  0.417300  1.0  0.1224
  H  H188  1  0.880600  0.631400  0.332600  1.0  0.1341
  H  H189  1  0.940100  0.528200  0.272800  1.0  0.1249
  H  H190  1  0.893900  0.415500  0.335600  1.0  0.1152
  H  H191  1  0.916800  0.713700  0.325000  1.0  0.1311
  H  H192  1  0.936200  0.829900  0.306700  1.0  0.1242
  H  H193  1  0.956500  0.739100  0.233700  1.0  0.1158
  H  H194  1  0.928900  0.629500  0.249000  1.0  0.1417
  H  H195  1  0.982100  0.425900  0.276200  1.0  0.1276
  H  H196  1  0.001600  0.318800  0.258600  1.0  0.1193
  H  H197  1  0.904300  0.225100  0.278400  1.0  0.1306
  H  H198  1  0.891200  0.325600  0.306600  1.0  0.1272
  H  H199  1  0.793000  0.270200  0.552800  1.0  0.133
  H  H200  1  0.797700  0.205300  0.594900  1.0  0.1248
  H  H201  1  0.715300  0.323900  0.627300  1.0  0.1374
  H  H202  1  0.717400  0.397700  0.588600  1.0  0.1086
  H  H203  1  0.815300  0.198600  0.640900  1.0  0.1437
  H  H204  1  0.759900  0.091000  0.701200  1.0  0.1246
  H  H205  1  0.702100  0.196500  0.643000  1.0  0.1353
  H  H206  1  0.860400  0.202500  0.672100  1.0  0.1396
  H  H207  1  0.916800  0.151700  0.683600  1.0  0.1106
  H  H208  1  0.867600  0.973400  0.709800  1.0  0.1229
  H  H209  1  0.810500  0.025400  0.701400  1.0  0.1213
  H  H210  1  0.707000  0.123300  0.726300  1.0  0.1277
  H  H211  1  0.654400  0.077100  0.746300  1.0  0.1231
  H  H212  1  0.613400  0.039100  0.670600  1.0  0.1142
  H  H213  1  0.663700  0.096300  0.651600  1.0  0.137
  H  H214  1  0.639500  0.450700  0.554400  1.0  0.1288
  H  H215  1  0.587300  0.400300  0.573000  1.0  0.1159
  H  H216  1  0.544900  0.369500  0.497700  1.0  0.1362
  H  H217  1  0.597700  0.422200  0.479800  1.0  0.1131
  H  H218  1  0.548200  0.287900  0.577400  1.0  0.1233
  H  H219  1  0.437400  0.289000  0.580900  1.0  0.1258
  H  H220  1  0.489500  0.412400  0.525100  1.0  0.1346
  H  H221  1  0.533500  0.168000  0.596500  1.0  0.1205
  H  H222  1  0.531700  0.088800  0.633200  1.0  0.129
  H  H223  1  0.452100  0.210000  0.666667  1.0  0.1114
  H  H224  1  0.454300  0.288900  0.631400  1.0  0.1375
  H  H225  1  0.388800  0.300400  0.555200  1.0  0.1245
  H  H226  1  0.333500  0.337500  0.535400  1.0  0.1321
  H  H227  1  0.387000  0.508300  0.502500  1.0  0.1303
  H  H228  1  0.441100  0.475800  0.527600  1.0  0.1361
  H  H229  1  0.406900  0.117700  0.812200  1.0  0.0997
  H  H230  1  0.366200  0.105900  0.846800  1.0  0.1368
  H  H231  1  0.431600  0.956300  0.881300  1.0  0.1165
  H  H232  1  0.475600  0.971100  0.844800  1.0  0.1377
  H  H233  1  0.369600  0.133200  0.899000  1.0  0.1073
  H  H234  1  0.303500  0.023400  0.950100  1.0  0.1189
  H  H235  1  0.370100  0.918300  0.895300  1.0  0.1385
  H  H236  1  0.321800  0.220700  0.903700  1.0  0.1205
  H  H237  1  0.303900  0.327400  0.921900  1.0  0.1311
  H  H238  1  0.294300  0.235700  0.994700  1.0  0.1098
  H  H239  1  0.302400  0.125000  0.976500  1.0  0.1265
  H  H240  1  0.278700  0.924200  0.956600  1.0  0.1035
  H  H241  1  0.249900  0.814900  0.964900  1.0  0.1281
  H  H242  1  0.334200  0.716800  0.926500  1.0  0.1318
  H  H243  1  0.367700  0.831200  0.930700  1.0  0.1331
  H  H244  1  0.223500  0.437600  0.885900  1.0  0.1254
  H  H245  1  0.185500  0.420200  0.847800  1.0  0.1283
  H  H246  1  0.110400  0.554300  0.879400  1.0  0.1301
  H  H247  1  0.147900  0.573600  0.917300  1.0  0.1224
  H  H248  1  0.119400  0.368600  0.832600  1.0  0.1347
  H  H249  1  0.059900  0.471800  0.772800  1.0  0.1245
  H  H250  1  0.106100  0.584500  0.835600  1.0  0.1148
  H  H251  1  0.083200  0.286300  0.825000  1.0  0.1327
  H  H252  1  0.063800  0.170100  0.806700  1.0  0.1248
  H  H253  1  0.043500  0.260900  0.733700  1.0  0.1154
  H  H254  1  0.071100  0.370500  0.749000  1.0  0.1417
  H  H255  1  0.017900  0.574100  0.776200  1.0  0.1292
  H  H256  1  0.998400  0.681200  0.758600  1.0  0.1191
  H  H257  1  0.095700  0.774900  0.778400  1.0  0.1304
  H  H258  1  0.108800  0.674400  0.806600  1.0  0.1265
  H  H259  1  0.207000  0.729800  0.052800  1.0  0.1325
  H  H260  1  0.202300  0.794700  0.094900  1.0  0.1255
  H  H261  1  0.284700  0.676100  0.127300  1.0  0.1373
  H  H262  1  0.282600  0.602300  0.088600  1.0  0.1081
  H  H263  1  0.184700  0.801400  0.140900  1.0  0.1438
  H  H264  1  0.240100  0.909000  0.201200  1.0  0.1243
  H  H265  1  0.297900  0.803500  0.143000  1.0  0.135
  H  H266  1  0.139600  0.797500  0.172100  1.0  0.1394
  H  H267  1  0.083200  0.848300  0.183600  1.0  0.1102
  H  H268  1  0.132400  0.026600  0.209800  1.0  0.123
  H  H269  1  0.189500  0.974600  0.201400  1.0  0.1227
  H  H270  1  0.293000  0.876700  0.226300  1.0  0.1271
  H  H271  1  0.345600  0.922900  0.246300  1.0  0.1227
  H  H272  1  0.386600  0.960900  0.170600  1.0  0.1141
  H  H273  1  0.336300  0.903700  0.151600  1.0  0.1372
  H  H274  1  0.360500  0.549300  0.054400  1.0  0.1289
  H  H275  1  0.412700  0.599700  0.073000  1.0  0.1162
  H  H276  1  0.455100  0.630500  0.997700  1.0  0.1364
  H  H277  1  0.402300  0.577800  0.979800  1.0  0.1135
  H  H278  1  0.451800  0.712100  0.077400  1.0  0.1232
  H  H279  1  0.562600  0.711000  0.080900  1.0  0.1249
  H  H280  1  0.510500  0.587600  0.025100  1.0  0.1353
  H  H281  1  0.466500  0.832000  0.096500  1.0  0.1208
  H  H282  1  0.468300  0.911200  0.133200  1.0  0.1301
  H  H283  1  0.547900  0.790000  0.166700  1.0  0.1114
  H  H284  1  0.545700  0.711100  0.131400  1.0  0.1386
  H  H285  1  0.611200  0.699600  0.055200  1.0  0.1238
  H  H286  1  0.666500  0.662500  0.035400  1.0  0.1326
  H  H287  1  0.613000  0.491700  0.002500  1.0  0.129
  H  H288  1  0.558900  0.524200  0.027600  1.0  0.1356
  C  C289  1  0.032300  0.045200  0.298200  1.0  0.6927
  C  C290  1  0.057780  0.042100  0.322830  1.0  -0.134
  C  C291  1  0.088100  0.082800  0.325970  1.0  -0.04
  C  C292  1  0.111700  0.078300  0.346730  1.0  -0.1811
  C  C293  1  0.102970  0.030900  0.368990  1.0  0.0297
  C  C294  1  0.073100  0.990500  0.367280  1.0  -0.1147
  C  C295  1  0.047270  0.996400  0.344870  1.0  -0.0726
  C  C296  1  0.127700  0.028100  0.394480  1.0  0.0922
  C  C297  1  0.139820  0.088700  0.405680  1.0  -0.1211
  C  C298  1  0.165650  0.090000  0.426740  1.0  0.0693
  C  C299  1  0.178870  0.024500  0.435630  1.0  -0.1494
  C  C300  1  0.167190  0.959900  0.424090  1.0  0.0088
  C  C301  1  0.139550  0.961400  0.403010  1.0  -0.1278
  C  C302  1  0.175710  0.157800  0.439420  1.0  0.0327
  C  C303  1  0.182110  0.223400  0.422910  1.0  -0.1244
  C  C304  1  0.193160  0.286700  0.433530  1.0  -0.1404
  C  C305  1  0.200010  0.292200  0.460270  1.0  -0.0898
  C  C306  1  0.199900  0.231500  0.475780  1.0  -0.0346
  C  C307  1  0.192130  0.166400  0.465830  1.0  -0.1446
  C  C308  1  0.210900  0.365100  0.470780  1.0  0.7294
  C  C309  1  0.181130  0.889300  0.433960  1.0  0.1646
  C  C310  1  0.210410  0.881800  0.449270  1.0  -0.0948
  C  C311  1  0.226970  0.815900  0.455770  1.0  -0.1103
  C  C312  1  0.209940  0.753800  0.448970  1.0  -0.0606
  C  C313  1  0.176430  0.758400  0.434700  1.0  -0.0371
  C  C314  1  0.158340  0.827500  0.432720  1.0  -0.0666
  C  C315  1  0.224940  0.683200  0.457040  1.0  0.7567
  C  C316  1  0.283280  0.532000  0.427820  1.0  0.7639
  C  C317  1  0.308490  0.511200  0.404480  1.0  -0.1032
  C  C318  1  0.299170  0.463300  0.384520  1.0  -0.0755
  C  C319  1  0.322350  0.451200  0.362190  1.0  -0.1095
  C  C320  1  0.356520  0.483900  0.360740  1.0  0.0819
  C  C321  1  0.366490  0.530100  0.380680  1.0  -0.1667
  C  C322  1  0.343800  0.543000  0.402940  1.0  -0.0459
  C  C323  1  0.381230  0.479200  0.337330  1.0  0.0487
  C  C324  1  0.389920  0.411800  0.324740  1.0  -0.0941
  C  C325  1  0.412170  0.407900  0.300690  1.0  -0.011
  C  C326  1  0.424540  0.473700  0.288490  1.0  -0.0748
  C  C327  1  0.414200  0.541400  0.299270  1.0  -0.0478
  C  C328  1  0.395910  0.540500  0.325720  1.0  -0.102
  C  C329  1  0.425200  0.337600  0.289920  1.0  0.053
  C  C330  1  0.424520  0.281700  0.306440  1.0  -0.1107
  C  C331  1  0.436210  0.211300  0.295160  1.0  -0.0193
  C  C332  1  0.447250  0.204100  0.267860  1.0  -0.1271
  C  C333  1  0.446950  0.264000  0.251840  1.0  -0.0318
  C  C334  1  0.432910  0.331500  0.261210  1.0  -0.1467
  C  C335  1  0.457370  0.132900  0.256470  1.0  0.7564
  C  C336  1  0.431990  0.609000  0.291120  1.0  0.0292
  C  C337  1  0.466980  0.615600  0.278190  1.0  -0.1384
  C  C338  1  0.479150  0.679500  0.268690  1.0  -0.0357
  C  C339  1  0.460190  0.741400  0.273130  1.0  -0.0771
  C  C340  1  0.421530  0.737100  0.281650  1.0  -0.0743
  C  C341  1  0.411980  0.674300  0.294700  1.0  -0.1107
  C  C342  1  0.473500  0.814500  0.266290  1.0  0.722
  C  C343  1  0.257420  0.607500  0.544200  1.0  0.7396
  C  C344  1  0.256870  0.654300  0.568170  1.0  -0.0913
  C  C345  1  0.279190  0.715800  0.568510  1.0  -0.0858
  C  C346  1  0.280400  0.756500  0.593250  1.0  -0.096
  C  C347  1  0.256740  0.741700  0.615230  1.0  0.0895
  C  C348  1  0.232590  0.685600  0.613100  1.0  -0.1363
  C  C349  1  0.233700  0.642300  0.589620  1.0  -0.0383
  C  C350  1  0.257000  0.790000  0.639910  1.0  0.0595
  C  C351  1  0.292980  0.814900  0.649880  1.0  -0.1465
  C  C352  1  0.293400  0.858500  0.672800  1.0  -0.0197
  C  C353  1  0.259520  0.880000  0.685090  1.0  -0.1261
  C  C354  1  0.226970  0.859900  0.674210  1.0  0.0138
  C  C355  1  0.225260  0.815500  0.650950  1.0  -0.1398
  C  C356  1  0.329290  0.885300  0.683310  1.0  0.0901
  C  C357  1  0.361450  0.844200  0.679990  1.0  -0.2254
  C  C358  1  0.394730  0.873100  0.688440  1.0  -0.0248
  C  C359  1  0.397830  0.934500  0.703170  1.0  -0.0983
  C  C360  1  0.365930  0.977800  0.704120  1.0  -0.0908
  C  C361  1  0.332430  0.949000  0.696840  1.0  -0.154
  C  C362  1  0.434490  0.962700  0.712730  1.0  0.755
  C  C363  1  0.190690  0.887000  0.687680  1.0  0.0578
  C  C364  1  0.187280  0.892600  0.714920  1.0  -0.1311
  C  C365  1  0.156140  0.920800  0.726850  1.0  -0.0838
  C  C366  1  0.126930  0.946300  0.710870  1.0  -0.1213
  C  C367  1  0.131810  0.941500  0.682290  1.0  -0.0451
  C  C368  1  0.162130  0.909900  0.670890  1.0  -0.1518
  C  C369  1  0.093390  0.978600  0.722960  1.0  0.7478
  C  C370  1  0.157830  0.527100  0.503210  1.0  0.7428
  C  C371  1  0.123710  0.558500  0.515320  1.0  -0.102
  C  C372  1  0.120150  0.564900  0.542680  1.0  -0.0954
  C  C373  1  0.088460  0.594000  0.553690  1.0  -0.1007
  C  C374  1  0.058530  0.615300  0.538540  1.0  0.0915
  C  C375  1  0.063440  0.612100  0.509650  1.0  -0.2001
  C  C376  1  0.095370  0.582200  0.499110  1.0  -0.0376
  C  C377  1  0.025320  0.647600  0.548820  1.0  0.0693
  C  C378  1  0.025140  0.693900  0.571060  1.0  -0.134
  C  C379  1  0.992970  0.715500  0.584690  1.0  0.0523
  C  C380  1  0.959760  0.693200  0.573280  1.0  -0.1406
  C  C381  1  0.957630  0.646300  0.551260  1.0  0.0148
  C  C382  1  0.990410  0.621900  0.539570  1.0  -0.1399
  C  C383  1  0.993400  0.762400  0.609660  1.0  0.0797
  C  C384  1  0.016850  0.823000  0.611180  1.0  -0.1102
  C  C385  1  0.016510  0.869500  0.633170  1.0  -0.112
  C  C386  1  0.993620  0.854600  0.655290  1.0  -0.095
  C  C387  1  0.969930  0.797600  0.652610  1.0  -0.0377
  C  C388  1  0.970300  0.751700  0.631360  1.0  -0.2031
  C  C389  1  0.992540  0.900200  0.679830  1.0  0.7261
  C  C390  1  0.921980  0.620800  0.540690  1.0  0.0732
  C  C391  1  0.888560  0.656500  0.544710  1.0  -0.1146
  C  C392  1  0.854820  0.632900  0.534310  1.0  -0.0933
  C  C393  1  0.852980  0.565100  0.522390  1.0  -0.1114
  C  C394  1  0.886710  0.530200  0.515350  1.0  -0.0519
  C  C395  1  0.919840  0.554300  0.527940  1.0  -0.1596
  C  C396  1  0.818120  0.534400  0.513190  1.0  0.7445
  C  C397  1  0.967700  0.954800  0.798200  1.0  0.6929
  C  C398  1  0.942220  0.957900  0.822830  1.0  -0.1328
  C  C399  1  0.911900  0.917200  0.825970  1.0  -0.0398
  C  C400  1  0.888300  0.921700  0.846730  1.0  -0.1804
  C  C401  1  0.897030  0.969100  0.868990  1.0  0.0257
  C  C402  1  0.926900  0.009500  0.867280  1.0  -0.1145
  C  C403  1  0.952730  0.003600  0.844870  1.0  -0.0711
  C  C404  1  0.872300  0.971900  0.894480  1.0  0.0928
  C  C405  1  0.860180  0.911300  0.905680  1.0  -0.1191
  C  C406  1  0.834350  0.910000  0.926740  1.0  0.0692
  C  C407  1  0.821130  0.975500  0.935630  1.0  -0.1505
  C  C408  1  0.832810  0.040100  0.924090  1.0  0.0104
  C  C409  1  0.860450  0.038600  0.903010  1.0  -0.127
  C  C410  1  0.824290  0.842200  0.939420  1.0  0.0338
  C  C411  1  0.817890  0.776600  0.922910  1.0  -0.1242
  C  C412  1  0.806840  0.713300  0.933530  1.0  -0.1406
  C  C413  1  0.799990  0.707800  0.960270  1.0  -0.0892
  C  C414  1  0.800100  0.768500  0.975780  1.0  -0.0354
  C  C415  1  0.807870  0.833600  0.965830  1.0  -0.1454
  C  C416  1  0.789100  0.634900  0.970780  1.0  0.7303
  C  C417  1  0.818870  0.110700  0.933960  1.0  0.1644
  C  C418  1  0.789590  0.118200  0.949270  1.0  -0.0982
  C  C419  1  0.773030  0.184100  0.955770  1.0  -0.1117
  C  C420  1  0.790060  0.246200  0.948970  1.0  -0.0595
  C  C421  1  0.823570  0.241600  0.934700  1.0  -0.0362
  C  C422  1  0.841660  0.172500  0.932720  1.0  -0.0636
  C  C423  1  0.775060  0.316800  0.957040  1.0  0.7564
  C  C424  1  0.716720  0.468000  0.927820  1.0  0.7645
  C  C425  1  0.691510  0.488800  0.904480  1.0  -0.1034
  C  C426  1  0.700830  0.536700  0.884520  1.0  -0.0761
  C  C427  1  0.677650  0.548800  0.862190  1.0  -0.1084
  C  C428  1  0.643480  0.516100  0.860740  1.0  0.0811
  C  C429  1  0.633510  0.469900  0.880680  1.0  -0.1674
  C  C430  1  0.656200  0.457000  0.902940  1.0  -0.0461
  C  C431  1  0.618770  0.520800  0.837330  1.0  0.0489
  C  C432  1  0.610080  0.588200  0.824740  1.0  -0.0928
  C  C433  1  0.587830  0.592100  0.800690  1.0  -0.0108
  C  C434  1  0.575460  0.526300  0.788490  1.0  -0.075
  C  C435  1  0.585800  0.458600  0.799270  1.0  -0.0483
  C  C436  1  0.604090  0.459500  0.825720  1.0  -0.1013
  C  C437  1  0.574800  0.662400  0.789920  1.0  0.0527
  C  C438  1  0.575480  0.718300  0.806440  1.0  -0.1105
  C  C439  1  0.563790  0.788700  0.795160  1.0  -0.0187
  C  C440  1  0.552750  0.795900  0.767860  1.0  -0.1274
  C  C441  1  0.553050  0.736000  0.751840  1.0  -0.0306
  C  C442  1  0.567090  0.668500  0.761210  1.0  -0.1461
  C  C443  1  0.542630  0.867100  0.756470  1.0  0.7556
  C  C444  1  0.568010  0.391000  0.791120  1.0  0.0292
  C  C445  1  0.533020  0.384400  0.778190  1.0  -0.1407
  C  C446  1  0.520850  0.320500  0.768690  1.0  -0.0344
  C  C447  1  0.539810  0.258600  0.773130  1.0  -0.0778
  C  C448  1  0.578470  0.262900  0.781650  1.0  -0.0731
  C  C449  1  0.588020  0.325700  0.794700  1.0  -0.1103
  C  C450  1  0.526500  0.185500  0.766290  1.0  0.7226
  C  C451  1  0.742580  0.392500  0.044200  1.0  0.7399
  C  C452  1  0.743130  0.345700  0.068170  1.0  -0.0913
  C  C453  1  0.720810  0.284200  0.068510  1.0  -0.0855
  C  C454  1  0.719600  0.243500  0.093250  1.0  -0.0956
  C  C455  1  0.743260  0.258300  0.115230  1.0  0.0891
  C  C456  1  0.767410  0.314400  0.113100  1.0  -0.1357
  C  C457  1  0.766300  0.357700  0.089620  1.0  -0.0393
  C  C458  1  0.743000  0.210000  0.139910  1.0  0.0593
  C  C459  1  0.707020  0.185100  0.149880  1.0  -0.1483
  C  C460  1  0.706600  0.141500  0.172800  1.0  -0.0194
  C  C461  1  0.740480  0.120000  0.185090  1.0  -0.1263
  C  C462  1  0.773030  0.140100  0.174210  1.0  0.0164
  C  C463  1  0.774740  0.184500  0.150950  1.0  -0.1392
  C  C464  1  0.670710  0.114700  0.183310  1.0  0.0899
  C  C465  1  0.638550  0.155800  0.179990  1.0  -0.225
  C  C466  1  0.605270  0.126900  0.188440  1.0  -0.0259
  C  C467  1  0.602170  0.065500  0.203170  1.0  -0.0973
  C  C468  1  0.634070  0.022200  0.204120  1.0  -0.0886
  C  C469  1  0.667570  0.051000  0.196840  1.0  -0.1549
  C  C470  1  0.565510  0.037300  0.212730  1.0  0.7537
  C  C471  1  0.809310  0.113000  0.187680  1.0  0.0567
  C  C472  1  0.812720  0.107400  0.214920  1.0  -0.1324
  C  C473  1  0.843860  0.079200  0.226850  1.0  -0.0846
  C  C474  1  0.873070  0.053700  0.210870  1.0  -0.122
  C  C475  1  0.868190  0.058500  0.182290  1.0  -0.0448
  C  C476  1  0.837870  0.090100  0.170890  1.0  -0.1505
  C  C477  1  0.906610  0.021400  0.222960  1.0  0.7476
  C  C478  1  0.842170  0.472900  0.003210  1.0  0.7427
  C  C479  1  0.876290  0.441500  0.015320  1.0  -0.1031
  C  C480  1  0.879850  0.435100  0.042680  1.0  -0.0971
  C  C481  1  0.911540  0.406000  0.053690  1.0  -0.1005
  C  C482  1  0.941470  0.384700  0.038540  1.0  0.0914
  C  C483  1  0.936560  0.387900  0.009650  1.0  -0.2004
  C  C484  1  0.904630  0.417800  0.999110  1.0  -0.0379
  C  C485  1  0.974680  0.352400  0.048820  1.0  0.0683
  C  C486  1  0.974860  0.306100  0.071060  1.0  -0.1343
  C  C487  1  0.007030  0.284500  0.084690  1.0  0.0519
  C  C488  1  0.040240  0.306800  0.073280  1.0  -0.1407
  C  C489  1  0.042370  0.353700  0.051260  1.0  0.0223
  C  C490  1  0.009590  0.378100  0.039570  1.0  -0.1408
  C  C491  1  0.006600  0.237600  0.109660  1.0  0.0799
  C  C492  1  0.983150  0.177000  0.111180  1.0  -0.1117
  C  C493  1  0.983490  0.130500  0.133170  1.0  -0.1134
  C  C494  1  0.006380  0.145400  0.155290  1.0  -0.0966
  C  C495  1  0.030070  0.202400  0.152610  1.0  -0.0399
  C  C496  1  0.029700  0.248300  0.131360  1.0  -0.2035
  C  C497  1  0.007460  0.099800  0.179830  1.0  0.7253
  C  C498  1  0.078020  0.379200  0.040690  1.0  0.0735
  C  C499  1  0.111440  0.343500  0.044710  1.0  -0.1126
  C  C500  1  0.145180  0.367100  0.034310  1.0  -0.0912
  C  C501  1  0.147020  0.434900  0.022390  1.0  -0.1104
  C  C502  1  0.113290  0.469800  0.015350  1.0  -0.0534
  C  C503  1  0.080160  0.445700  0.027940  1.0  -0.1608
  C  C504  1  0.181880  0.465600  0.013190  1.0  0.7447
  C  C505  1  0.532300  0.954800  0.298200  1.0  0.6928
  C  C506  1  0.557780  0.957900  0.322830  1.0  -0.1339
  C  C507  1  0.588100  0.917200  0.325970  1.0  -0.0396
  C  C508  1  0.611700  0.921700  0.346730  1.0  -0.1809
  C  C509  1  0.602970  0.969100  0.368990  1.0  0.0297
  C  C510  1  0.573100  0.009500  0.367280  1.0  -0.1157
  C  C511  1  0.547270  0.003600  0.344870  1.0  -0.0728
  C  C512  1  0.627700  0.971900  0.394480  1.0  0.0923
  C  C513  1  0.639820  0.911300  0.405680  1.0  -0.1201
  C  C514  1  0.665650  0.910000  0.426740  1.0  0.0693
  C  C515  1  0.678870  0.975500  0.435630  1.0  -0.1494
  C  C516  1  0.667190  0.040100  0.424090  1.0  0.0094
  C  C517  1  0.639550  0.038600  0.403010  1.0  -0.1268
  C  C518  1  0.675710  0.842200  0.439420  1.0  0.0326
  C  C519  1  0.682110  0.776600  0.422910  1.0  -0.1244
  C  C520  1  0.693160  0.713300  0.433530  1.0  -0.1409
  C  C521  1  0.700010  0.707800  0.460270  1.0  -0.0893
  C  C522  1  0.699900  0.768500  0.475780  1.0  -0.035
  C  C523  1  0.692130  0.833600  0.465830  1.0  -0.1453
  C  C524  1  0.710900  0.634900  0.470780  1.0  0.7302
  C  C525  1  0.681130  0.110700  0.433960  1.0  0.1646
  C  C526  1  0.710410  0.118200  0.449270  1.0  -0.0952
  C  C527  1  0.726970  0.184100  0.455770  1.0  -0.1105
  C  C528  1  0.709940  0.246200  0.448970  1.0  -0.0609
  C  C529  1  0.676430  0.241600  0.434700  1.0  -0.0371
  C  C530  1  0.658340  0.172500  0.432720  1.0  -0.0669
  C  C531  1  0.724940  0.316800  0.457040  1.0  0.7568
  C  C532  1  0.783280  0.468000  0.427820  1.0  0.7637
  C  C533  1  0.808490  0.488800  0.404480  1.0  -0.1034
  C  C534  1  0.799170  0.536700  0.384520  1.0  -0.0761
  C  C535  1  0.822350  0.548800  0.362190  1.0  -0.1092
  C  C536  1  0.856520  0.516100  0.360740  1.0  0.0816
  C  C537  1  0.866490  0.469900  0.380680  1.0  -0.1655
  C  C538  1  0.843800  0.457000  0.402940  1.0  -0.046
  C  C539  1  0.881230  0.520800  0.337330  1.0  0.0491
  C  C540  1  0.889920  0.588200  0.324740  1.0  -0.0943
  C  C541  1  0.912170  0.592100  0.300690  1.0  -0.0107
  C  C542  1  0.924540  0.526300  0.288490  1.0  -0.0748
  C  C543  1  0.914200  0.458600  0.299270  1.0  -0.0485
  C  C544  1  0.895910  0.459500  0.325720  1.0  -0.1017
  C  C545  1  0.925200  0.662400  0.289920  1.0  0.053
  C  C546  1  0.924520  0.718300  0.306440  1.0  -0.1108
  C  C547  1  0.936210  0.788700  0.295160  1.0  -0.0191
  C  C548  1  0.947250  0.795900  0.267860  1.0  -0.1275
  C  C549  1  0.946950  0.736000  0.251840  1.0  -0.0314
  C  C550  1  0.932910  0.668500  0.261210  1.0  -0.146
  C  C551  1  0.957370  0.867100  0.256470  1.0  0.7559
  C  C552  1  0.931990  0.391000  0.291120  1.0  0.0293
  C  C553  1  0.966980  0.384400  0.278190  1.0  -0.139
  C  C554  1  0.979150  0.320500  0.268690  1.0  -0.0351
  C  C555  1  0.960190  0.258600  0.273130  1.0  -0.0778
  C  C556  1  0.921530  0.262900  0.281650  1.0  -0.0733
  C  C557  1  0.911980  0.325700  0.294700  1.0  -0.1107
  C  C558  1  0.973500  0.185500  0.266290  1.0  0.7222
  C  C559  1  0.757420  0.392500  0.544200  1.0  0.74
  C  C560  1  0.756870  0.345700  0.568170  1.0  -0.0913
  C  C561  1  0.779190  0.284200  0.568510  1.0  -0.0853
  C  C562  1  0.780400  0.243500  0.593250  1.0  -0.0942
  C  C563  1  0.756740  0.258300  0.615230  1.0  0.0893
  C  C564  1  0.732590  0.314400  0.613100  1.0  -0.1371
  C  C565  1  0.733700  0.357700  0.589620  1.0  -0.0386
  C  C566  1  0.757000  0.210000  0.639910  1.0  0.0592
  C  C567  1  0.792980  0.185100  0.649880  1.0  -0.1474
  C  C568  1  0.793400  0.141500  0.672800  1.0  -0.0198
  C  C569  1  0.759520  0.120000  0.685090  1.0  -0.1258
  C  C570  1  0.726970  0.140100  0.674210  1.0  0.0138
  C  C571  1  0.725260  0.184500  0.650950  1.0  -0.1398
  C  C572  1  0.829290  0.114700  0.683310  1.0  0.0902
  C  C573  1  0.861450  0.155800  0.679990  1.0  -0.2254
  C  C574  1  0.894730  0.126900  0.688440  1.0  -0.0255
  C  C575  1  0.897830  0.065500  0.703170  1.0  -0.0984
  C  C576  1  0.865930  0.022200  0.704120  1.0  -0.0892
  C  C577  1  0.832430  0.051000  0.696840  1.0  -0.1536
  C  C578  1  0.934490  0.037300  0.712730  1.0  0.7544
  C  C579  1  0.690690  0.113000  0.687680  1.0  0.0572
  C  C580  1  0.687280  0.107400  0.714920  1.0  -0.1315
  C  C581  1  0.656140  0.079200  0.726850  1.0  -0.0837
  C  C582  1  0.626930  0.053700  0.710870  1.0  -0.1213
  C  C583  1  0.631810  0.058500  0.682290  1.0  -0.0445
  C  C584  1  0.662130  0.090100  0.670890  1.0  -0.151
  C  C585  1  0.593390  0.021400  0.722960  1.0  0.748
  C  C586  1  0.657830  0.472900  0.503210  1.0  0.7432
  C  C587  1  0.623710  0.441500  0.515320  1.0  -0.1023
  C  C588  1  0.620150  0.435100  0.542680  1.0  -0.096
  C  C589  1  0.588460  0.406000  0.553690  1.0  -0.1005
  C  C590  1  0.558530  0.384700  0.538540  1.0  0.0917
  C  C591  1  0.563440  0.387900  0.509650  1.0  -0.1998
  C  C592  1  0.595370  0.417800  0.499110  1.0  -0.0373
  C  C593  1  0.525320  0.352400  0.548820  1.0  0.0693
  C  C594  1  0.525140  0.306100  0.571060  1.0  -0.1336
  C  C595  1  0.492970  0.284500  0.584690  1.0  0.052
  C  C596  1  0.459760  0.306800  0.573280  1.0  -0.1401
  C  C597  1  0.457630  0.353700  0.551260  1.0  0.0149
  C  C598  1  0.490410  0.378100  0.539570  1.0  -0.1406
  C  C599  1  0.493400  0.237600  0.609660  1.0  0.0798
  C  C600  1  0.516850  0.177000  0.611180  1.0  -0.1112
  C  C601  1  0.516510  0.130500  0.633170  1.0  -0.1134
  C  C602  1  0.493620  0.145400  0.655290  1.0  -0.0949
  C  C603  1  0.469930  0.202400  0.652610  1.0  -0.0384
  C  C604  1  0.470300  0.248300  0.631360  1.0  -0.2044
  C  C605  1  0.492540  0.099800  0.679830  1.0  0.7259
  C  C606  1  0.421980  0.379200  0.540690  1.0  0.073
  C  C607  1  0.388560  0.343500  0.544710  1.0  -0.1141
  C  C608  1  0.354820  0.367100  0.534310  1.0  -0.0925
  C  C609  1  0.352980  0.434900  0.522390  1.0  -0.1113
  C  C610  1  0.386710  0.469800  0.515350  1.0  -0.0527
  C  C611  1  0.419840  0.445700  0.527940  1.0  -0.1598
  C  C612  1  0.318120  0.465600  0.513190  1.0  0.7443
  C  C613  1  0.467700  0.045200  0.798200  1.0  0.6926
  C  C614  1  0.442220  0.042100  0.822830  1.0  -0.1329
  C  C615  1  0.411900  0.082800  0.825970  1.0  -0.0402
  C  C616  1  0.388300  0.078300  0.846730  1.0  -0.1809
  C  C617  1  0.397030  0.030900  0.868990  1.0  0.0258
  C  C618  1  0.426900  0.990500  0.867280  1.0  -0.1123
  C  C619  1  0.452730  0.996400  0.844870  1.0  -0.0718
  C  C620  1  0.372300  0.028100  0.894480  1.0  0.0928
  C  C621  1  0.360180  0.088700  0.905680  1.0  -0.1207
  C  C622  1  0.334350  0.090000  0.926740  1.0  0.0691
  C  C623  1  0.321130  0.024500  0.935630  1.0  -0.1505
  C  C624  1  0.332810  0.959900  0.924090  1.0  0.0098
  C  C625  1  0.360450  0.961400  0.903010  1.0  -0.1278
  C  C626  1  0.324290  0.157800  0.939420  1.0  0.034
  C  C627  1  0.317890  0.223400  0.922910  1.0  -0.1244
  C  C628  1  0.306840  0.286700  0.933530  1.0  -0.1402
  C  C629  1  0.299990  0.292200  0.960270  1.0  -0.0897
  C  C630  1  0.300100  0.231500  0.975780  1.0  -0.0351
  C  C631  1  0.307870  0.166400  0.965830  1.0  -0.1444
  C  C632  1  0.289100  0.365100  0.970780  1.0  0.7294
  C  C633  1  0.318870  0.889300  0.933960  1.0  0.1644
  C  C634  1  0.289590  0.881800  0.949270  1.0  -0.0978
  C  C635  1  0.273030  0.815900  0.955770  1.0  -0.1122
  C  C636  1  0.290060  0.753800  0.948970  1.0  -0.0593
  C  C637  1  0.323570  0.758400  0.934700  1.0  -0.0357
  C  C638  1  0.341660  0.827500  0.932720  1.0  -0.0643
  C  C639  1  0.275060  0.683200  0.957040  1.0  0.756
  C  C640  1  0.216720  0.532000  0.927820  1.0  0.7647
  C  C641  1  0.191510  0.511200  0.904480  1.0  -0.1033
  C  C642  1  0.200830  0.463300  0.884520  1.0  -0.0762
  C  C643  1  0.177650  0.451200  0.862190  1.0  -0.1084
  C  C644  1  0.143480  0.483900  0.860740  1.0  0.0812
  C  C645  1  0.133510  0.530100  0.880680  1.0  -0.1685
  C  C646  1  0.156200  0.543000  0.902940  1.0  -0.0463
  C  C647  1  0.118770  0.479200  0.837330  1.0  0.0485
  C  C648  1  0.110080  0.411800  0.824740  1.0  -0.0918
  C  C649  1  0.087830  0.407900  0.800690  1.0  -0.0112
  C  C650  1  0.075460  0.473700  0.788490  1.0  -0.075
  C  C651  1  0.085800  0.541400  0.799270  1.0  -0.0477
  C  C652  1  0.104090  0.540500  0.825720  1.0  -0.1011
  C  C653  1  0.074800  0.337600  0.789920  1.0  0.0522
  C  C654  1  0.075480  0.281700  0.806440  1.0  -0.1096
  C  C655  1  0.063790  0.211300  0.795160  1.0  -0.02
  C  C656  1  0.052750  0.204100  0.767860  1.0  -0.1293
  C  C657  1  0.053050  0.264000  0.751840  1.0  -0.0315
  C  C658  1  0.067090  0.331500  0.761210  1.0  -0.1466
  C  C659  1  0.042630  0.132900  0.756470  1.0  0.756
  C  C660  1  0.068010  0.609000  0.791120  1.0  0.0292
  C  C661  1  0.033020  0.615600  0.778190  1.0  -0.1397
  C  C662  1  0.020850  0.679500  0.768690  1.0  -0.034
  C  C663  1  0.039810  0.741400  0.773130  1.0  -0.0771
  C  C664  1  0.078470  0.737100  0.781650  1.0  -0.0743
  C  C665  1  0.088020  0.674300  0.794700  1.0  -0.1098
  C  C666  1  0.026500  0.814500  0.766290  1.0  0.7224
  C  C667  1  0.242580  0.607500  0.044200  1.0  0.7395
  C  C668  1  0.243130  0.654300  0.068170  1.0  -0.0912
  C  C669  1  0.220810  0.715800  0.068510  1.0  -0.0858
  C  C670  1  0.219600  0.756500  0.093250  1.0  -0.0972
  C  C671  1  0.243260  0.741700  0.115230  1.0  0.0895
  C  C672  1  0.267410  0.685600  0.113100  1.0  -0.1353
  C  C673  1  0.266300  0.642300  0.089620  1.0  -0.0389
  C  C674  1  0.243000  0.790000  0.139910  1.0  0.0596
  C  C675  1  0.207020  0.814900  0.149880  1.0  -0.1476
  C  C676  1  0.206600  0.858500  0.172800  1.0  -0.0194
  C  C677  1  0.240480  0.880000  0.185090  1.0  -0.1265
  C  C678  1  0.273030  0.859900  0.174210  1.0  0.0164
  C  C679  1  0.274740  0.815500  0.150950  1.0  -0.139
  C  C680  1  0.170710  0.885300  0.183310  1.0  0.0898
  C  C681  1  0.138550  0.844200  0.179990  1.0  -0.2251
  C  C682  1  0.105270  0.873100  0.188440  1.0  -0.0252
  C  C683  1  0.102170  0.934500  0.203170  1.0  -0.0972
  C  C684  1  0.134070  0.977800  0.204120  1.0  -0.0904
  C  C685  1  0.167570  0.949000  0.196840  1.0  -0.154
  C  C686  1  0.065510  0.962700  0.212730  1.0  0.7549
  C  C687  1  0.309310  0.887000  0.187680  1.0  0.0573
  C  C688  1  0.312720  0.892600  0.214920  1.0  -0.1318
  C  C689  1  0.343860  0.920800  0.226850  1.0  -0.0847
  C  C690  1  0.373070  0.946300  0.210870  1.0  -0.1218
  C  C691  1  0.368190  0.941500  0.182290  1.0  -0.0454
  C  C692  1  0.337870  0.909900  0.170890  1.0  -0.1508
  C  C693  1  0.406610  0.978600  0.222960  1.0  0.7479
  C  C694  1  0.342170  0.527100  0.003210  1.0  0.7431
  C  C695  1  0.376290  0.558500  0.015320  1.0  -0.1031
  C  C696  1  0.379850  0.564900  0.042680  1.0  -0.0962
  C  C697  1  0.411540  0.594000  0.053690  1.0  -0.1006
  C  C698  1  0.441470  0.615300  0.038540  1.0  0.0913
  C  C699  1  0.436560  0.612100  0.009650  1.0  -0.2001
  C  C700  1  0.404630  0.582200  0.999110  1.0  -0.0382
  C  C701  1  0.474680  0.647600  0.048820  1.0  0.0685
  C  C702  1  0.474860  0.693900  0.071060  1.0  -0.1345
  C  C703  1  0.507030  0.715500  0.084690  1.0  0.0521
  C  C704  1  0.540240  0.693200  0.073280  1.0  -0.1404
  C  C705  1  0.542370  0.646300  0.051260  1.0  0.0147
  C  C706  1  0.509590  0.621900  0.039570  1.0  -0.1403
  C  C707  1  0.506600  0.762400  0.109660  1.0  0.0798
  C  C708  1  0.483150  0.823000  0.111180  1.0  -0.111
  C  C709  1  0.483490  0.869500  0.133170  1.0  -0.1129
  C  C710  1  0.506380  0.854600  0.155290  1.0  -0.0968
  C  C711  1  0.530070  0.797600  0.152610  1.0  -0.04
  C  C712  1  0.529700  0.751700  0.131360  1.0  -0.2026
  C  C713  1  0.507460  0.900200  0.179830  1.0  0.7257
  C  C714  1  0.578020  0.620800  0.040690  1.0  0.0738
  C  C715  1  0.611440  0.656500  0.044710  1.0  -0.1139
  C  C716  1  0.645180  0.632900  0.034310  1.0  -0.091
  C  C717  1  0.647020  0.565100  0.022390  1.0  -0.1105
  C  C718  1  0.613290  0.530200  0.015350  1.0  -0.0523
  C  C719  1  0.580160  0.554300  0.027940  1.0  -0.1596
  C  C720  1  0.681880  0.534400  0.013190  1.0  0.7446
  O  O721  1  0.001070  0.016290  0.298710  1.0  -0.6013
  O  O722  1  0.045760  0.081120  0.278530  1.0  -0.62
  O  O723  1  0.203270  0.415710  0.455380  1.0  -0.6365
  O  O724  1  0.223280  0.373560  0.494520  1.0  -0.6264
  O  O725  1  0.251770  0.679410  0.472040  1.0  -0.6627
  O  O726  1  0.208610  0.630770  0.448000  1.0  -0.6483
  O  O727  1  0.251250  0.506940  0.426430  1.0  -0.6103
  O  O728  1  0.297110  0.568790  0.446300  1.0  -0.6438
  O  O729  1  0.453690  0.082300  0.272630  1.0  -0.6282
  O  O730  1  0.470230  0.130050  0.233530  1.0  -0.595
  O  O731  1  0.501380  0.816160  0.249790  1.0  -0.6194
  O  O732  1  0.458570  0.866980  0.276530  1.0  -0.6226
  O  O733  1  0.274650  0.629280  0.523780  1.0  -0.6644
  O  O734  1  0.242230  0.547430  0.545450  1.0  -0.6282
  O  O735  1  0.462210  0.933190  0.706400  1.0  -0.6206
  O  O736  1  0.431740  0.018300  0.727490  1.0  -0.6214
  O  O737  1  0.087480  0.964160  0.747360  1.0  -0.5989
  O  O738  1  0.071590  0.009440  0.706870  1.0  -0.6265
  O  O739  1  0.163200  0.537210  0.477860  1.0  -0.6296
  O  O740  1  0.177920  0.491970  0.517890  1.0  -0.6478
  O  O741  1  0.009750  0.958330  0.679210  1.0  -0.6181
  O  O742  1  0.975220  0.877410  0.700100  1.0  -0.6155
  O  O743  1  0.788570  0.565310  0.520370  1.0  -0.6611
  O  O744  1  0.819240  0.478120  0.499710  1.0  -0.6355
  O  O745  1  0.972530  0.892540  0.176400  1.0  -0.5943
  O  O746  1  0.923380  0.024400  0.305200  1.0  -0.3652
  O  O747  1  0.075410  0.165600  0.237530  1.0  -0.7079
  O  O748  1  0.991660  0.026860  0.240530  1.0  -0.7723
  O  O749  1  0.172810  0.517230  0.421190  1.0  -0.4241
  O  O750  1  0.223920  0.399910  0.551370  1.0  -0.3537
  O  O751  1  0.241590  0.529330  0.485450  1.0  -0.8448
  O  O752  1  0.998930  0.983710  0.798710  1.0  -0.6041
  O  O753  1  0.954240  0.918880  0.778530  1.0  -0.6218
  O  O754  1  0.796730  0.584290  0.955380  1.0  -0.6376
  O  O755  1  0.776720  0.626440  0.994520  1.0  -0.6259
  O  O756  1  0.748230  0.320590  0.972040  1.0  -0.6645
  O  O757  1  0.791390  0.369230  0.948000  1.0  -0.6497
  O  O758  1  0.748750  0.493060  0.926430  1.0  -0.6096
  O  O759  1  0.702890  0.431210  0.946300  1.0  -0.6418
  O  O760  1  0.546310  0.917700  0.772630  1.0  -0.6269
  O  O761  1  0.529770  0.869950  0.733530  1.0  -0.5935
  O  O762  1  0.498620  0.183840  0.749790  1.0  -0.62
  O  O763  1  0.541430  0.133020  0.776530  1.0  -0.6216
  O  O764  1  0.725350  0.370720  0.023780  1.0  -0.667
  O  O765  1  0.757770  0.452570  0.045450  1.0  -0.6275
  O  O766  1  0.537790  0.066810  0.206400  1.0  -0.6227
  O  O767  1  0.568260  0.981700  0.227490  1.0  -0.6209
  O  O768  1  0.912520  0.035840  0.247360  1.0  -0.599
  O  O769  1  0.928410  0.990560  0.206870  1.0  -0.627
  O  O770  1  0.836800  0.462790  0.977860  1.0  -0.6275
  O  O771  1  0.822080  0.508030  0.017890  1.0  -0.6487
  O  O772  1  0.990250  0.041670  0.179210  1.0  -0.6169
  O  O773  1  0.024780  0.122590  0.200100  1.0  -0.6161
  O  O774  1  0.211430  0.434690  0.020370  1.0  -0.6612
  O  O775  1  0.180760  0.521880  0.999710  1.0  -0.6365
  O  O776  1  0.027470  0.107460  0.676400  1.0  -0.5969
  O  O777  1  0.076620  0.975600  0.805200  1.0  -0.3664
  O  O778  1  0.924590  0.834400  0.737530  1.0  -0.7087
  O  O779  1  0.008340  0.973140  0.740530  1.0  -0.7726
  O  O780  1  0.827190  0.482770  0.921190  1.0  -0.4223
  O  O781  1  0.776080  0.600090  0.051370  1.0  -0.3495
  O  O782  1  0.758410  0.470670  0.985450  1.0  -0.8448
  O  O783  1  0.501070  0.983710  0.298710  1.0  -0.6024
  O  O784  1  0.545760  0.918880  0.278530  1.0  -0.6194
  O  O785  1  0.703270  0.584290  0.455380  1.0  -0.6369
  O  O786  1  0.723280  0.626440  0.494520  1.0  -0.6263
  O  O787  1  0.751770  0.320590  0.472040  1.0  -0.6621
  O  O788  1  0.708610  0.369230  0.448000  1.0  -0.6486
  O  O789  1  0.751250  0.493060  0.426430  1.0  -0.6086
  O  O790  1  0.797110  0.431210  0.446300  1.0  -0.6419
  O  O791  1  0.953690  0.917700  0.272630  1.0  -0.6277
  O  O792  1  0.970230  0.869950  0.233530  1.0  -0.5942
  O  O793  1  0.001380  0.183840  0.249790  1.0  -0.6205
  O  O794  1  0.958570  0.133020  0.276530  1.0  -0.6231
  O  O795  1  0.774650  0.370720  0.523780  1.0  -0.6658
  O  O796  1  0.742230  0.452570  0.545450  1.0  -0.6275
  O  O797  1  0.962210  0.066810  0.706400  1.0  -0.6229
  O  O798  1  0.931740  0.981700  0.727490  1.0  -0.621
  O  O799  1  0.587480  0.035840  0.747360  1.0  -0.5989
  O  O800  1  0.571590  0.990560  0.706870  1.0  -0.6273
  O  O801  1  0.663200  0.462790  0.477860  1.0  -0.6301
  O  O802  1  0.677920  0.508030  0.517890  1.0  -0.6501
  O  O803  1  0.509750  0.041670  0.679210  1.0  -0.6179
  O  O804  1  0.475220  0.122590  0.700100  1.0  -0.6153
  O  O805  1  0.288570  0.434690  0.520370  1.0  -0.6608
  O  O806  1  0.319240  0.521880  0.499710  1.0  -0.6342
  O  O807  1  0.472530  0.107460  0.176400  1.0  -0.5949
  O  O808  1  0.423380  0.975600  0.305200  1.0  -0.3653
  O  O809  1  0.575410  0.834400  0.237530  1.0  -0.7088
  O  O810  1  0.491660  0.973140  0.240530  1.0  -0.7725
  O  O811  1  0.672810  0.482770  0.421190  1.0  -0.4242
  O  O812  1  0.723920  0.600090  0.551370  1.0  -0.3508
  O  O813  1  0.741590  0.470670  0.485450  1.0  -0.8448
  O  O814  1  0.498930  0.016290  0.798710  1.0  -0.6031
  O  O815  1  0.454240  0.081120  0.778530  1.0  -0.6218
  O  O816  1  0.296730  0.415710  0.955380  1.0  -0.6367
  O  O817  1  0.276720  0.373560  0.994520  1.0  -0.6256
  O  O818  1  0.248230  0.679410  0.972040  1.0  -0.663
  O  O819  1  0.291390  0.630770  0.948000  1.0  -0.6488
  O  O820  1  0.248750  0.506940  0.926430  1.0  -0.6102
  O  O821  1  0.202890  0.568790  0.946300  1.0  -0.6426
  O  O822  1  0.046310  0.082300  0.772630  1.0  -0.6275
  O  O823  1  0.029770  0.130050  0.733530  1.0  -0.5943
  O  O824  1  0.998620  0.816160  0.749790  1.0  -0.6197
  O  O825  1  0.041430  0.866980  0.776530  1.0  -0.6209
  O  O826  1  0.225350  0.629280  0.023780  1.0  -0.6654
  O  O827  1  0.257770  0.547430  0.045450  1.0  -0.6283
  O  O828  1  0.037790  0.933190  0.206400  1.0  -0.6215
  O  O829  1  0.068260  0.018300  0.227490  1.0  -0.6214
  O  O830  1  0.412520  0.964160  0.247360  1.0  -0.5987
  O  O831  1  0.428410  0.009440  0.206870  1.0  -0.6259
  O  O832  1  0.336800  0.537210  0.977860  1.0  -0.627
  O  O833  1  0.322080  0.491970  0.017890  1.0  -0.6478
  O  O834  1  0.490250  0.958330  0.179210  1.0  -0.6165
  O  O835  1  0.524780  0.877410  0.200100  1.0  -0.6166
  O  O836  1  0.711430  0.565310  0.020370  1.0  -0.6626
  O  O837  1  0.680760  0.478120  0.999710  1.0  -0.6371
  O  O838  1  0.527470  0.892540  0.676400  1.0  -0.5924
  O  O839  1  0.576620  0.024400  0.805200  1.0  -0.3663
  O  O840  1  0.424590  0.165600  0.737530  1.0  -0.7088
  O  O841  1  0.508340  0.026860  0.740530  1.0  -0.7726
  O  O842  1  0.327190  0.517230  0.921190  1.0  -0.4223
  O  O843  1  0.276080  0.399910  0.051370  1.0  -0.3529
  O  O844  1  0.258410  0.529330  0.985450  1.0  -0.8448
