# generated using pymatgen
data_Fe3H88C124O17
_symmetry_space_group_name_H-M   'P 1'
_cell_length_a   14.92080000
_cell_length_b   38.39800000
_cell_length_c   41.28000000
_cell_angle_alpha   90.00000000
_cell_angle_beta   90.00000000
_cell_angle_gamma   90.00000000
_symmetry_Int_Tables_number   1
_chemical_formula_structural   Fe3H88C124O17
_chemical_formula_sum   'Fe12 H352 C496 O68'
_cell_volume   23650.50410035
_cell_formula_units_Z   4
loop_
 _symmetry_equiv_pos_site_id
 _symmetry_equiv_pos_as_xyz
  1  'x, y, z'
loop_
 _atom_site_type_symbol
 _atom_site_label
 _atom_site_symmetry_multiplicity
 _atom_site_fract_x
 _atom_site_fract_y
 _atom_site_fract_z
 _atom_site_occupancy
 _atom_site_charge
  Fe  Fe1  1  0.247270  0.250000  0.656920  1.0  1.259
  Fe  Fe2  1  0.927800  0.750000  0.391920  1.0  1.3102
  Fe  Fe3  1  0.040040  0.750000  0.812630  1.0  1.1352
  Fe  Fe4  1  0.959960  0.750000  0.312630  1.0  1.1338
  Fe  Fe5  1  0.072200  0.250000  0.608080  1.0  1.3137
  Fe  Fe6  1  0.752730  0.250000  0.156920  1.0  1.2597
  Fe  Fe7  1  0.040040  0.250000  0.687370  1.0  1.1338
  Fe  Fe8  1  0.752730  0.750000  0.343080  1.0  1.2601
  Fe  Fe9  1  0.072200  0.750000  0.891920  1.0  1.3108
  Fe  Fe10  1  0.959960  0.250000  0.187370  1.0  1.1353
  Fe  Fe11  1  0.247270  0.750000  0.843080  1.0  1.2593
  Fe  Fe12  1  0.927800  0.250000  0.108080  1.0  1.3119
  H  H13  1  0.172600  0.830500  0.951800  1.0  0.0988
  H  H14  1  0.436100  0.043400  0.826600  1.0  0.0949
  H  H15  1  0.607100  0.821600  0.401500  1.0  0.1064
  H  H16  1  0.778700  0.450700  0.091000  1.0  0.1063
  H  H17  1  0.141100  0.433000  0.960900  1.0  0.1274
  H  H18  1  0.424500  0.993200  0.860700  1.0  0.093
  H  H19  1  0.570400  0.030800  0.648500  1.0  0.0853
  H  H20  1  0.011800  0.961000  0.518000  1.0  0.0999
  H  H21  1  0.858900  0.567000  0.039100  1.0  0.1274
  H  H22  1  0.397900  0.493600  0.976100  1.0  0.0985
  H  H23  1  0.368200  0.545800  0.905000  1.0  0.1033
  H  H24  1  0.401000  0.413900  0.982000  1.0  0.1032
  H  H25  1  0.758900  0.869400  0.485500  1.0  0.1154
  H  H26  1  0.605900  0.080800  0.286000  1.0  0.1002
  H  H27  1  0.103000  0.079500  0.570600  1.0  0.1233
  H  H28  1  0.827400  0.830500  0.451800  1.0  0.0971
  H  H29  1  0.554400  0.566100  0.939800  1.0  0.1083
  H  H30  1  0.273700  0.128100  0.173000  1.0  0.1181
  H  H31  1  0.701000  0.079000  0.000700  1.0  0.108
  H  H32  1  0.395900  0.922300  0.579900  1.0  0.0831
  H  H33  1  0.469900  0.376200  0.017700  1.0  0.0989
  H  H34  1  0.103000  0.831900  0.411600  1.0  0.1169
  H  H35  1  0.469900  0.876200  0.482300  1.0  0.0989
  H  H36  1  0.401000  0.586100  0.518000  1.0  0.1047
  H  H37  1  0.420100  0.019400  0.421300  1.0  0.095
  H  H38  1  0.101100  0.673000  0.741500  1.0  0.105
  H  H39  1  0.599000  0.086100  0.482000  1.0  0.1046
  H  H40  1  0.660000  0.038200  0.464800  1.0  0.0957
  H  H41  1  0.273700  0.871900  0.327000  1.0  0.118
  H  H42  1  0.895700  0.645300  0.976800  1.0  0.1273
  H  H43  1  0.420100  0.519400  0.078700  1.0  0.0941
  H  H44  1  0.506000  0.981900  0.633000  1.0  0.0842
  H  H45  1  0.488100  0.930200  0.596600  1.0  0.1009
  H  H46  1  0.723600  0.589500  0.115400  1.0  0.1106
  H  H47  1  0.344500  0.108400  0.072300  1.0  0.1172
  H  H48  1  0.364500  0.542800  0.035800  1.0  0.1097
  H  H49  1  0.429600  0.969200  0.351500  1.0  0.0861
  H  H50  1  0.394100  0.580800  0.714000  1.0  0.1006
  H  H51  1  0.464500  0.859800  0.935900  1.0  0.1071
  H  H52  1  0.635500  0.042800  0.964200  1.0  0.1094
  H  H53  1  0.394100  0.419200  0.786000  1.0  0.101
  H  H54  1  0.831500  0.669900  0.818000  1.0  0.1152
  H  H55  1  0.145400  0.635500  0.702300  1.0  0.1191
  H  H56  1  0.276400  0.089500  0.884600  1.0  0.1101
  H  H57  1  0.607100  0.678400  0.401500  1.0  0.1061
  H  H58  1  0.464500  0.140200  0.564100  1.0  0.1095
  H  H59  1  0.831500  0.830100  0.818000  1.0  0.115
  H  H60  1  0.793500  0.374500  0.580000  1.0  0.1122
  H  H61  1  0.735400  0.962100  0.089500  1.0  0.1012
  H  H62  1  0.546600  0.005100  0.550800  1.0  0.0881
  H  H63  1  0.264600  0.962100  0.589500  1.0  0.1037
  H  H64  1  0.324100  0.071500  0.160500  1.0  0.1155
  H  H65  1  0.368200  0.454200  0.595000  1.0  0.1047
  H  H66  1  0.831500  0.169900  0.682000  1.0  0.1151
  H  H67  1  0.602100  0.993600  0.023900  1.0  0.0987
  H  H68  1  0.488100  0.430200  0.903400  1.0  0.1003
  H  H69  1  0.342100  0.670300  0.780100  1.0  0.1153
  H  H70  1  0.397900  0.993600  0.523900  1.0  0.0991
  H  H71  1  0.299000  0.579000  0.999300  1.0  0.1071
  H  H72  1  0.793500  0.625500  0.920000  1.0  0.1117
  H  H73  1  0.612900  0.367700  0.259500  1.0  0.1204
  H  H74  1  0.535500  0.859800  0.435900  1.0  0.109
  H  H75  1  0.141100  0.567000  0.539100  1.0  0.1273
  H  H76  1  0.241100  0.869400  0.985500  1.0  0.116
  H  H77  1  0.424500  0.493200  0.639300  1.0  0.0951
  H  H78  1  0.395900  0.577700  0.579900  1.0  0.0835
  H  H79  1  0.340000  0.538200  0.535200  1.0  0.097
  H  H80  1  0.394100  0.919200  0.714000  1.0  0.1008
  H  H81  1  0.392900  0.178400  0.598500  1.0  0.106
  H  H82  1  0.506000  0.018100  0.867000  1.0  0.0867
  H  H83  1  0.488100  0.069800  0.903400  1.0  0.1018
  H  H84  1  0.831500  0.330100  0.682000  1.0  0.115
  H  H85  1  0.324100  0.428500  0.160500  1.0  0.1146
  H  H86  1  0.387100  0.867700  0.740500  1.0  0.1204
  H  H87  1  0.612900  0.632300  0.240500  1.0  0.1201
  H  H88  1  0.424500  0.006800  0.639300  1.0  0.0945
  H  H89  1  0.145400  0.364500  0.797700  1.0  0.1188
  H  H90  1  0.101100  0.827000  0.741500  1.0  0.1045
  H  H91  1  0.793500  0.125500  0.580000  1.0  0.1125
  H  H92  1  0.898900  0.673000  0.241500  1.0  0.1051
  H  H93  1  0.464500  0.359800  0.564100  1.0  0.1071
  H  H94  1  0.103000  0.920500  0.929400  1.0  0.1214
  H  H95  1  0.725000  0.505700  0.112600  1.0  0.1145
  H  H96  1  0.701000  0.579000  0.499300  1.0  0.1065
  H  H97  1  0.579900  0.980600  0.578700  1.0  0.0936
  H  H98  1  0.324100  0.928500  0.339500  1.0  0.1149
  H  H99  1  0.631800  0.545800  0.405000  1.0  0.1036
  H  H100  1  0.103000  0.331900  0.088400  1.0  0.1169
  H  H101  1  0.872500  0.528100  0.511600  1.0  0.1216
  H  H102  1  0.535500  0.640200  0.435900  1.0  0.1095
  H  H103  1  0.660000  0.538200  0.035200  1.0  0.0964
  H  H104  1  0.392900  0.321600  0.598500  1.0  0.1059
  H  H105  1  0.394100  0.080800  0.786000  1.0  0.1005
  H  H106  1  0.635500  0.457200  0.964200  1.0  0.1096
  H  H107  1  0.344500  0.391600  0.072300  1.0  0.1173
  H  H108  1  0.420100  0.980600  0.078700  1.0  0.094
  H  H109  1  0.897000  0.920500  0.429400  1.0  0.1214
  H  H110  1  0.570400  0.969200  0.851500  1.0  0.087
  H  H111  1  0.436100  0.543400  0.673400  1.0  0.0937
  H  H112  1  0.230000  0.874000  0.656700  1.0  0.1171
  H  H113  1  0.660000  0.461800  0.464800  1.0  0.0977
  H  H114  1  0.599000  0.413900  0.482000  1.0  0.1037
  H  H115  1  0.415100  0.954100  0.939000  1.0  0.0834
  H  H116  1  0.420100  0.480600  0.421300  1.0  0.0944
  H  H117  1  0.599000  0.913900  0.018000  1.0  0.1037
  H  H118  1  0.469900  0.123800  0.017700  1.0  0.1005
  H  H119  1  0.898900  0.327000  0.258500  1.0  0.1052
  H  H120  1  0.701000  0.421000  0.000700  1.0  0.1077
  H  H121  1  0.735400  0.537900  0.089500  1.0  0.1021
  H  H122  1  0.127500  0.471900  0.488400  1.0  0.1227
  H  H123  1  0.726300  0.371900  0.673000  1.0  0.1185
  H  H124  1  0.755700  0.995400  0.011500  1.0  0.0956
  H  H125  1  0.778700  0.549300  0.409000  1.0  0.107
  H  H126  1  0.103000  0.420500  0.570600  1.0  0.1234
  H  H127  1  0.605900  0.419200  0.286000  1.0  0.1005
  H  H128  1  0.607100  0.178400  0.098500  1.0  0.1059
  H  H129  1  0.221300  0.549300  0.909000  1.0  0.1068
  H  H130  1  0.453400  0.505100  0.449200  1.0  0.0881
  H  H131  1  0.511900  0.069800  0.403400  1.0  0.102
  H  H132  1  0.145400  0.135500  0.797700  1.0  0.1188
  H  H133  1  0.725000  0.994300  0.112600  1.0  0.1135
  H  H134  1  0.397900  0.006400  0.976100  1.0  0.0988
  H  H135  1  0.612900  0.132300  0.259500  1.0  0.1201
  H  H136  1  0.726300  0.628100  0.827000  1.0  0.1177
  H  H137  1  0.364500  0.957200  0.035800  1.0  0.1107
  H  H138  1  0.141100  0.067000  0.960900  1.0  0.1264
  H  H139  1  0.570400  0.469200  0.648500  1.0  0.0858
  H  H140  1  0.584900  0.954100  0.439000  1.0  0.0833
  H  H141  1  0.575500  0.993200  0.360700  1.0  0.0927
  H  H142  1  0.436100  0.456600  0.826600  1.0  0.0953
  H  H143  1  0.401000  0.086100  0.982000  1.0  0.1041
  H  H144  1  0.172600  0.669500  0.951800  1.0  0.0986
  H  H145  1  0.168500  0.830100  0.318000  1.0  0.1153
  H  H146  1  0.387100  0.632300  0.740500  1.0  0.1201
  H  H147  1  0.340000  0.461800  0.964800  1.0  0.0991
  H  H148  1  0.827400  0.669500  0.451800  1.0  0.0972
  H  H149  1  0.631800  0.045800  0.095000  1.0  0.1015
  H  H150  1  0.264600  0.037900  0.910500  1.0  0.1032
  H  H151  1  0.340000  0.961800  0.535200  1.0  0.0975
  H  H152  1  0.206500  0.874500  0.420000  1.0  0.1112
  H  H153  1  0.494000  0.481900  0.367000  1.0  0.0841
  H  H154  1  0.579900  0.019400  0.921300  1.0  0.0945
  H  H155  1  0.127500  0.528100  0.011600  1.0  0.1216
  H  H156  1  0.897000  0.331900  0.588400  1.0  0.1168
  H  H157  1  0.758900  0.630600  0.485500  1.0  0.1152
  H  H158  1  0.037100  0.882200  0.961000  1.0  0.1135
  H  H159  1  0.605900  0.919200  0.214000  1.0  0.1009
  H  H160  1  0.570400  0.530800  0.851500  1.0  0.0868
  H  H161  1  0.778700  0.049300  0.091000  1.0  0.1066
  H  H162  1  0.364500  0.457200  0.464200  1.0  0.1086
  H  H163  1  0.854600  0.135500  0.297700  1.0  0.1189
  H  H164  1  0.101100  0.327000  0.758500  1.0  0.105
  H  H165  1  0.445600  0.066100  0.060200  1.0  0.1083
  H  H166  1  0.395900  0.077700  0.920100  1.0  0.0833
  H  H167  1  0.494000  0.981900  0.133000  1.0  0.0851
  H  H168  1  0.584900  0.545900  0.439000  1.0  0.0821
  H  H169  1  0.206500  0.374500  0.080000  1.0  0.1122
  H  H170  1  0.221300  0.049300  0.591000  1.0  0.1077
  H  H171  1  0.436100  0.956600  0.673400  1.0  0.093
  H  H172  1  0.575500  0.493200  0.139300  1.0  0.0952
  H  H173  1  0.895700  0.145300  0.523200  1.0  0.1269
  H  H174  1  0.554400  0.933900  0.939800  1.0  0.108
  H  H175  1  0.546600  0.494900  0.550800  1.0  0.088
  H  H176  1  0.635500  0.542800  0.535800  1.0  0.1105
  H  H177  1  0.897000  0.079500  0.070600  1.0  0.1226
  H  H178  1  0.104300  0.145300  0.023200  1.0  0.1269
  H  H179  1  0.299000  0.079000  0.500700  1.0  0.1074
  H  H180  1  0.221300  0.950700  0.909000  1.0  0.1068
  H  H181  1  0.368200  0.954200  0.905000  1.0  0.1023
  H  H182  1  0.675900  0.428500  0.660500  1.0  0.1145
  H  H183  1  0.701000  0.921000  0.499300  1.0  0.1067
  H  H184  1  0.324100  0.571500  0.339500  1.0  0.1144
  H  H185  1  0.275000  0.494300  0.887400  1.0  0.1131
  H  H186  1  0.530100  0.876200  0.982300  1.0  0.0993
  H  H187  1  0.276400  0.410500  0.884600  1.0  0.111
  H  H188  1  0.127500  0.971900  0.011600  1.0  0.1216
  H  H189  1  0.858900  0.933000  0.039100  1.0  0.1276
  H  H190  1  0.575500  0.006800  0.139300  1.0  0.0945
  H  H191  1  0.392900  0.821600  0.901500  1.0  0.1065
  H  H192  1  0.563900  0.543400  0.173400  1.0  0.0934
  H  H193  1  0.145400  0.864500  0.702300  1.0  0.1193
  H  H194  1  0.988200  0.039000  0.482000  1.0  0.0997
  H  H195  1  0.011800  0.461000  0.982000  1.0  0.1
  H  H196  1  0.897000  0.831900  0.911600  1.0  0.1168
  H  H197  1  0.530100  0.123800  0.517700  1.0  0.1
  H  H198  1  0.415100  0.545900  0.939000  1.0  0.0819
  H  H199  1  0.854600  0.635500  0.202300  1.0  0.1192
  H  H200  1  0.546600  0.994900  0.949200  1.0  0.0881
  H  H201  1  0.241100  0.630600  0.985500  1.0  0.1159
  H  H202  1  0.755700  0.504600  0.011500  1.0  0.0955
  H  H203  1  0.604100  0.422300  0.420100  1.0  0.0833
  H  H204  1  0.415100  0.454100  0.561000  1.0  0.0829
  H  H205  1  0.854600  0.864500  0.202300  1.0  0.1191
  H  H206  1  0.897000  0.579500  0.429400  1.0  0.1213
  H  H207  1  0.535500  0.140200  0.064100  1.0  0.1094
  H  H208  1  0.602100  0.493600  0.476100  1.0  0.0986
  H  H209  1  0.230000  0.374000  0.843300  1.0  0.1174
  H  H210  1  0.511900  0.930200  0.096600  1.0  0.1022
  H  H211  1  0.655500  0.608400  0.927700  1.0  0.115
  H  H212  1  0.898900  0.827000  0.241500  1.0  0.1051
  H  H213  1  0.206500  0.125500  0.080000  1.0  0.1125
  H  H214  1  0.511900  0.430200  0.403400  1.0  0.1016
  H  H215  1  0.141100  0.933000  0.539100  1.0  0.1277
  H  H216  1  0.735400  0.462100  0.410500  1.0  0.102
  H  H217  1  0.344500  0.891600  0.427700  1.0  0.1169
  H  H218  1  0.244300  0.495400  0.988500  1.0  0.0964
  H  H219  1  0.604100  0.577700  0.079900  1.0  0.0836
  H  H220  1  0.770000  0.874000  0.156700  1.0  0.117
  H  H221  1  0.723600  0.089500  0.384600  1.0  0.1096
  H  H222  1  0.723600  0.910500  0.115400  1.0  0.1117
  H  H223  1  0.631800  0.954200  0.405000  1.0  0.1042
  H  H224  1  0.453400  0.494900  0.050800  1.0  0.0887
  H  H225  1  0.387100  0.367700  0.759500  1.0  0.1204
  H  H226  1  0.241100  0.369400  0.514500  1.0  0.1154
  H  H227  1  0.758900  0.369400  0.014500  1.0  0.1155
  H  H228  1  0.725000  0.494300  0.387400  1.0  0.113
  H  H229  1  0.655500  0.108400  0.572300  1.0  0.117
  H  H230  1  0.604100  0.922300  0.079900  1.0  0.0829
  H  H231  1  0.172600  0.169500  0.548200  1.0  0.0989
  H  H232  1  0.755700  0.495400  0.488500  1.0  0.0951
  H  H233  1  0.563900  0.043400  0.326600  1.0  0.0935
  H  H234  1  0.554400  0.433900  0.560200  1.0  0.1083
  H  H235  1  0.168500  0.169900  0.182000  1.0  0.1149
  H  H236  1  0.988200  0.461000  0.482000  1.0  0.0999
  H  H237  1  0.675900  0.571500  0.839500  1.0  0.1148
  H  H238  1  0.770000  0.374000  0.343300  1.0  0.1171
  H  H239  1  0.168500  0.669900  0.318000  1.0  0.1153
  H  H240  1  0.011800  0.539000  0.518000  1.0  0.1
  H  H241  1  0.392900  0.678400  0.901500  1.0  0.1065
  H  H242  1  0.675900  0.928500  0.839500  1.0  0.115
  H  H243  1  0.898900  0.173000  0.258500  1.0  0.1051
  H  H244  1  0.103000  0.579500  0.929400  1.0  0.1214
  H  H245  1  0.469900  0.623800  0.482300  1.0  0.1004
  H  H246  1  0.872500  0.471900  0.988400  1.0  0.1223
  H  H247  1  0.726300  0.128100  0.673000  1.0  0.1182
  H  H248  1  0.342100  0.170300  0.719900  1.0  0.1153
  H  H249  1  0.962900  0.882200  0.461000  1.0  0.1131
  H  H250  1  0.429600  0.030800  0.148500  1.0  0.0853
  H  H251  1  0.299000  0.921000  0.999300  1.0  0.1072
  H  H252  1  0.275000  0.505700  0.612600  1.0  0.1152
  H  H253  1  0.424500  0.506800  0.860700  1.0  0.0951
  H  H254  1  0.511900  0.569800  0.096600  1.0  0.1023
  H  H255  1  0.364500  0.042800  0.464200  1.0  0.1084
  H  H256  1  0.276400  0.589500  0.615400  1.0  0.1102
  H  H257  1  0.273700  0.628100  0.327000  1.0  0.1178
  H  H258  1  0.037100  0.382200  0.539000  1.0  0.1137
  H  H259  1  0.584900  0.454100  0.061000  1.0  0.0829
  H  H260  1  0.584900  0.045900  0.061000  1.0  0.0821
  H  H261  1  0.264600  0.537900  0.589500  1.0  0.1036
  H  H262  1  0.037100  0.117800  0.539000  1.0  0.1133
  H  H263  1  0.599000  0.586100  0.018000  1.0  0.1056
  H  H264  1  0.429600  0.469200  0.148500  1.0  0.0854
  H  H265  1  0.858900  0.433000  0.460900  1.0  0.1282
  H  H266  1  0.342100  0.329700  0.719900  1.0  0.1149
  H  H267  1  0.655500  0.391600  0.572300  1.0  0.116
  H  H268  1  0.725000  0.005700  0.387400  1.0  0.113
  H  H269  1  0.872500  0.028100  0.988400  1.0  0.1222
  H  H270  1  0.103000  0.168100  0.088400  1.0  0.1171
  H  H271  1  0.230000  0.626000  0.656700  1.0  0.1176
  H  H272  1  0.488100  0.569800  0.596600  1.0  0.1017
  H  H273  1  0.770000  0.126000  0.343300  1.0  0.1172
  H  H274  1  0.827400  0.169500  0.048200  1.0  0.0976
  H  H275  1  0.494000  0.518100  0.133000  1.0  0.0835
  H  H276  1  0.726300  0.871900  0.827000  1.0  0.1181
  H  H277  1  0.770000  0.626000  0.156700  1.0  0.1173
  H  H278  1  0.602100  0.506400  0.023900  1.0  0.0984
  H  H279  1  0.657900  0.829700  0.280100  1.0  0.1147
  H  H280  1  0.168500  0.330100  0.182000  1.0  0.115
  H  H281  1  0.342100  0.829700  0.780100  1.0  0.1151
  H  H282  1  0.563900  0.456600  0.326600  1.0  0.0943
  H  H283  1  0.755700  0.004600  0.488500  1.0  0.0947
  H  H284  1  0.172600  0.330500  0.548200  1.0  0.0986
  H  H285  1  0.897000  0.668100  0.911600  1.0  0.117
  H  H286  1  0.206500  0.625500  0.420000  1.0  0.1116
  H  H287  1  0.758900  0.130600  0.014500  1.0  0.1146
  H  H288  1  0.244300  0.504600  0.511500  1.0  0.0953
  H  H289  1  0.387100  0.132300  0.759500  1.0  0.1199
  H  H290  1  0.453400  0.005100  0.050800  1.0  0.0886
  H  H291  1  0.127500  0.028100  0.488400  1.0  0.1225
  H  H292  1  0.723600  0.410500  0.384600  1.0  0.1103
  H  H293  1  0.244300  0.004600  0.988500  1.0  0.0954
  H  H294  1  0.605900  0.580800  0.214000  1.0  0.1011
  H  H295  1  0.735400  0.037900  0.410500  1.0  0.1029
  H  H296  1  0.607100  0.321600  0.098500  1.0  0.1062
  H  H297  1  0.104300  0.854700  0.476800  1.0  0.1272
  H  H298  1  0.230000  0.126000  0.843300  1.0  0.1177
  H  H299  1  0.602100  0.006400  0.476100  1.0  0.0988
  H  H300  1  0.401000  0.913900  0.518000  1.0  0.1032
  H  H301  1  0.415100  0.045900  0.561000  1.0  0.0817
  H  H302  1  0.604100  0.077700  0.420100  1.0  0.0835
  H  H303  1  0.494000  0.018100  0.367000  1.0  0.0841
  H  H304  1  0.037100  0.617800  0.961000  1.0  0.1137
  H  H305  1  0.657900  0.170300  0.219900  1.0  0.1148
  H  H306  1  0.858900  0.067000  0.460900  1.0  0.1287
  H  H307  1  0.273700  0.371900  0.173000  1.0  0.1182
  H  H308  1  0.530100  0.376200  0.517700  1.0  0.099
  H  H309  1  0.895700  0.854700  0.976800  1.0  0.1259
  H  H310  1  0.011800  0.039000  0.982000  1.0  0.0995
  H  H311  1  0.872500  0.971900  0.511600  1.0  0.1216
  H  H312  1  0.554400  0.066100  0.560200  1.0  0.1087
  H  H313  1  0.344500  0.608400  0.427700  1.0  0.1163
  H  H314  1  0.453400  0.994900  0.449200  1.0  0.0885
  H  H315  1  0.221300  0.450700  0.591000  1.0  0.1074
  H  H316  1  0.275000  0.005700  0.887400  1.0  0.1131
  H  H317  1  0.635500  0.957200  0.535800  1.0  0.1109
  H  H318  1  0.535500  0.359800  0.064100  1.0  0.1084
  H  H319  1  0.579900  0.519400  0.578700  1.0  0.094
  H  H320  1  0.397900  0.506400  0.523900  1.0  0.0987
  H  H321  1  0.675900  0.071500  0.660500  1.0  0.1152
  H  H322  1  0.657900  0.670300  0.280100  1.0  0.1148
  H  H323  1  0.299000  0.421000  0.500700  1.0  0.107
  H  H324  1  0.104300  0.354700  0.023200  1.0  0.1273
  H  H325  1  0.657900  0.329700  0.219900  1.0  0.1146
  H  H326  1  0.897000  0.420500  0.070600  1.0  0.1227
  H  H327  1  0.778700  0.950700  0.409000  1.0  0.1069
  H  H328  1  0.275000  0.994300  0.612600  1.0  0.1141
  H  H329  1  0.104300  0.645300  0.476800  1.0  0.1269
  H  H330  1  0.546600  0.505100  0.949200  1.0  0.0886
  H  H331  1  0.895700  0.354700  0.523200  1.0  0.1273
  H  H332  1  0.506000  0.518100  0.633000  1.0  0.0837
  H  H333  1  0.962900  0.117800  0.039000  1.0  0.1134
  H  H334  1  0.827400  0.330500  0.048200  1.0  0.0971
  H  H335  1  0.962900  0.382200  0.039000  1.0  0.1134
  H  H336  1  0.395900  0.422300  0.920100  1.0  0.0829
  H  H337  1  0.276400  0.910500  0.615400  1.0  0.111
  H  H338  1  0.445600  0.433900  0.060200  1.0  0.1083
  H  H339  1  0.101100  0.173000  0.758500  1.0  0.1052
  H  H340  1  0.854600  0.364500  0.297700  1.0  0.1188
  H  H341  1  0.445600  0.933900  0.439800  1.0  0.1079
  H  H342  1  0.988200  0.539000  0.018000  1.0  0.1002
  H  H343  1  0.612900  0.867700  0.240500  1.0  0.1202
  H  H344  1  0.575500  0.506800  0.360700  1.0  0.096
  H  H345  1  0.103000  0.668100  0.411600  1.0  0.1173
  H  H346  1  0.241100  0.130600  0.514500  1.0  0.1146
  H  H347  1  0.962900  0.617800  0.461000  1.0  0.1136
  H  H348  1  0.506000  0.481900  0.867000  1.0  0.0852
  H  H349  1  0.429600  0.530800  0.351500  1.0  0.0845
  H  H350  1  0.897000  0.168100  0.588400  1.0  0.1168
  H  H351  1  0.530100  0.623800  0.982300  1.0  0.1004
  H  H352  1  0.579900  0.480600  0.921300  1.0  0.0936
  H  H353  1  0.368200  0.045800  0.595000  1.0  0.1015
  H  H354  1  0.793500  0.874500  0.920000  1.0  0.1114
  H  H355  1  0.988200  0.961000  0.018000  1.0  0.0999
  H  H356  1  0.264600  0.462100  0.910500  1.0  0.1031
  H  H357  1  0.655500  0.891600  0.927700  1.0  0.1154
  H  H358  1  0.660000  0.961800  0.035200  1.0  0.0958
  H  H359  1  0.631800  0.454200  0.095000  1.0  0.1048
  H  H360  1  0.244300  0.995400  0.511500  1.0  0.0957
  H  H361  1  0.563900  0.956600  0.173400  1.0  0.0929
  H  H362  1  0.464500  0.640200  0.935900  1.0  0.1091
  H  H363  1  0.340000  0.038200  0.964800  1.0  0.0969
  H  H364  1  0.445600  0.566100  0.439800  1.0  0.108
  C  C365  1  0.640200  0.059800  0.359340  1.0  0.2233
  C  C366  1  0.698300  0.395700  0.308440  1.0  0.1463
  C  C367  1  0.593600  0.392160  0.011900  1.0  0.0981
  C  C368  1  0.813800  0.358040  0.281800  1.0  -0.1572
  C  C369  1  0.406400  0.392160  0.511900  1.0  0.0979
  C  C370  1  0.729900  0.871550  0.217460  1.0  0.0784
  C  C371  1  0.729200  0.891680  0.161190  1.0  -0.1934
  C  C372  1  0.219000  0.619900  0.524100  1.0  0.4017
  C  C373  1  0.274800  0.322520  0.577070  1.0  -0.1317
  C  C374  1  0.640300  0.581680  0.503740  1.0  -0.1333
  C  C375  1  0.797300  0.544160  0.429990  1.0  -0.1276
  C  C376  1  0.674300  0.403710  0.618590  1.0  0.0859
  C  C377  1  0.200500  0.865060  0.399410  1.0  -0.1264
  C  C378  1  0.996000  0.606000  0.973900  1.0  -0.1834
  C  C379  1  0.423400  0.067330  0.081230  1.0  -0.1463
  C  C380  1  0.464500  0.962740  0.557160  1.0  0.1205
  C  C381  1  0.823600  0.161410  0.661120  1.0  -0.0552
  C  C382  1  0.301700  0.395700  0.808440  1.0  0.1447
  C  C383  1  0.612200  0.536920  0.112290  1.0  0.0601
  C  C384  1  0.391500  0.940430  0.668820  1.0  -0.0841
  C  C385  1  0.781000  0.380100  0.475900  1.0  0.4012
  C  C386  1  0.012300  0.572700  0.983500  1.0  0.0348
  C  C387  1  0.823600  0.338590  0.661120  1.0  -0.0529
  C  C388  1  0.301700  0.104300  0.808440  1.0  0.145
  C  C389  1  0.217500  0.012890  0.523730  1.0  -0.1271
  C  C390  1  0.799500  0.134940  0.600590  1.0  -0.1271
  C  C391  1  0.905400  0.444900  0.028400  1.0  0.0779
  C  C392  1  0.219000  0.119900  0.975900  1.0  0.4014
  C  C393  1  0.546600  0.992290  0.123150  1.0  -0.1957
  C  C394  1  0.301300  0.663210  0.764330  1.0  -0.0369
  C  C395  1  0.586200  0.453450  0.632380  1.0  -0.1454
  C  C396  1  0.350300  0.071670  0.140040  1.0  -0.2047
  C  C397  1  0.860000  0.895200  0.006200  1.0  -0.0463
  C  C398  1  0.510200  0.938610  0.532480  1.0  0.096
  C  C399  1  0.856900  0.031720  0.010000  1.0  -0.1596
  C  C400  1  0.494800  0.107870  0.506480  1.0  -0.1131
  C  C401  1  0.240100  0.136320  0.155610  1.0  -0.1192
  C  C402  1  0.750500  0.019600  0.053300  1.0  0.1444
  C  C403  1  0.453700  0.543300  0.396130  1.0  0.1106
  C  C404  1  0.870800  0.562150  0.442010  1.0  -0.1803
  C  C405  1  0.350300  0.928330  0.359960  1.0  -0.203
  C  C406  1  0.668400  0.503380  0.432920  1.0  0.1478
  C  C407  1  0.359800  0.440200  0.859340  1.0  0.2233
  C  C408  1  0.176400  0.661410  0.338880  1.0  -0.0558
  C  C409  1  0.094600  0.055100  0.528400  1.0  0.0767
  C  C410  1  0.674300  0.596290  0.881410  1.0  0.0873
  C  C411  1  0.537200  0.584910  0.015390  1.0  -0.1655
  C  C412  1  0.129200  0.562150  0.942010  1.0  -0.1795
  C  C413  1  0.362200  0.131350  0.534610  1.0  0.1002
  C  C414  1  0.671800  0.859860  0.240680  1.0  -0.1284
  C  C415  1  0.912200  0.876600  0.984400  1.0  -0.0909
  C  C416  1  0.489800  0.438610  0.467520  1.0  0.0964
  C  C417  1  0.813900  0.297570  0.210710  1.0  0.766
  C  C418  1  0.056700  0.201890  0.141290  1.0  0.7501
  C  C419  1  0.759900  0.363680  0.655610  1.0  -0.1207
  C  C420  1  0.216000  0.324140  0.735010  1.0  -0.1421
  C  C421  1  0.750500  0.980400  0.446700  1.0  0.1449
  C  C422  1  0.602300  0.968780  0.420960  1.0  -0.2137
  C  C423  1  0.744400  0.122940  0.625220  1.0  0.056
  C  C424  1  0.638800  0.668800  0.418770  1.0  -0.0467
  C  C425  1  0.453700  0.956700  0.396130  1.0  0.1111
  C  C426  1  0.527200  0.008790  0.930900  1.0  -0.2183
  C  C427  1  0.301700  0.895700  0.691560  1.0  0.1447
  C  C428  1  0.056700  0.701890  0.358710  1.0  0.7502
  C  C429  1  0.535500  0.462740  0.442840  1.0  0.1223
  C  C430  1  0.462800  0.415090  0.984610  1.0  -0.1673
  C  C431  1  0.813900  0.797570  0.289290  1.0  0.7667
  C  C432  1  0.612200  0.963080  0.112290  1.0  0.0585
  C  C433  1  0.888800  0.076000  0.478800  1.0  -0.0889
  C  C434  1  0.595200  0.354240  0.060300  1.0  -0.1384
  C  C435  1  0.602300  0.031220  0.079040  1.0  -0.218
  C  C436  1  0.331600  0.003380  0.567080  1.0  0.1478
  C  C437  1  0.453400  0.992290  0.623150  1.0  -0.1943
  C  C438  1  0.143100  0.468280  0.510000  1.0  -0.1623
  C  C439  1  0.546600  0.007710  0.376850  1.0  -0.1942
  C  C440  1  0.943300  0.201890  0.641290  1.0  0.749
  C  C441  1  0.600600  0.559510  0.525490  1.0  -0.1979
  C  C442  1  0.943300  0.798110  0.858710  1.0  0.7484
  C  C443  1  0.186100  0.202430  0.710710  1.0  0.7668
  C  C444  1  0.087800  0.623400  0.484400  1.0  -0.089
  C  C445  1  0.301300  0.836790  0.764330  1.0  -0.0368
  C  C446  1  0.725900  0.140410  0.031300  1.0  -0.1325
  C  C447  1  0.435600  0.440820  0.913050  1.0  -0.2249
  C  C448  1  0.729900  0.371550  0.282540  1.0  0.0784
  C  C449  1  0.619400  0.979820  0.042570  1.0  -0.2206
  C  C450  1  0.404800  0.854240  0.939700  1.0  -0.1361
  C  C451  1  0.129200  0.937850  0.942010  1.0  -0.1778
  C  C452  1  0.216000  0.675860  0.764990  1.0  -0.1408
  C  C453  1  0.004000  0.606000  0.473900  1.0  -0.1803
  C  C454  1  0.576600  0.067330  0.581230  1.0  -0.1429
  C  C455  1  0.274800  0.677480  0.922930  1.0  -0.1306
  C  C456  1  0.453700  0.043300  0.103870  1.0  0.1101
  C  C457  1  0.537200  0.084910  0.484610  1.0  -0.1657
  C  C458  1  0.781000  0.880100  0.024100  1.0  0.4018
  C  C459  1  0.674300  0.096290  0.618590  1.0  0.0861
  C  C460  1  0.012300  0.072700  0.516500  1.0  0.0356
  C  C461  1  0.301300  0.163210  0.735670  1.0  -0.0372
  C  C462  1  0.546300  0.456700  0.603870  1.0  0.1131
  C  C463  1  0.462800  0.915090  0.515390  1.0  -0.1674
  C  C464  1  0.781000  0.619900  0.024100  1.0  0.4011
  C  C465  1  0.546300  0.043300  0.603870  1.0  0.1112
  C  C466  1  0.301300  0.336790  0.735670  1.0  -0.0394
  C  C467  1  0.012300  0.427300  0.516500  1.0  0.0355
  C  C468  1  0.784000  0.675860  0.264990  1.0  -0.141
  C  C469  1  0.216000  0.824140  0.764990  1.0  -0.1407
  C  C470  1  0.638800  0.831200  0.418770  1.0  -0.048
  C  C471  1  0.240100  0.363680  0.155610  1.0  -0.1197
  C  C472  1  0.535500  0.537260  0.057160  1.0  0.1208
  C  C473  1  0.453700  0.456700  0.103870  1.0  0.1121
  C  C474  1  0.576600  0.432670  0.581230  1.0  -0.1418
  C  C475  1  0.124200  0.825780  0.363640  1.0  -0.1402
  C  C476  1  0.359700  0.581680  0.003740  1.0  -0.1333
  C  C477  1  0.619400  0.520180  0.042570  1.0  -0.2207
  C  C478  1  0.813800  0.141960  0.281800  1.0  -0.157
  C  C479  1  0.137400  0.660220  0.394340  1.0  -0.041
  C  C480  1  0.186200  0.858040  0.718200  1.0  -0.1574
  C  C481  1  0.637800  0.868650  0.465390  1.0  0.1003
  C  C482  1  0.729900  0.128450  0.282540  1.0  0.0784
  C  C483  1  0.435600  0.059180  0.913050  1.0  -0.2293
  C  C484  1  0.725900  0.359590  0.031300  1.0  -0.1331
  C  C485  1  0.987700  0.427300  0.016500  1.0  0.0349
  C  C486  1  0.186100  0.297570  0.710710  1.0  0.7659
  C  C487  1  0.406400  0.107840  0.511900  1.0  0.0989
  C  C488  1  0.698700  0.163210  0.235670  1.0  -0.0388
  C  C489  1  0.767900  0.336460  0.051940  1.0  -0.0729
  C  C490  1  0.546300  0.956700  0.896130  1.0  0.1103
  C  C491  1  0.943300  0.298110  0.641290  1.0  0.7484
  C  C492  1  0.586200  0.953450  0.867620  1.0  -0.145
  C  C493  1  0.595200  0.145760  0.060300  1.0  -0.1373
  C  C494  1  0.608500  0.440430  0.331180  1.0  -0.0898
  C  C495  1  0.517800  0.515000  0.405770  1.0  0.1286
  C  C496  1  0.482200  0.515000  0.905770  1.0  0.1295
  C  C497  1  0.472800  0.991210  0.069100  1.0  -0.223
  C  C498  1  0.527200  0.491210  0.930900  1.0  -0.2178
  C  C499  1  0.387800  0.036920  0.887710  1.0  0.0557
  C  C500  1  0.056700  0.798110  0.358710  1.0  0.7498
  C  C501  1  0.759900  0.136320  0.655610  1.0  -0.1203
  C  C502  1  0.813900  0.202430  0.210710  1.0  0.7669
  C  C503  1  0.987700  0.572700  0.483500  1.0  0.0346
  C  C504  1  0.489800  0.061390  0.467520  1.0  0.0956
  C  C505  1  0.586200  0.546550  0.867620  1.0  -0.1435
  C  C506  1  0.453400  0.007710  0.876850  1.0  -0.1944
  C  C507  1  0.094600  0.444900  0.528400  1.0  0.0766
  C  C508  1  0.270100  0.628450  0.717460  1.0  0.078
  C  C509  1  0.359800  0.059800  0.859340  1.0  0.2241
  C  C510  1  0.967800  0.559500  0.008500  1.0  -0.1201
  C  C511  1  0.987700  0.072700  0.016500  1.0  0.0351
  C  C512  1  0.640200  0.940200  0.140660  1.0  0.2229
  C  C513  1  0.537200  0.915090  0.015390  1.0  -0.1687
  C  C514  1  0.671800  0.640140  0.240680  1.0  -0.1284
  C  C515  1  0.240100  0.636320  0.344390  1.0  -0.1215
  C  C516  1  0.406400  0.607840  0.988100  1.0  0.0987
  C  C517  1  0.750500  0.480400  0.053300  1.0  0.1449
  C  C518  1  0.856900  0.468280  0.010000  1.0  -0.1617
  C  C519  1  0.159700  0.335160  0.758320  1.0  -0.0228
  C  C520  1  0.586200  0.046550  0.632380  1.0  -0.1445
  C  C521  1  0.397700  0.968780  0.920960  1.0  -0.2133
  C  C522  1  0.219000  0.380100  0.975900  1.0  0.401
  C  C523  1  0.510200  0.061390  0.967520  1.0  0.0954
  C  C524  1  0.638200  0.592950  0.911560  1.0  -0.1647
  C  C525  1  0.159700  0.835160  0.741680  1.0  -0.0282
  C  C526  1  0.799500  0.365060  0.600590  1.0  -0.127
  C  C527  1  0.217500  0.487110  0.523730  1.0  -0.1281
  C  C528  1  0.159700  0.664840  0.741680  1.0  -0.0246
  C  C529  1  0.694300  0.519890  0.096620  1.0  -0.2396
  C  C530  1  0.781000  0.119900  0.475900  1.0  0.4014
  C  C531  1  0.094600  0.555100  0.971600  1.0  0.0767
  C  C532  1  0.537200  0.415090  0.484610  1.0  -0.1686
  C  C533  1  0.423400  0.432670  0.081230  1.0  -0.1452
  C  C534  1  0.875800  0.674220  0.863640  1.0  -0.1392
  C  C535  1  0.176400  0.838590  0.338880  1.0  -0.0549
  C  C536  1  0.635800  0.917720  0.194260  1.0  -0.1404
  C  C537  1  0.274800  0.177480  0.577070  1.0  -0.1304
  C  C538  1  0.769500  0.703080  0.400580  1.0  0.7388
  C  C539  1  0.769500  0.796920  0.400580  1.0  0.7386
  C  C540  1  0.435600  0.940820  0.586950  1.0  -0.2239
  C  C541  1  0.784000  0.824140  0.264990  1.0  -0.141
  C  C542  1  0.232100  0.336460  0.551940  1.0  -0.0722
  C  C543  1  0.674300  0.903710  0.881410  1.0  0.0871
  C  C544  1  0.576600  0.932670  0.918770  1.0  -0.1444
  C  C545  1  0.698300  0.895700  0.191560  1.0  0.146
  C  C546  1  0.305700  0.519890  0.596620  1.0  -0.2476
  C  C547  1  0.593600  0.107840  0.011900  1.0  0.0995
  C  C548  1  0.698300  0.104300  0.308440  1.0  0.1465
  C  C549  1  0.640200  0.440200  0.359340  1.0  0.2223
  C  C550  1  0.840300  0.664840  0.241680  1.0  -0.0232
  C  C551  1  0.840300  0.835160  0.241680  1.0  -0.0225
  C  C552  1  0.328200  0.640140  0.740680  1.0  -0.1256
  C  C553  1  0.576600  0.567330  0.918770  1.0  -0.1441
  C  C554  1  0.996000  0.894000  0.973900  1.0  -0.1833
  C  C555  1  0.124200  0.174220  0.136360  1.0  -0.1402
  C  C556  1  0.637800  0.368650  0.034610  1.0  0.1008
  C  C557  1  0.767900  0.163540  0.051940  1.0  -0.0712
  C  C558  1  0.640300  0.418320  0.996260  1.0  -0.1354
  C  C559  1  0.200500  0.365060  0.100590  1.0  -0.1261
  C  C560  1  0.860000  0.604800  0.006200  1.0  -0.0462
  C  C561  1  0.249500  0.019600  0.553300  1.0  0.1465
  C  C562  1  0.217500  0.987110  0.976270  1.0  -0.128
  C  C563  1  0.725200  0.677480  0.422930  1.0  -0.1303
  C  C564  1  0.362200  0.868650  0.965390  1.0  0.0999
  C  C565  1  0.505200  0.107870  0.006480  1.0  -0.1143
  C  C566  1  0.143100  0.531720  0.990000  1.0  -0.1595
  C  C567  1  0.967800  0.440500  0.491500  1.0  -0.1202
  C  C568  1  0.137400  0.160220  0.105660  1.0  -0.041
  C  C569  1  0.870800  0.937850  0.442010  1.0  -0.1788
  C  C570  1  0.527200  0.991210  0.569100  1.0  -0.2165
  C  C571  1  0.472800  0.508790  0.069100  1.0  -0.2238
  C  C572  1  0.482200  0.015000  0.594230  1.0  0.1326
  C  C573  1  0.996000  0.394000  0.526100  1.0  -0.1827
  C  C574  1  0.725900  0.640410  0.468700  1.0  -0.1321
  C  C575  1  0.391500  0.559570  0.668820  1.0  -0.0828
  C  C576  1  0.517800  0.485000  0.094230  1.0  0.1307
  C  C577  1  0.325700  0.596290  0.381410  1.0  0.0871
  C  C578  1  0.325700  0.403710  0.118590  1.0  0.085
  C  C579  1  0.404800  0.145760  0.560300  1.0  -0.1369
  C  C580  1  0.359700  0.081680  0.496260  1.0  -0.1324
  C  C581  1  0.494800  0.392130  0.506480  1.0  -0.1154
  C  C582  1  0.671800  0.140140  0.259320  1.0  -0.1286
  C  C583  1  0.200500  0.634940  0.399410  1.0  -0.1265
  C  C584  1  0.840300  0.164840  0.258320  1.0  -0.0219
  C  C585  1  0.593600  0.892160  0.488100  1.0  0.0996
  C  C586  1  0.782500  0.012890  0.023730  1.0  -0.1303
  C  C587  1  0.888800  0.424000  0.478800  1.0  -0.0886
  C  C588  1  0.967800  0.940500  0.008500  1.0  -0.1214
  C  C589  1  0.435600  0.559180  0.586950  1.0  -0.2276
  C  C590  1  0.380600  0.479820  0.957430  1.0  -0.2217
  C  C591  1  0.380600  0.020180  0.957430  1.0  -0.2214
  C  C592  1  0.325700  0.903710  0.381410  1.0  0.0865
  C  C593  1  0.619400  0.020180  0.457430  1.0  -0.2207
  C  C594  1  0.176400  0.338590  0.161120  1.0  -0.0538
  C  C595  1  0.608500  0.559570  0.168820  1.0  -0.0839
  C  C596  1  0.399400  0.559510  0.025490  1.0  -0.1985
  C  C597  1  0.464500  0.037260  0.942840  1.0  0.1239
  C  C598  1  0.510200  0.438610  0.967520  1.0  0.0964
  C  C599  1  0.361800  0.407050  0.088440  1.0  -0.1653
  C  C600  1  0.472800  0.008790  0.430900  1.0  -0.2241
  C  C601  1  0.202700  0.955840  0.929990  1.0  -0.1259
  C  C602  1  0.608500  0.059570  0.331180  1.0  -0.087
  C  C603  1  0.759900  0.636320  0.844390  1.0  -0.1213
  C  C604  1  0.364200  0.082280  0.805740  1.0  -0.1421
  C  C605  1  0.729900  0.628450  0.217460  1.0  0.0783
  C  C606  1  0.595200  0.645760  0.439700  1.0  -0.137
  C  C607  1  0.159700  0.164840  0.758320  1.0  -0.0246
  C  C608  1  0.140000  0.604800  0.506200  1.0  -0.0441
  C  C609  1  0.888800  0.924000  0.021200  1.0  -0.0869
  C  C610  1  0.870800  0.062150  0.057990  1.0  -0.1797
  C  C611  1  0.299500  0.913910  0.636100  1.0  -0.1426
  C  C612  1  0.004000  0.894000  0.473900  1.0  -0.1837
  C  C613  1  0.725200  0.322520  0.077070  1.0  -0.1308
  C  C614  1  0.698700  0.336790  0.235670  1.0  -0.0385
  C  C615  1  0.494800  0.607870  0.993520  1.0  -0.1121
  C  C616  1  0.759900  0.863680  0.844390  1.0  -0.1209
  C  C617  1  0.744400  0.877060  0.874780  1.0  0.0546
  C  C618  1  0.111200  0.076000  0.978800  1.0  -0.0873
  C  C619  1  0.769500  0.203080  0.099420  1.0  0.7387
  C  C620  1  0.602300  0.468780  0.079040  1.0  -0.2136
  C  C621  1  0.462800  0.084910  0.984610  1.0  -0.1649
  C  C622  1  0.216000  0.175860  0.735010  1.0  -0.1417
  C  C623  1  0.230500  0.796920  0.900580  1.0  0.739
  C  C624  1  0.331600  0.996620  0.932920  1.0  0.1483
  C  C625  1  0.362200  0.368650  0.534610  1.0  0.1003
  C  C626  1  0.725200  0.822520  0.422930  1.0  -0.1308
  C  C627  1  0.270100  0.371550  0.782540  1.0  0.0781
  C  C628  1  0.905400  0.055100  0.028400  1.0  0.0779
  C  C629  1  0.600600  0.440490  0.974510  1.0  -0.1974
  C  C630  1  0.453400  0.492290  0.876850  1.0  -0.1947
  C  C631  1  0.862600  0.839780  0.894340  1.0  -0.0404
  C  C632  1  0.399400  0.059510  0.474510  1.0  -0.1976
  C  C633  1  0.270800  0.108320  0.838810  1.0  -0.1961
  C  C634  1  0.012300  0.927300  0.983500  1.0  0.0349
  C  C635  1  0.362200  0.631350  0.965390  1.0  0.0999
  C  C636  1  0.862600  0.339780  0.605660  1.0  -0.0405
  C  C637  1  0.823600  0.661410  0.838880  1.0  -0.0559
  C  C638  1  0.249500  0.980400  0.946700  1.0  0.1465
  C  C639  1  0.413800  0.453450  0.132380  1.0  -0.1431
  C  C640  1  0.423400  0.567330  0.418770  1.0  -0.1458
  C  C641  1  0.860000  0.104800  0.493800  1.0  -0.0454
  C  C642  1  0.274100  0.359590  0.531300  1.0  -0.1314
  C  C643  1  0.505200  0.607870  0.493520  1.0  -0.1134
  C  C644  1  0.729200  0.391680  0.338810  1.0  -0.1938
  C  C645  1  0.301700  0.604300  0.691560  1.0  0.1447
  C  C646  1  0.744400  0.622940  0.874780  1.0  0.0545
  C  C647  1  0.875800  0.325780  0.636360  1.0  -0.1397
  C  C648  1  0.649700  0.928330  0.859960  1.0  -0.2052
  C  C649  1  0.782500  0.512890  0.476270  1.0  -0.1308
  C  C650  1  0.397700  0.031220  0.579040  1.0  -0.2186
  C  C651  1  0.600600  0.940490  0.525490  1.0  -0.1967
  C  C652  1  0.004000  0.394000  0.026100  1.0  -0.1818
  C  C653  1  0.612200  0.036920  0.387710  1.0  0.0552
  C  C654  1  0.240100  0.863680  0.344390  1.0  -0.1211
  C  C655  1  0.032200  0.440500  0.991500  1.0  -0.1162
  C  C656  1  0.217500  0.512890  0.976270  1.0  -0.1278
  C  C657  1  0.361200  0.831200  0.918770  1.0  -0.0481
  C  C658  1  0.888800  0.576000  0.021200  1.0  -0.0876
  C  C659  1  0.270800  0.891680  0.661190  1.0  -0.1936
  C  C660  1  0.032200  0.559500  0.508500  1.0  -0.1201
  C  C661  1  0.494800  0.892130  0.993520  1.0  -0.1156
  C  C662  1  0.784000  0.175860  0.235010  1.0  -0.1416
  C  C663  1  0.638800  0.168800  0.081230  1.0  -0.0491
  C  C664  1  0.862600  0.660220  0.894340  1.0  -0.0405
  C  C665  1  0.527200  0.508790  0.569100  1.0  -0.217
  C  C666  1  0.274100  0.859590  0.968700  1.0  -0.1333
  C  C667  1  0.299500  0.413910  0.863900  1.0  -0.1396
  C  C668  1  0.413800  0.953450  0.367620  1.0  -0.1437
  C  C669  1  0.391500  0.059570  0.831180  1.0  -0.0891
  C  C670  1  0.637800  0.631350  0.465390  1.0  0.1004
  C  C671  1  0.032200  0.940500  0.508500  1.0  -0.1211
  C  C672  1  0.505200  0.892130  0.493520  1.0  -0.115
  C  C673  1  0.649700  0.428330  0.640040  1.0  -0.2049
  C  C674  1  0.905400  0.555100  0.471600  1.0  0.0779
  C  C675  1  0.219000  0.880100  0.524100  1.0  0.402
  C  C676  1  0.767900  0.836460  0.448060  1.0  -0.0777
  C  C677  1  0.638200  0.407050  0.588440  1.0  -0.1638
  C  C678  1  0.813800  0.641960  0.218200  1.0  -0.1576
  C  C679  1  0.635800  0.417720  0.305740  1.0  -0.1403
  C  C680  1  0.140000  0.395200  0.993800  1.0  -0.0432
  C  C681  1  0.361200  0.168800  0.581230  1.0  -0.0469
  C  C682  1  0.840300  0.335160  0.258320  1.0  -0.0224
  C  C683  1  0.413800  0.546550  0.367620  1.0  -0.1431
  C  C684  1  0.668400  0.003380  0.067080  1.0  0.1476
  C  C685  1  0.635800  0.582280  0.194260  1.0  -0.1383
  C  C686  1  0.482200  0.985000  0.905770  1.0  0.1283
  C  C687  1  0.698300  0.604300  0.191560  1.0  0.1461
  C  C688  1  0.186200  0.358040  0.781800  1.0  -0.1579
  C  C689  1  0.856900  0.968280  0.490000  1.0  -0.1601
  C  C690  1  0.744400  0.377060  0.625220  1.0  0.0557
  C  C691  1  0.750500  0.519600  0.446700  1.0  0.1443
  C  C692  1  0.694300  0.480110  0.403380  1.0  -0.2398
  C  C693  1  0.700500  0.413910  0.363900  1.0  -0.1461
  C  C694  1  0.087800  0.376600  0.015600  1.0  -0.0881
  C  C695  1  0.453400  0.507710  0.623150  1.0  -0.1946
  C  C696  1  0.305700  0.019890  0.903380  1.0  -0.2482
  C  C697  1  0.729200  0.608320  0.161190  1.0  -0.1951
  C  C698  1  0.137400  0.839780  0.394340  1.0  -0.0405
  C  C699  1  0.856900  0.531720  0.490000  1.0  -0.161
  C  C700  1  0.202700  0.455840  0.570010  1.0  -0.1253
  C  C701  1  0.875800  0.825780  0.863640  1.0  -0.1396
  C  C702  1  0.698700  0.663210  0.264330  1.0  -0.0378
  C  C703  1  0.232100  0.663540  0.948060  1.0  -0.0734
  C  C704  1  0.546600  0.507710  0.123150  1.0  -0.1963
  C  C705  1  0.564400  0.059180  0.413050  1.0  -0.2309
  C  C706  1  0.423400  0.932670  0.418770  1.0  -0.1465
  C  C707  1  0.087800  0.876600  0.484400  1.0  -0.0904
  C  C708  1  0.564400  0.440820  0.413050  1.0  -0.2272
  C  C709  1  0.328200  0.859860  0.740680  1.0  -0.1258
  C  C710  1  0.249500  0.519600  0.946700  1.0  0.1463
  C  C711  1  0.638200  0.907050  0.911560  1.0  -0.1645
  C  C712  1  0.202700  0.044160  0.570010  1.0  -0.1261
  C  C713  1  0.328200  0.140140  0.759320  1.0  -0.126
  C  C714  1  0.129200  0.437850  0.557990  1.0  -0.1779
  C  C715  1  0.305700  0.480110  0.903380  1.0  -0.2477
  C  C716  1  0.143100  0.031720  0.510000  1.0  -0.1613
  C  C717  1  0.087800  0.123400  0.015600  1.0  -0.0871
  C  C718  1  0.700500  0.086090  0.363900  1.0  -0.1429
  C  C719  1  0.694300  0.019890  0.403380  1.0  -0.24
  C  C720  1  0.361200  0.668800  0.918770  1.0  -0.0487
  C  C721  1  0.943300  0.701890  0.858710  1.0  0.7489
  C  C722  1  0.700500  0.586090  0.136100  1.0  -0.1422
  C  C723  1  0.186200  0.141960  0.781800  1.0  -0.1574
  C  C724  1  0.912200  0.123400  0.515600  1.0  -0.0877
  C  C725  1  0.668400  0.496620  0.067080  1.0  0.147
  C  C726  1  0.640300  0.918320  0.503740  1.0  -0.1333
  C  C727  1  0.797300  0.044160  0.070010  1.0  -0.1251
  C  C728  1  0.230500  0.296920  0.599420  1.0  0.739
  C  C729  1  0.140000  0.104800  0.993800  1.0  -0.0431
  C  C730  1  0.635800  0.082280  0.305740  1.0  -0.1406
  C  C731  1  0.274800  0.822520  0.922930  1.0  -0.1319
  C  C732  1  0.387800  0.463080  0.887710  1.0  0.0546
  C  C733  1  0.638200  0.092950  0.588440  1.0  -0.164
  C  C734  1  0.331600  0.503380  0.932920  1.0  0.1481
  C  C735  1  0.649700  0.071670  0.640040  1.0  -0.2042
  C  C736  1  0.111200  0.576000  0.521200  1.0  -0.0868
  C  C737  1  0.725900  0.859590  0.468700  1.0  -0.1339
  C  C738  1  0.380600  0.520180  0.542570  1.0  -0.2198
  C  C739  1  0.489800  0.561390  0.032480  1.0  0.0951
  C  C740  1  0.905400  0.944900  0.471600  1.0  0.0778
  C  C741  1  0.464500  0.537260  0.557160  1.0  0.1219
  C  C742  1  0.299500  0.086090  0.863900  1.0  -0.1394
  C  C743  1  0.694300  0.980110  0.096620  1.0  -0.24
  C  C744  1  0.638800  0.331200  0.081230  1.0  -0.0478
  C  C745  1  0.784000  0.324140  0.235010  1.0  -0.1419
  C  C746  1  0.612200  0.463080  0.387710  1.0  0.0543
  C  C747  1  0.232100  0.836460  0.948060  1.0  -0.0779
  C  C748  1  0.359700  0.918320  0.003740  1.0  -0.1336
  C  C749  1  0.406400  0.892160  0.988100  1.0  0.0993
  C  C750  1  0.186200  0.641960  0.718200  1.0  -0.1572
  C  C751  1  0.032200  0.059500  0.991500  1.0  -0.1156
  C  C752  1  0.004000  0.106000  0.026100  1.0  -0.1832
  C  C753  1  0.350300  0.571670  0.359960  1.0  -0.2041
  C  C754  1  0.387800  0.536920  0.612290  1.0  0.0599
  C  C755  1  0.397700  0.468780  0.579040  1.0  -0.2139
  C  C756  1  0.230500  0.203080  0.599420  1.0  0.7392
  C  C757  1  0.305700  0.980110  0.596620  1.0  -0.2479
  C  C758  1  0.875800  0.174220  0.636360  1.0  -0.1394
  C  C759  1  0.640200  0.559800  0.140660  1.0  0.2234
  C  C760  1  0.270800  0.608320  0.661190  1.0  -0.1954
  C  C761  1  0.137400  0.339780  0.105660  1.0  -0.0409
  C  C762  1  0.637800  0.131350  0.034610  1.0  0.1005
  C  C763  1  0.729200  0.108320  0.338810  1.0  -0.1967
  C  C764  1  0.987700  0.927300  0.483500  1.0  0.0346
  C  C765  1  0.274100  0.140410  0.531300  1.0  -0.1318
  C  C766  1  0.860000  0.395200  0.493800  1.0  -0.0459
  C  C767  1  0.094600  0.944900  0.971600  1.0  0.0765
  C  C768  1  0.413800  0.046550  0.132380  1.0  -0.1464
  C  C769  1  0.700500  0.913910  0.136100  1.0  -0.1391
  C  C770  1  0.813900  0.702430  0.289290  1.0  0.7674
  C  C771  1  0.782500  0.987110  0.476270  1.0  -0.1342
  C  C772  1  0.232100  0.163540  0.551940  1.0  -0.0779
  C  C773  1  0.270800  0.391680  0.838810  1.0  -0.1936
  C  C774  1  0.797300  0.955840  0.429990  1.0  -0.126
  C  C775  1  0.399400  0.440490  0.474510  1.0  -0.1969
  C  C776  1  0.505200  0.392130  0.006480  1.0  -0.1143
  C  C777  1  0.564400  0.559180  0.086950  1.0  -0.2292
  C  C778  1  0.600600  0.059510  0.974510  1.0  -0.1976
  C  C779  1  0.602300  0.531220  0.420960  1.0  -0.2165
  C  C780  1  0.380600  0.979820  0.542570  1.0  -0.2201
  C  C781  1  0.489800  0.938610  0.032480  1.0  0.0961
  C  C782  1  0.270100  0.128450  0.782540  1.0  0.0781
  C  C783  1  0.608500  0.940430  0.168820  1.0  -0.086
  C  C784  1  0.186100  0.702430  0.789290  1.0  0.7673
  C  C785  1  0.546600  0.492290  0.376850  1.0  -0.1946
  C  C786  1  0.056700  0.298110  0.141290  1.0  0.7497
  C  C787  1  0.769500  0.296920  0.099420  1.0  0.7384
  C  C788  1  0.912200  0.376600  0.515600  1.0  -0.0883
  C  C789  1  0.361200  0.331200  0.581230  1.0  -0.0477
  C  C790  1  0.111200  0.424000  0.978800  1.0  -0.0874
  C  C791  1  0.510200  0.561390  0.532480  1.0  0.0947
  C  C792  1  0.361800  0.592950  0.411560  1.0  -0.1657
  C  C793  1  0.350300  0.428330  0.140040  1.0  -0.2047
  C  C794  1  0.668400  0.996620  0.432920  1.0  0.148
  C  C795  1  0.270100  0.871550  0.717460  1.0  0.078
  C  C796  1  0.725200  0.177480  0.077070  1.0  -0.1304
  C  C797  1  0.870800  0.437850  0.057990  1.0  -0.1785
  C  C798  1  0.399400  0.940490  0.025490  1.0  -0.1974
  C  C799  1  0.124200  0.674220  0.363640  1.0  -0.1401
  C  C800  1  0.255600  0.122940  0.125220  1.0  0.0557
  C  C801  1  0.186100  0.797570  0.789290  1.0  0.7666
  C  C802  1  0.397700  0.531220  0.920960  1.0  -0.2166
  C  C803  1  0.472800  0.491210  0.430900  1.0  -0.2235
  C  C804  1  0.255600  0.877060  0.374780  1.0  0.0544
  C  C805  1  0.361800  0.092950  0.088440  1.0  -0.1654
  C  C806  1  0.464500  0.462740  0.942840  1.0  0.1231
  C  C807  1  0.517800  0.985000  0.405770  1.0  0.1277
  C  C808  1  0.359800  0.559800  0.640660  1.0  0.2234
  C  C809  1  0.404800  0.354240  0.560300  1.0  -0.1377
  C  C810  1  0.176400  0.161410  0.161120  1.0  -0.0541
  C  C811  1  0.619400  0.479820  0.457430  1.0  -0.221
  C  C812  1  0.255600  0.377060  0.125220  1.0  0.0554
  C  C813  1  0.535500  0.037260  0.442840  1.0  0.1231
  C  C814  1  0.649700  0.571670  0.859960  1.0  -0.2052
  C  C815  1  0.797300  0.455840  0.070010  1.0  -0.1248
  C  C816  1  0.331600  0.496620  0.567080  1.0  0.1472
  C  C817  1  0.255600  0.622940  0.374780  1.0  0.0543
  C  C818  1  0.364200  0.917720  0.694260  1.0  -0.14
  C  C819  1  0.546300  0.543300  0.896130  1.0  0.1099
  C  C820  1  0.387800  0.963080  0.612290  1.0  0.0585
  C  C821  1  0.782500  0.487110  0.023730  1.0  -0.1304
  C  C822  1  0.862600  0.160220  0.605660  1.0  -0.0404
  C  C823  1  0.202700  0.544160  0.929990  1.0  -0.1284
  C  C824  1  0.140000  0.895200  0.506200  1.0  -0.0439
  C  C825  1  0.671800  0.359860  0.259320  1.0  -0.1287
  C  C826  1  0.391500  0.440430  0.831180  1.0  -0.0886
  C  C827  1  0.359700  0.418320  0.496260  1.0  -0.1341
  C  C828  1  0.799500  0.865060  0.899410  1.0  -0.1275
  C  C829  1  0.325700  0.096290  0.118590  1.0  0.0855
  C  C830  1  0.328200  0.359860  0.759320  1.0  -0.1262
  C  C831  1  0.517800  0.015000  0.094230  1.0  0.1315
  C  C832  1  0.361800  0.907050  0.411560  1.0  -0.1656
  C  C833  1  0.230500  0.703080  0.900580  1.0  0.7391
  C  C834  1  0.593600  0.607840  0.488100  1.0  0.0994
  C  C835  1  0.912200  0.623400  0.984400  1.0  -0.0897
  C  C836  1  0.364200  0.417720  0.805740  1.0  -0.1409
  C  C837  1  0.799500  0.634940  0.899410  1.0  -0.1271
  C  C838  1  0.364200  0.582280  0.694260  1.0  -0.1381
  C  C839  1  0.996000  0.106000  0.526100  1.0  -0.183
  C  C840  1  0.595200  0.854240  0.439700  1.0  -0.1379
  C  C841  1  0.482200  0.485000  0.594230  1.0  0.1313
  C  C842  1  0.823600  0.838590  0.838880  1.0  -0.0552
  C  C843  1  0.274100  0.640410  0.968700  1.0  -0.1326
  C  C844  1  0.111200  0.924000  0.521200  1.0  -0.0866
  C  C845  1  0.967800  0.059500  0.491500  1.0  -0.1148
  C  C846  1  0.535500  0.962740  0.057160  1.0  0.1191
  C  C847  1  0.813800  0.858040  0.218200  1.0  -0.1575
  C  C848  1  0.404800  0.645760  0.939700  1.0  -0.1358
  C  C849  1  0.359800  0.940200  0.640660  1.0  0.2231
  C  C850  1  0.564400  0.940820  0.086950  1.0  -0.2257
  C  C851  1  0.129200  0.062150  0.557990  1.0  -0.1796
  C  C852  1  0.249500  0.480400  0.553300  1.0  0.1467
  C  C853  1  0.299500  0.586090  0.636100  1.0  -0.1479
  C  C854  1  0.143100  0.968280  0.990000  1.0  -0.1604
  C  C855  1  0.200500  0.134940  0.100590  1.0  -0.126
  C  C856  1  0.698700  0.836790  0.264330  1.0  -0.0375
  C  C857  1  0.640300  0.081680  0.996260  1.0  -0.1332
  C  C858  1  0.124200  0.325780  0.136360  1.0  -0.1401
  C  C859  1  0.767900  0.663540  0.448060  1.0  -0.0781
  C  C860  1  0.462800  0.584910  0.515390  1.0  -0.165
  O  O861  1  0.756900  0.150100  0.494000  1.0  -0.4788
  O  O862  1  0.256500  0.612000  0.547100  1.0  -0.4105
  O  O863  1  0.957200  0.287730  0.669520  1.0  -0.6152
  O  O864  1  0.891400  0.712840  0.288400  1.0  -0.6104
  O  O865  1  0.272200  0.286700  0.623490  1.0  -0.6114
  O  O866  1  0.120500  0.750000  0.849150  1.0  -1.1136
  O  O867  1  0.957200  0.712270  0.830480  1.0  -0.6137
  O  O868  1  0.256500  0.388000  0.952900  1.0  -0.399
  O  O869  1  0.754000  0.287780  0.191240  1.0  -0.6194
  O  O870  1  0.155800  0.713200  0.908800  1.0  -0.6099
  O  O871  1  0.155800  0.213200  0.591200  1.0  -0.61
  O  O872  1  0.891400  0.212840  0.211600  1.0  -0.6102
  O  O873  1  0.982700  0.787100  0.883400  1.0  -0.6228
  O  O874  1  0.957200  0.787730  0.830480  1.0  -0.6141
  O  O875  1  0.879500  0.750000  0.349150  1.0  -1.1134
  O  O876  1  0.844200  0.213200  0.091200  1.0  -0.6107
  O  O877  1  0.108600  0.712840  0.788400  1.0  -0.6087
  O  O878  1  0.844200  0.286800  0.091200  1.0  -0.6106
  O  O879  1  0.256500  0.888000  0.547100  1.0  -0.4069
  O  O880  1  0.891400  0.287160  0.211600  1.0  -0.6103
  O  O881  1  0.844200  0.713200  0.408800  1.0  -0.6108
  O  O882  1  0.155800  0.286800  0.591200  1.0  -0.61
  O  O883  1  0.754000  0.212220  0.191240  1.0  -0.6189
  O  O884  1  0.256500  0.112000  0.952900  1.0  -0.4016
  O  O885  1  0.756900  0.349900  0.494000  1.0  -0.4793
  O  O886  1  0.756900  0.849900  0.006000  1.0  -0.48
  O  O887  1  0.108600  0.287160  0.711600  1.0  -0.6086
  O  O888  1  0.243100  0.650100  0.506000  1.0  -0.4781
  O  O889  1  0.727800  0.786700  0.376510  1.0  -0.6124
  O  O890  1  0.743500  0.388000  0.452900  1.0  -0.3997
  O  O891  1  0.727800  0.286700  0.123490  1.0  -0.6102
  O  O892  1  0.879500  0.250000  0.150850  1.0  -1.113
  O  O893  1  0.754000  0.787780  0.308760  1.0  -0.6181
  O  O894  1  0.246000  0.712220  0.808760  1.0  -0.6181
  O  O895  1  0.108600  0.787160  0.788400  1.0  -0.6088
  O  O896  1  0.042800  0.212270  0.169520  1.0  -0.6135
  O  O897  1  0.743500  0.888000  0.047100  1.0  -0.4051
  O  O898  1  0.743500  0.112000  0.452900  1.0  -0.4012
  O  O899  1  0.982700  0.212900  0.616600  1.0  -0.622
  O  O900  1  0.957200  0.212270  0.669520  1.0  -0.6146
  O  O901  1  0.246000  0.287780  0.691240  1.0  -0.6198
  O  O902  1  0.272200  0.786700  0.876510  1.0  -0.613
  O  O903  1  0.727800  0.713300  0.376510  1.0  -0.6123
  O  O904  1  0.754000  0.712220  0.308760  1.0  -0.6177
  O  O905  1  0.243100  0.150100  0.994000  1.0  -0.4782
  O  O906  1  0.844200  0.786800  0.408800  1.0  -0.6107
  O  O907  1  0.017300  0.212900  0.116600  1.0  -0.6215
  O  O908  1  0.017300  0.712900  0.383400  1.0  -0.6218
  O  O909  1  0.017300  0.287100  0.116600  1.0  -0.6219
  O  O910  1  0.155800  0.786800  0.908800  1.0  -0.6099
  O  O911  1  0.272200  0.213300  0.623490  1.0  -0.6112
  O  O912  1  0.982700  0.712900  0.883400  1.0  -0.6227
  O  O913  1  0.042800  0.787730  0.330480  1.0  -0.6138
  O  O914  1  0.246000  0.212220  0.691240  1.0  -0.6195
  O  O915  1  0.243100  0.349900  0.994000  1.0  -0.4784
  O  O916  1  0.246000  0.787780  0.808760  1.0  -0.6183
  O  O917  1  0.982700  0.287100  0.616600  1.0  -0.6224
  O  O918  1  0.891400  0.787160  0.288400  1.0  -0.6104
  O  O919  1  0.017300  0.787100  0.383400  1.0  -0.6219
  O  O920  1  0.743500  0.612000  0.047100  1.0  -0.41
  O  O921  1  0.042800  0.287730  0.169520  1.0  -0.614
  O  O922  1  0.272200  0.713300  0.876510  1.0  -0.6131
  O  O923  1  0.727800  0.213300  0.123490  1.0  -0.6097
  O  O924  1  0.243100  0.849900  0.506000  1.0  -0.4791
  O  O925  1  0.756900  0.650100  0.006000  1.0  -0.4785
  O  O926  1  0.108600  0.212840  0.711600  1.0  -0.6084
  O  O927  1  0.042800  0.712270  0.330480  1.0  -0.6137
  O  O928  1  0.120500  0.250000  0.650850  1.0  -1.113
