# generated using pymatgen
data_Zn23H144C252(N9O20)4
_symmetry_space_group_name_H-M   'P 1'
_cell_length_a   26.65500000
_cell_length_b   26.65500000
_cell_length_c   32.28100000
_cell_angle_alpha   65.61550000
_cell_angle_beta   65.61550000
_cell_angle_gamma   60.00000000
_symmetry_Int_Tables_number   1
_chemical_formula_structural   Zn23H144C252(N9O20)4
_chemical_formula_sum   'Zn46 H288 C504 N72 O160'
_cell_volume   17460.19723539
_cell_formula_units_Z   2
loop_
 _symmetry_equiv_pos_site_id
 _symmetry_equiv_pos_as_xyz
  1  'x, y, z'
loop_
 _atom_site_type_symbol
 _atom_site_label
 _atom_site_symmetry_multiplicity
 _atom_site_fract_x
 _atom_site_fract_y
 _atom_site_fract_z
 _atom_site_occupancy
 _atom_site_charge
  Zn  Zn1  1  0.325360  0.562030  0.233880  1.0  1.1078
  Zn  Zn2  1  0.562030  0.878730  0.233880  1.0  1.1042
  Zn  Zn3  1  0.250000  0.715270  0.250000  1.0  1.1139
  Zn  Zn4  1  0.852970  0.724750  0.599480  1.0  1.062
  Zn  Zn5  1  0.062030  0.825360  0.733880  1.0  1.1036
  Zn  Zn6  1  0.378460  0.255370  0.766480  1.0  1.0004
  Zn  Zn7  1  0.831620  0.831620  0.505140  1.0  0.9308
  Zn  Zn8  1  0.099690  0.755370  0.266480  1.0  1.0005
  Zn  Zn9  1  0.378730  0.062030  0.733880  1.0  1.1047
  Zn  Zn10  1  0.599690  0.378460  0.766480  1.0  0.9992
  Zn  Zn11  1  0.621540  0.744630  0.233520  1.0  0.9998
  Zn  Zn12  1  0.900310  0.244630  0.733520  1.0  1.0002
  Zn  Zn13  1  0.878730  0.325360  0.233880  1.0  1.1039
  Zn  Zn14  1  0.822800  0.852970  0.599480  1.0  1.0679
  Zn  Zn15  1  0.937970  0.174640  0.266120  1.0  1.1046
  Zn  Zn16  1  0.668380  0.668380  0.994860  1.0  0.9331
  Zn  Zn17  1  0.400310  0.621540  0.233520  1.0  0.9998
  Zn  Zn18  1  0.825360  0.378730  0.733880  1.0  1.104
  Zn  Zn19  1  0.284730  0.215270  0.750000  1.0  1.1145
  Zn  Zn20  1  0.724750  0.822800  0.599480  1.0  1.0782
  Zn  Zn21  1  0.255370  0.599690  0.766480  1.0  0.9979
  Zn  Zn22  1  0.784730  0.250000  0.250000  1.0  1.1134
  Zn  Zn23  1  0.677200  0.775250  0.900520  1.0  1.0812
  Zn  Zn24  1  0.755370  0.878460  0.266480  1.0  0.9984
  Zn  Zn25  1  0.224750  0.352970  0.099480  1.0  1.0633
  Zn  Zn26  1  0.147030  0.275250  0.400520  1.0  1.0663
  Zn  Zn27  1  0.775250  0.647030  0.900520  1.0  1.0664
  Zn  Zn28  1  0.621270  0.937970  0.266120  1.0  1.1049
  Zn  Zn29  1  0.647030  0.677200  0.900520  1.0  1.0681
  Zn  Zn30  1  0.352970  0.322800  0.099480  1.0  1.0678
  Zn  Zn31  1  0.174640  0.621270  0.266120  1.0  1.1042
  Zn  Zn32  1  0.750000  0.284730  0.750000  1.0  1.1144
  Zn  Zn33  1  0.674640  0.437970  0.766120  1.0  1.1066
  Zn  Zn34  1  0.121270  0.674640  0.766120  1.0  1.104
  Zn  Zn35  1  0.121540  0.900310  0.733520  1.0  0.9997
  Zn  Zn36  1  0.168380  0.168380  0.494860  1.0  0.9331
  Zn  Zn37  1  0.244630  0.121540  0.733520  1.0  0.9991
  Zn  Zn38  1  0.215270  0.750000  0.750000  1.0  1.1132
  Zn  Zn39  1  0.322800  0.224750  0.099480  1.0  1.0779
  Zn  Zn40  1  0.878460  0.099690  0.266480  1.0  0.9978
  Zn  Zn41  1  0.331620  0.331620  0.005140  1.0  0.9308
  Zn  Zn42  1  0.177200  0.147030  0.400520  1.0  1.0681
  Zn  Zn43  1  0.275250  0.177200  0.400520  1.0  1.0811
  Zn  Zn44  1  0.437970  0.121270  0.766120  1.0  1.104
  Zn  Zn45  1  0.744630  0.400310  0.233520  1.0  0.9989
  Zn  Zn46  1  0.715270  0.784730  0.250000  1.0  1.1134
  H  H47  1  0.263800  0.932600  0.003900  1.0  0.0998
  H  H48  1  0.978000  0.370300  0.946900  1.0  0.0777
  H  H49  1  0.076300  0.895000  0.590300  1.0  0.1129
  H  H50  1  0.435500  0.384700  0.296700  1.0  0.1175
  H  H51  1  0.178800  0.390900  0.708100  1.0  0.113
  H  H52  1  0.446400  0.829700  0.520400  1.0  0.117
  H  H53  1  0.053600  0.296500  0.979600  1.0  0.1158
  H  H54  1  0.578600  0.059200  0.430400  1.0  0.1223
  H  H55  1  0.179100  0.251000  0.567500  1.0  0.1217
  H  H56  1  0.749000  0.997600  0.432500  1.0  0.1229
  H  H57  1  0.097300  0.479600  0.028500  1.0  0.1099
  H  H58  1  0.781400  0.722000  0.989500  1.0  0.1097
  H  H59  1  0.006900  0.267300  0.586400  1.0  0.1123
  H  H60  1  0.639400  0.767300  0.086400  1.0  0.1146
  H  H61  1  0.214400  0.982300  0.365700  1.0  0.1268
  H  H62  1  0.395000  0.576300  0.090300  1.0  0.1126
  H  H63  1  0.864000  0.319200  0.352700  1.0  0.122
  H  H64  1  0.923700  0.105000  0.409700  1.0  0.1142
  H  H65  1  0.686900  0.480300  0.949300  1.0  0.1222
  H  H66  1  0.520400  0.605400  0.971500  1.0  0.1103
  H  H67  1  0.540200  0.534600  0.835400  1.0  0.1039
  H  H68  1  0.796500  0.553600  0.479600  1.0  0.1165
  H  H69  1  0.519700  0.116500  0.050700  1.0  0.1211
  H  H70  1  0.473000  0.793000  0.899800  1.0  0.1179
  H  H71  1  0.278000  0.492900  0.010500  1.0  0.1124
  H  H72  1  0.778000  0.718600  0.510500  1.0  0.109
  H  H73  1  0.061600  0.605000  0.909700  1.0  0.1139
  H  H74  1  0.589800  0.034600  0.335400  1.0  0.1042
  H  H75  1  0.402700  0.105400  0.471500  1.0  0.1099
  H  H76  1  0.982300  0.437600  0.365700  1.0  0.1272
  H  H77  1  0.034600  0.040200  0.335400  1.0  0.1035
  H  H78  1  0.979600  0.597300  0.528500  1.0  0.1097
  H  H79  1  0.679100  0.502400  0.067500  1.0  0.1219
  H  H80  1  0.164600  0.998800  0.013500  1.0  0.1268
  H  H81  1  0.068200  0.421400  0.569600  1.0  0.1224
  H  H82  1  0.200300  0.736200  0.996100  1.0  0.1009
  H  H83  1  0.116900  0.564500  0.703300  1.0  0.1192
  H  H84  1  0.751000  0.679100  0.067500  1.0  0.1227
  H  H85  1  0.067400  0.200300  0.996100  1.0  0.1009
  H  H86  1  0.992900  0.778000  0.510500  1.0  0.1097
  H  H87  1  0.605400  0.902700  0.971500  1.0  0.1098
  H  H88  1  0.935200  0.582500  0.613000  1.0  0.1008
  H  H89  1  0.112400  0.455700  0.814400  1.0  0.1215
  H  H90  1  0.506900  0.639400  0.086400  1.0  0.1163
  H  H91  1  0.535900  0.136000  0.647300  1.0  0.125
  H  H92  1  0.251000  0.002400  0.567500  1.0  0.1231
  H  H93  1  0.233900  0.956900  0.753800  1.0  0.113
  H  H94  1  0.555400  0.456900  0.253800  1.0  0.1139
  H  H95  1  0.929200  0.253700  0.945700  1.0  0.1169
  H  H96  1  0.869300  0.935200  0.613000  1.0  0.0988
  H  H97  1  0.502400  0.751000  0.067500  1.0  0.1219
  H  H98  1  0.544300  0.382500  0.185600  1.0  0.121
  H  H99  1  0.795200  0.129700  0.553100  1.0  0.0776
  H  H100  1  0.383100  0.884700  0.796700  1.0  0.1175
  H  H101  1  0.186900  0.383500  0.449300  1.0  0.122
  H  H102  1  0.894600  0.979600  0.528500  1.0  0.1103
  H  H103  1  0.236200  0.700300  0.496100  1.0  0.1014
  H  H104  1  0.616900  0.115300  0.203300  1.0  0.1171
  H  H105  1  0.394600  0.097300  0.028500  1.0  0.1104
  H  H106  1  0.959800  0.410200  0.664600  1.0  0.104
  H  H107  1  0.464100  0.864000  0.352700  1.0  0.1253
  H  H108  1  0.082500  0.435200  0.113000  1.0  0.1
  H  H109  1  0.296500  0.670300  0.979600  1.0  0.1164
  H  H110  1  0.884700  0.935500  0.796700  1.0  0.1187
  H  H111  1  0.733900  0.555400  0.253800  1.0  0.1146
  H  H112  1  0.955700  0.612400  0.314400  1.0  0.1222
  H  H113  1  0.819900  0.601800  0.106800  1.0  0.1032
  H  H114  1  0.455700  0.617500  0.814400  1.0  0.1207
  H  H115  1  0.044300  0.387600  0.685600  1.0  0.1223
  H  H116  1  0.570800  0.628600  0.554300  1.0  0.1181
  H  H117  1  0.383500  0.980300  0.449300  1.0  0.1223
  H  H118  1  0.517700  0.285600  0.134300  1.0  0.1277
  H  H119  1  0.078600  0.431800  0.930400  1.0  0.1223
  H  H120  1  0.528500  0.180100  0.893200  1.0  0.1031
  H  H121  1  0.700300  0.567400  0.496100  1.0  0.1008
  H  H122  1  0.902700  0.520400  0.971500  1.0  0.1096
  H  H123  1  0.382500  0.887600  0.185600  1.0  0.1225
  H  H124  1  0.203500  0.446400  0.520400  1.0  0.1164
  H  H125  1  0.959100  0.906600  0.628300  1.0  0.1153
  H  H126  1  0.062400  0.517700  0.134300  1.0  0.128
  H  H127  1  0.997600  0.820900  0.432500  1.0  0.1213
  H  H128  1  0.819200  0.364000  0.852700  1.0  0.125
  H  H129  1  0.890900  0.678800  0.208100  1.0  0.1118
  H  H130  1  0.371400  0.753700  0.445700  1.0  0.1168
  H  H131  1  0.507100  0.781400  0.989500  1.0  0.1098
  H  H132  1  0.017700  0.562400  0.634300  1.0  0.1267
  H  H133  1  0.605000  0.423700  0.909700  1.0  0.113
  H  H134  1  0.432600  0.763800  0.503900  1.0  0.0995
  H  H135  1  0.539600  0.920300  0.829600  1.0  0.1146
  H  H136  1  0.480300  0.883500  0.949300  1.0  0.1217
  H  H137  1  0.665800  0.707000  0.600200  1.0  0.1191
  H  H138  1  0.898200  0.680100  0.393200  1.0  0.1028
  H  H139  1  0.597300  0.894600  0.528500  1.0  0.1098
  H  H140  1  0.834200  0.473000  0.899800  1.0  0.1171
  H  H141  1  0.431800  0.559200  0.930400  1.0  0.1228
  H  H142  1  0.973000  0.334200  0.399800  1.0  0.1174
  H  H143  1  0.313100  0.519700  0.050700  1.0  0.1221
  H  H144  1  0.829700  0.203500  0.520400  1.0  0.1176
  H  H145  1  0.390900  0.722200  0.708100  1.0  0.1131
  H  H146  1  0.678800  0.222200  0.208100  1.0  0.1128
  H  H147  1  0.534600  0.089800  0.835400  1.0  0.1041
  H  H148  1  0.249000  0.320900  0.932500  1.0  0.1222
  H  H149  1  0.369300  0.082500  0.113000  1.0  0.1002
  H  H150  1  0.704800  0.978000  0.946900  1.0  0.0777
  H  H151  1  0.636000  0.035900  0.147300  1.0  0.1217
  H  H152  1  0.028500  0.898200  0.393200  1.0  0.1033
  H  H153  1  0.553600  0.170300  0.479600  1.0  0.1169
  H  H154  1  0.564500  0.615300  0.703300  1.0  0.1187
  H  H155  1  0.222000  0.281400  0.489500  1.0  0.1087
  H  H156  1  0.871400  0.929200  0.945700  1.0  0.1182
  H  H157  1  0.093400  0.494000  0.371700  1.0  0.1154
  H  H158  1  0.329700  0.946400  0.020400  1.0  0.1166
  H  H159  1  0.438400  0.076300  0.590300  1.0  0.1111
  H  H160  1  0.497600  0.249000  0.932500  1.0  0.1219
  H  H161  1  0.944600  0.766100  0.246200  1.0  0.1146
  H  H162  1  0.040200  0.589800  0.335400  1.0  0.1038
  H  H163  1  0.417500  0.130700  0.387000  1.0  0.1021
  H  H164  1  0.935500  0.383100  0.796700  1.0  0.118
  H  H165  1  0.471500  0.819900  0.106800  1.0  0.1024
  H  H166  1  0.079700  0.289500  0.170400  1.0  0.1192
  H  H167  1  0.001200  0.176900  0.986500  1.0  0.1333
  H  H168  1  0.360600  0.232700  0.913600  1.0  0.1141
  H  H169  1  0.299700  0.432600  0.503900  1.0  0.1014
  H  H170  1  0.527000  0.207000  0.100200  1.0  0.1182
  H  H171  1  0.965400  0.959800  0.664600  1.0  0.1038
  H  H172  1  0.321200  0.777800  0.791900  1.0  0.1136
  H  H173  1  0.777800  0.109100  0.791900  1.0  0.112
  H  H174  1  0.994000  0.593400  0.871700  1.0  0.1148
  H  H175  1  0.710500  0.539600  0.829600  1.0  0.1166
  H  H176  1  0.820900  0.749000  0.432500  1.0  0.122
  H  H177  1  0.628600  0.246300  0.554300  1.0  0.1175
  H  H178  1  0.437600  0.214400  0.365700  1.0  0.1278
  H  H179  1  0.089800  0.540200  0.835400  1.0  0.1042
  H  H180  1  0.960400  0.789500  0.670400  1.0  0.1156
  H  H181  1  0.998800  0.823100  0.013500  1.0  0.1332
  H  H182  1  0.753700  0.429200  0.445700  1.0  0.1162
  H  H183  1  0.501200  0.335400  0.486500  1.0  0.1274
  H  H184  1  0.568200  0.440800  0.069600  1.0  0.1222
  H  H185  1  0.320900  0.497600  0.932500  1.0  0.1213
  H  H186  1  0.180100  0.398200  0.893200  1.0  0.1032
  H  H187  1  0.022000  0.629700  0.053100  1.0  0.0778
  H  H188  1  0.921400  0.568200  0.069600  1.0  0.122
  H  H189  1  0.821200  0.609100  0.291900  1.0  0.1118
  H  H190  1  0.165800  0.527000  0.100200  1.0  0.1181
  H  H191  1  0.938400  0.395000  0.090300  1.0  0.1142
  H  H192  1  0.423700  0.061600  0.909700  1.0  0.1125
  H  H193  1  0.522000  0.795200  0.553100  1.0  0.077
  H  H194  1  0.116500  0.313100  0.050700  1.0  0.122
  H  H195  1  0.421400  0.940800  0.569600  1.0  0.1213
  H  H196  1  0.540900  0.994000  0.871700  1.0  0.1172
  H  H197  1  0.420300  0.039600  0.329600  1.0  0.1189
  H  H198  1  0.115300  0.064500  0.203300  1.0  0.1162
  H  H199  1  0.285600  0.062400  0.134300  1.0  0.1275
  H  H200  1  0.964100  0.819200  0.852700  1.0  0.122
  H  H201  1  0.870300  0.478000  0.446900  1.0  0.0782
  H  H202  1  0.410200  0.965400  0.664600  1.0  0.1041
  H  H203  1  0.222200  0.890900  0.208100  1.0  0.1133
  H  H204  1  0.920300  0.710500  0.829600  1.0  0.1177
  H  H205  1  0.883100  0.435500  0.296700  1.0  0.1182
  H  H206  1  0.105400  0.020400  0.471500  1.0  0.1096
  H  H207  1  0.002400  0.179100  0.567500  1.0  0.122
  H  H208  1  0.793000  0.834200  0.899800  1.0  0.1166
  H  H209  1  0.616500  0.019700  0.550700  1.0  0.1228
  H  H210  1  0.559200  0.078600  0.930400  1.0  0.1221
  H  H211  1  0.232700  0.493100  0.913600  1.0  0.1118
  H  H212  1  0.440800  0.921400  0.069600  1.0  0.1223
  H  H213  1  0.835400  0.001200  0.986500  1.0  0.1269
  H  H214  1  0.334200  0.293000  0.399800  1.0  0.1181
  H  H215  1  0.387600  0.882500  0.685600  1.0  0.1254
  H  H216  1  0.722200  0.178800  0.708100  1.0  0.1115
  H  H217  1  0.479600  0.394600  0.028500  1.0  0.1104
  H  H218  1  0.406600  0.459100  0.128300  1.0  0.1163
  H  H219  1  0.364000  0.964100  0.852700  1.0  0.1225
  H  H220  1  0.732700  0.860600  0.413600  1.0  0.1139
  H  H221  1  0.444600  0.543100  0.746200  1.0  0.1131
  H  H222  1  0.459800  0.465400  0.164600  1.0  0.1041
  H  H223  1  0.117500  0.955700  0.314400  1.0  0.1208
  H  H224  1  0.210500  0.420300  0.329600  1.0  0.1157
  H  H225  1  0.576300  0.938400  0.090300  1.0  0.1144
  H  H226  1  0.932600  0.799700  0.003900  1.0  0.1012
  H  H227  1  0.946400  0.703500  0.020400  1.0  0.1158
  H  H228  1  0.460400  0.079700  0.170400  1.0  0.1172
  H  H229  1  0.253700  0.871400  0.945700  1.0  0.1165
  H  H230  1  0.676900  0.501200  0.486500  1.0  0.131
  H  H231  1  0.931800  0.578600  0.430400  1.0  0.1225
  H  H232  1  0.218600  0.278000  0.010500  1.0  0.1093
  H  H233  1  0.910200  0.459800  0.164600  1.0  0.1044
  H  H234  1  0.459100  0.006000  0.128300  1.0  0.1166
  H  H235  1  0.492900  0.218600  0.010500  1.0  0.1091
  H  H236  1  0.993100  0.732700  0.413600  1.0  0.1133
  H  H237  1  0.493100  0.360600  0.913600  1.0  0.1152
  H  H238  1  0.887600  0.544300  0.185600  1.0  0.1213
  H  H239  1  0.027000  0.665800  0.600200  1.0  0.1184
  H  H240  1  0.718600  0.992900  0.510500  1.0  0.1095
  H  H241  1  0.064500  0.616900  0.203300  1.0  0.1189
  H  H242  1  0.370300  0.704800  0.946900  1.0  0.0778
  H  H243  1  0.204800  0.870300  0.446900  1.0  0.0778
  H  H244  1  0.435200  0.369300  0.113000  1.0  0.0985
  H  H245  1  0.035900  0.180800  0.147300  1.0  0.1218
  H  H246  1  0.615300  0.116900  0.703300  1.0  0.1178
  H  H247  1  0.019700  0.813100  0.550700  1.0  0.1216
  H  H248  1  0.562400  0.785600  0.634300  1.0  0.1283
  H  H249  1  0.860600  0.993100  0.413600  1.0  0.1153
  H  H250  1  0.664600  0.323100  0.513500  1.0  0.1324
  H  H251  1  0.478000  0.204800  0.446900  1.0  0.0783
  H  H252  1  0.277800  0.821200  0.291900  1.0  0.1099
  H  H253  1  0.267300  0.139400  0.586400  1.0  0.112
  H  H254  1  0.680800  0.535900  0.647300  1.0  0.1223
  H  H255  1  0.176900  0.835400  0.986500  1.0  0.1323
  H  H256  1  0.335400  0.676900  0.486500  1.0  0.1354
  H  H257  1  0.722000  0.507100  0.989500  1.0  0.1125
  H  H258  1  0.789500  0.579700  0.670400  1.0  0.1196
  H  H259  1  0.323100  0.498800  0.513500  1.0  0.1303
  H  H260  1  0.384700  0.883100  0.296700  1.0  0.1177
  H  H261  1  0.064800  0.417500  0.387000  1.0  0.1014
  H  H262  1  0.006000  0.406600  0.128300  1.0  0.1149
  H  H263  1  0.593400  0.540900  0.871700  1.0  0.1157
  H  H264  1  0.543100  0.266100  0.746200  1.0  0.113
  H  H265  1  0.109100  0.321200  0.791900  1.0  0.1124
  H  H266  1  0.506000  0.959100  0.628300  1.0  0.1156
  H  H267  1  0.295200  0.022000  0.053100  1.0  0.077
  H  H268  1  0.465400  0.910200  0.164600  1.0  0.104
  H  H269  1  0.319200  0.464100  0.352700  1.0  0.1232
  H  H270  1  0.105000  0.561600  0.409700  1.0  0.1135
  H  H271  1  0.007100  0.222000  0.489500  1.0  0.1071
  H  H272  1  0.055400  0.233900  0.753800  1.0  0.1141
  H  H273  1  0.799700  0.263800  0.003900  1.0  0.0997
  H  H274  1  0.767300  0.506900  0.086400  1.0  0.1131
  H  H275  1  0.940800  0.068200  0.569600  1.0  0.1226
  H  H276  1  0.895000  0.438400  0.590300  1.0  0.1125
  H  H277  1  0.707000  0.027000  0.600200  1.0  0.117
  H  H278  1  0.917500  0.564800  0.887000  1.0  0.0998
  H  H279  1  0.130700  0.064800  0.387000  1.0  0.0989
  H  H280  1  0.128600  0.070800  0.054300  1.0  0.1176
  H  H281  1  0.703500  0.329700  0.020400  1.0  0.1159
  H  H282  1  0.612400  0.117500  0.314400  1.0  0.1244
  H  H283  1  0.714400  0.937600  0.865700  1.0  0.1276
  H  H284  1  0.498800  0.664600  0.513500  1.0  0.1271
  H  H285  1  0.763800  0.299700  0.503900  1.0  0.1012
  H  H286  1  0.398200  0.528500  0.893200  1.0  0.102
  H  H287  1  0.629700  0.295200  0.053100  1.0  0.0775
  H  H288  1  0.746300  0.128600  0.054300  1.0  0.1169
  H  H289  1  0.129700  0.522000  0.553100  1.0  0.0791
  H  H290  1  0.482300  0.714400  0.865700  1.0  0.1269
  H  H291  1  0.101800  0.319900  0.606800  1.0  0.1031
  H  H292  1  0.882500  0.044300  0.685600  1.0  0.1211
  H  H293  1  0.617500  0.112400  0.814400  1.0  0.1219
  H  H294  1  0.766100  0.043100  0.246200  1.0  0.113
  H  H295  1  0.319900  0.971500  0.606800  1.0  0.1022
  H  H296  1  0.785600  0.017700  0.634300  1.0  0.1272
  H  H297  1  0.680100  0.028500  0.393200  1.0  0.1036
  H  H298  1  0.564800  0.630700  0.887000  1.0  0.0987
  H  H299  1  0.494000  0.040900  0.371700  1.0  0.1159
  H  H300  1  0.207000  0.165800  0.100200  1.0  0.1151
  H  H301  1  0.561600  0.923700  0.409700  1.0  0.1115
  H  H302  1  0.040900  0.093400  0.371700  1.0  0.1155
  H  H303  1  0.246300  0.570800  0.554300  1.0  0.1163
  H  H304  1  0.980300  0.186900  0.449300  1.0  0.1223
  H  H305  1  0.039600  0.210500  0.329600  1.0  0.1173
  H  H306  1  0.059200  0.931800  0.430400  1.0  0.1222
  H  H307  1  0.281400  0.007100  0.489500  1.0  0.1099
  H  H308  1  0.609100  0.277800  0.291900  1.0  0.1139
  H  H309  1  0.601800  0.471500  0.106800  1.0  0.1021
  H  H310  1  0.266100  0.444600  0.746200  1.0  0.1146
  H  H311  1  0.429200  0.371400  0.445700  1.0  0.1178
  H  H312  1  0.937600  0.482300  0.865700  1.0  0.1281
  H  H313  1  0.293000  0.973000  0.399800  1.0  0.1181
  H  H314  1  0.582500  0.869300  0.613000  1.0  0.1013
  H  H315  1  0.956900  0.055400  0.753800  1.0  0.1139
  H  H316  1  0.670300  0.053600  0.979600  1.0  0.1172
  H  H317  1  0.289500  0.460400  0.170400  1.0  0.1187
  H  H318  1  0.579700  0.960400  0.670400  1.0  0.1186
  H  H319  1  0.456900  0.733900  0.253800  1.0  0.1135
  H  H320  1  0.906600  0.506000  0.628300  1.0  0.1154
  H  H321  1  0.170300  0.796500  0.479600  1.0  0.1171
  H  H322  1  0.736200  0.067400  0.996100  1.0  0.0995
  H  H323  1  0.136000  0.680800  0.647300  1.0  0.1218
  H  H324  1  0.043100  0.944600  0.246200  1.0  0.114
  H  H325  1  0.567400  0.236200  0.496100  1.0  0.1005
  H  H326  1  0.883500  0.686900  0.949300  1.0  0.1212
  H  H327  1  0.823100  0.164600  0.013500  1.0  0.1343
  H  H328  1  0.070800  0.746300  0.054300  1.0  0.1165
  H  H329  1  0.971500  0.101800  0.606800  1.0  0.1018
  H  H330  1  0.630700  0.917500  0.887000  1.0  0.1009
  H  H331  1  0.813100  0.616500  0.550700  1.0  0.1212
  H  H332  1  0.139400  0.006900  0.586400  1.0  0.1155
  H  H333  1  0.180800  0.636000  0.147300  1.0  0.1242
  H  H334  1  0.020400  0.402700  0.471500  1.0  0.1093
  C  C335  1  0.014560  0.733710  0.808270  1.0  0.6467
  C  C336  1  0.401830  0.935530  0.855910  1.0  -0.0844
  C  C337  1  0.628310  0.956610  0.871970  1.0  -0.1029
  C  C338  1  0.626310  0.808210  0.071670  1.0  0.0145
  C  C339  1  0.569700  0.192330  0.725920  1.0  -0.1606
  C  C340  1  0.682160  0.183990  0.212600  1.0  -0.0277
  C  C341  1  0.578750  0.316010  0.287400  1.0  -0.0314
  C  C342  1  0.807670  0.487950  0.274080  1.0  -0.1651
  C  C343  1  0.324850  0.973350  0.164450  1.0  0.2351
  C  C344  1  0.059280  0.528580  0.841460  1.0  -0.0645
  C  C345  1  0.598170  0.064470  0.144090  1.0  -0.0852
  C  C346  1  0.787300  0.529000  0.472700  1.0  -0.107
  C  C347  1  0.317840  0.816010  0.787400  1.0  -0.0274
  C  C348  1  0.072930  0.478230  0.828110  1.0  -0.1469
  C  C349  1  0.805150  0.439400  0.263250  1.0  0.6959
  C  C350  1  0.309540  0.994240  0.505580  1.0  -0.0842
  C  C351  1  0.021830  0.328430  0.525110  1.0  -0.1636
  C  C352  1  0.238610  0.549310  0.164070  1.0  -0.1428
  C  C353  1  0.535900  0.249900  0.483200  1.0  -0.0981
  C  C354  1  0.315380  0.333080  0.384560  1.0  -0.0847
  C  C355  1  0.031750  0.505950  0.141050  1.0  -0.0784
  C  C356  1  0.084800  0.671300  0.352700  1.0  0.7043
  C  C357  1  0.285420  0.141820  0.498140  1.0  0.689
  C  C358  1  0.410710  0.089110  0.573770  1.0  -0.0321
  C  C359  1  0.343920  0.642420  0.741040  1.0  0.726
  C  C360  1  0.574620  0.641820  0.998140  1.0  0.6875
  C  C361  1  0.502500  0.074300  0.363000  1.0  -0.1302
  C  C362  1  0.521830  0.624630  0.025110  1.0  -0.1612
  C  C363  1  0.048010  0.238610  0.164070  1.0  -0.1415
  C  C364  1  0.891200  0.084800  0.352700  1.0  0.7076
  C  C365  1  0.987950  0.307670  0.774080  1.0  -0.1621
  C  C366  1  0.272620  0.343920  0.741040  1.0  0.7238
  C  C367  1  0.734490  0.076620  0.235460  1.0  0.0079
  C  C368  1  0.493810  0.626310  0.071670  1.0  0.0147
  C  C369  1  0.834580  0.708480  0.448460  1.0  -0.1014
  C  C370  1  0.401230  0.545230  0.947110  1.0  -0.1222
  C  C371  1  0.822910  0.020120  0.796970  1.0  0.1807
  C  C372  1  0.266290  0.556540  0.191730  1.0  0.6491
  C  C373  1  0.675150  0.026650  0.835550  1.0  0.2349
  C  C374  1  0.556540  0.985440  0.191730  1.0  0.6465
  C  C375  1  0.453430  0.576620  0.735460  1.0  0.0076
  C  C376  1  0.875610  0.588510  0.494270  1.0  0.1848
  C  C377  1  0.943460  0.233710  0.308270  1.0  0.6477
  C  C378  1  0.088510  0.375610  0.994270  1.0  0.1868
  C  C379  1  0.880060  0.974720  0.790310  1.0  -0.0732
  C  C380  1  0.069700  0.012050  0.225920  1.0  -0.1626
  C  C381  1  0.785420  0.574620  0.998140  1.0  0.6894
  C  C382  1  0.769920  0.514520  0.865840  1.0  -0.0973
  C  C383  1  0.950690  0.261390  0.335930  1.0  -0.1435
  C  C384  1  0.316010  0.817840  0.287400  1.0  -0.0305
  C  C385  1  0.979880  0.640000  0.203030  1.0  0.1714
  C  C386  1  0.156080  0.227380  0.758960  1.0  0.7216
  C  C387  1  0.889130  0.501730  0.002910  1.0  -0.0842
  C  C388  1  0.060200  0.502500  0.363000  1.0  -0.1277
  C  C389  1  0.178750  0.994050  0.358950  1.0  -0.0797
  C  C390  1  0.541610  0.088510  0.994270  1.0  0.1864
  C  C391  1  0.120730  0.978230  0.328110  1.0  -0.1454
  C  C392  1  0.265510  0.923380  0.764540  1.0  0.0096
  C  C393  1  0.809540  0.690640  0.005580  1.0  -0.0885
  C  C394  1  0.930300  0.987950  0.774080  1.0  -0.1624
  C  C395  1  0.714580  0.858180  0.501860  1.0  0.6901
  C  C396  1  0.182160  0.421250  0.712600  1.0  -0.0298
  C  C397  1  0.208820  0.048320  0.062640  1.0  0.2156
  C  C398  1  0.966980  0.315380  0.384560  1.0  -0.0814
  C  C399  1  0.994050  0.468250  0.358950  1.0  -0.0801
  C  C400  1  0.060600  0.694850  0.236750  1.0  0.6955
  C  C401  1  0.830560  0.485360  0.451820  1.0  -0.0857
  C  C402  1  0.608800  0.828700  0.147300  1.0  0.7064
  C  C403  1  0.939400  0.305150  0.763250  1.0  0.6958
  C  C404  1  0.471420  0.429320  0.158540  1.0  -0.062
  C  C405  1  0.214580  0.425380  0.001860  1.0  0.6884
  C  C406  1  0.229410  0.408030  0.728800  1.0  -0.1504
  C  C407  1  0.505760  0.190460  0.994420  1.0  -0.0836
  C  C408  1  0.227380  0.857580  0.758960  1.0  0.7253
  C  C409  1  0.656080  0.357580  0.258960  1.0  0.7258
  C  C410  1  0.971000  0.712700  0.027300  1.0  -0.1017
  C  C411  1  0.559280  0.070680  0.341460  1.0  -0.0614
  C  C412  1  0.119940  0.025280  0.209690  1.0  -0.0741
  C  C413  1  0.588920  0.930020  0.027540  1.0  0.1815
  C  C414  1  0.876130  0.833330  0.880810  1.0  0.2049
  C  C415  1  0.025280  0.645090  0.209690  1.0  -0.0702
  C  C416  1  0.409730  0.876130  0.880810  1.0  0.2065
  C  C417  1  0.667090  0.027490  0.425030  1.0  -0.1035
  C  C418  1  0.573590  0.410890  0.926230  1.0  -0.0359
  C  C419  1  0.939800  0.497500  0.637000  1.0  -0.129
  C  C420  1  0.492200  0.805150  0.263250  1.0  0.6953
  C  C421  1  0.921250  0.682160  0.212600  1.0  -0.0285
  C  C422  1  0.241800  0.409400  0.341600  1.0  -0.0108
  C  C423  1  0.035900  0.231000  0.983200  1.0  -0.0982
  C  C424  1  0.007200  0.241800  0.341600  1.0  -0.01
  C  C425  1  0.177090  0.979880  0.203030  1.0  0.1815
  C  C426  1  0.749900  0.035900  0.983200  1.0  -0.0974
  C  C427  1  0.119610  0.332910  0.574970  1.0  -0.1036
  C  C428  1  0.078750  0.317840  0.787400  1.0  -0.0281
  C  C429  1  0.091970  0.270590  0.771200  1.0  -0.148
  C  C430  1  0.590270  0.123870  0.119190  1.0  0.2056
  C  C431  1  0.291180  0.819780  0.437360  1.0  0.2154
  C  C432  1  0.309840  0.716040  0.475880  1.0  -0.1208
  C  C433  1  0.106430  0.401230  0.947110  1.0  -0.1171
  C  C434  1  0.951990  0.761390  0.835930  1.0  -0.1409
  C  C435  1  0.358180  0.214580  0.001860  1.0  0.6888
  C  C436  1  0.998270  0.610870  0.497090  1.0  -0.0853
  C  C437  1  0.393770  0.110870  0.997090  1.0  -0.085
  C  C438  1  0.671570  0.875370  0.474890  1.0  -0.1622
  C  C439  1  0.765510  0.546570  0.264540  1.0  0.0064
  C  C440  1  0.544930  0.668930  0.548210  1.0  0.006
  C  C441  1  0.110870  0.498270  0.997090  1.0  -0.0863
  C  C442  1  0.451680  0.291180  0.437360  1.0  0.2171
  C  C443  1  0.543110  0.628310  0.871970  1.0  -0.1007
  C  C444  1  0.962650  0.526650  0.335550  1.0  0.2366
  C  C445  1  0.666920  0.033020  0.615440  1.0  -0.0841
  C  C446  1  0.930020  0.453520  0.027540  1.0  0.1906
  C  C447  1  0.849720  0.769920  0.865840  1.0  -0.0947
  C  C448  1  0.729410  0.133760  0.228800  1.0  -0.1528
  C  C449  1  0.514520  0.849720  0.865840  1.0  -0.0975
  C  C450  1  0.090270  0.666667  0.619190  1.0  0.2006
  C  C451  1  0.854910  0.474720  0.290310  1.0  -0.0714
  C  C452  1  0.666667  0.623870  0.619190  1.0  0.2046
  C  C453  1  0.046480  0.569980  0.472460  1.0  0.1901
  C  C454  1  0.391710  0.150310  0.903670  1.0  -0.1427
  C  C455  1  0.815380  0.466980  0.884560  1.0  -0.0824
  C  C456  1  0.791180  0.951680  0.937360  1.0  0.2162
  C  C457  1  0.456890  0.371690  0.128030  1.0  -0.101
  C  C458  1  0.824850  0.037350  0.664450  1.0  0.234
  C  C459  1  0.056540  0.766290  0.691730  1.0  0.6469
  C  C460  1  0.537350  0.324850  0.164450  1.0  0.2352
  C  C461  1  0.546570  0.423380  0.264540  1.0  0.0085
  C  C462  1  0.772620  0.142420  0.241040  1.0  0.7249
  C  C463  1  0.089110  0.926410  0.573770  1.0  -0.0355
  C  C464  1  0.069980  0.546480  0.972460  1.0  0.1903
  C  C465  1  0.588510  0.041610  0.494270  1.0  0.1865
  C  C466  1  0.521770  0.379270  0.171890  1.0  -0.1468
  C  C467  1  0.075300  0.248600  0.372500  1.0  0.7129
  C  C468  1  0.366240  0.770590  0.271200  1.0  -0.1483
  C  C469  1  0.380060  0.854910  0.290310  1.0  -0.0714
  C  C470  1  0.194850  0.560600  0.736750  1.0  0.6953
  C  C471  1  0.576620  0.234490  0.735460  1.0  0.0114
  C  C472  1  0.528580  0.570680  0.841460  1.0  -0.0598
  C  C473  1  0.589290  0.910890  0.426230  1.0  -0.033
  C  C474  1  0.166670  0.590270  0.119190  1.0  0.2093
  C  C475  1  0.977900  0.169800  0.481400  1.0  -0.1192
  C  C476  1  0.333080  0.966980  0.384560  1.0  -0.0854
  C  C477  1  0.748600  0.575300  0.872500  1.0  0.7157
  C  C478  1  0.027490  0.880390  0.425030  1.0  -0.1065
  C  C479  1  0.708820  0.180220  0.562640  1.0  0.2138
  C  C480  1  0.564470  0.098170  0.644090  1.0  -0.0888
  C  C481  1  0.843920  0.772620  0.241040  1.0  0.7224
  C  C482  1  0.690640  0.494240  0.005580  1.0  -0.0878
  C  C483  1  0.250100  0.964100  0.016800  1.0  -0.0963
  C  C484  1  0.507200  0.909400  0.841600  1.0  -0.0142
  C  C485  1  0.901830  0.306730  0.355910  1.0  -0.0811
  C  C486  1  0.291520  0.991520  0.551540  1.0  -0.1043
  C  C487  1  0.333333  0.376130  0.380810  1.0  0.2009
  C  C488  1  0.415200  0.608800  0.147300  1.0  0.7052
  C  C489  1  0.012050  0.692330  0.225920  1.0  -0.1627
  C  C490  1  0.806730  0.401830  0.855910  1.0  -0.0863
  C  C491  1  0.485440  0.056540  0.691730  1.0  0.6455
  C  C492  1  0.020120  0.360000  0.796970  1.0  0.1797
  C  C493  1  0.527490  0.167090  0.925030  1.0  -0.1038
  C  C494  1  0.991520  0.165420  0.551540  1.0  -0.1046
  C  C495  1  0.893770  0.998270  0.497090  1.0  -0.0849
  C  C496  1  0.893570  0.598770  0.052890  1.0  -0.1166
  C  C497  1  0.669440  0.267740  0.048180  1.0  -0.087
  C  C498  1  0.166920  0.184620  0.115440  1.0  -0.0824
  C  C499  1  0.289000  0.971000  0.027300  1.0  -0.1035
  C  C500  1  0.985440  0.266290  0.191730  1.0  0.6456
  C  C501  1  0.955070  0.262070  0.951790  1.0  0.0062
  C  C502  1  0.165420  0.291520  0.551540  1.0  -0.103
  C  C503  1  0.974720  0.354910  0.790310  1.0  -0.0717
  C  C504  1  0.485360  0.232260  0.451820  1.0  -0.087
  C  C505  1  0.373690  0.191790  0.928330  1.0  0.0125
  C  C506  1  0.909400  0.741800  0.841600  1.0  -0.0095
  C  C507  1  0.945690  0.349690  0.596330  1.0  -0.1436
  C  C508  1  0.237930  0.544930  0.548210  1.0  0.0092
  C  C509  1  0.462650  0.675150  0.835550  1.0  0.2357
  C  C510  1  0.816010  0.078750  0.787400  1.0  -0.027
  C  C511  1  0.466980  0.833080  0.884560  1.0  -0.0863
  C  C512  1  0.445690  0.608290  0.096330  1.0  -0.145
  C  C513  1  0.543390  0.871690  0.628030  1.0  -0.1007
  C  C514  1  0.014520  0.269920  0.365840  1.0  -0.0972
  C  C515  1  0.287300  0.711000  0.972700  1.0  -0.1073
  C  C516  1  0.954770  0.098770  0.552890  1.0  -0.1197
  C  C517  1  0.789000  0.212700  0.527300  1.0  -0.1029
  C  C518  1  0.421250  0.683990  0.712600  1.0  -0.0322
  C  C519  1  0.303600  0.075300  0.372500  1.0  0.7147
  C  C520  1  0.435530  0.901830  0.355910  1.0  -0.0874
  C  C521  1  0.828700  0.415200  0.147300  1.0  0.706
  C  C522  1  0.126310  0.993810  0.571670  1.0  0.0153
  C  C523  1  0.668930  0.237930  0.548210  1.0  0.0051
  C  C524  1  0.731000  0.535900  0.483200  1.0  -0.0967
  C  C525  1  0.925700  0.939800  0.637000  1.0  -0.1264
  C  C526  1  0.985480  0.730080  0.634160  1.0  -0.0948
  C  C527  1  0.262070  0.831070  0.951790  1.0  0.0074
  C  C528  1  0.953430  0.734490  0.235460  1.0  0.012
  C  C529  1  0.929320  0.971420  0.658540  1.0  -0.0641
  C  C530  1  0.871690  0.956890  0.628030  1.0  -0.1018
  C  C531  1  0.283960  0.501760  0.524120  1.0  -0.1173
  C  C532  1  0.620730  0.072930  0.828110  1.0  -0.1517
  C  C533  1  0.045230  0.901230  0.447110  1.0  -0.1174
  C  C534  1  0.832910  0.619610  0.074970  1.0  -0.1073
  C  C535  1  0.454770  0.893570  0.052890  1.0  -0.1151
  C  C536  1  0.680220  0.208820  0.062640  1.0  0.2137
  C  C537  1  0.054310  0.650310  0.403670  1.0  -0.1422
  C  C538  1  0.175150  0.962650  0.335550  1.0  0.2339
  C  C539  1  0.624630  0.828430  0.025110  1.0  -0.1646
  C  C540  1  0.309360  0.505760  0.994420  1.0  -0.0915
  C  C541  1  0.968250  0.494050  0.858950  1.0  -0.079
  C  C542  1  0.665420  0.491520  0.051540  1.0  -0.0922
  C  C543  1  0.043390  0.456890  0.128030  1.0  -0.1
  C  C544  1  0.671300  0.891200  0.352700  1.0  0.7027
  C  C545  1  0.993810  0.308210  0.571670  1.0  0.0149
  C  C546  1  0.693270  0.564470  0.644090  1.0  -0.0836
  C  C547  1  0.430300  0.807670  0.274080  1.0  -0.1623
  C  C548  1  0.738610  0.548010  0.664070  1.0  -0.1402
  C  C549  1  0.891710  0.054310  0.403670  1.0  -0.1432
  C  C550  1  0.828430  0.521830  0.025110  1.0  -0.1633
  C  C551  1  0.427070  0.879270  0.671890  1.0  -0.1496
  C  C552  1  0.690460  0.005760  0.494420  1.0  -0.0822
  C  C553  1  0.129100  0.330200  0.018600  1.0  -0.122
  C  C554  1  0.529000  0.211000  0.472700  1.0  -0.1109
  C  C555  1  0.973350  0.537350  0.164450  1.0  0.2368
  C  C556  1  0.371690  0.043390  0.128030  1.0  -0.1019
  C  C557  1  0.426410  0.589110  0.073770  1.0  -0.0368
  C  C558  1  0.334580  0.508480  0.948460  1.0  -0.0946
  C  C559  1  0.833080  0.815380  0.884560  1.0  -0.0838
  C  C560  1  0.455070  0.331070  0.451790  1.0  0.0055
  C  C561  1  0.641820  0.785420  0.998140  1.0  0.6903
  C  C562  1  0.522100  0.129100  0.018600  1.0  -0.1175
  C  C563  1  0.349690  0.108290  0.596330  1.0  -0.1452
  C  C564  1  0.683990  0.182160  0.712600  1.0  -0.0309
  C  C565  1  0.425380  0.358180  0.001860  1.0  0.6875
  C  C566  1  0.440720  0.929320  0.658540  1.0  -0.0621
  C  C567  1  0.168930  0.044930  0.048210  1.0  0.007
  C  C568  1  0.692330  0.069700  0.225920  1.0  -0.1657
  C  C569  1  0.389130  0.106230  0.502910  1.0  -0.0875
  C  C570  1  0.393570  0.954770  0.552890  1.0  -0.1191
  C  C571  1  0.951680  0.319780  0.937360  1.0  0.215
  C  C572  1  0.953520  0.430020  0.527540  1.0  0.1922
  C  C573  1  0.328700  0.108800  0.647300  1.0  0.7049
  C  C574  1  0.379270  0.927070  0.171890  1.0  -0.1519
  C  C575  1  0.526650  0.175150  0.335550  1.0  0.2376
  C  C576  1  0.073590  0.589290  0.426230  1.0  -0.0347
  C  C577  1  0.251400  0.424700  0.127500  1.0  0.7141
  C  C578  1  0.678750  0.968250  0.858950  1.0  -0.0794
  C  C579  1  0.608290  0.849690  0.096330  1.0  -0.1451
  C  C580  1  0.548320  0.708820  0.562640  1.0  0.2149
  C  C581  1  0.650280  0.985480  0.634160  1.0  -0.093
  C  C582  1  0.211000  0.787300  0.472700  1.0  -0.104
  C  C583  1  0.956610  0.543110  0.871970  1.0  -0.1006
  C  C584  1  0.360000  0.822910  0.796970  1.0  0.1734
  C  C585  1  0.821250  0.005950  0.641050  1.0  -0.0797
  C  C586  1  0.809360  0.690460  0.494420  1.0  -0.0904
  C  C587  1  0.992800  0.758200  0.658400  1.0  -0.0107
  C  C588  1  0.192330  0.512050  0.725920  1.0  -0.1661
  C  C589  1  0.133760  0.908030  0.228800  1.0  -0.1505
  C  C590  1  0.349720  0.014520  0.365840  1.0  -0.0927
  C  C591  1  0.808210  0.493810  0.071670  1.0  0.0158
  C  C592  1  0.026650  0.462650  0.835550  1.0  0.2362
  C  C593  1  0.183990  0.921250  0.212600  1.0  -0.0289
  C  C594  1  0.494240  0.809540  0.005580  1.0  -0.0834
  C  C595  1  0.751400  0.696400  0.627500  1.0  0.7134
  C  C596  1  0.487950  0.430300  0.274080  1.0  -0.1619
  C  C597  1  0.370900  0.977900  0.481400  1.0  -0.1227
  C  C598  1  0.108800  0.915200  0.647300  1.0  0.7077
  C  C599  1  0.762070  0.455070  0.451790  1.0  0.0068
  C  C600  1  0.150280  0.230080  0.134160  1.0  -0.0967
  C  C601  1  0.858180  0.925380  0.501860  1.0  0.6875
  C  C602  1  0.642420  0.272620  0.741040  1.0  0.722
  C  C603  1  0.005760  0.809360  0.494420  1.0  -0.0871
  C  C604  1  0.598770  0.454770  0.052890  1.0  -0.1213
  C  C605  1  0.909730  0.333333  0.380810  1.0  0.2056
  C  C606  1  0.098770  0.393570  0.552890  1.0  -0.118
  C  C607  1  0.761390  0.450690  0.835930  1.0  -0.1436
  C  C608  1  0.049310  0.738610  0.664070  1.0  -0.1423
  C  C609  1  0.410890  0.089290  0.926230  1.0  -0.0345
  C  C610  1  0.248600  0.303600  0.372500  1.0  0.7141
  C  C611  1  0.001730  0.389130  0.502910  1.0  -0.0837
  C  C612  1  0.357580  0.727380  0.258960  1.0  0.7232
  C  C613  1  0.831070  0.955070  0.951790  1.0  0.0068
  C  C614  1  0.453520  0.588920  0.027540  1.0  0.1938
  C  C615  1  0.041610  0.875610  0.494270  1.0  0.1862
  C  C616  1  0.935530  0.806730  0.855910  1.0  -0.0829
  C  C617  1  0.926410  0.410710  0.573770  1.0  -0.0345
  C  C618  1  0.915200  0.328700  0.647300  1.0  0.705
  C  C619  1  0.322910  0.860000  0.296970  1.0  0.1708
  C  C620  1  0.190460  0.309360  0.994420  1.0  -0.0862
  C  C621  1  0.791520  0.665420  0.051540  1.0  -0.1024
  C  C622  1  0.142420  0.843920  0.241040  1.0  0.7238
  C  C623  1  0.712700  0.289000  0.027300  1.0  -0.1059
  C  C624  1  0.184620  0.533020  0.115440  1.0  -0.0833
  C  C625  1  0.650310  0.891710  0.403670  1.0  -0.1445
  C  C626  1  0.191790  0.506190  0.928330  1.0  0.0165
  C  C627  1  0.923380  0.046570  0.764540  1.0  0.0069
  C  C628  1  0.014640  0.669440  0.048180  1.0  -0.0899
  C  C629  1  0.750100  0.269000  0.516800  1.0  -0.0981
  C  C630  1  0.554310  0.391710  0.903670  1.0  -0.1447
  C  C631  1  0.514560  0.943460  0.308270  1.0  0.6466
  C  C632  1  0.767740  0.169440  0.548180  1.0  -0.0874
  C  C633  1  0.269920  0.349720  0.365840  1.0  -0.0959
  C  C634  1  0.591970  0.366240  0.271200  1.0  -0.1488
  C  C635  1  0.411080  0.069980  0.972460  1.0  0.1903
  C  C636  1  0.924700  0.751400  0.627500  1.0  0.7137
  C  C637  1  0.956890  0.543390  0.628030  1.0  -0.1015
  C  C638  1  0.076620  0.953430  0.235460  1.0  0.007
  C  C639  1  0.332910  0.972510  0.574970  1.0  -0.1041
  C  C640  1  0.124630  0.021830  0.525110  1.0  -0.1626
  C  C641  1  0.450690  0.951990  0.835930  1.0  -0.1409
  C  C642  1  0.408030  0.633760  0.728800  1.0  -0.1486
  C  C643  1  0.501730  0.606230  0.002910  1.0  -0.0854
  C  C644  1  0.424700  0.196400  0.127500  1.0  0.7109
  C  C645  1  0.548010  0.049310  0.664070  1.0  -0.1418
  C  C646  1  0.074620  0.285420  0.498140  1.0  0.6883
  C  C647  1  0.783960  0.190160  0.024120  1.0  -0.1142
  C  C648  1  0.232260  0.830560  0.451820  1.0  -0.0889
  C  C649  1  0.506190  0.373690  0.928330  1.0  0.0148
  C  C650  1  0.233710  0.514560  0.308270  1.0  0.6467
  C  C651  1  0.391200  0.171300  0.852700  1.0  0.7058
  C  C652  1  0.590600  0.992800  0.658400  1.0  -0.0136
  C  C653  1  0.494050  0.678750  0.858950  1.0  -0.0798
  C  C654  1  0.998240  0.216040  0.975880  1.0  -0.124
  C  C655  1  0.234490  0.453430  0.735460  1.0  0.0078
  C  C656  1  0.677090  0.140000  0.703030  1.0  0.1799
  C  C657  1  0.971420  0.440720  0.658540  1.0  -0.0624
  C  C658  1  0.879270  0.021770  0.671890  1.0  -0.146
  C  C659  1  0.633760  0.229410  0.728800  1.0  -0.1473
  C  C660  1  0.817840  0.578750  0.287400  1.0  -0.0244
  C  C661  1  0.070680  0.028580  0.341460  1.0  -0.0616
  C  C662  1  0.380390  0.527490  0.925030  1.0  -0.1052
  C  C663  1  0.531750  0.821250  0.641050  1.0  -0.0778
  C  C664  1  0.451990  0.950690  0.335930  1.0  -0.1413
  C  C665  1  0.940720  0.471420  0.158540  1.0  -0.0652
  C  C666  1  0.430020  0.088920  0.527540  1.0  0.1909
  C  C667  1  0.911080  0.046480  0.472460  1.0  0.1913
  C  C668  1  0.212700  0.471000  0.527300  1.0  -0.1024
  C  C669  1  0.508480  0.208480  0.948460  1.0  -0.0982
  C  C670  1  0.570680  0.059280  0.841460  1.0  -0.0602
  C  C671  1  0.002500  0.560200  0.863000  1.0  -0.1333
  C  C672  1  0.478170  0.375370  0.974890  1.0  -0.1619
  C  C673  1  0.028580  0.559280  0.341460  1.0  -0.063
  C  C674  1  0.216040  0.809840  0.975880  1.0  -0.1186
  C  C675  1  0.925380  0.714580  0.501860  1.0  0.688
  C  C676  1  0.560600  0.507800  0.736750  1.0  0.6943
  C  C677  1  0.560200  0.574300  0.863000  1.0  -0.1295
  C  C678  1  0.171300  0.584800  0.852700  1.0  0.7061
  C  C679  1  0.230080  0.485480  0.134160  1.0  -0.0949
  C  C680  1  0.606230  0.889130  0.002910  1.0  -0.0846
  C  C681  1  0.696400  0.924700  0.627500  1.0  0.7127
  C  C682  1  0.819780  0.451680  0.437360  1.0  0.2171
  C  C683  1  0.429320  0.940720  0.158540  1.0  -0.0618
  C  C684  1  0.694850  0.007800  0.236750  1.0  0.6984
  C  C685  1  0.169800  0.370900  0.481400  1.0  -0.1221
  C  C686  1  0.270590  0.866240  0.771200  1.0  -0.1521
  C  C687  1  0.464100  0.750100  0.516800  1.0  -0.0964
  C  C688  1  0.375370  0.171570  0.974890  1.0  -0.1641
  C  C689  1  0.321250  0.031750  0.141050  1.0  -0.0789
  C  C690  1  0.477900  0.870900  0.981400  1.0  -0.1227
  C  C691  1  0.021770  0.427070  0.671890  1.0  -0.148
  C  C692  1  0.001760  0.783960  0.024120  1.0  -0.1149
  C  C693  1  0.569980  0.911080  0.472460  1.0  0.191
  C  C694  1  0.645090  0.119940  0.209690  1.0  -0.0725
  C  C695  1  0.479880  0.677090  0.703030  1.0  0.1713
  C  C696  1  0.007800  0.060600  0.236750  1.0  0.6958
  C  C697  1  0.328430  0.124630  0.525110  1.0  -0.1632
  C  C698  1  0.064470  0.193270  0.144090  1.0  -0.0835
  C  C699  1  0.443460  0.014560  0.808270  1.0  0.6462
  C  C700  1  0.733710  0.443460  0.808270  1.0  0.6479
  C  C701  1  0.006190  0.691790  0.428330  1.0  0.0145
  C  C702  1  0.231000  0.749900  0.983200  1.0  -0.0945
  C  C703  1  0.439800  0.425700  0.137000  1.0  -0.1302
  C  C704  1  0.629100  0.022100  0.518600  1.0  -0.1213
  C  C705  1  0.512050  0.569700  0.725920  1.0  -0.1628
  C  C706  1  0.507800  0.194850  0.736750  1.0  0.6964
  C  C707  1  0.770590  0.591970  0.271200  1.0  -0.1492
  C  C708  1  0.737930  0.168930  0.048210  1.0  0.0065
  C  C709  1  0.208480  0.334580  0.948460  1.0  -0.0961
  C  C710  1  0.269000  0.464100  0.516800  1.0  -0.0961
  C  C711  1  0.866240  0.091970  0.771200  1.0  -0.1495
  C  C712  1  0.008480  0.834580  0.448460  1.0  -0.0975
  C  C713  1  0.833330  0.409730  0.880810  1.0  0.2041
  C  C714  1  0.927070  0.521770  0.171890  1.0  -0.1468
  C  C715  1  0.128310  0.043110  0.371970  1.0  -0.1005
  C  C716  1  0.330200  0.522100  0.018600  1.0  -0.1205
  C  C717  1  0.473350  0.824850  0.664450  1.0  0.2354
  C  C718  1  0.474720  0.380060  0.290310  1.0  -0.0729
  C  C719  1  0.169440  0.514640  0.548180  1.0  -0.0877
  C  C720  1  0.319780  0.791180  0.937360  1.0  0.2165
  C  C721  1  0.860000  0.520120  0.296970  1.0  0.1713
  C  C722  1  0.193270  0.598170  0.144090  1.0  -0.0863
  C  C723  1  0.910890  0.073590  0.426230  1.0  -0.0274
  C  C724  1  0.901230  0.606430  0.447110  1.0  -0.1206
  C  C725  1  0.497500  0.925700  0.637000  1.0  -0.1286
  C  C726  1  0.167090  0.380390  0.925030  1.0  -0.1056
  C  C727  1  0.491520  0.791520  0.051540  1.0  -0.0978
  C  C728  1  0.306730  0.435530  0.355910  1.0  -0.079
  C  C729  1  0.472510  0.832910  0.074970  1.0  -0.1015
  C  C730  1  0.606430  0.045230  0.447110  1.0  -0.1156
  C  C731  1  0.809840  0.998240  0.975880  1.0  -0.1217
  C  C732  1  0.849690  0.445690  0.096330  1.0  -0.1436
  C  C733  1  0.525280  0.619940  0.709690  1.0  -0.0726
  C  C734  1  0.716040  0.498240  0.475880  1.0  -0.1115
  C  C735  1  0.803600  0.748600  0.872500  1.0  0.7159
  C  C736  1  0.048320  0.680220  0.062640  1.0  0.2138
  C  C737  1  0.997500  0.439800  0.137000  1.0  -0.1256
  C  C738  1  0.258200  0.492800  0.158400  1.0  -0.0125
  C  C739  1  0.978230  0.572930  0.328110  1.0  -0.1494
  C  C740  1  0.727380  0.656080  0.258960  1.0  0.7232
  C  C741  1  0.261390  0.451990  0.335930  1.0  -0.1405
  C  C742  1  0.190640  0.309540  0.505580  1.0  -0.0873
  C  C743  1  0.619940  0.145090  0.709690  1.0  -0.0726
  C  C744  1  0.308210  0.126310  0.571670  1.0  0.0126
  C  C745  1  0.908030  0.729410  0.228800  1.0  -0.146
  C  C746  1  0.425700  0.997500  0.137000  1.0  -0.1303
  C  C747  1  0.549310  0.048010  0.164070  1.0  -0.1402
  C  C748  1  0.106230  0.001730  0.502910  1.0  -0.084
  C  C749  1  0.145090  0.525280  0.709690  1.0  -0.0726
  C  C750  1  0.584800  0.391200  0.852700  1.0  0.7028
  C  C751  1  0.171570  0.478170  0.974890  1.0  -0.163
  C  C752  1  0.089290  0.573590  0.926230  1.0  -0.0324
  C  C753  1  0.123870  0.166670  0.119190  1.0  0.206
  C  C754  1  0.439400  0.492200  0.263250  1.0  0.6947
  C  C755  1  0.589110  0.910710  0.073770  1.0  -0.0331
  C  C756  1  0.043110  0.456610  0.371970  1.0  -0.1016
  C  C757  1  0.354910  0.880060  0.790310  1.0  -0.0701
  C  C758  1  0.958390  0.124390  0.505730  1.0  0.1858
  C  C759  1  0.574300  0.002500  0.863000  1.0  -0.1326
  C  C760  1  0.190160  0.001760  0.024120  1.0  -0.1187
  C  C761  1  0.046570  0.265510  0.764540  1.0  0.0099
  C  C762  1  0.766290  0.485440  0.691730  1.0  0.6469
  C  C763  1  0.711000  0.029000  0.972700  1.0  -0.1065
  C  C764  1  0.730080  0.650280  0.634160  1.0  -0.0967
  C  C765  1  0.972510  0.119610  0.574970  1.0  -0.1066
  C  C766  1  0.623870  0.090270  0.619190  1.0  0.2078
  C  C767  1  0.267740  0.014640  0.048180  1.0  -0.0842
  C  C768  1  0.423380  0.765510  0.264540  1.0  0.0094
  C  C769  1  0.857580  0.156080  0.758960  1.0  0.7225
  C  C770  1  0.037350  0.473350  0.664450  1.0  0.2369
  C  C771  1  0.409400  0.007200  0.341600  1.0  -0.0124
  C  C772  1  0.330560  0.732260  0.951820  1.0  -0.0862
  C  C773  1  0.141820  0.074620  0.498140  1.0  0.6865
  C  C774  1  0.985360  0.330560  0.951820  1.0  -0.0909
  C  C775  1  0.456610  0.128310  0.371970  1.0  -0.1035
  C  C776  1  0.458390  0.911490  0.005730  1.0  0.1889
  C  C777  1  0.140000  0.479880  0.703030  1.0  0.1698
  C  C778  1  0.880390  0.667090  0.425030  1.0  -0.106
  C  C779  1  0.108290  0.945690  0.596330  1.0  -0.1449
  C  C780  1  0.830200  0.629100  0.518600  1.0  -0.1192
  C  C781  1  0.307670  0.930300  0.774080  1.0  -0.1634
  C  C782  1  0.533020  0.166920  0.115440  1.0  -0.0848
  C  C783  1  0.124390  0.411490  0.505730  1.0  0.188
  C  C784  1  0.501760  0.690160  0.524120  1.0  -0.1251
  C  C785  1  0.375610  0.541610  0.994270  1.0  0.1854
  C  C786  1  0.376130  0.909730  0.380810  1.0  0.2061
  C  C787  1  0.575300  0.803600  0.872500  1.0  0.7123
  C  C788  1  0.331070  0.762070  0.451790  1.0  0.0059
  C  C789  1  0.498270  0.393770  0.997090  1.0  -0.0861
  C  C790  1  0.196400  0.251400  0.127500  1.0  0.7164
  C  C791  1  0.044930  0.737930  0.048210  1.0  0.0077
  C  C792  1  0.619610  0.472510  0.074970  1.0  -0.1051
  C  C793  1  0.022100  0.830200  0.518600  1.0  -0.1193
  C  C794  1  0.249900  0.731000  0.483200  1.0  -0.0972
  C  C795  1  0.978170  0.671570  0.474890  1.0  -0.1639
  C  C796  1  0.520120  0.322910  0.296970  1.0  0.1736
  C  C797  1  0.994240  0.190640  0.505580  1.0  -0.086
  C  C798  1  0.875370  0.978170  0.474890  1.0  -0.1632
  C  C799  1  0.964100  0.769000  0.016800  1.0  -0.0997
  C  C800  1  0.468250  0.178750  0.358950  1.0  -0.0789
  C  C801  1  0.485480  0.150280  0.134160  1.0  -0.0949
  C  C802  1  0.090600  0.258200  0.158400  1.0  -0.0113
  C  C803  1  0.691790  0.873690  0.428330  1.0  0.0135
  C  C804  1  0.992200  0.939400  0.763250  1.0  0.695
  C  C805  1  0.514640  0.767740  0.548180  1.0  -0.0846
  C  C806  1  0.546480  0.411080  0.972460  1.0  0.1902
  C  C807  1  0.572930  0.120730  0.328110  1.0  -0.1502
  C  C808  1  0.684620  0.666920  0.615440  1.0  -0.085
  C  C809  1  0.911490  0.624390  0.005730  1.0  0.1859
  C  C810  1  0.610870  0.893770  0.497090  1.0  -0.0874
  C  C811  1  0.005950  0.531750  0.641050  1.0  -0.0793
  C  C812  1  0.088920  0.953520  0.527540  1.0  0.1916
  C  C813  1  0.708480  0.008480  0.448460  1.0  -0.0957
  C  C814  1  0.769000  0.250100  0.016800  1.0  -0.0951
  C  C815  1  0.505950  0.321250  0.141050  1.0  -0.0788
  C  C816  1  0.910710  0.426410  0.073770  1.0  -0.0355
  C  C817  1  0.033020  0.684620  0.615440  1.0  -0.0813
  C  C818  1  0.492800  0.090600  0.158400  1.0  -0.0134
  C  C819  1  0.640000  0.177090  0.203030  1.0  0.1724
  C  C820  1  0.074300  0.060200  0.363000  1.0  -0.1275
  C  C821  1  0.690160  0.283960  0.524120  1.0  -0.1178
  C  C822  1  0.411490  0.958390  0.505730  1.0  0.1873
  C  C823  1  0.732260  0.985360  0.951820  1.0  -0.0868
  C  C824  1  0.471000  0.789000  0.527300  1.0  -0.1009
  C  C825  1  0.873690  0.006190  0.428330  1.0  0.0146
  C  C826  1  0.669800  0.477900  0.981400  1.0  -0.1205
  C  C827  1  0.741800  0.507200  0.841600  1.0  -0.013
  C  C828  1  0.624390  0.458390  0.005730  1.0  0.185
  C  C829  1  0.545230  0.106430  0.947110  1.0  -0.1166
  C  C830  1  0.870900  0.669800  0.981400  1.0  -0.123
  C  C831  1  0.498240  0.309840  0.475880  1.0  -0.1161
  C  C832  1  0.150310  0.554310  0.903670  1.0  -0.142
  C  C833  1  0.305150  0.992200  0.763250  1.0  0.7009
  C  C834  1  0.758200  0.590600  0.658400  1.0  -0.0113
  C  C835  1  0.180220  0.548320  0.562640  1.0  0.2147
  C  C836  1  0.029000  0.287300  0.972700  1.0  -0.1043
  C  C837  1  0.098170  0.693270  0.644090  1.0  -0.0826
  C  C838  1  0.478230  0.620730  0.828110  1.0  -0.1464
  N  N839  1  0.620940  0.637640  0.600080  1.0  -0.2127
  N  N840  1  0.273850  0.909450  0.314550  1.0  -0.1471
  N  N841  1  0.120940  0.641340  0.100080  1.0  -0.2142
  N  N842  1  0.893800  0.527000  0.521600  1.0  -0.1605
  N  N843  1  0.497850  0.726150  0.685450  1.0  -0.1483
  N  N844  1  0.543740  0.224240  0.319380  1.0  -0.1724
  N  N845  1  0.862360  0.879060  0.899920  1.0  -0.211
  N  N846  1  0.090550  0.497850  0.685450  1.0  -0.1499
  N  N847  1  0.275760  0.956260  0.180620  1.0  -0.1742
  N  N848  1  0.572480  0.991480  0.000360  1.0  -0.1427
  N  N849  1  0.606200  0.442400  0.978400  1.0  -0.1631
  N  N850  1  0.991480  0.435680  0.000360  1.0  -0.1419
  N  N851  1  0.775760  0.087360  0.680620  1.0  -0.176
  N  N852  1  0.909450  0.502150  0.314550  1.0  -0.149
  N  N853  1  0.807870  0.905770  0.916690  1.0  -0.1899
  N  N854  1  0.587360  0.275760  0.180620  1.0  -0.1742
  N  N855  1  0.641340  0.137640  0.100080  1.0  -0.211
  N  N856  1  0.393800  0.557600  0.021600  1.0  -0.1621
  N  N857  1  0.141340  0.620940  0.600080  1.0  -0.2113
  N  N858  1  0.879060  0.358660  0.899920  1.0  -0.2126
  N  N859  1  0.427520  0.008520  0.999640  1.0  -0.1427
  N  N860  1  0.379060  0.362360  0.399920  1.0  -0.2127
  N  N861  1  0.927520  0.064320  0.499640  1.0  -0.1427
  N  N862  1  0.002150  0.409450  0.814550  1.0  -0.1465
  N  N863  1  0.527000  0.057600  0.521600  1.0  -0.164
  N  N864  1  0.473000  0.942400  0.478400  1.0  -0.1663
  N  N865  1  0.087360  0.456260  0.680620  1.0  -0.1743
  N  N866  1  0.412640  0.724240  0.819380  1.0  -0.176
  N  N867  1  0.692130  0.130330  0.583310  1.0  -0.1914
  N  N868  1  0.137640  0.120940  0.100080  1.0  -0.2108
  N  N869  1  0.557600  0.027000  0.021600  1.0  -0.1642
  N  N870  1  0.491480  0.072480  0.500360  1.0  -0.1427
  N  N871  1  0.405770  0.307870  0.416690  1.0  -0.1922
  N  N872  1  0.594230  0.692130  0.583310  1.0  -0.1915
  N  N873  1  0.307870  0.869670  0.416690  1.0  -0.1918
  N  N874  1  0.442400  0.973000  0.978400  1.0  -0.1658
  N  N875  1  0.094230  0.630330  0.083310  1.0  -0.1927
  N  N876  1  0.997850  0.590550  0.185450  1.0  -0.1465
  N  N877  1  0.008520  0.564320  0.999640  1.0  -0.142
  N  N878  1  0.226150  0.997850  0.185450  1.0  -0.1506
  N  N879  1  0.072480  0.935680  0.500360  1.0  -0.1421
  N  N880  1  0.064320  0.508520  0.499640  1.0  -0.1421
  N  N881  1  0.630330  0.192130  0.083310  1.0  -0.1915
  N  N882  1  0.369670  0.807870  0.916690  1.0  -0.1934
  N  N883  1  0.456260  0.775760  0.680620  1.0  -0.1743
  N  N884  1  0.564320  0.427520  0.999640  1.0  -0.1408
  N  N885  1  0.224240  0.912640  0.319380  1.0  -0.176
  N  N886  1  0.358660  0.862360  0.899920  1.0  -0.2113
  N  N887  1  0.858660  0.379060  0.399920  1.0  -0.2102
  N  N888  1  0.973000  0.606200  0.978400  1.0  -0.1628
  N  N889  1  0.912640  0.543740  0.319380  1.0  -0.177
  N  N890  1  0.508520  0.927520  0.499640  1.0  -0.1417
  N  N891  1  0.726150  0.090550  0.685450  1.0  -0.1462
  N  N892  1  0.637640  0.141340  0.600080  1.0  -0.2129
  N  N893  1  0.027000  0.393800  0.021600  1.0  -0.1622
  N  N894  1  0.942400  0.106200  0.478400  1.0  -0.1643
  N  N895  1  0.502150  0.273850  0.314550  1.0  -0.1488
  N  N896  1  0.905770  0.369670  0.916690  1.0  -0.1936
  N  N897  1  0.362360  0.858660  0.399920  1.0  -0.2107
  N  N898  1  0.935680  0.491480  0.500360  1.0  -0.1422
  N  N899  1  0.773850  0.002150  0.814550  1.0  -0.1493
  N  N900  1  0.106200  0.473000  0.478400  1.0  -0.1613
  N  N901  1  0.057600  0.893800  0.521600  1.0  -0.1617
  N  N902  1  0.192130  0.094230  0.083310  1.0  -0.1897
  N  N903  1  0.590550  0.226150  0.185450  1.0  -0.1481
  N  N904  1  0.130330  0.594230  0.583310  1.0  -0.1899
  N  N905  1  0.724240  0.043740  0.819380  1.0  -0.1768
  N  N906  1  0.956260  0.587360  0.180620  1.0  -0.1753
  N  N907  1  0.869670  0.405770  0.416690  1.0  -0.1905
  N  N908  1  0.409450  0.773850  0.814550  1.0  -0.1479
  N  N909  1  0.043740  0.412640  0.819380  1.0  -0.1719
  N  N910  1  0.435680  0.572480  0.000360  1.0  -0.1416
  O  O911  1  0.677640  0.889330  0.628070  1.0  -0.5914
  O  O912  1  0.131440  0.619710  0.831370  1.0  -0.6338
  O  O913  1  0.094450  0.231260  0.520130  1.0  -0.585
  O  O914  1  0.119710  0.631440  0.331370  1.0  -0.6329
  O  O915  1  0.654160  0.731260  0.020130  1.0  -0.5869
  O  O916  1  0.177640  0.304960  0.128070  1.0  -0.5838
  O  O917  1  0.108390  0.649020  0.237080  1.0  -0.6067
  O  O918  1  0.994490  0.891610  0.762920  1.0  -0.6067
  O  O919  1  0.240920  0.806350  0.757910  1.0  -0.6638
  O  O920  1  0.372110  0.199550  0.744430  1.0  -0.7855
  O  O921  1  0.864700  0.073120  0.335660  1.0  -0.5978
  O  O922  1  0.914550  0.712620  0.622340  1.0  -0.6167
  O  O923  1  0.257980  0.036250  0.755060  1.0  -0.6129
  O  O924  1  0.358520  0.192240  0.044310  1.0  -0.5817
  O  O925  1  0.244190  0.606870  0.200910  1.0  -0.6668
  O  O926  1  0.494490  0.850980  0.262920  1.0  -0.6058
  O  O927  1  0.582520  0.868560  0.168630  1.0  -0.6351
  O  O928  1  0.183910  0.699550  0.244430  1.0  -0.7901
  O  O929  1  0.595070  0.641480  0.955690  1.0  -0.5799
  O  O930  1  0.872110  0.183910  0.244430  1.0  -0.7862
  O  O931  1  0.850980  0.391610  0.262920  1.0  -0.6068
  O  O932  1  0.380290  0.582520  0.168630  1.0  -0.6368
  O  O933  1  0.926880  0.273480  0.664340  1.0  -0.5994
  O  O934  1  0.307760  0.141480  0.455690  1.0  -0.5806
  O  O935  1  0.880290  0.368560  0.668630  1.0  -0.6337
  O  O936  1  0.316090  0.627890  0.255570  1.0  -0.7831
  O  O937  1  0.809850  0.470320  0.706280  1.0  -0.5527
  O  O938  1  0.889330  0.804960  0.628070  1.0  -0.5881
  O  O939  1  0.845840  0.905550  0.479870  1.0  -0.5821
  O  O940  1  0.141480  0.095070  0.455690  1.0  -0.5807
  O  O941  1  0.334430  0.596750  0.750280  1.0  -0.566
  O  O942  1  0.986450  0.190150  0.293720  1.0  -0.5529
  O  O943  1  0.448030  0.106870  0.700910  1.0  -0.665
  O  O944  1  0.917480  0.119710  0.331370  1.0  -0.6339
  O  O945  1  0.414550  0.250490  0.122340  1.0  -0.616
  O  O946  1  0.694820  0.306350  0.257910  1.0  -0.6623
  O  O947  1  0.073120  0.726520  0.335660  1.0  -0.5976
  O  O948  1  0.834430  0.818540  0.250280  1.0  -0.5685
  O  O949  1  0.807760  0.595070  0.955690  1.0  -0.5814
  O  O950  1  0.773480  0.426880  0.164340  1.0  -0.5976
  O  O951  1  0.950710  0.257980  0.755060  1.0  -0.608
  O  O952  1  0.106870  0.744190  0.700910  1.0  -0.6636
  O  O953  1  0.585450  0.749510  0.877660  1.0  -0.6145
  O  O954  1  0.404930  0.358520  0.044310  1.0  -0.5803
  O  O955  1  0.805180  0.759080  0.242090  1.0  -0.6625
  O  O956  1  0.231260  0.154160  0.520130  1.0  -0.5864
  O  O957  1  0.903250  0.165570  0.749720  1.0  -0.5695
  O  O958  1  0.350980  0.994490  0.762920  1.0  -0.6061
  O  O959  1  0.049290  0.742020  0.244940  1.0  -0.6108
  O  O960  1  0.192240  0.404930  0.044310  1.0  -0.5801
  O  O961  1  0.695040  0.610670  0.871930  1.0  -0.5876
  O  O962  1  0.816090  0.300450  0.755570  1.0  -0.7865
  O  O963  1  0.641480  0.807760  0.955690  1.0  -0.5812
  O  O964  1  0.463750  0.242020  0.744940  1.0  -0.6118
  O  O965  1  0.450710  0.536250  0.255060  1.0  -0.612
  O  O966  1  0.804960  0.677640  0.628070  1.0  -0.5853
  O  O967  1  0.181460  0.903250  0.749720  1.0  -0.5693
  O  O968  1  0.712620  0.750490  0.622340  1.0  -0.6132
  O  O969  1  0.822360  0.695040  0.871930  1.0  -0.5852
  O  O970  1  0.631440  0.917480  0.331370  1.0  -0.6336
  O  O971  1  0.549290  0.463750  0.744940  1.0  -0.6061
  O  O972  1  0.692240  0.858520  0.544310  1.0  -0.5809
  O  O973  1  0.742020  0.963750  0.244940  1.0  -0.6116
  O  O974  1  0.608390  0.505510  0.737080  1.0  -0.6051
  O  O975  1  0.529680  0.986450  0.293720  1.0  -0.5523
  O  O976  1  0.619710  0.417480  0.831370  1.0  -0.6345
  O  O977  1  0.573120  0.364700  0.835660  1.0  -0.5967
  O  O978  1  0.893130  0.255810  0.299090  1.0  -0.6647
  O  O979  1  0.199550  0.683910  0.744430  1.0  -0.7914
  O  O980  1  0.393130  0.051970  0.799090  1.0  -0.6649
  O  O981  1  0.405550  0.345840  0.979870  1.0  -0.5821
  O  O982  1  0.691250  0.691250  0.926250  1.0  -1.1633
  O  O983  1  0.693650  0.259080  0.742090  1.0  -0.6615
  O  O984  1  0.868560  0.380290  0.168630  1.0  -0.6366
  O  O985  1  0.800450  0.316090  0.255570  1.0  -0.7871
  O  O986  1  0.149020  0.608390  0.737080  1.0  -0.6075
  O  O987  1  0.699550  0.872110  0.244430  1.0  -0.788
  O  O988  1  0.308750  0.308750  0.073750  1.0  -1.1615
  O  O989  1  0.250490  0.212620  0.122340  1.0  -0.6126
  O  O990  1  0.486450  0.029680  0.793720  1.0  -0.5529
  O  O991  1  0.403250  0.681460  0.249720  1.0  -0.5697
  O  O992  1  0.750490  0.914550  0.622340  1.0  -0.6143
  O  O993  1  0.096750  0.834430  0.250280  1.0  -0.5689
  O  O994  1  0.649020  0.005510  0.237080  1.0  -0.605
  O  O995  1  0.368560  0.082520  0.668630  1.0  -0.6369
  O  O996  1  0.322360  0.110670  0.371930  1.0  -0.59
  O  O997  1  0.665570  0.403250  0.249720  1.0  -0.5671
  O  O998  1  0.740920  0.694820  0.257910  1.0  -0.6662
  O  O999  1  0.195040  0.322360  0.371930  1.0  -0.5854
  O  O1000  1  0.082520  0.880290  0.668630  1.0  -0.6341
  O  O1001  1  0.212620  0.414550  0.122340  1.0  -0.6145
  O  O1002  1  0.259080  0.305180  0.742090  1.0  -0.6651
  O  O1003  1  0.226520  0.573120  0.835660  1.0  -0.5985
  O  O1004  1  0.309850  0.513550  0.206280  1.0  -0.5519
  O  O1005  1  0.594450  0.654160  0.020130  1.0  -0.5819
  O  O1006  1  0.127890  0.816090  0.755570  1.0  -0.7871
  O  O1007  1  0.051970  0.755810  0.799090  1.0  -0.6624
  O  O1008  1  0.191250  0.191250  0.426250  1.0  -1.1633
  O  O1009  1  0.194820  0.240920  0.757910  1.0  -0.6625
  O  O1010  1  0.757980  0.450710  0.255060  1.0  -0.6082
  O  O1011  1  0.417480  0.131440  0.831370  1.0  -0.636
  O  O1012  1  0.470320  0.013550  0.706280  1.0  -0.5524
  O  O1013  1  0.610670  0.822360  0.871930  1.0  -0.5895
  O  O1014  1  0.963750  0.049290  0.244940  1.0  -0.6071
  O  O1015  1  0.858520  0.904930  0.544310  1.0  -0.5808
  O  O1016  1  0.891610  0.350980  0.762920  1.0  -0.6063
  O  O1017  1  0.808750  0.808750  0.573750  1.0  -1.1615
  O  O1018  1  0.627890  0.800450  0.255570  1.0  -0.7854
  O  O1019  1  0.513550  0.970320  0.206280  1.0  -0.555
  O  O1020  1  0.193650  0.805180  0.242090  1.0  -0.662
  O  O1021  1  0.029680  0.690150  0.793720  1.0  -0.5537
  O  O1022  1  0.036250  0.950710  0.755060  1.0  -0.6113
  O  O1023  1  0.904930  0.692240  0.544310  1.0  -0.5806
  O  O1024  1  0.306350  0.740920  0.257910  1.0  -0.6614
  O  O1025  1  0.905550  0.768740  0.479870  1.0  -0.5855
  O  O1026  1  0.731260  0.594450  0.020130  1.0  -0.5845
  O  O1027  1  0.391610  0.494490  0.262920  1.0  -0.605
  O  O1028  1  0.389330  0.177640  0.128070  1.0  -0.5915
  O  O1029  1  0.345840  0.268740  0.979870  1.0  -0.5885
  O  O1030  1  0.005510  0.108390  0.237080  1.0  -0.6071
  O  O1031  1  0.755810  0.393130  0.799090  1.0  -0.6649
  O  O1032  1  0.135300  0.926880  0.664340  1.0  -0.5989
  O  O1033  1  0.305180  0.693650  0.742090  1.0  -0.6654
  O  O1034  1  0.759080  0.193650  0.242090  1.0  -0.6635
  O  O1035  1  0.768740  0.845840  0.479870  1.0  -0.5866
  O  O1036  1  0.085450  0.287380  0.377660  1.0  -0.617
  O  O1037  1  0.013550  0.809850  0.706280  1.0  -0.5534
  O  O1038  1  0.249510  0.085450  0.377660  1.0  -0.6127
  O  O1039  1  0.536250  0.757980  0.255060  1.0  -0.6065
  O  O1040  1  0.690150  0.486450  0.793720  1.0  -0.5518
  O  O1041  1  0.635300  0.773480  0.164340  1.0  -0.5976
  O  O1042  1  0.318540  0.334430  0.750280  1.0  -0.5689
  O  O1043  1  0.505510  0.149020  0.737080  1.0  -0.6059
  O  O1044  1  0.426880  0.635300  0.164340  1.0  -0.5955
  O  O1045  1  0.095070  0.307760  0.455690  1.0  -0.581
  O  O1046  1  0.726520  0.864700  0.335660  1.0  -0.5969
  O  O1047  1  0.787380  0.585450  0.877660  1.0  -0.6141
  O  O1048  1  0.110670  0.195040  0.371930  1.0  -0.5904
  O  O1049  1  0.606870  0.948030  0.200910  1.0  -0.6656
  O  O1050  1  0.744190  0.448030  0.700910  1.0  -0.6643
  O  O1051  1  0.154160  0.094450  0.520130  1.0  -0.5812
  O  O1052  1  0.304960  0.389330  0.128070  1.0  -0.5875
  O  O1053  1  0.300450  0.127890  0.755570  1.0  -0.7851
  O  O1054  1  0.268740  0.405550  0.979870  1.0  -0.5847
  O  O1055  1  0.818540  0.096750  0.250280  1.0  -0.5689
  O  O1056  1  0.806350  0.194820  0.757910  1.0  -0.6625
  O  O1057  1  0.551970  0.893130  0.299090  1.0  -0.6623
  O  O1058  1  0.596750  0.318540  0.750280  1.0  -0.5674
  O  O1059  1  0.970320  0.309850  0.206280  1.0  -0.5538
  O  O1060  1  0.749510  0.787380  0.877660  1.0  -0.613
  O  O1061  1  0.683910  0.372110  0.744430  1.0  -0.785
  O  O1062  1  0.364700  0.226520  0.835660  1.0  -0.5977
  O  O1063  1  0.165570  0.181460  0.749720  1.0  -0.568
  O  O1064  1  0.190150  0.529680  0.293720  1.0  -0.5518
  O  O1065  1  0.273480  0.135300  0.664340  1.0  -0.5956
  O  O1066  1  0.948030  0.244190  0.200910  1.0  -0.6646
  O  O1067  1  0.681460  0.665570  0.249720  1.0  -0.5699
  O  O1068  1  0.255810  0.551970  0.299090  1.0  -0.6625
  O  O1069  1  0.287380  0.249510  0.377660  1.0  -0.6142
  O  O1070  1  0.242020  0.549290  0.744940  1.0  -0.6082
