# generated using pymatgen
data_Fe3H9C24N3O13
_symmetry_space_group_name_H-M   'P 1'
_cell_length_a   38.14240000
_cell_length_b   38.14240000
_cell_length_c   38.14240000
_cell_angle_alpha   109.47100000
_cell_angle_beta   109.47100000
_cell_angle_gamma   109.47100000
_symmetry_Int_Tables_number   1
_chemical_formula_structural   Fe3H9C24N3O13
_chemical_formula_sum   'Fe96 H288 C768 N96 O416'
_cell_volume   42717.48796300
_cell_formula_units_Z   32
loop_
 _symmetry_equiv_pos_site_id
 _symmetry_equiv_pos_as_xyz
  1  'x, y, z'
loop_
 _atom_site_type_symbol
 _atom_site_label
 _atom_site_symmetry_multiplicity
 _atom_site_fract_x
 _atom_site_fract_y
 _atom_site_fract_z
 _atom_site_occupancy
 _atom_site_charge
  Fe  Fe1  1  0.720660  0.970960  0.423060  1.0  1.2647
  Fe  Fe2  1  0.279340  0.029040  0.576940  1.0  1.2618
  Fe  Fe3  1  0.939090  0.467790  0.236900  1.0  1.2594
  Fe  Fe4  1  0.702190  0.763100  0.230890  1.0  1.2597
  Fe  Fe5  1  0.532210  0.263100  0.560910  1.0  1.2556
  Fe  Fe6  1  0.736900  0.939090  0.967790  1.0  1.2596
  Fe  Fe7  1  0.951500  0.733930  0.015630  1.0  1.1506
  Fe  Fe8  1  0.048500  0.266070  0.984370  1.0  1.1501
  Fe  Fe9  1  0.220660  0.797600  0.749700  1.0  1.2658
  Fe  Fe10  1  0.736300  0.280400  0.751900  1.0  1.247
  Fe  Fe11  1  0.015600  0.751900  0.471500  1.0  1.242
  Fe  Fe12  1  0.702400  0.423060  0.452100  1.0  1.2645
  Fe  Fe13  1  0.230890  0.967790  0.028700  1.0  1.2556
  Fe  Fe14  1  0.560910  0.797810  0.528700  1.0  1.2599
  Fe  Fe15  1  0.451500  0.435870  0.217570  1.0  1.1515
  Fe  Fe16  1  0.236300  0.484400  0.455900  1.0  1.2459
  Fe  Fe17  1  0.249700  0.220660  0.297600  1.0  1.2606
  Fe  Fe18  1  0.280400  0.251900  0.236300  1.0  1.243
  Fe  Fe19  1  0.797600  0.249700  0.720660  1.0  1.2677
  Fe  Fe20  1  0.970960  0.923060  0.220660  1.0  1.2643
  Fe  Fe21  1  0.076940  0.279340  0.529040  1.0  1.2644
  Fe  Fe22  1  0.060910  0.532210  0.763100  1.0  1.2585
  Fe  Fe23  1  0.733930  0.515630  0.451500  1.0  1.15
  Fe  Fe24  1  0.471300  0.769110  0.532210  1.0  1.2582
  Fe  Fe25  1  0.750300  0.779340  0.702400  1.0  1.266
  Fe  Fe26  1  0.515600  0.044100  0.263700  1.0  1.2493
  Fe  Fe27  1  0.751900  0.971500  0.515600  1.0  1.241
  Fe  Fe28  1  0.029040  0.076940  0.779340  1.0  1.2693
  Fe  Fe29  1  0.576940  0.047900  0.797600  1.0  1.2649
  Fe  Fe30  1  0.452100  0.529040  0.249700  1.0  1.2637
  Fe  Fe31  1  0.250300  0.547900  0.970960  1.0  1.269
  Fe  Fe32  1  0.528500  0.780400  0.044100  1.0  1.2418
  Fe  Fe33  1  0.984370  0.218300  0.435870  1.0  1.1497
  Fe  Fe34  1  0.781700  0.064130  0.515630  1.0  1.1535
  Fe  Fe35  1  0.236900  0.269110  0.797810  1.0  1.258
  Fe  Fe36  1  0.032210  0.471300  0.269110  1.0  1.2577
  Fe  Fe37  1  0.028500  0.984400  0.748100  1.0  1.2426
  Fe  Fe38  1  0.251900  0.736300  0.780400  1.0  1.2412
  Fe  Fe39  1  0.769110  0.032210  0.971300  1.0  1.2573
  Fe  Fe40  1  0.935870  0.984370  0.718300  1.0  1.1518
  Fe  Fe41  1  0.779340  0.202400  0.250300  1.0  1.2624
  Fe  Fe42  1  0.248100  0.028500  0.484400  1.0  1.2483
  Fe  Fe43  1  0.218300  0.935870  0.484370  1.0  1.1512
  Fe  Fe44  1  0.028700  0.560910  0.297810  1.0  1.2621
  Fe  Fe45  1  0.219600  0.455900  0.971500  1.0  1.246
  Fe  Fe46  1  0.263100  0.060910  0.032210  1.0  1.2619
  Fe  Fe47  1  0.782430  0.718300  0.733930  1.0  1.1516
  Fe  Fe48  1  0.297600  0.576940  0.547900  1.0  1.2691
  Fe  Fe49  1  0.266070  0.484370  0.548500  1.0  1.1472
  Fe  Fe50  1  0.766070  0.217570  0.781700  1.0  1.1497
  Fe  Fe51  1  0.763700  0.515600  0.544100  1.0  1.2413
  Fe  Fe52  1  0.202190  0.971300  0.939090  1.0  1.26
  Fe  Fe53  1  0.971500  0.015600  0.251900  1.0  1.2452
  Fe  Fe54  1  0.515630  0.951500  0.233930  1.0  1.151
  Fe  Fe55  1  0.064130  0.015630  0.281700  1.0  1.1516
  Fe  Fe56  1  0.967790  0.528700  0.730890  1.0  1.2608
  Fe  Fe57  1  0.718300  0.233930  0.282430  1.0  1.1491
  Fe  Fe58  1  0.233930  0.782430  0.218300  1.0  1.1536
  Fe  Fe59  1  0.423060  0.952100  0.202400  1.0  1.2628
  Fe  Fe60  1  0.971300  0.439090  0.702190  1.0  1.2589
  Fe  Fe61  1  0.282430  0.548500  0.064130  1.0  1.1508
  Fe  Fe62  1  0.780400  0.544100  0.028500  1.0  1.2488
  Fe  Fe63  1  0.717570  0.451500  0.935870  1.0  1.1525
  Fe  Fe64  1  0.217570  0.281700  0.266070  1.0  1.1514
  Fe  Fe65  1  0.297810  0.236900  0.769110  1.0  1.2586
  Fe  Fe66  1  0.528700  0.230890  0.467790  1.0  1.2577
  Fe  Fe67  1  0.435870  0.717570  0.951500  1.0  1.1528
  Fe  Fe68  1  0.923060  0.720660  0.470960  1.0  1.263
  Fe  Fe69  1  0.797810  0.028700  0.060910  1.0  1.2567
  Fe  Fe70  1  0.455900  0.471500  0.719600  1.0  1.2467
  Fe  Fe71  1  0.439090  0.202190  0.471300  1.0  1.2597
  Fe  Fe72  1  0.015630  0.781700  0.564130  1.0  1.1465
  Fe  Fe73  1  0.748100  0.263700  0.219600  1.0  1.2458
  Fe  Fe74  1  0.529040  0.749700  0.952100  1.0  1.2667
  Fe  Fe75  1  0.044100  0.763700  0.015600  1.0  1.2431
  Fe  Fe76  1  0.763100  0.730890  0.202190  1.0  1.256
  Fe  Fe77  1  0.484400  0.955900  0.736300  1.0  1.245
  Fe  Fe78  1  0.467790  0.736900  0.439090  1.0  1.2586
  Fe  Fe79  1  0.281700  0.766070  0.717570  1.0  1.1487
  Fe  Fe80  1  0.749700  0.452100  0.029040  1.0  1.2622
  Fe  Fe81  1  0.471500  0.219600  0.955900  1.0  1.2479
  Fe  Fe82  1  0.548500  0.564130  0.782430  1.0  1.1532
  Fe  Fe83  1  0.952100  0.702400  0.923060  1.0  1.2668
  Fe  Fe84  1  0.719600  0.748100  0.763700  1.0  1.2457
  Fe  Fe85  1  0.544100  0.528500  0.280400  1.0  1.2444
  Fe  Fe86  1  0.202400  0.750300  0.279340  1.0  1.2629
  Fe  Fe87  1  0.269110  0.297810  0.736900  1.0  1.2603
  Fe  Fe88  1  0.955900  0.236300  0.984400  1.0  1.246
  Fe  Fe89  1  0.984400  0.248100  0.528500  1.0  1.2451
  Fe  Fe90  1  0.470960  0.250300  0.047900  1.0  1.2609
  Fe  Fe91  1  0.564130  0.282430  0.048500  1.0  1.1526
  Fe  Fe92  1  0.263700  0.719600  0.248100  1.0  1.2441
  Fe  Fe93  1  0.730890  0.702190  0.263100  1.0  1.2561
  Fe  Fe94  1  0.547900  0.470960  0.750300  1.0  1.2615
  Fe  Fe95  1  0.047900  0.297600  0.076940  1.0  1.265
  Fe  Fe96  1  0.484370  0.048500  0.766070  1.0  1.1537
  H  H97  1  0.119300  0.429900  0.121800  1.0  0.1399
  H  H98  1  0.870900  0.231200  0.377700  1.0  0.1374
  H  H99  1  0.622900  0.606800  0.910100  1.0  0.1469
  H  H100  1  0.497900  0.301600  0.908300  1.0  0.1343
  H  H101  1  0.929600  0.109900  0.110700  1.0  0.1331
  H  H102  1  0.570400  0.681100  0.180300  1.0  0.1323
  H  H103  1  0.712600  0.103600  0.998400  1.0  0.1475
  H  H104  1  0.610200  0.700200  0.981800  1.0  0.1479
  H  H105  1  0.109000  0.212600  0.714200  1.0  0.1479
  H  H106  1  0.803700  0.393300  0.301600  1.0  0.1351
  H  H107  1  0.910000  0.281600  0.299800  1.0  0.1481
  H  H108  1  0.819000  0.412300  0.802900  1.0  0.1286
  H  H109  1  0.497500  0.189400  0.119300  1.0  0.1401
  H  H110  1  0.911700  0.090600  0.392500  1.0  0.1524
  H  H111  1  0.359100  0.008300  0.130800  1.0  0.1427
  H  H112  1  0.000800  0.390100  0.319700  1.0  0.1316
  H  H113  1  0.483900  0.093300  0.181000  1.0  0.1274
  H  H114  1  0.896000  0.250400  0.872200  1.0  0.1346
  H  H115  1  0.859100  0.728300  0.350800  1.0  0.1432
  H  H116  1  0.621800  0.249600  0.145600  1.0  0.1347
  H  H117  1  0.588300  0.980800  0.178900  1.0  0.1509
  H  H118  1  0.639700  0.146500  0.768800  1.0  0.1378
  H  H119  1  0.360300  0.853500  0.231200  1.0  0.1374
  H  H120  1  0.604000  0.476200  0.354400  1.0  0.1351
  H  H121  1  0.483900  0.877100  0.287200  1.0  0.1469
  H  H122  1  0.149200  0.140900  0.771700  1.0  0.1435
  H  H123  1  0.122900  0.212800  0.016100  1.0  0.1474
  H  H124  1  0.089900  0.196700  0.212800  1.0  0.1466
  H  H125  1  0.429900  0.621800  0.619300  1.0  0.1391
  H  H126  1  0.016100  0.303300  0.393200  1.0  0.1462
  H  H127  1  0.411700  0.019200  0.821100  1.0  0.1512
  H  H128  1  0.910400  0.303700  0.502100  1.0  0.135
  H  H129  1  0.088300  0.909400  0.607500  1.0  0.1521
  H  H130  1  0.006800  0.860300  0.129100  1.0  0.1385
  H  H131  1  0.906700  0.319000  0.016100  1.0  0.1284
  H  H132  1  0.993200  0.139700  0.870900  1.0  0.1373
  H  H133  1  0.605200  0.714200  0.501600  1.0  0.147
  H  H134  1  0.250400  0.372200  0.396000  1.0  0.134
  H  H135  1  0.110200  0.128400  0.910000  1.0  0.1499
  H  H136  1  0.390100  0.819700  0.500800  1.0  0.1329
  H  H137  1  0.878200  0.808100  0.497500  1.0  0.1393
  H  H138  1  0.303300  0.893200  0.516100  1.0  0.1458
  H  H139  1  0.983900  0.696700  0.606800  1.0  0.1472
  H  H140  1  0.212600  0.214200  0.609000  1.0  0.1488
  H  H141  1  0.590000  0.889800  0.371600  1.0  0.1475
  H  H142  1  0.860300  0.629100  0.506800  1.0  0.1378
  H  H143  1  0.818900  0.889300  0.999200  1.0  0.1333
  H  H144  1  0.178900  0.698100  0.090600  1.0  0.1515
  H  H145  1  0.698100  0.590600  0.678900  1.0  0.1519
  H  H146  1  0.493200  0.622300  0.853500  1.0  0.1373
  H  H147  1  0.070400  0.890100  0.889300  1.0  0.1332
  H  H148  1  0.696300  0.997900  0.589600  1.0  0.1342
  H  H149  1  0.502100  0.698400  0.091700  1.0  0.1339
  H  H150  1  0.603600  0.391000  0.605200  1.0  0.1478
  H  H151  1  0.799800  0.910000  0.781600  1.0  0.1481
  H  H152  1  0.678900  0.588300  0.480800  1.0  0.1523
  H  H153  1  0.516100  0.906700  0.819000  1.0  0.1274
  H  H154  1  0.802900  0.890600  0.483900  1.0  0.1286
  H  H155  1  0.002100  0.910400  0.803700  1.0  0.1341
  H  H156  1  0.370900  0.993200  0.639700  1.0  0.1383
  H  H157  1  0.121800  0.191900  0.502500  1.0  0.1393
  H  H158  1  0.912300  0.593300  0.109400  1.0  0.1283
  H  H159  1  0.350500  0.746400  0.377500  1.0  0.1263
  H  H160  1  0.810600  0.380700  0.002500  1.0  0.1401
  H  H161  1  0.409400  0.821100  0.801900  1.0  0.1521
  H  H162  1  0.249600  0.645600  0.121800  1.0  0.1341
  H  H163  1  0.350800  0.122500  0.991700  1.0  0.1435
  H  H164  1  0.093300  0.681000  0.983900  1.0  0.1285
  H  H165  1  0.408300  0.497900  0.801600  1.0  0.1341
  H  H166  1  0.303700  0.002100  0.410400  1.0  0.1342
  H  H167  1  0.198100  0.519200  0.107500  1.0  0.1516
  H  H168  1  0.628400  0.018200  0.718400  1.0  0.1493
  H  H169  1  0.781600  0.371600  0.481800  1.0  0.1491
  H  H170  1  0.910100  0.803300  0.787200  1.0  0.1457
  H  H171  1  0.630800  0.359100  0.508300  1.0  0.1434
  H  H172  1  0.698400  0.591700  0.002100  1.0  0.1342
  H  H173  1  0.406700  0.390600  0.587700  1.0  0.1268
  H  H174  1  0.393300  0.801600  0.303700  1.0  0.1341
  H  H175  1  0.287400  0.896400  0.001600  1.0  0.1475
  H  H176  1  0.396000  0.523800  0.645600  1.0  0.1339
  H  H177  1  0.973000  0.622500  0.368900  1.0  0.1267
  H  H178  1  0.368900  0.246400  0.895900  1.0  0.1256
  H  H179  1  0.868900  0.973000  0.122500  1.0  0.1258
  H  H180  1  0.395900  0.368900  0.746400  1.0  0.126
  H  H181  1  0.377700  0.646500  0.006800  1.0  0.1381
  H  H182  1  0.877500  0.350500  0.246400  1.0  0.1252
  H  H183  1  0.394800  0.285800  0.498400  1.0  0.1477
  H  H184  1  0.610700  0.929600  0.609900  1.0  0.1333
  H  H185  1  0.369200  0.640900  0.491700  1.0  0.1437
  H  H186  1  0.591700  0.502100  0.198400  1.0  0.134
  H  H187  1  0.589900  0.377100  0.893200  1.0  0.1477
  H  H188  1  0.299800  0.518200  0.889800  1.0  0.1506
  H  H189  1  0.390600  0.087700  0.906700  1.0  0.1287
  H  H190  1  0.378200  0.880700  0.070100  1.0  0.1395
  H  H191  1  0.894800  0.396400  0.109000  1.0  0.1482
  H  H192  1  0.646500  0.506800  0.877700  1.0  0.1378
  H  H193  1  0.691900  0.070100  0.189400  1.0  0.1398
  H  H194  1  0.753600  0.604100  0.131100  1.0  0.1271
  H  H195  1  0.103600  0.498400  0.212600  1.0  0.1476
  H  H196  1  0.354400  0.378200  0.250400  1.0  0.1336
  H  H197  1  0.106800  0.983900  0.196700  1.0  0.1466
  H  H198  1  0.878200  0.023800  0.627800  1.0  0.1339
  H  H199  1  0.929900  0.310600  0.808100  1.0  0.1407
  H  H200  1  0.508300  0.649200  0.377500  1.0  0.1428
  H  H201  1  0.181100  0.110700  0.000800  1.0  0.133
  H  H202  1  0.850500  0.473000  0.604100  1.0  0.1265
  H  H203  1  0.801600  0.803700  0.893300  1.0  0.1345
  H  H204  1  0.476200  0.854400  0.104000  1.0  0.1333
  H  H205  1  0.198400  0.196300  0.106700  1.0  0.1337
  H  H206  1  0.308100  0.929900  0.810600  1.0  0.1395
  H  H207  1  0.589600  0.091700  0.393300  1.0  0.1342
  H  H208  1  0.087700  0.406700  0.890600  1.0  0.1289
  H  H209  1  0.890600  0.983900  0.302900  1.0  0.1277
  H  H210  1  0.649500  0.253600  0.622500  1.0  0.126
  H  H211  1  0.129100  0.768800  0.622300  1.0  0.1376
  H  H212  1  0.122500  0.649500  0.753600  1.0  0.1259
  H  H213  1  0.891000  0.787400  0.285800  1.0  0.148
  H  H214  1  0.895900  0.149500  0.027000  1.0  0.1252
  H  H215  1  0.877100  0.787200  0.983900  1.0  0.1474
  H  H216  1  0.746400  0.877500  0.850500  1.0  0.1267
  H  H217  1  0.089600  0.696300  0.497900  1.0  0.1353
  H  H218  1  0.893300  0.589600  0.591700  1.0  0.1348
  H  H219  1  0.302900  0.819000  0.912300  1.0  0.1269
  H  H220  1  0.893200  0.016100  0.803300  1.0  0.1467
  H  H221  1  0.127800  0.878200  0.523800  1.0  0.1341
  H  H222  1  0.501600  0.287400  0.396400  1.0  0.1487
  H  H223  1  0.889800  0.871600  0.090000  1.0  0.1498
  H  H224  1  0.619300  0.497500  0.689400  1.0  0.1391
  H  H225  1  0.070100  0.689400  0.191900  1.0  0.1403
  H  H226  1  0.629100  0.006800  0.360300  1.0  0.1377
  H  H227  1  0.001600  0.605200  0.214200  1.0  0.148
  H  H228  1  0.645600  0.621800  0.749600  1.0  0.134
  H  H229  1  0.622300  0.353500  0.993200  1.0  0.1375
  H  H230  1  0.872200  0.121800  0.476200  1.0  0.1351
  H  H231  1  0.890100  0.389300  0.570400  1.0  0.1315
  H  H232  1  0.214200  0.109000  0.712600  1.0  0.1481
  H  H233  1  0.002500  0.121800  0.691900  1.0  0.1403
  H  H234  1  0.570100  0.378200  0.380700  1.0  0.1403
  H  H235  1  0.787400  0.785800  0.391000  1.0  0.1485
  H  H236  1  0.622500  0.771700  0.630800  1.0  0.1433
  H  H237  1  0.285800  0.998400  0.894800  1.0  0.1495
  H  H238  1  0.981800  0.781600  0.871600  1.0  0.1498
  H  H239  1  0.090000  0.718400  0.700200  1.0  0.149
  H  H240  1  0.728300  0.850800  0.359100  1.0  0.1432
  H  H241  1  0.181000  0.587700  0.197100  1.0  0.1287
  H  H242  1  0.149500  0.527000  0.395900  1.0  0.1255
  H  H243  1  0.976200  0.872200  0.621800  1.0  0.1331
  H  H244  1  0.587700  0.697100  0.681000  1.0  0.1294
  H  H245  1  0.023800  0.127800  0.378200  1.0  0.1325
  H  H246  1  0.019200  0.321100  0.911700  1.0  0.1512
  H  H247  1  0.880700  0.570100  0.878200  1.0  0.14
  H  H248  1  0.500800  0.181100  0.610700  1.0  0.1319
  H  H249  1  0.104000  0.749600  0.127800  1.0  0.1343
  H  H250  1  0.785800  0.891000  0.287400  1.0  0.1474
  H  H251  1  0.131100  0.027000  0.877500  1.0  0.1255
  H  H252  1  0.680300  0.570400  0.181100  1.0  0.1332
  H  H253  1  0.803300  0.287200  0.410100  1.0  0.1469
  H  H254  1  0.253600  0.122500  0.149500  1.0  0.1258
  H  H255  1  0.506800  0.377700  0.146500  1.0  0.1381
  H  H256  1  0.593300  0.609400  0.412300  1.0  0.1273
  H  H257  1  0.480800  0.392500  0.301900  1.0  0.1513
  H  H258  1  0.631100  0.753600  0.104100  1.0  0.127
  H  H259  1  0.128400  0.410000  0.610200  1.0  0.1484
  H  H260  1  0.310600  0.308100  0.429900  1.0  0.1402
  H  H261  1  0.018200  0.218400  0.128400  1.0  0.1499
  H  H262  1  0.801900  0.480800  0.892500  1.0  0.1514
  H  H263  1  0.121800  0.976200  0.372200  1.0  0.1343
  H  H264  1  0.271700  0.149200  0.640900  1.0  0.1433
  H  H265  1  0.712800  0.089900  0.696700  1.0  0.1473
  H  H266  1  0.105200  0.603600  0.891000  1.0  0.1482
  H  H267  1  0.473000  0.104100  0.350500  1.0  0.1264
  H  H268  1  0.410000  0.110200  0.628400  1.0  0.1477
  H  H269  1  0.122300  0.129100  0.268800  1.0  0.1383
  H  H270  1  0.787200  0.483900  0.377100  1.0  0.1471
  H  H271  1  0.109400  0.016100  0.697100  1.0  0.1277
  H  H272  1  0.393200  0.589900  0.877100  1.0  0.1457
  H  H273  1  0.109900  0.610700  0.429600  1.0  0.1317
  H  H274  1  0.689400  0.691900  0.570100  1.0  0.14
  H  H275  1  0.871600  0.590000  0.389800  1.0  0.1478
  H  H276  1  0.287200  0.910100  0.303300  1.0  0.1482
  H  H277  1  0.377500  0.228300  0.369200  1.0  0.1429
  H  H278  1  0.410400  0.908300  0.606700  1.0  0.1334
  H  H279  1  0.621800  0.119300  0.929900  1.0  0.1404
  H  H280  1  0.821100  0.301900  0.909400  1.0  0.1513
  H  H281  1  0.197100  0.109400  0.516100  1.0  0.1287
  H  H282  1  0.200200  0.090000  0.218400  1.0  0.1476
  H  H283  1  0.714200  0.001600  0.105200  1.0  0.1493
  H  H284  1  0.139700  0.370900  0.493200  1.0  0.1378
  H  H285  1  0.877700  0.870900  0.731200  1.0  0.1374
  H  H286  1  0.627800  0.104000  0.249600  1.0  0.1342
  H  H287  1  0.196300  0.606700  0.698400  1.0  0.1356
  H  H288  1  0.731200  0.360300  0.353500  1.0  0.1387
  H  H289  1  0.853500  0.731200  0.860300  1.0  0.1377
  H  H290  1  0.808100  0.997500  0.378200  1.0  0.1403
  H  H291  1  0.189400  0.619300  0.997500  1.0  0.1406
  H  H292  1  0.372200  0.896000  0.750400  1.0  0.1336
  H  H293  1  0.396400  0.609000  0.394800  1.0  0.148
  H  H294  1  0.523800  0.145600  0.896000  1.0  0.1329
  H  H295  1  0.008300  0.630800  0.859100  1.0  0.1424
  H  H296  1  0.090600  0.892500  0.411700  1.0  0.1514
  H  H297  1  0.392500  0.801900  0.980800  1.0  0.1513
  H  H298  1  0.991700  0.369200  0.140900  1.0  0.1426
  H  H299  1  0.110700  0.500800  0.681100  1.0  0.1316
  H  H300  1  0.212800  0.516100  0.622900  1.0  0.147
  H  H301  1  0.353500  0.493200  0.122300  1.0  0.1388
  H  H302  1  0.609900  0.180300  0.499200  1.0  0.1332
  H  H303  1  0.999200  0.609900  0.680300  1.0  0.1313
  H  H304  1  0.518200  0.389800  0.799800  1.0  0.1485
  H  H305  1  0.130800  0.622500  0.271700  1.0  0.1435
  H  H306  1  0.998400  0.394800  0.785800  1.0  0.1486
  H  H307  1  0.697100  0.181000  0.087700  1.0  0.1268
  H  H308  1  0.281600  0.799800  0.410000  1.0  0.1487
  H  H309  1  0.321100  0.411700  0.519200  1.0  0.1522
  H  H310  1  0.228300  0.869200  0.877500  1.0  0.1433
  H  H311  1  0.499200  0.818900  0.389300  1.0  0.1317
  H  H312  1  0.854400  0.604000  0.976200  1.0  0.1349
  H  H313  1  0.590600  0.178900  0.198100  1.0  0.1525
  H  H314  1  0.606800  0.410100  0.122900  1.0  0.146
  H  H315  1  0.604100  0.631100  0.253600  1.0  0.1259
  H  H316  1  0.877500  0.508300  0.149200  1.0  0.143
  H  H317  1  0.869200  0.377500  0.728300  1.0  0.1432
  H  H318  1  0.718400  0.200200  0.590000  1.0  0.1488
  H  H319  1  0.527000  0.895900  0.649500  1.0  0.1263
  H  H320  1  0.429600  0.318900  0.819700  1.0  0.1324
  H  H321  1  0.196700  0.712800  0.589900  1.0  0.1458
  H  H322  1  0.104100  0.850500  0.973000  1.0  0.1264
  H  H323  1  0.246400  0.395900  0.868900  1.0  0.1258
  H  H324  1  0.319700  0.429600  0.818900  1.0  0.133
  H  H325  1  0.145600  0.396000  0.023800  1.0  0.134
  H  H326  1  0.607500  0.198100  0.019200  1.0  0.1509
  H  H327  1  0.481800  0.610200  0.200200  1.0  0.1489
  H  H328  1  0.696700  0.106800  0.483900  1.0  0.1459
  H  H329  1  0.377500  0.131100  0.527000  1.0  0.1262
  H  H330  1  0.498400  0.712600  0.603600  1.0  0.1489
  H  H331  1  0.371600  0.981800  0.281600  1.0  0.1494
  H  H332  1  0.622500  0.868900  0.473000  1.0  0.1263
  H  H333  1  0.091700  0.893300  0.089600  1.0  0.1345
  H  H334  1  0.301900  0.409400  0.321100  1.0  0.1515
  H  H335  1  0.389300  0.070400  0.390100  1.0  0.133
  H  H336  1  0.700200  0.481800  0.110200  1.0  0.1503
  H  H337  1  0.268800  0.639700  0.646500  1.0  0.1382
  H  H338  1  0.896400  0.501600  0.787400  1.0  0.148
  H  H339  1  0.640900  0.991700  0.869200  1.0  0.1431
  H  H340  1  0.380700  0.502500  0.310600  1.0  0.1398
  H  H341  1  0.410100  0.622900  0.106800  1.0  0.1471
  H  H342  1  0.107500  0.088300  0.409400  1.0  0.1515
  H  H343  1  0.749600  0.627800  0.604000  1.0  0.1345
  H  H344  1  0.122500  0.491700  0.850800  1.0  0.1435
  H  H345  1  0.889300  0.499200  0.318900  1.0  0.1326
  H  H346  1  0.983900  0.802900  0.390600  1.0  0.1272
  H  H347  1  0.750400  0.354400  0.878200  1.0  0.1337
  H  H348  1  0.301600  0.408300  0.997900  1.0  0.1343
  H  H349  1  0.768800  0.122300  0.629100  1.0  0.1383
  H  H350  1  0.412300  0.302900  0.319000  1.0  0.1288
  H  H351  1  0.106700  0.410400  0.408300  1.0  0.1354
  H  H352  1  0.519200  0.607500  0.698100  1.0  0.1506
  H  H353  1  0.997900  0.089600  0.196300  1.0  0.1342
  H  H354  1  0.016100  0.197100  0.609400  1.0  0.1273
  H  H355  1  0.681000  0.483900  0.593300  1.0  0.1277
  H  H356  1  0.681100  0.680300  0.070400  1.0  0.1313
  H  H357  1  0.140900  0.271700  0.649200  1.0  0.1434
  H  H358  1  0.908300  0.106700  0.910400  1.0  0.1347
  H  H359  1  0.491700  0.350800  0.622500  1.0  0.1428
  H  H360  1  0.218400  0.628400  0.518200  1.0  0.1483
  H  H361  1  0.609000  0.894800  0.896400  1.0  0.1476
  H  H362  1  0.516100  0.122900  0.712800  1.0  0.1461
  H  H363  1  0.771700  0.130800  0.122500  1.0  0.1433
  H  H364  1  0.609400  0.912300  0.093300  1.0  0.1288
  H  H365  1  0.027000  0.377500  0.631100  1.0  0.1253
  H  H366  1  0.231200  0.877700  0.370900  1.0  0.1379
  H  H367  1  0.502500  0.810600  0.880700  1.0  0.1395
  H  H368  1  0.850800  0.859100  0.228300  1.0  0.1433
  H  H369  1  0.649200  0.877500  0.008300  1.0  0.1428
  H  H370  1  0.389800  0.299800  0.018200  1.0  0.1485
  H  H371  1  0.892500  0.911700  0.590600  1.0  0.1514
  H  H372  1  0.180300  0.999200  0.109900  1.0  0.1326
  H  H373  1  0.378200  0.750400  0.854400  1.0  0.1352
  H  H374  1  0.606700  0.198400  0.696300  1.0  0.134
  H  H375  1  0.980800  0.678900  0.088300  1.0  0.1516
  H  H376  1  0.909400  0.107500  0.588300  1.0  0.1519
  H  H377  1  0.997500  0.878200  0.308100  1.0  0.1404
  H  H378  1  0.819700  0.000800  0.890100  1.0  0.1317
  H  H379  1  0.318900  0.319700  0.929600  1.0  0.1315
  H  H380  1  0.146500  0.268800  0.139700  1.0  0.1395
  H  H381  1  0.191900  0.002500  0.621800  1.0  0.1406
  H  H382  1  0.319000  0.516100  0.406700  1.0  0.1279
  H  H383  1  0.391000  0.105200  0.103600  1.0  0.1482
  H  H384  1  0.377100  0.393200  0.089900  1.0  0.146
  C  C385  1  0.545500  0.245500  0.103800  1.0  0.7902
  C  C386  1  0.641100  0.022000  0.180700  1.0  0.1591
  C  C387  1  0.341300  0.460400  0.319300  1.0  0.1598
  C  C388  1  0.461600  0.301700  0.359500  1.0  0.0702
  C  C389  1  0.060200  0.340800  0.586800  1.0  0.7204
  C  C390  1  0.094400  0.876200  0.935400  1.0  -0.1053
  C  C391  1  0.600800  0.349100  0.967900  1.0  -0.0636
  C  C392  1  0.058300  0.200000  0.454500  1.0  0.7883
  C  C393  1  0.876200  0.435400  0.594400  1.0  -0.1052
  C  C394  1  0.457900  0.184600  0.545300  1.0  0.7341
  C  C395  1  0.877300  0.924800  0.264100  1.0  -0.0967
  C  C396  1  0.587700  0.842400  0.028100  1.0  0.7186
  C  C397  1  0.558300  0.103800  0.858300  1.0  0.7918
  C  C398  1  0.051100  0.398900  0.633800  1.0  -0.0164
  C  C399  1  0.330000  0.937100  0.803300  1.0  -0.0727
  C  C400  1  0.218400  0.175900  0.761700  1.0  0.628
  C  C401  1  0.091100  0.955300  0.173200  1.0  -0.0513
  C  C402  1  0.387400  0.632200  0.444800  1.0  -0.0988
  C  C403  1  0.453100  0.797400  0.024500  1.0  0.5691
  C  C404  1  0.543300  0.761700  0.585800  1.0  0.6256
  C  C405  1  0.887400  0.442600  0.755200  1.0  -0.0995
  C  C406  1  0.780600  0.439800  0.526600  1.0  0.7214
  C  C407  1  0.405600  0.571900  0.630100  1.0  -0.1524
  C  C408  1  0.866200  0.948900  0.101100  1.0  -0.017
  C  C409  1  0.251700  0.618800  0.650900  1.0  -0.0622
  C  C410  1  0.641700  0.104200  0.441900  1.0  0.0891
  C  C411  1  0.539600  0.180700  0.158700  1.0  0.1596
  C  C412  1  0.133800  0.437100  0.107100  1.0  -0.0717
  C  C413  1  0.945900  0.076300  0.833200  1.0  -0.0961
  C  C414  1  0.546800  0.441500  0.177100  1.0  -0.095
  C  C415  1  0.400100  0.062900  0.371400  1.0  0.0039
  C  C416  1  0.798200  0.917400  0.807200  1.0  -0.0623
  C  C417  1  0.399200  0.650900  0.032100  1.0  -0.0629
  C  C418  1  0.261700  0.218400  0.675900  1.0  0.6255
  C  C419  1  0.598400  0.181000  0.989800  1.0  -0.0341
  C  C420  1  0.575200  0.952500  0.839300  1.0  -0.0974
  C  C421  1  0.457500  0.281600  0.543300  1.0  0.6254
  C  C422  1  0.300200  0.962500  0.358300  1.0  0.0963
  C  C423  1  0.954700  0.542100  0.315400  1.0  0.7319
  C  C424  1  0.815400  0.954700  0.042100  1.0  0.7278
  C  C425  1  0.866200  0.562900  0.892900  1.0  -0.0724
  C  C426  1  0.369900  0.441800  0.275500  1.0  -0.1541
  C  C427  1  0.297400  0.472700  0.043700  1.0  0.7119
  C  C428  1  0.369700  0.822900  0.264400  1.0  -0.0954
  C  C429  1  0.559200  0.841000  0.435400  1.0  -0.1048
  C  C430  1  0.049600  0.132300  0.398900  1.0  -0.0601
  C  C431  1  0.158700  0.478000  0.119100  1.0  0.1603
  C  C432  1  0.062900  0.871400  0.900100  1.0  0.0053
  C  C433  1  0.652200  0.234900  0.601100  1.0  -0.0177
  C  C434  1  0.243100  0.576300  0.630400  1.0  -0.0957
  C  C435  1  0.616700  0.398700  0.589600  1.0  -0.0544
  C  C436  1  0.580800  0.708900  0.663100  1.0  -0.0366
  C  C437  1  0.973400  0.219400  0.060200  1.0  0.7202
  C  C438  1  0.650700  0.601100  0.733400  1.0  -0.0623
  C  C439  1  0.301700  0.859500  0.961600  1.0  0.0684
  C  C440  1  0.633800  0.526700  0.696700  1.0  -0.0738
  C  C441  1  0.435400  0.094400  0.376200  1.0  -0.105
  C  C442  1  0.424800  0.047500  0.160700  1.0  -0.097
  C  C443  1  0.532100  0.399200  0.150900  1.0  -0.063
  C  C444  1  0.473400  0.413200  0.754000  1.0  0.7235
  C  C445  1  0.939800  0.659200  0.413200  1.0  0.7215
  C  C446  1  0.944800  0.387400  0.132200  1.0  -0.0992
  C  C447  1  0.892900  0.830000  0.526700  1.0  -0.0755
  C  C448  1  0.761700  0.085800  0.043300  1.0  0.6272
  C  C449  1  0.928600  0.155700  0.453100  1.0  0.5693
  C  C450  1  0.246300  0.675300  0.702600  1.0  0.7132
  C  C451  1  0.245500  0.603800  0.045500  1.0  0.79
  C  C452  1  0.417300  0.366200  0.765100  1.0  -0.017
  C  C453  1  0.801200  0.240500  0.341700  1.0  0.7269
  C  C454  1  0.101200  0.259500  0.060700  1.0  0.7256
  C  C455  1  0.412300  0.157600  0.971900  1.0  0.7192
  C  C456  1  0.026600  0.780600  0.939800  1.0  0.7201
  C  C457  1  0.603800  0.545500  0.745500  1.0  0.792
  C  C458  1  0.366200  0.265100  0.917300  1.0  -0.0167
  C  C459  1  0.910400  0.383300  0.101300  1.0  -0.0547
  C  C460  1  0.417500  0.527300  0.818600  1.0  -0.0498
  C  C461  1  0.160500  0.620400  0.479900  1.0  0.1588
  C  C462  1  0.628600  0.191500  0.528700  1.0  0.0042
  C  C463  1  0.291300  0.972700  0.390200  1.0  -0.0496
  C  C464  1  0.265100  0.417300  0.866200  1.0  -0.0188
  C  C465  1  0.738300  0.781600  0.324100  1.0  0.6254
  C  C466  1  0.456700  0.238300  0.414200  1.0  0.6275
  C  C467  1  0.367700  0.917300  0.766600  1.0  -0.0621
  C  C468  1  0.557800  0.897900  0.859500  1.0  0.0691
  C  C469  1  0.867700  0.101100  0.450400  1.0  -0.0628
  C  C470  1  0.809100  0.898700  0.282000  1.0  -0.0527
  C  C471  1  0.396200  0.454500  0.254500  1.0  0.792
  C  C472  1  0.104200  0.941900  0.141700  1.0  0.0893
  C  C473  1  0.423700  0.869600  0.256900  1.0  -0.096
  C  C474  1  0.119200  0.110200  0.917400  1.0  -0.0639
  C  C475  1  0.657600  0.745300  0.685700  1.0  0.7172
  C  C476  1  0.101100  0.652200  0.734900  1.0  -0.0171
  C  C477  1  0.582700  0.633800  0.234900  1.0  -0.0169
  C  C478  1  0.900100  0.528700  0.337200  1.0  0.0056
  C  C479  1  0.619400  0.967100  0.865700  1.0  0.0268
  C  C480  1  0.244800  0.187400  0.632200  1.0  -0.1027
  C  C481  1  0.666300  0.094400  0.224500  1.0  -0.1524
  C  C482  1  0.632300  0.082700  0.233400  1.0  -0.0611
  C  C483  1  0.582600  0.191200  0.181000  1.0  -0.0334
  C  C484  1  0.027100  0.410400  0.809100  1.0  -0.0538
  C  C485  1  0.082700  0.847800  0.948900  1.0  -0.0163
  C  C486  1  0.441700  0.896200  0.141700  1.0  0.7929
  C  C487  1  0.601300  0.910400  0.883300  1.0  -0.0546
  C  C488  1  0.753700  0.134300  0.101400  1.0  0.0267
  C  C489  1  0.950400  0.867700  0.601100  1.0  -0.0625
  C  C490  1  0.274000  0.459700  0.888500  1.0  -0.0978
  C  C491  1  0.675900  0.957500  0.914200  1.0  0.6267
  C  C492  1  0.322900  0.453200  0.058500  1.0  -0.0954
  C  C493  1  0.955300  0.673200  0.591100  1.0  -0.0516
  C  C494  1  0.971300  0.371400  0.308500  1.0  0.0039
  C  C495  1  0.410400  0.309100  0.527100  1.0  -0.0544
  C  C496  1  0.280600  0.754000  0.340800  1.0  0.7223
  C  C497  1  0.042100  0.587400  0.726700  1.0  0.7372
  C  C498  1  0.340100  0.038400  0.897900  1.0  0.0692
  C  C499  1  0.192800  0.610200  0.491000  1.0  -0.0645
  C  C500  1  0.055200  0.612600  0.867800  1.0  -0.0991
  C  C501  1  0.337200  0.308500  0.937100  1.0  0.0037
  C  C502  1  0.440800  0.159000  0.564600  1.0  -0.1047
  C  C503  1  0.967100  0.365700  0.119400  1.0  0.027
  C  C504  1  0.452500  0.377300  0.613200  1.0  -0.0966
  C  C505  1  0.459500  0.658300  0.898800  1.0  0.7241
  C  C506  1  0.187400  0.132200  0.744800  1.0  -0.1029
  C  C507  1  0.735600  0.058500  0.605300  1.0  -0.0932
  C  C508  1  0.180600  0.040100  0.160500  1.0  0.1504
  C  C509  1  0.082600  0.901600  0.391400  1.0  -0.0343
  C  C510  1  0.917300  0.152200  0.051100  1.0  -0.0163
  C  C511  1  0.594400  0.659000  0.218200  1.0  -0.1053
  C  C512  1  0.753700  0.324700  0.297400  1.0  0.713
  C  C513  1  0.113200  0.452500  0.877300  1.0  -0.0971
  C  C514  1  0.781600  0.824100  0.238300  1.0  0.6274
  C  C515  1  0.300000  0.858300  0.754500  1.0  0.7892
  C  C516  1  0.057400  0.444800  0.812600  1.0  -0.1019
  C  C517  1  0.245300  0.087700  0.559600  1.0  0.7184
  C  C518  1  0.658300  0.398800  0.959500  1.0  0.7238
  C  C519  1  0.869600  0.756900  0.923700  1.0  -0.0945
  C  C520  1  0.159200  0.719400  0.746000  1.0  0.7194
  C  C521  1  0.208900  0.128100  0.545800  1.0  -0.0386
  C  C522  1  0.858900  0.039600  0.380900  1.0  0.1585
  C  C523  1  0.413200  0.254000  0.973400  1.0  0.7191
  C  C524  1  0.082100  0.173200  0.217900  1.0  -0.0507
  C  C525  1  0.611500  0.726000  0.040300  1.0  -0.0971
  C  C526  1  0.773300  0.957900  0.912600  1.0  0.7392
  C  C527  1  0.607000  0.041700  0.219100  1.0  -0.0067
  C  C528  1  0.746300  0.847700  0.380600  1.0  0.0281
  C  C529  1  0.255200  0.887400  0.942600  1.0  -0.1004
  C  C530  1  0.224500  0.630100  0.058200  1.0  -0.1525
  C  C531  1  0.234900  0.101100  0.152200  1.0  -0.0184
  C  C532  1  0.130100  0.405600  0.071900  1.0  -0.1525
  C  C533  1  0.132200  0.244800  0.687400  1.0  -0.1019
  C  C534  1  0.952500  0.339300  0.075200  1.0  -0.0967
  C  C535  1  0.545800  0.917700  0.836900  1.0  -0.0379
  C  C536  1  0.808500  0.971300  0.871400  1.0  0.0036
  C  C537  1  0.472900  0.282000  0.383300  1.0  -0.048
  C  C538  1  0.119400  0.253700  0.652300  1.0  0.0278
  C  C539  1  0.632200  0.944800  0.887400  1.0  -0.0988
  C  C540  1  0.913200  0.939800  0.159200  1.0  0.7222
  C  C541  1  0.099900  0.471300  0.662800  1.0  0.0033
  C  C542  1  0.024500  0.727100  0.071400  1.0  0.5695
  C  C543  1  0.891400  0.082600  0.401600  1.0  -0.036
  C  C544  1  0.607100  0.133800  0.937100  1.0  -0.0731
  C  C545  1  0.111500  0.071200  0.885500  1.0  -0.0973
  C  C546  1  0.038400  0.397900  0.840100  1.0  0.0669
  C  C547  1  0.058200  0.928100  0.333700  1.0  -0.1548
  C  C548  1  0.395800  0.537500  0.837700  1.0  0.0955
  C  C549  1  0.175900  0.261700  0.718400  1.0  0.626
  C  C550  1  0.322600  0.387900  0.280900  1.0  -0.0079
  C  C551  1  0.032900  0.634300  0.880600  1.0  0.0255
  C  C552  1  0.545300  0.860700  0.587400  1.0  0.7292
  C  C553  1  0.961600  0.602100  0.159900  1.0  0.0677
  C  C554  1  0.605300  0.046800  0.369700  1.0  -0.0995
  C  C555  1  0.094400  0.724500  0.166300  1.0  -0.1527
  C  C556  1  0.318600  0.417500  0.027300  1.0  -0.0526
  C  C557  1  0.133800  0.051100  0.898900  1.0  -0.0151
  C  C558  1  0.177100  0.235600  0.130300  1.0  -0.0948
  C  C559  1  0.054100  0.923700  0.166800  1.0  -0.095
  C  C560  1  0.388500  0.274000  0.959700  1.0  -0.0957
  C  C561  1  0.972700  0.890200  0.791300  1.0  -0.0481
  C  C562  1  0.623800  0.218200  0.559200  1.0  -0.1049
  C  C563  1  0.939300  0.698800  0.540500  1.0  0.7255
  C  C564  1  0.082700  0.733400  0.132300  1.0  -0.0616
  C  C565  1  0.782000  0.809100  0.398700  1.0  -0.0503
  C  C566  1  0.040500  0.939300  0.198800  1.0  0.7284
  C  C567  1  0.858300  0.300200  0.462500  1.0  0.0898
  C  C568  1  0.377300  0.113200  0.952500  1.0  -0.0978
  C  C569  1  0.824100  0.738300  0.281600  1.0  0.6265
  C  C570  1  0.819000  0.510200  0.901600  1.0  -0.0349
  C  C571  1  0.957500  0.414200  0.175900  1.0  0.6294
  C  C572  1  0.359500  0.557800  0.397900  1.0  0.0692
  C  C573  1  0.934700  0.893000  0.612100  1.0  -0.0071
  C  C574  1  0.379600  0.020100  0.339500  1.0  0.152
  C  C575  1  0.727100  0.571400  0.524500  1.0  0.5684
  C  C576  1  0.297400  0.344300  0.272900  1.0  0.5691
  C  C577  1  0.555200  0.687400  0.442600  1.0  -0.1023
  C  C578  1  0.347700  0.101400  0.967100  1.0  0.0253
  C  C579  1  0.158300  0.198800  0.259500  1.0  0.7248
  C  C580  1  0.253700  0.152300  0.619400  1.0  0.0273
  C  C581  1  0.764100  0.877300  0.424800  1.0  -0.0972
  C  C582  1  0.281800  0.405600  0.841000  1.0  -0.1045
  C  C583  1  0.010200  0.691200  0.108600  1.0  -0.0332
  C  C584  1  0.273300  0.360700  0.815400  1.0  0.7399
  C  C585  1  0.159900  0.057800  0.698300  1.0  0.0734
  C  C586  1  0.376200  0.781800  0.440800  1.0  -0.1048
  C  C587  1  0.898900  0.049600  0.632300  1.0  -0.0603
  C  C588  1  0.360700  0.315400  0.773300  1.0  0.739
  C  C589  1  0.326800  0.908900  0.544700  1.0  -0.0496
  C  C590  1  0.202600  0.475500  0.046900  1.0  0.5696
  C  C591  1  0.130300  0.394700  0.453200  1.0  -0.1004
  C  C592  1  0.898600  0.532900  0.152300  1.0  0.0267
  C  C593  1  0.677100  0.546800  0.941500  1.0  -0.0955
  C  C594  1  0.246300  0.865700  0.898600  1.0  0.0282
  C  C595  1  0.417400  0.119200  0.610200  1.0  -0.0653
  C  C596  1  0.812600  0.867800  0.255200  1.0  -0.1009
  C  C597  1  0.412600  0.773300  0.457900  1.0  0.7351
  C  C598  1  0.880800  0.889800  0.082600  1.0  -0.0634
  C  C599  1  0.847700  0.880600  0.246300  1.0  0.0273
  C  C600  1  0.538400  0.698300  0.640500  1.0  0.07
  C  C601  1  0.408900  0.582100  0.864200  1.0  -0.0518
  C  C602  1  0.140500  0.120400  0.959900  1.0  0.1599
  C  C603  1  0.528700  0.837200  0.400100  1.0  0.0051
  C  C604  1  0.312600  0.057400  0.944800  1.0  -0.1013
  C  C605  1  0.162800  0.099900  0.971300  1.0  0.0046
  C  C606  1  0.391400  0.989800  0.808800  1.0  -0.0344
  C  C607  1  0.202600  0.246300  0.175300  1.0  0.7123
  C  C608  1  0.887900  0.065300  0.607000  1.0  -0.0074
  C  C609  1  0.371900  0.080800  0.917700  1.0  -0.0387
  C  C610  1  0.781800  0.940800  0.876200  1.0  -0.1044
  C  C611  1  0.022000  0.680700  0.141100  1.0  0.1589
  C  C612  1  0.887300  0.833200  0.756900  1.0  -0.0954
  C  C613  1  0.027300  0.824700  0.071000  1.0  0.713
  C  C614  1  0.841300  0.522000  0.880900  1.0  0.1603
  C  C615  1  0.339500  0.819400  0.459900  1.0  0.1521
  C  C616  1  0.586800  0.746000  0.026600  1.0  0.719
  C  C617  1  0.719400  0.246000  0.659200  1.0  0.7215
  C  C618  1  0.152200  0.551100  0.417300  1.0  -0.017
  C  C619  1  0.814300  0.342400  0.754700  1.0  0.7175
  C  C620  1  0.670000  0.062900  0.196700  1.0  -0.0731
  C  C621  1  0.128100  0.045800  0.708900  1.0  -0.0383
  C  C622  1  0.462500  0.662300  0.104200  1.0  0.093
  C  C623  1  0.046800  0.869700  0.105300  1.0  -0.0997
  C  C624  1  0.341700  0.601200  0.040500  1.0  0.7239
  C  C625  1  0.132300  0.898900  0.549600  1.0  -0.0634
  C  C626  1  0.254700  0.814300  0.842400  1.0  0.7187
  C  C627  1  0.045500  0.941700  0.300000  1.0  0.7929
  C  C628  1  0.394700  0.953200  0.630300  1.0  -0.0998
  C  C629  1  0.226700  0.042100  0.087400  1.0  0.7402
  C  C630  1  0.956300  0.929000  0.753700  1.0  0.7134
  C  C631  1  0.166800  0.743100  0.612700  1.0  -0.0952
  C  C632  1  0.840100  0.942200  0.301700  1.0  0.0721
  C  C633  1  0.754500  0.396200  0.954500  1.0  0.7899
  C  C634  1  0.119100  0.141100  0.460400  1.0  0.1608
  C  C635  1  0.200000  0.954500  0.558300  1.0  0.7917
  C  C636  1  0.601200  0.540500  0.841700  1.0  0.7259
  C  C637  1  0.254500  0.300000  0.358300  1.0  0.7885
  C  C638  1  0.398900  0.133800  0.551100  1.0  -0.0165
  C  C639  1  0.185700  0.571200  0.459700  1.0  -0.097
  C  C640  1  0.562900  0.392900  0.366200  1.0  -0.0736
  C  C641  1  0.919200  0.582300  0.128100  1.0  -0.0393
  C  C642  1  0.282000  0.883300  0.972900  1.0  -0.0493
  C  C643  1  0.941900  0.641700  0.604200  1.0  0.095
  C  C644  1  0.039600  0.880900  0.358900  1.0  0.1577
  C  C645  1  0.660500  0.180600  0.540100  1.0  0.1511
  C  C646  1  0.908900  0.044700  0.826800  1.0  -0.0491
  C  C647  1  0.441800  0.775500  0.869900  1.0  -0.1539
  C  C648  1  0.718000  0.116700  0.027100  1.0  -0.0486
  C  C649  1  0.745500  0.700000  0.641700  1.0  0.79
  C  C650  1  0.524500  0.453100  0.297400  1.0  0.5684
  C  C651  1  0.641700  0.441700  0.396200  1.0  0.7903
  C  C652  1  0.184600  0.045300  0.957900  1.0  0.7291
  C  C653  1  0.680600  0.520100  0.140500  1.0  0.1601
  C  C654  1  0.082500  0.901100  0.109800  1.0  -0.0524
  C  C655  1  0.191500  0.028700  0.128600  1.0  0.0059
  C  C656  1  0.037500  0.141700  0.199800  1.0  0.0893
  C  C657  1  0.141700  0.699800  0.537500  1.0  0.0926
  C  C658  1  0.898800  0.740500  0.939300  1.0  0.7257
  C  C659  1  0.898900  0.347800  0.265100  1.0  -0.0178
  C  C660  1  0.040300  0.814300  0.928800  1.0  -0.0971
  C  C661  1  0.774000  0.885500  0.814300  1.0  -0.097
  C  C662  1  0.417300  0.549600  0.650700  1.0  -0.0617
  C  C663  1  0.630400  0.554100  0.887300  1.0  -0.0968
  C  C664  1  0.219100  0.677400  0.112100  1.0  -0.0087
  C  C665  1  0.634300  0.380600  0.532900  1.0  0.0272
  C  C666  1  0.937100  0.303300  0.830000  1.0  -0.0728
  C  C667  1  0.367800  0.055200  0.112600  1.0  -0.0989
  C  C668  1  0.324700  0.797400  0.253700  1.0  0.7143
  C  C669  1  0.912300  0.940400  0.254700  1.0  0.7186
  C  C670  1  0.201800  0.082600  0.192800  1.0  -0.066
  C  C671  1  0.041700  0.719100  0.107000  1.0  -0.0086
  C  C672  1  0.571000  0.027300  0.324700  1.0  0.7135
  C  C673  1  0.248300  0.899200  0.367100  1.0  -0.0645
  C  C674  1  0.282100  0.917900  0.326800  1.0  -0.0489
  C  C675  1  0.454700  0.139300  0.412600  1.0  0.7298
  C  C676  1  0.871400  0.400100  0.562900  1.0  0.0041
  C  C677  1  0.123800  0.564600  0.405600  1.0  -0.1051
  C  C678  1  0.139300  0.912600  0.954700  1.0  0.7305
  C  C679  1  0.839300  0.386800  0.764100  1.0  -0.0971
  C  C680  1  0.369600  0.445900  0.112700  1.0  -0.095
  C  C681  1  0.365700  0.619400  0.467100  1.0  0.0249
  C  C682  1  0.559600  0.971900  0.814300  1.0  0.7177
  C  C683  1  0.701800  0.509000  0.119200  1.0  -0.0642
  C  C684  1  0.208700  0.598900  0.681400  1.0  -0.0508
  C  C685  1  0.890200  0.291300  0.472700  1.0  -0.0501
  C  C686  1  0.235900  0.122700  0.575200  1.0  -0.0969
  C  C687  1  0.059200  0.623800  0.718200  1.0  -0.1055
  C  C688  1  0.571900  0.130100  0.905600  1.0  -0.1546
  C  C689  1  0.869900  0.594400  0.928100  1.0  -0.1523
  C  C690  1  0.347800  0.765100  0.398900  1.0  -0.018
  C  C691  1  0.455300  0.864200  0.282100  1.0  -0.0513
  C  C692  1  0.456300  0.702600  0.027300  1.0  0.7146
  C  C693  1  0.199800  0.558100  0.662300  1.0  0.0903
  C  C694  1  0.254000  0.473400  0.913200  1.0  0.7225
  C  C695  1  0.150700  0.417300  0.049600  1.0  -0.0632
  C  C696  1  0.807200  0.389800  0.509000  1.0  -0.0642
  C  C697  1  0.163100  0.580800  0.208900  1.0  -0.0382
  C  C698  1  0.047500  0.660700  0.924800  1.0  -0.0967
  C  C699  1  0.390200  0.917500  0.598900  1.0  -0.0446
  C  C700  1  0.746300  0.043700  0.571000  1.0  0.7146
  C  C701  1  0.844300  0.046900  0.571400  1.0  0.5682
  C  C702  1  0.880900  0.858900  0.539600  1.0  0.1613
  C  C703  1  0.917700  0.336900  0.045800  1.0  -0.0378
  C  C704  1  0.522000  0.380900  0.341300  1.0  0.161
  C  C705  1  0.101400  0.467100  0.847700  1.0  0.0263
  C  C706  1  0.264400  0.941500  0.394700  1.0  -0.0944
  C  C707  1  0.291100  0.836900  0.919200  1.0  -0.0377
  C  C708  1  0.960400  0.119100  0.641100  1.0  0.1605
  C  C709  1  0.791100  0.871900  0.454200  1.0  -0.0381
  C  C710  1  0.437100  0.607100  0.633800  1.0  -0.0727
  C  C711  1  0.764400  0.369700  0.322900  1.0  -0.0949
  C  C712  1  0.359500  0.319400  0.979900  1.0  0.1504
  C  C713  1  0.098900  0.390200  0.417500  1.0  -0.049
  C  C714  1  0.972700  0.175300  0.929000  1.0  0.7131
  C  C715  1  0.745300  0.185700  0.157600  1.0  0.7177
  C  C716  1  0.450400  0.849300  0.082700  1.0  -0.0615
  C  C717  1  0.337700  0.395800  0.037500  1.0  0.0888
  C  C718  1  0.928100  0.833700  0.558200  1.0  -0.1528
  C  C719  1  0.367100  0.967900  0.618800  1.0  -0.0652
  C  C720  1  0.833200  0.256900  0.387300  1.0  -0.096
  C  C721  1  0.632900  0.032100  0.381200  1.0  -0.0618
  C  C722  1  0.191200  0.681000  0.082600  1.0  -0.0331
  C  C723  1  0.386800  0.264100  0.339300  1.0  -0.0971
  C  C724  1  0.735900  0.160700  0.113200  1.0  -0.0981
  C  C725  1  0.708900  0.163100  0.080800  1.0  -0.0388
  C  C726  1  0.917900  0.826800  0.782100  1.0  -0.0494
  C  C727  1  0.901100  0.609800  0.582500  1.0  -0.0492
  C  C728  1  0.797400  0.524500  0.953100  1.0  0.5704
  C  C729  1  0.582700  0.450400  0.349300  1.0  -0.0606
  C  C730  1  0.542500  0.718400  0.456700  1.0  0.6254
  C  C731  1  0.107100  0.170000  0.473300  1.0  -0.0741
  C  C732  1  0.541700  0.434700  0.322600  1.0  -0.0076
  C  C733  1  0.198300  0.159900  0.557800  1.0  0.075
  C  C734  1  0.405600  0.341000  0.781800  1.0  -0.1052
  C  C735  1  0.898700  0.782000  0.309100  1.0  -0.0522
  C  C736  1  0.604200  0.462500  0.162300  1.0  0.0894
  C  C737  1  0.460400  0.819300  0.841300  1.0  0.161
  C  C738  1  0.702600  0.527300  0.956300  1.0  0.712
  C  C739  1  0.340800  0.086800  0.560200  1.0  0.7231
  C  C740  1  0.948900  0.601100  0.366200  1.0  -0.0195
  C  C741  1  0.264100  0.839300  0.886800  1.0  -0.0985
  C  C742  1  0.640500  0.442200  0.602100  1.0  0.0682
  C  C743  1  0.560700  0.101200  0.759500  1.0  0.7232
  C  C744  1  0.509000  0.619200  0.201800  1.0  -0.0632
  C  C745  1  0.428800  0.040300  0.314300  1.0  -0.0975
  C  C746  1  0.923700  0.666800  0.554100  1.0  -0.095
  C  C747  1  0.619100  0.158700  0.978000  1.0  0.1568
  C  C748  1  0.303300  0.330000  0.437100  1.0  -0.0737
  C  C749  1  0.685700  0.440400  0.528100  1.0  0.7195
  C  C750  1  0.558100  0.162300  0.699800  1.0  0.0895
  C  C751  1  0.912600  0.454700  0.639300  1.0  0.7288
  C  C752  1  0.319400  0.479900  0.859500  1.0  0.1602
  C  C753  1  0.520100  0.640500  0.180600  1.0  0.1524
  C  C754  1  0.833700  0.058200  0.428100  1.0  -0.1537
  C  C755  1  0.082300  0.663100  0.954200  1.0  -0.0387
  C  C756  1  0.822900  0.764400  0.869700  1.0  -0.0934
  C  C757  1  0.905600  0.275500  0.833700  1.0  -0.153
  C  C758  1  0.181400  0.208700  0.098900  1.0  -0.0488
  C  C759  1  0.659000  0.718200  0.094400  1.0  -0.1036
  C  C760  1  0.681000  0.582600  0.691200  1.0  -0.0353
  C  C761  1  0.675300  0.202600  0.746300  1.0  0.7131
  C  C762  1  0.967900  0.118800  0.867100  1.0  -0.0623
  C  C763  1  0.979900  0.160500  0.120400  1.0  0.1606
  C  C764  1  0.319300  0.358900  0.478000  1.0  0.1565
  C  C765  1  0.527300  0.318600  0.917500  1.0  -0.0488
  C  C766  1  0.028100  0.685700  0.940400  1.0  0.7181
  C  C767  1  0.118800  0.367100  0.467900  1.0  -0.0634
  C  C768  1  0.128600  0.599900  0.437100  1.0  0.0034
  C  C769  1  0.717900  0.082100  0.673200  1.0  -0.0544
  C  C770  1  0.551100  0.917300  0.652200  1.0  -0.0171
  C  C771  1  0.307200  0.798200  0.417400  1.0  -0.0638
  C  C772  1  0.546900  0.202600  0.975500  1.0  0.5687
  C  C773  1  0.109800  0.708700  0.527300  1.0  -0.0504
  C  C774  1  0.635800  0.591100  0.917900  1.0  -0.0519
  C  C775  1  0.744800  0.112600  0.057400  1.0  -0.0999
  C  C776  1  0.140500  0.538400  0.198300  1.0  0.0707
  C  C777  1  0.991000  0.192800  0.110200  1.0  -0.0634
  C  C778  1  0.358300  0.558300  0.603800  1.0  0.7902
  C  C779  1  0.060700  0.301200  0.459500  1.0  0.724
  C  C780  1  0.526700  0.196700  0.133800  1.0  -0.0719
  C  C781  1  0.557400  0.744800  0.612600  1.0  -0.0998
  C  C782  1  0.112600  0.557400  0.244800  1.0  -0.0991
  C  C783  1  0.766600  0.349300  0.898900  1.0  -0.0591
  C  C784  1  0.591100  0.417900  0.135800  1.0  -0.0498
  C  C785  1  0.699800  0.037500  0.641700  1.0  0.0874
  C  C786  1  0.101100  0.950400  0.367700  1.0  -0.0592
  C  C787  1  0.439300  0.898800  0.240500  1.0  0.7264
  C  C788  1  0.417900  0.635800  0.091100  1.0  -0.0518
  C  C789  1  0.467100  0.347700  0.601400  1.0  0.0263
  C  C790  1  0.677400  0.612100  0.719100  1.0  -0.0068
  C  C791  1  0.020100  0.839500  0.879600  1.0  0.1535
  C  C792  1  0.475500  0.546900  0.702600  1.0  0.5691
  C  C793  1  0.130400  0.243100  0.076300  1.0  -0.0953
  C  C794  1  0.381200  0.849100  0.248300  1.0  -0.0621
  C  C795  1  0.881200  0.632900  0.532100  1.0  -0.062
  C  C796  1  0.560200  0.973400  0.719400  1.0  0.7232
  C  C797  1  0.791300  0.401100  0.318600  1.0  -0.0514
  C  C798  1  0.662800  0.691500  0.062900  1.0  0.0048
  C  C799  1  0.527300  0.456300  0.202600  1.0  0.714
  C  C800  1  0.953100  0.928600  0.655700  1.0  0.5696
  C  C801  1  0.440400  0.028100  0.185700  1.0  0.7172
  C  C802  1  0.808800  0.319000  0.917400  1.0  -0.0336
  C  C803  1  0.724500  0.666300  0.594400  1.0  -0.1541
  C  C804  1  0.065300  0.107000  0.387900  1.0  -0.008
  C  C805  1  0.814300  0.428800  0.540300  1.0  -0.0972
  C  C806  1  0.613200  0.735900  0.660700  1.0  -0.0967
  C  C807  1  0.837200  0.900100  0.028700  1.0  0.0046
  C  C808  1  0.071900  0.166300  0.441800  1.0  -0.1528
  C  C809  1  0.471900  0.412300  0.657600  1.0  0.7165
  C  C810  1  0.240500  0.841700  0.301200  1.0  0.7236
  C  C811  1  0.046900  0.071400  0.344300  1.0  0.5689
  C  C812  1  0.441900  0.837700  0.300200  1.0  0.0894
  C  C813  1  0.830000  0.026700  0.392900  1.0  -0.0743
  C  C814  1  0.489800  0.598400  0.681000  1.0  -0.0338
  C  C815  1  0.940400  0.754700  0.412300  1.0  0.7181
  C  C816  1  0.358900  0.978000  0.819300  1.0  0.1606
  C  C817  1  0.958300  0.280900  0.893000  1.0  -0.0085
  C  C818  1  0.441500  0.677100  0.046800  1.0  -0.0931
  C  C819  1  0.663100  0.454200  0.582300  1.0  -0.0399
  C  C820  1  0.858300  0.254500  0.800000  1.0  0.7882
  C  C821  1  0.141100  0.960400  0.619100  1.0  0.1577
  C  C822  1  0.540100  0.859500  0.379600  1.0  0.1518
  C  C823  1  0.746000  0.526600  0.086800  1.0  0.7229
  C  C824  1  0.393000  0.958300  0.780900  1.0  -0.0076
  C  C825  1  0.867800  0.755200  0.312600  1.0  -0.1025
  C  C826  1  0.152300  0.119400  0.753700  1.0  0.0251
  C  C827  1  0.170000  0.973300  0.607100  1.0  -0.0732
  C  C828  1  0.238300  0.914200  0.956700  1.0  0.6277
  C  C829  1  0.453200  0.558500  0.822900  1.0  -0.0952
  C  C830  1  0.819300  0.341300  0.960400  1.0  0.1609
  C  C831  1  0.978000  0.319300  0.858900  1.0  0.1574
  C  C832  1  0.120400  0.459900  0.640500  1.0  0.1506
  C  C833  1  0.800200  0.441900  0.337700  1.0  0.0928
  C  C834  1  0.673200  0.091100  0.455300  1.0  -0.051
  C  C835  1  0.448900  0.082700  0.347800  1.0  -0.0182
  C  C836  1  0.864200  0.782100  0.955300  1.0  -0.051
  C  C837  1  0.940800  0.376200  0.281800  1.0  -0.1061
  C  C838  1  0.380800  0.298200  0.991000  1.0  -0.0645
  C  C839  1  0.454500  0.754500  0.896200  1.0  0.7902
  C  C840  1  0.610200  0.991000  0.692800  1.0  -0.0627
  C  C841  1  0.917400  0.098400  0.608600  1.0  -0.0343
  C  C842  1  0.459900  0.140500  0.620400  1.0  0.158
  C  C843  1  0.780900  0.322600  0.887900  1.0  -0.0093
  C  C844  1  0.339300  0.575200  0.452500  1.0  -0.0985
  C  C845  1  0.419200  0.291100  0.336900  1.0  -0.04
  C  C846  1  0.733400  0.632300  0.582700  1.0  -0.0601
  C  C847  1  0.869700  0.605300  0.546800  1.0  -0.1001
  C  C848  1  0.897900  0.359500  0.057800  1.0  0.0713
  C  C849  1  0.772900  0.297400  0.844300  1.0  0.5698
  C  C850  1  0.957900  0.412600  0.273300  1.0  0.7361
  C  C851  1  0.444800  0.312600  0.557400  1.0  -0.1004
  C  C852  1  0.614500  0.888500  0.428800  1.0  -0.0964
  C  C853  1  0.085800  0.543300  0.261700  1.0  0.6266
  C  C854  1  0.718200  0.594400  0.159000  1.0  -0.1047
  C  C855  1  0.157600  0.471900  0.912300  1.0  0.7165
  C  C856  1  0.883300  0.472900  0.782000  1.0  -0.0493
  C  C857  1  0.914200  0.456700  0.738300  1.0  0.627
  C  C858  1  0.217900  0.544700  0.635800  1.0  -0.0501
  C  C859  1  0.639300  0.684600  0.226700  1.0  0.7396
  C  C860  1  0.618800  0.150900  0.751700  1.0  -0.0639
  C  C861  1  0.387900  0.780900  0.822600  1.0  -0.0077
  C  C862  1  0.622700  0.886800  0.047500  1.0  -0.0974
  C  C863  1  0.098400  0.108600  0.417400  1.0  -0.0329
  C  C864  1  0.397900  0.340100  0.538400  1.0  0.0683
  C  C865  1  0.510200  0.401600  0.319000  1.0  -0.0325
  C  C866  1  0.218200  0.059200  0.123800  1.0  -0.1045
  C  C867  1  0.219400  0.560200  0.473400  1.0  0.7211
  C  C868  1  0.445900  0.612700  0.869600  1.0  -0.0937
  C  C869  1  0.895800  0.058100  0.858300  1.0  0.0884
  C  C870  1  0.366200  0.473300  0.303300  1.0  -0.0737
  C  C871  1  0.585800  0.324100  0.542500  1.0  0.6293
  C  C872  1  0.612700  0.369600  0.945900  1.0  -0.0948
  C  C873  1  0.755200  0.812600  0.367800  1.0  -0.1024
  C  C874  1  0.333700  0.905600  0.775500  1.0  -0.1524
  C  C875  1  0.166300  0.941800  0.571900  1.0  -0.1542
  C  C876  1  0.309100  0.027100  0.910400  1.0  -0.0552
  C  C877  1  0.044700  0.326800  0.408900  1.0  -0.0495
  C  C878  1  0.389800  0.009000  0.307200  1.0  -0.0637
  C  C879  1  0.847800  0.448900  0.582700  1.0  -0.0181
  C  C880  1  0.280900  0.393000  0.458300  1.0  -0.0077
  C  C881  1  0.180700  0.658700  0.039600  1.0  0.161
  C  C882  1  0.888500  0.928800  0.114500  1.0  -0.0967
  C  C883  1  0.564600  0.905600  0.623800  1.0  -0.1048
  C  C884  1  0.959700  0.185700  0.071200  1.0  -0.0986
  C  C885  1  0.428600  0.975500  0.772900  1.0  0.5687
  C  C886  1  0.275500  0.333700  0.405600  1.0  -0.1549
  C  C887  1  0.628100  0.919200  0.082300  1.0  -0.0406
  C  C888  1  0.349100  0.467900  0.100800  1.0  -0.065
  C  C889  1  0.526600  0.586800  0.246000  1.0  0.7252
  C  C890  1  0.542100  0.815400  0.454700  1.0  0.7356
  C  C891  1  0.190900  0.101300  0.718000  1.0  -0.0512
  C  C892  1  0.392900  0.866200  0.062900  1.0  -0.0726
  C  C893  1  0.841000  0.935400  0.059200  1.0  -0.1056
  C  C894  1  0.797400  0.753700  0.824700  1.0  0.7143
  C  C895  1  0.942200  0.801700  0.340100  1.0  0.0724
  C  C896  1  0.748300  0.381200  0.349100  1.0  -0.0646
  C  C897  1  0.860700  0.087400  0.045300  1.0  0.7291
  C  C898  1  0.062900  0.696700  0.170000  1.0  -0.0722
  C  C899  1  0.344300  0.772900  0.797400  1.0  0.5688
  C  C900  1  0.859500  0.879600  0.040100  1.0  0.1589
  C  C901  1  0.756900  0.423700  0.369600  1.0  -0.0954
  C  C902  1  0.587400  0.226700  0.542100  1.0  0.7349
  C  C903  1  0.571400  0.024500  0.227100  1.0  0.569
  C  C904  1  0.342400  0.254700  0.314300  1.0  0.7177
  C  C905  1  0.660700  0.424800  0.547500  1.0  -0.0984
  C  C906  1  0.380900  0.841300  0.022000  1.0  0.161
  C  C907  1  0.235600  0.630300  0.677100  1.0  -0.0951
  C  C908  1  0.924800  0.764100  0.377300  1.0  -0.0983
  C  C909  1  0.155700  0.953100  0.428600  1.0  0.5684
  C  C910  1  0.159000  0.064600  0.940800  1.0  -0.1059
  C  C911  1  0.956700  0.542500  0.218400  1.0  0.6255
  C  C912  1  0.565300  0.177400  0.958300  1.0  -0.0083
  C  C913  1  0.459700  0.388500  0.774000  1.0  -0.0964
  C  C914  1  0.690900  0.972900  0.089600  1.0  -0.0539
  C  C915  1  0.428100  0.869900  0.094400  1.0  -0.1541
  C  C916  1  0.719100  0.607000  0.541700  1.0  -0.0074
  C  C917  1  0.801700  0.840100  0.442200  1.0  0.0751
  C  C918  1  0.929000  0.253700  0.456300  1.0  0.7121
  C  C919  1  0.824700  0.571000  0.527300  1.0  0.7134
  C  C920  1  0.687400  0.942600  0.055200  1.0  -0.1026
  C  C921  1  0.865700  0.398600  0.746300  1.0  0.0276
  C  C922  1  0.650900  0.532100  0.899200  1.0  -0.0613
  C  C923  1  0.633800  0.734900  0.082700  1.0  -0.0187
  C  C924  1  0.479900  0.359500  0.819400  1.0  0.1605
  C  C925  1  0.043300  0.457500  0.781600  1.0  0.6271
  C  C926  1  0.928800  0.614500  0.388500  1.0  -0.0969
  C  C927  1  0.899200  0.867100  0.748300  1.0  -0.0627
  C  C928  1  0.308500  0.437100  0.837200  1.0  0.0028
  C  C929  1  0.116700  0.527100  0.218000  1.0  -0.0493
  C  C930  1  0.308800  0.391400  0.489800  1.0  -0.0339
  C  C931  1  0.417400  0.808800  0.819000  1.0  -0.0351
  C  C932  1  0.893000  0.112100  0.434700  1.0  -0.0071
  C  C933  1  0.726700  0.639300  0.184600  1.0  0.7416
  C  C934  1  0.383300  0.601300  0.410400  1.0  -0.0539
  C  C935  1  0.885500  0.314300  0.274000  1.0  -0.0976
  C  C936  1  0.122700  0.075200  0.735900  1.0  -0.0965
  C  C937  1  0.917400  0.307200  0.298200  1.0  -0.0629
  C  C938  1  0.759500  0.158300  0.698800  1.0  0.7271
  C  C939  1  0.429000  0.972700  0.675300  1.0  0.7126
  C  C940  1  0.612100  0.219100  0.177400  1.0  -0.0083
  C  C941  1  0.826800  0.282100  0.417900  1.0  -0.0525
  C  C942  1  0.253700  0.956300  0.429000  1.0  0.7142
  C  C943  1  0.198800  0.759500  0.658300  1.0  0.7253
  C  C944  1  0.259500  0.560700  0.601200  1.0  0.7235
  C  C945  1  0.071200  0.385500  0.611500  1.0  -0.0971
  C  C946  1  0.849300  0.582700  0.950400  1.0  -0.0644
  C  C947  1  0.256900  0.887300  0.333200  1.0  -0.094
  C  C948  1  0.822600  0.541700  0.934700  1.0  -0.0082
  C  C949  1  0.652300  0.898600  0.032900  1.0  0.0275
  C  C950  1  0.549600  0.150700  0.917300  1.0  -0.0585
  C  C951  1  0.962500  0.858300  0.800200  1.0  0.0885
  C  C952  1  0.726000  0.540300  0.111500  1.0  -0.0984
  C  C953  1  0.941700  0.800000  0.545500  1.0  0.789
  C  C954  1  0.527100  0.718000  0.616700  1.0  -0.0508
  C  C955  1  0.437100  0.337200  0.808500  1.0  0.0043
  C  C956  1  0.387300  0.630400  0.054100  1.0  -0.0955
  C  C957  1  0.177400  0.458300  0.065300  1.0  -0.0086
  C  C958  1  0.558200  0.224500  0.130100  1.0  -0.1537
  C  C959  1  0.698800  0.040500  0.439300  1.0  0.7216
  C  C960  1  0.076300  0.333200  0.445900  1.0  -0.0949
  C  C961  1  0.227100  0.702600  0.155700  1.0  0.5698
  C  C962  1  0.324100  0.042500  0.085800  1.0  0.6262
  C  C963  1  0.867100  0.248300  0.399200  1.0  -0.0633
  C  C964  1  0.105300  0.735600  0.558500  1.0  -0.0948
  C  C965  1  0.973300  0.107100  0.670000  1.0  -0.0714
  C  C966  1  0.896200  0.641700  0.941700  1.0  0.7908
  C  C967  1  0.841700  0.801200  0.740500  1.0  0.7264
  C  C968  1  0.080800  0.417700  0.871900  1.0  -0.0376
  C  C969  1  0.959900  0.339500  0.319400  1.0  0.1511
  C  C970  1  0.175300  0.429000  0.472700  1.0  0.7131
  C  C971  1  0.075200  0.235900  0.622700  1.0  -0.0984
  C  C972  1  0.101300  0.218000  0.690900  1.0  -0.05
  C  C973  1  0.043700  0.071000  0.246300  1.0  0.713
  C  C974  1  0.087700  0.059600  0.745300  1.0  0.7191
  C  C975  1  0.889800  0.582600  0.380800  1.0  -0.0643
  C  C976  1  0.042500  0.585800  0.824100  1.0  0.6297
  C  C977  1  0.589600  0.690900  0.472900  1.0  -0.054
  C  C978  1  0.971900  0.314300  0.059600  1.0  0.7184
  C  C979  1  0.953200  0.130300  0.894700  1.0  -0.0999
  C  C980  1  0.439800  0.026600  0.280600  1.0  0.7215
  C  C981  1  0.582100  0.364200  0.908900  1.0  -0.0489
  C  C982  1  0.491000  0.380800  0.798200  1.0  -0.0637
  C  C983  1  0.666800  0.054100  0.423700  1.0  -0.0952
  C  C984  1  0.935400  0.559200  0.341000  1.0  -0.1054
  C  C985  1  0.401100  0.818600  0.291300  1.0  -0.0504
  C  C986  1  0.112700  0.166800  0.243100  1.0  -0.0946
  C  C987  1  0.434700  0.822600  0.041700  1.0  -0.0078
  C  C988  1  0.734900  0.582700  0.133800  1.0  -0.0176
  C  C989  1  0.281600  0.043300  0.957500  1.0  0.6257
  C  C990  1  0.301200  0.959500  0.560700  1.0  0.7215
  C  C991  1  0.385500  0.111500  0.571200  1.0  -0.0968
  C  C992  1  0.612600  0.367800  0.555200  1.0  -0.0983
  C  C993  1  0.659200  0.913200  0.439800  1.0  0.7221
  C  C994  1  0.108600  0.917400  0.598400  1.0  -0.0352
  C  C995  1  0.045300  0.457900  0.684600  1.0  0.7306
  C  C996  1  0.630300  0.177100  0.735600  1.0  -0.0954
  C  C997  1  0.743100  0.112700  0.666800  1.0  -0.094
  C  C998  1  0.941500  0.894700  0.764400  1.0  -0.095
  C  C999  1  0.718400  0.956700  0.042500  1.0  0.6255
  C  C1000  1  0.959500  0.060700  0.801200  1.0  0.728
  C  C1001  1  0.141700  0.745500  0.200000  1.0  0.7898
  C  C1002  1  0.112100  0.934700  0.393000  1.0  -0.007
  C  C1003  1  0.803300  0.366200  0.973300  1.0  -0.0724
  C  C1004  1  0.972900  0.589600  0.190900  1.0  -0.0535
  C  C1005  1  0.558500  0.322900  0.953200  1.0  -0.0945
  C  C1006  1  0.467900  0.600800  0.849100  1.0  -0.0624
  C  C1007  1  0.086800  0.060200  0.840800  1.0  0.7231
  C  C1008  1  0.454200  0.082300  0.163100  1.0  -0.0375
  C  C1009  1  0.543700  0.297400  0.972700  1.0  0.7142
  C  C1010  1  0.057800  0.198300  0.659900  1.0  0.0716
  C  C1011  1  0.398800  0.459500  0.158300  1.0  0.7261
  C  C1012  1  0.886800  0.547500  0.122700  1.0  -0.0969
  C  C1013  1  0.089600  0.616700  0.898700  1.0  -0.0532
  C  C1014  1  0.218000  0.190900  0.601300  1.0  -0.0517
  C  C1015  1  0.871900  0.954200  0.291100  1.0  -0.0401
  C  C1016  1  0.937100  0.128600  0.099900  1.0  0.0044
  C  C1017  1  0.602100  0.659900  0.461600  1.0  0.0668
  C  C1018  1  0.917300  0.266600  0.867700  1.0  -0.063
  C  C1019  1  0.528100  0.587700  0.342400  1.0  0.7175
  C  C1020  1  0.028700  0.628600  0.691500  1.0  0.0041
  C  C1021  1  0.132900  0.751700  0.600800  1.0  -0.063
  C  C1022  1  0.135800  0.217900  0.044700  1.0  -0.0493
  C  C1023  1  0.685700  0.226000  0.614500  1.0  -0.0972
  C  C1024  1  0.472700  0.543700  0.797400  1.0  0.7132
  C  C1025  1  0.662300  0.604200  0.962500  1.0  0.089
  C  C1026  1  0.472700  0.681400  0.082500  1.0  -0.0448
  C  C1027  1  0.114500  0.685700  0.726000  1.0  -0.0971
  C  C1028  1  0.226000  0.114500  0.185700  1.0  -0.0966
  C  C1029  1  0.684600  0.726700  0.139300  1.0  0.7407
  C  C1030  1  0.341000  0.281800  0.905600  1.0  -0.1041
  C  C1031  1  0.045800  0.208900  0.628100  1.0  -0.0371
  C  C1032  1  0.336900  0.545800  0.417700  1.0  -0.0382
  C  C1033  1  0.582500  0.472700  0.181400  1.0  -0.0503
  C  C1034  1  0.266600  0.367700  0.417300  1.0  -0.0604
  C  C1035  1  0.417700  0.371900  0.580800  1.0  -0.0393
  C  C1036  1  0.040100  0.660500  0.680600  1.0  0.1516
  C  C1037  1  0.380600  0.032900  0.134300  1.0  0.0258
  C  C1038  1  0.107000  0.887900  0.565300  1.0  -0.0075
  C  C1039  1  0.954200  0.791100  0.371900  1.0  -0.0377
  C  C1040  1  0.547500  0.622700  0.386800  1.0  -0.0969
  C  C1041  1  0.185700  0.657600  0.245300  1.0  0.7186
  C  C1042  1  0.702600  0.655700  0.727100  1.0  0.5695
  C  C1043  1  0.680700  0.641100  0.522000  1.0  0.1599
  C  C1044  1  0.358300  0.895800  0.558100  1.0  0.0889
  C  C1045  1  0.691200  0.608600  0.510200  1.0  -0.0343
  C  C1046  1  0.594400  0.428100  0.369900  1.0  -0.1521
  C  C1047  1  0.880600  0.746300  0.347700  1.0  0.0274
  C  C1048  1  0.692800  0.201800  0.582600  1.0  -0.0635
  C  C1049  1  0.032100  0.881200  0.132900  1.0  -0.0633
  C  C1050  1  0.619200  0.701800  0.009000  1.0  -0.0615
  C  C1051  1  0.009000  0.807200  0.889800  1.0  -0.063
  C  C1052  1  0.398700  0.089600  0.116700  1.0  -0.0553
  C  C1053  1  0.181000  0.489800  0.098400  1.0  -0.0339
  C  C1054  1  0.087400  0.545300  0.360700  1.0  0.729
  C  C1055  1  0.540500  0.341700  0.101200  1.0  0.7225
  C  C1056  1  0.349300  0.398900  0.266600  1.0  -0.0639
  C  C1057  1  0.442200  0.102100  0.140500  1.0  0.0708
  C  C1058  1  0.103800  0.358300  0.058300  1.0  0.7894
  C  C1059  1  0.601100  0.233400  0.150700  1.0  -0.0594
  C  C1060  1  0.818600  0.791300  0.901100  1.0  -0.0491
  C  C1061  1  0.696700  0.670000  0.562900  1.0  -0.0722
  C  C1062  1  0.554100  0.387300  0.130400  1.0  -0.094
  C  C1063  1  0.849100  0.748300  0.881200  1.0  -0.0645
  C  C1064  1  0.681400  0.582500  0.972700  1.0  -0.0511
  C  C1065  1  0.082600  0.692800  0.701800  1.0  -0.0627
  C  C1066  1  0.640500  0.680600  0.020100  1.0  0.1592
  C  C1067  1  0.473300  0.803300  0.866200  1.0  -0.0712
  C  C1068  1  0.458300  0.565300  0.677400  1.0  -0.0072
  C  C1069  1  0.839500  0.379600  0.520100  1.0  0.1507
  C  C1070  1  0.609800  0.082500  0.401100  1.0  -0.0482
  C  C1071  1  0.058100  0.358300  0.395800  1.0  0.0915
  C  C1072  1  0.989800  0.308800  0.891400  1.0  -0.0335
  C  C1073  1  0.894700  0.264400  0.441500  1.0  -0.095
  C  C1074  1  0.537500  0.337700  0.895800  1.0  0.0875
  C  C1075  1  0.026700  0.892900  0.330000  1.0  -0.072
  C  C1076  1  0.414200  0.675900  0.457500  1.0  0.6281
  C  C1077  1  0.782100  0.455300  0.364200  1.0  -0.0515
  C  C1078  1  0.691500  0.562900  0.162800  1.0  0.0038
  C  C1079  1  0.582300  0.628100  0.419200  1.0  -0.0377
  C  C1080  1  0.571200  0.959700  0.685700  1.0  -0.0971
  C  C1081  1  0.800000  0.045500  0.441700  1.0  0.7905
  C  C1082  1  0.751700  0.100800  0.632900  1.0  -0.0634
  C  C1083  1  0.836900  0.419200  0.791100  1.0  -0.04
  C  C1084  1  0.601100  0.866200  0.448900  1.0  -0.0169
  C  C1085  1  0.954500  0.058300  0.700000  1.0  0.7926
  C  C1086  1  0.102100  0.640500  0.942200  1.0  0.071
  C  C1087  1  0.975500  0.272900  0.928600  1.0  0.5697
  C  C1088  1  0.134300  0.601400  0.253700  1.0  0.0265
  C  C1089  1  0.315400  0.273300  0.860700  1.0  0.7416
  C  C1090  1  0.659900  0.961600  0.102100  1.0  0.0689
  C  C1091  1  0.233400  0.650700  0.101100  1.0  -0.061
  C  C1092  1  0.544700  0.135800  0.717900  1.0  -0.0512
  C  C1093  1  0.401600  0.819000  0.010200  1.0  -0.0345
  C  C1094  1  0.110200  0.417400  0.619200  1.0  -0.0628
  C  C1095  1  0.576300  0.130400  0.743100  1.0  -0.0952
  C  C1096  1  0.173200  0.717900  0.582100  1.0  -0.0504
  C  C1097  1  0.599900  0.937100  0.628600  1.0  0.0034
  C  C1098  1  0.319000  0.417400  0.308800  1.0  -0.0348
  C  C1099  1  0.942600  0.555200  0.187400  1.0  -0.1017
  C  C1100  1  0.837700  0.800200  0.941900  1.0  0.0881
  C  C1101  1  0.071000  0.746300  0.543700  1.0  0.7123
  C  C1102  1  0.398600  0.246300  0.365700  1.0  0.027
  C  C1103  1  0.160700  0.613200  0.235900  1.0  -0.0973
  C  C1104  1  0.708700  0.027300  0.609800  1.0  -0.0503
  C  C1105  1  0.901600  0.891400  0.582600  1.0  -0.0324
  C  C1106  1  0.582600  0.880800  0.389800  1.0  -0.0622
  C  C1107  1  0.879600  0.540100  0.359500  1.0  0.1506
  C  C1108  1  0.630100  0.558200  0.724500  1.0  -0.1539
  C  C1109  1  0.655700  0.227100  0.202600  1.0  0.5688
  C  C1110  1  0.840800  0.280600  0.254000  1.0  0.7204
  C  C1111  1  0.917500  0.098900  0.890200  1.0  -0.0529
  C  C1112  1  0.314300  0.559600  0.471900  1.0  0.7198
  C  C1113  1  0.162300  0.199800  0.058100  1.0  0.0891
  C  C1114  1  0.246000  0.159200  0.219400  1.0  0.7207
  C  C1115  1  0.058500  0.105300  0.235600  1.0  -0.095
  C  C1116  1  0.754700  0.912300  0.440400  1.0  0.7186
  C  C1117  1  0.905600  0.123800  0.064600  1.0  -0.1045
  C  C1118  1  0.819400  0.959900  0.839500  1.0  0.1509
  C  C1119  1  0.059600  0.245300  0.587700  1.0  0.7182
  C  C1120  1  0.658700  0.539600  0.680700  1.0  0.1633
  C  C1121  1  0.398900  0.766600  0.849300  1.0  -0.0609
  C  C1122  1  0.598900  0.181400  0.708700  1.0  -0.0513
  C  C1123  1  0.272900  0.428600  0.475500  1.0  0.5695
  C  C1124  1  0.562900  0.662800  0.191500  1.0  0.0045
  C  C1125  1  0.765100  0.898900  0.847800  1.0  -0.0155
  C  C1126  1  0.532900  0.652300  0.398600  1.0  0.026
  C  C1127  1  0.698300  0.140500  0.038400  1.0  0.0693
  C  C1128  1  0.859500  0.461600  0.801700  1.0  0.0704
  C  C1129  1  0.608600  0.010200  0.191200  1.0  -0.0371
  C  C1130  1  0.700000  0.141700  0.245500  1.0  0.7903
  C  C1131  1  0.478000  0.619100  0.658700  1.0  0.1613
  C  C1132  1  0.364200  0.408900  0.082100  1.0  -0.0494
  C  C1133  1  0.100800  0.132900  0.251700  1.0  -0.0643
  C  C1134  1  0.775500  0.369900  0.941800  1.0  -0.1524
  C  C1135  1  0.754000  0.840800  0.780600  1.0  0.72
  C  C1136  1  0.620400  0.979900  0.660500  1.0  0.1602
  C  C1137  1  0.071400  0.844300  0.546900  1.0  0.5684
  C  C1138  1  0.540300  0.611500  0.226000  1.0  -0.0959
  C  C1139  1  0.027300  0.109800  0.208700  1.0  -0.0483
  C  C1140  1  0.064600  0.440800  0.659000  1.0  -0.1047
  C  C1141  1  0.196700  0.633800  0.026700  1.0  -0.0733
  C  C1142  1  0.150900  0.251700  0.118800  1.0  -0.0645
  C  C1143  1  0.471300  0.162800  0.599900  1.0  0.005
  C  C1144  1  0.601400  0.753700  0.634300  1.0  0.0283
  C  C1145  1  0.941800  0.071900  0.666300  1.0  -0.1548
  C  C1146  1  0.740500  0.439300  0.398800  1.0  0.724
  C  C1147  1  0.333200  0.945900  0.576300  1.0  -0.095
  C  C1148  1  0.298200  0.491000  0.880800  1.0  -0.0642
  C  C1149  1  0.371400  0.808500  0.471300  1.0  0.0054
  C  C1150  1  0.314300  0.774000  0.385500  1.0  -0.0985
  C  C1151  1  0.842400  0.528100  0.087700  1.0  0.7173
  C  C1152  1  0.442600  0.255200  0.387400  1.0  -0.0998
  N  N1153  1  0.003600  0.359800  0.832000  1.0  -0.1141
  N  N1154  1  0.847200  0.511400  0.362800  1.0  -0.137
  N  N1155  1  0.136500  0.973400  0.140500  1.0  -0.1638
  N  N1156  1  0.333100  0.489900  0.347200  1.0  -0.1414
  N  N1157  1  0.164200  0.652800  0.515600  1.0  -0.1429
  N  N1158  1  0.832900  0.473400  0.336900  1.0  -0.1656
  N  N1159  1  0.357300  0.014100  0.847200  1.0  -0.1439
  N  N1160  1  0.859500  0.332900  0.496000  1.0  -0.1639
  N  N1161  1  0.847200  0.333100  0.989900  1.0  -0.1389
  N  N1162  1  0.503600  0.671600  0.643800  1.0  -0.1123
  N  N1163  1  0.484400  0.637200  0.148600  1.0  -0.1385
  N  N1164  1  0.011400  0.664200  0.648600  1.0  -0.1391
  N  N1165  1  0.335800  0.851400  0.488600  1.0  -0.1366
  N  N1166  1  0.152800  0.488600  0.637200  1.0  -0.1372
  N  N1167  1  0.652800  0.642700  0.485900  1.0  -0.1422
  N  N1168  1  0.473400  0.836900  0.332900  1.0  -0.1635
  N  N1169  1  0.504000  0.336900  0.863500  1.0  -0.163
  N  N1170  1  0.851400  0.988600  0.835800  1.0  -0.1381
  N  N1171  1  0.973400  0.640500  0.636500  1.0  -0.1633
  N  N1172  1  0.152800  0.666900  0.010100  1.0  -0.1413
  N  N1173  1  0.835800  0.347200  0.484400  1.0  -0.1428
  N  N1174  1  0.843200  0.857300  0.510100  1.0  -0.1417
  N  N1175  1  0.143800  0.503600  0.171600  1.0  -0.1127
  N  N1176  1  0.148600  0.011400  0.164200  1.0  -0.1386
  N  N1177  1  0.156800  0.142700  0.489900  1.0  -0.1416
  N  N1178  1  0.988600  0.335800  0.351400  1.0  -0.139
  N  N1179  1  0.496400  0.328400  0.356200  1.0  -0.1123
  N  N1180  1  0.640200  0.668000  0.496400  1.0  -0.1124
  N  N1181  1  0.332900  0.996000  0.359500  1.0  -0.1664
  N  N1182  1  0.996000  0.859500  0.832900  1.0  -0.1638
  N  N1183  1  0.163100  0.167100  0.026600  1.0  -0.1644
  N  N1184  1  0.167100  0.526600  0.663100  1.0  -0.1631
  N  N1185  1  0.010100  0.843200  0.357300  1.0  -0.14
  N  N1186  1  0.004000  0.140500  0.167100  1.0  -0.1636
  N  N1187  1  0.996400  0.640200  0.168000  1.0  -0.1129
  N  N1188  1  0.972200  0.828400  0.332000  1.0  -0.1132
  N  N1189  1  0.515600  0.362800  0.851400  1.0  -0.1399
  N  N1190  1  0.168000  0.027800  0.671600  1.0  -0.1139
  N  N1191  1  0.857300  0.010100  0.343200  1.0  -0.141
  N  N1192  1  0.488600  0.137200  0.652800  1.0  -0.1383
  N  N1193  1  0.671600  0.143800  0.003600  1.0  -0.1161
  N  N1194  1  0.833100  0.485900  0.843200  1.0  -0.1423
  N  N1195  1  0.643800  0.472200  0.640200  1.0  -0.1131
  N  N1196  1  0.140200  0.643800  0.972200  1.0  -0.1136
  N  N1197  1  0.336900  0.363500  0.004000  1.0  -0.1648
  N  N1198  1  0.359800  0.332000  0.503600  1.0  -0.1135
  N  N1199  1  0.166900  0.514100  0.156800  1.0  -0.141
  N  N1200  1  0.637200  0.648600  0.984400  1.0  -0.1423
  N  N1201  1  0.667100  0.004000  0.640500  1.0  -0.1636
  N  N1202  1  0.137200  0.152800  0.988600  1.0  -0.1341
  N  N1203  1  0.026600  0.359500  0.363500  1.0  -0.1669
  N  N1204  1  0.489900  0.847200  0.833100  1.0  -0.1421
  N  N1205  1  0.014100  0.347200  0.857300  1.0  -0.1398
  N  N1206  1  0.332000  0.003600  0.859800  1.0  -0.1119
  N  N1207  1  0.664200  0.148600  0.511400  1.0  -0.1373
  N  N1208  1  0.510100  0.152800  0.166900  1.0  -0.1383
  N  N1209  1  0.511400  0.862800  0.347200  1.0  -0.1399
  N  N1210  1  0.363500  0.504000  0.836900  1.0  -0.1647
  N  N1211  1  0.171600  0.168000  0.527800  1.0  -0.1119
  N  N1212  1  0.356200  0.527800  0.359800  1.0  -0.1147
  N  N1213  1  0.828400  0.832000  0.472200  1.0  -0.1113
  N  N1214  1  0.989900  0.156800  0.642700  1.0  -0.1423
  N  N1215  1  0.668000  0.996400  0.140200  1.0  -0.1124
  N  N1216  1  0.859800  0.356200  0.027800  1.0  -0.1131
  N  N1217  1  0.140500  0.667100  0.504000  1.0  -0.1653
  N  N1218  1  0.863500  0.026600  0.859500  1.0  -0.1635
  N  N1219  1  0.642700  0.985900  0.152800  1.0  -0.1436
  N  N1220  1  0.856200  0.496400  0.828400  1.0  -0.1151
  N  N1221  1  0.663100  0.636500  0.996000  1.0  -0.1639
  N  N1222  1  0.832000  0.972200  0.328400  1.0  -0.113
  N  N1223  1  0.027800  0.171600  0.668000  1.0  -0.1121
  N  N1224  1  0.485900  0.343200  0.333100  1.0  -0.1431
  N  N1225  1  0.328400  0.856200  0.996400  1.0  -0.1117
  N  N1226  1  0.514100  0.656800  0.666900  1.0  -0.1411
  N  N1227  1  0.640500  0.136500  0.473400  1.0  -0.1646
  N  N1228  1  0.343200  0.833100  0.985900  1.0  -0.1409
  N  N1229  1  0.984400  0.835800  0.847200  1.0  -0.1403
  N  N1230  1  0.527800  0.859800  0.856200  1.0  -0.1127
  N  N1231  1  0.472200  0.140200  0.143800  1.0  -0.1129
  N  N1232  1  0.015600  0.164200  0.152800  1.0  -0.1403
  N  N1233  1  0.652800  0.015600  0.664200  1.0  -0.1441
  N  N1234  1  0.359500  0.863500  0.526600  1.0  -0.164
  N  N1235  1  0.836900  0.832900  0.973400  1.0  -0.1631
  N  N1236  1  0.496000  0.663100  0.136500  1.0  -0.164
  N  N1237  1  0.526600  0.163100  0.667100  1.0  -0.1665
  N  N1238  1  0.362800  0.351400  0.015600  1.0  -0.1421
  N  N1239  1  0.656800  0.166900  0.014100  1.0  -0.1448
  N  N1240  1  0.985900  0.652800  0.142700  1.0  -0.1404
  N  N1241  1  0.351400  0.515600  0.862800  1.0  -0.143
  N  N1242  1  0.142700  0.989900  0.656800  1.0  -0.1397
  N  N1243  1  0.347200  0.357300  0.514100  1.0  -0.1412
  N  N1244  1  0.648600  0.484400  0.137200  1.0  -0.1407
  N  N1245  1  0.666900  0.510100  0.652800  1.0  -0.1408
  N  N1246  1  0.347200  0.984400  0.335800  1.0  -0.1418
  N  N1247  1  0.862800  0.847200  0.011400  1.0  -0.1352
  N  N1248  1  0.636500  0.496000  0.163100  1.0  -0.166
  O  O1249  1  0.806600  0.736900  0.795900  1.0  -0.5961
  O  O1250  1  0.911300  0.645300  0.917200  1.0  -0.5925
  O  O1251  1  0.168500  0.759700  0.191200  1.0  -0.5894
  O  O1252  1  0.280400  0.588500  0.592900  1.0  -0.5918
  O  O1253  1  0.000000  0.500000  0.730800  1.0  -1.1116
  O  O1254  1  0.734000  0.728100  0.645300  1.0  -0.5936
  O  O1255  1  0.355600  0.287000  0.782800  1.0  -0.5837
  O  O1256  1  0.934300  0.948600  0.669300  1.0  -0.6113
  O  O1257  1  0.928200  0.976400  0.264400  1.0  -0.5817
  O  O1258  1  0.330700  0.779300  0.765000  1.0  -0.6094
  O  O1259  1  0.936600  0.025200  0.772000  1.0  -0.58
  O  O1260  1  0.481000  0.982400  0.232400  1.0  -1.0013
  O  O1261  1  0.691900  0.004400  0.411500  1.0  -0.5934
  O  O1262  1  0.519000  0.017600  0.767600  1.0  -1.0009
  O  O1263  1  0.666200  0.674800  0.243600  1.0  -0.5946
  O  O1264  1  0.235000  0.514300  0.065700  1.0  -0.6089
  O  O1265  1  0.791900  0.716400  0.286900  1.0  -0.5923
  O  O1266  1  0.708200  0.260900  0.686900  1.0  -0.6004
  O  O1267  1  0.428200  0.163800  0.951800  1.0  -0.5803
  O  O1268  1  0.243600  0.068800  0.077400  1.0  -0.594
  O  O1269  1  0.325800  0.587600  0.511000  1.0  -0.6049
  O  O1270  1  0.571800  0.312100  0.565100  1.0  -0.6074
  O  O1271  1  0.930300  0.941000  0.736900  1.0  -0.5971
  O  O1272  1  0.482400  0.501400  0.250000  1.0  -1.0009
  O  O1273  1  0.786900  0.791900  0.216400  1.0  -0.5916
  O  O1274  1  0.941000  0.236900  0.430300  1.0  -0.5969
  O  O1275  1  0.248600  0.767600  0.750000  1.0  -1.0012
  O  O1276  1  0.427200  0.782800  0.495800  1.0  -0.5878
  O  O1277  1  0.994500  0.943300  0.684800  1.0  -0.5696
  O  O1278  1  0.282800  0.355600  0.787000  1.0  -0.5837
  O  O1279  1  0.985700  0.720700  0.051400  1.0  -0.6094
  O  O1280  1  0.995600  0.088500  0.808100  1.0  -0.591
  O  O1281  1  0.505900  0.234000  0.088700  1.0  -0.5925
  O  O1282  1  0.000000  0.500000  0.269200  1.0  -1.1111
  O  O1283  1  0.581500  0.012300  0.751400  1.0  -0.6197
  O  O1284  1  0.588700  0.505900  0.734000  1.0  -0.5952
  O  O1285  1  0.295900  0.806600  0.236900  1.0  -0.5965
  O  O1286  1  0.232400  0.750000  0.251400  1.0  -1.0007
  O  O1287  1  0.256400  0.333800  0.825200  1.0  -0.5951
  O  O1288  1  0.769200  0.000000  0.000000  1.0  -1.1113
  O  O1289  1  0.504200  0.787000  0.431400  1.0  -0.5844
  O  O1290  1  0.995800  0.427200  0.282800  1.0  -0.5864
  O  O1291  1  0.555500  0.049900  0.313800  1.0  -0.5959
  O  O1292  1  0.795900  0.559000  0.489300  1.0  -0.5962
  O  O1293  1  0.408800  0.431500  0.240300  1.0  -0.5887
  O  O1294  1  0.051200  0.741500  0.056700  1.0  -0.5714
  O  O1295  1  0.025200  0.272000  0.436600  1.0  -0.5776
  O  O1296  1  0.708100  0.995000  0.924500  1.0  -0.5927
  O  O1297  1  0.995000  0.424500  0.208100  1.0  -0.5896
  O  O1298  1  0.978700  0.686900  0.426000  1.0  -0.5971
  O  O1299  1  0.144400  0.927200  0.931400  1.0  -0.585
  O  O1300  1  0.005500  0.056700  0.315200  1.0  -0.5683
  O  O1301  1  0.712000  0.476400  0.548200  1.0  -0.5808
  O  O1302  1  0.336200  0.264400  0.288000  1.0  -0.5826
  O  O1303  1  0.552700  0.574000  0.260900  1.0  -0.599
  O  O1304  1  0.830700  0.065700  0.551400  1.0  -0.6169
  O  O1305  1  0.279300  0.448600  0.514300  1.0  -0.6104
  O  O1306  1  0.217200  0.004200  0.072800  1.0  -0.586
  O  O1307  1  0.588500  0.092900  0.780400  1.0  -0.5911
  O  O1308  1  0.428200  0.687900  0.434900  1.0  -0.6062
  O  O1309  1  0.548200  0.571800  0.336200  1.0  -0.5818
  O  O1310  1  0.732400  0.481000  0.482400  1.0  -1.0014
  O  O1311  1  0.023600  0.235600  0.571800  1.0  -0.5814
  O  O1312  1  0.787000  0.931400  0.004200  1.0  -0.5866
  O  O1313  1  0.950100  0.186200  0.944500  1.0  -0.593
  O  O1314  1  0.685200  0.761800  0.674200  1.0  -0.6075
  O  O1315  1  0.309700  0.315200  0.258500  1.0  -0.569
  O  O1316  1  0.248600  0.760900  0.330100  1.0  -0.6153
  O  O1317  1  0.088500  0.308100  0.495600  1.0  -0.5926
  O  O1318  1  0.582800  0.088700  0.854700  1.0  -0.5921
  O  O1319  1  0.434300  0.765000  0.985700  1.0  -0.6118
  O  O1320  1  0.505600  0.263900  0.950100  1.0  -0.5937
  O  O1321  1  0.517600  0.498600  0.750000  1.0  -1.0013
  O  O1322  1  0.008600  0.431200  0.674800  1.0  -0.5952
  O  O1323  1  0.569700  0.306600  0.010700  1.0  -0.5972
  O  O1324  1  0.166200  0.922600  0.991400  1.0  -0.5935
  O  O1325  1  0.500000  0.230800  0.500000  1.0  -1.1116
  O  O1326  1  0.263900  0.450100  0.005600  1.0  -0.5962
  O  O1327  1  0.494400  0.736100  0.049900  1.0  -0.5951
  O  O1328  1  0.228000  0.753200  0.664600  1.0  -0.5775
  O  O1329  1  0.577400  0.243600  0.568800  1.0  -0.5948
  O  O1330  1  0.065100  0.571800  0.812100  1.0  -0.608
  O  O1331  1  0.751400  0.232400  0.250000  1.0  -1.0007
  O  O1332  1  0.645300  0.417200  0.411300  1.0  -0.5923
  O  O1333  1  0.686900  0.926000  0.478700  1.0  -0.5983
  O  O1334  1  0.663800  0.735600  0.712000  1.0  -0.5825
  O  O1335  1  0.506700  0.759700  0.571800  1.0  -0.6063
  O  O1336  1  0.006700  0.434900  0.747000  1.0  -0.6134
  O  O1337  1  0.568500  0.259700  0.091200  1.0  -0.5893
  O  O1338  1  0.069200  0.081500  0.830100  1.0  -0.6207
  O  O1339  1  0.690300  0.684800  0.741500  1.0  -0.5679
  O  O1340  1  0.758300  0.313800  0.263900  1.0  -0.5923
  O  O1341  1  0.917200  0.771900  0.505900  1.0  -0.5947
  O  O1342  1  0.568800  0.825200  0.491400  1.0  -0.5954
  O  O1343  1  0.931400  0.504200  0.287000  1.0  -0.5866
  O  O1344  1  0.494500  0.809700  0.051200  1.0  -0.5694
  O  O1345  1  0.750000  0.482400  0.001400  1.0  -1.0007
  O  O1346  1  0.308800  0.831500  0.740300  1.0  -0.5899
  O  O1347  1  0.998600  0.981000  0.248600  1.0  -1.0009
  O  O1348  1  0.076600  0.087600  0.761800  1.0  -0.6042
  O  O1349  1  0.814800  0.489000  0.076600  1.0  -0.6048
  O  O1350  1  0.728100  0.145300  0.234000  1.0  -0.5919
  O  O1351  1  0.835400  0.772000  0.746800  1.0  -0.5809
  O  O1352  1  0.251400  0.581500  0.512300  1.0  -0.6213
  O  O1353  1  0.713000  0.717200  0.144400  1.0  -0.5828
  O  O1354  1  0.267600  0.519000  0.517600  1.0  -1.0008
  O  O1355  1  0.474800  0.911400  0.246800  1.0  -0.5783
  O  O1356  1  0.551200  0.494500  0.309700  1.0  -0.5713
  O  O1357  1  0.059000  0.763100  0.569700  1.0  -0.5982
  O  O1358  1  0.556700  0.051200  0.241500  1.0  -0.5719
  O  O1359  1  0.074000  0.021300  0.813100  1.0  -0.5993
  O  O1360  1  0.772000  0.246800  0.335400  1.0  -0.5775
  O  O1361  1  0.075500  0.570500  0.283600  1.0  -0.5913
  O  O1362  1  0.668500  0.477300  0.408800  1.0  -0.5922
  O  O1363  1  0.551400  0.985700  0.220700  1.0  -0.6123
  O  O1364  1  0.982400  0.732400  0.981000  1.0  -1.0012
  O  O1365  1  0.505500  0.190300  0.948800  1.0  -0.5699
  O  O1366  1  0.947300  0.208200  0.021300  1.0  -0.6012
  O  O1367  1  0.559000  0.989300  0.295900  1.0  -0.5968
  O  O1368  1  0.588600  0.563400  0.835400  1.0  -0.575
  O  O1369  1  0.163800  0.451800  0.928200  1.0  -0.5814
  O  O1370  1  0.411500  0.907100  0.219600  1.0  -0.592
  O  O1371  1  0.908800  0.668500  0.977300  1.0  -0.59
  O  O1372  1  0.417200  0.911300  0.145300  1.0  -0.593
  O  O1373  1  0.549900  0.494400  0.236100  1.0  -0.5969
  O  O1374  1  0.574000  0.760900  0.052700  1.0  -0.5999
  O  O1375  1  0.763900  0.758300  0.813800  1.0  -0.5924
  O  O1376  1  0.005000  0.575500  0.791900  1.0  -0.5892
  O  O1377  1  0.261800  0.076600  0.587600  1.0  -0.6036
  O  O1378  1  0.068500  0.977300  0.308800  1.0  -0.5909
  O  O1379  1  0.092900  0.280400  0.088500  1.0  -0.5935
  O  O1380  1  0.312500  0.592900  0.004400  1.0  -0.5908
  O  O1381  1  0.426000  0.239100  0.947300  1.0  -0.6011
  O  O1382  1  0.735000  0.669300  0.720700  1.0  -0.6118
  O  O1383  1  0.669300  0.220700  0.235000  1.0  -0.6094
  O  O1384  1  0.236900  0.930300  0.441000  1.0  -0.5969
  O  O1385  1  0.312100  0.065100  0.071800  1.0  -0.6144
  O  O1386  1  0.833800  0.077400  0.008600  1.0  -0.5943
  O  O1387  1  0.522700  0.091200  0.831500  1.0  -0.5895
  O  O1388  1  0.758500  0.309700  0.815200  1.0  -0.5715
  O  O1389  1  0.691200  0.168500  0.259700  1.0  -0.5889
  O  O1390  1  0.976400  0.764400  0.428200  1.0  -0.5808
  O  O1391  1  0.219600  0.812500  0.308100  1.0  -0.5926
  O  O1392  1  0.931500  0.022700  0.691200  1.0  -0.5921
  O  O1393  1  0.253200  0.525200  0.588600  1.0  -0.5765
  O  O1394  1  0.354700  0.582800  0.588700  1.0  -0.5933
  O  O1395  1  0.186200  0.444500  0.450100  1.0  -0.5914
  O  O1396  1  0.510700  0.569700  0.806600  1.0  -0.5965
  O  O1397  1  0.204100  0.441000  0.510700  1.0  -0.5964
  O  O1398  1  0.525200  0.088600  0.753200  1.0  -0.5779
  O  O1399  1  0.918500  0.669900  0.430800  1.0  -0.6175
  O  O1400  1  0.258500  0.443300  0.448800  1.0  -0.571
  O  O1401  1  0.216400  0.924500  0.929500  1.0  -0.5901
  O  O1402  1  0.174800  0.008600  0.931200  1.0  -0.5958
  O  O1403  1  0.928200  0.493300  0.740300  1.0  -0.6134
  O  O1404  1  0.687500  0.407100  0.995600  1.0  -0.5903
  O  O1405  1  0.741700  0.005600  0.555500  1.0  -0.5926
  O  O1406  1  0.813800  0.555500  0.549900  1.0  -0.592
  O  O1407  1  0.930800  0.918500  0.169900  1.0  -0.6192
  O  O1408  1  0.258300  0.994400  0.444500  1.0  -0.5953
  O  O1409  1  0.743600  0.666200  0.174800  1.0  -0.5952
  O  O1410  1  0.489000  0.576600  0.314800  1.0  -0.6055
  O  O1411  1  0.335400  0.588600  0.063400  1.0  -0.58
  O  O1412  1  0.907100  0.719600  0.911500  1.0  -0.5932
  O  O1413  1  0.923400  0.912400  0.238200  1.0  -0.6052
  O  O1414  1  0.070500  0.495000  0.786900  1.0  -0.5907
  O  O1415  1  0.424500  0.708100  0.495000  1.0  -0.5914
  O  O1416  1  0.570500  0.783600  0.575500  1.0  -0.5923
  O  O1417  1  0.644400  0.713000  0.217200  1.0  -0.5851
  O  O1418  1  0.511000  0.423400  0.685200  1.0  -0.6045
  O  O1419  1  0.719600  0.411500  0.407100  1.0  -0.5915
  O  O1420  1  0.948600  0.169300  0.434300  1.0  -0.608
  O  O1421  1  0.239100  0.169900  0.251400  1.0  -0.6168
  O  O1422  1  0.825800  0.314800  0.738200  1.0  -0.6037
  O  O1423  1  0.088700  0.354700  0.082800  1.0  -0.5903
  O  O1424  1  0.563400  0.335400  0.088600  1.0  -0.5783
  O  O1425  1  0.782800  0.995800  0.927200  1.0  -0.586
  O  O1426  1  0.051400  0.830700  0.565700  1.0  -0.6085
  O  O1427  1  0.501400  0.750000  0.982400  1.0  -1.0011
  O  O1428  1  0.091200  0.331500  0.022700  1.0  -0.589
  O  O1429  1  0.434900  0.247000  0.506700  1.0  -0.6112
  O  O1430  1  0.220700  0.735000  0.169300  1.0  -0.6084
  O  O1431  1  0.747000  0.812100  0.240300  1.0  -0.6079
  O  O1432  1  0.504400  0.312500  0.092900  1.0  -0.5936
  O  O1433  1  0.313100  0.074000  0.521300  1.0  -0.5994
  O  O1434  1  0.568600  0.855600  0.572800  1.0  -0.5834
  O  O1435  1  0.485700  0.434300  0.265000  1.0  -0.6106
  O  O1436  1  0.325200  0.256400  0.833800  1.0  -0.5957
  O  O1437  1  0.169900  0.751400  0.739100  1.0  -0.6222
  O  O1438  1  0.989000  0.674200  0.912400  1.0  -0.6059
  O  O1439  1  0.145300  0.734000  0.228100  1.0  -0.5925
  O  O1440  1  0.431400  0.144400  0.427200  1.0  -0.5824
  O  O1441  1  0.315200  0.758500  0.809700  1.0  -0.571
  O  O1442  1  0.430300  0.693400  0.989300  1.0  -0.5969
  O  O1443  1  0.239100  0.447300  0.926000  1.0  -0.5995
  O  O1444  1  0.055500  0.741700  0.505600  1.0  -0.5923
  O  O1445  1  0.704100  0.193400  0.763100  1.0  -0.5958
  O  O1446  1  0.780400  0.187500  0.691900  1.0  -0.5902
  O  O1447  1  0.571800  0.836200  0.048200  1.0  -0.5805
  O  O1448  1  0.407100  0.495600  0.187500  1.0  -0.5935
  O  O1449  1  0.331500  0.522700  0.591200  1.0  -0.5895
  O  O1450  1  0.429500  0.216400  0.424500  1.0  -0.5904
  O  O1451  1  0.487700  0.569200  0.239100  1.0  -0.617
  O  O1452  1  0.751400  0.239100  0.669900  1.0  -0.6152
  O  O1453  1  0.664600  0.411400  0.936600  1.0  -0.5788
  O  O1454  1  0.286900  0.070500  0.995000  1.0  -0.5913
  O  O1455  1  0.736100  0.549900  0.994400  1.0  -0.5968
  O  O1456  1  0.259700  0.253000  0.687900  1.0  -0.6107
  O  O1457  1  0.477300  0.908800  0.168500  1.0  -0.59
  O  O1458  1  0.576600  0.814800  0.989000  1.0  -0.6065
  O  O1459  1  0.591200  0.568500  0.759700  1.0  -0.59
  O  O1460  1  0.495000  0.286900  0.570500  1.0  -0.5892
  O  O1461  1  0.854700  0.266000  0.771900  1.0  -0.5926
  O  O1462  1  0.052700  0.791800  0.978700  1.0  -0.6005
  O  O1463  1  0.812100  0.740300  0.247000  1.0  -0.6059
  O  O1464  1  0.291900  0.005000  0.075500  1.0  -0.5911
  O  O1465  1  0.766000  0.411300  0.994100  1.0  -0.5904
  O  O1466  1  0.735600  0.212000  0.163800  1.0  -0.5799
  O  O1467  1  0.728000  0.063400  0.474800  1.0  -0.5759
  O  O1468  1  0.948800  0.258500  0.943300  1.0  -0.5687
  O  O1469  1  0.422600  0.756400  0.431200  1.0  -0.5966
  O  O1470  1  0.269200  0.269200  0.769200  1.0  -1.1114
  O  O1471  1  0.521300  0.947300  0.708200  1.0  -0.6
  O  O1472  1  0.021300  0.313100  0.574000  1.0  -0.5992
  O  O1473  1  0.736900  0.295900  0.306600  1.0  -0.5975
  O  O1474  1  0.250000  0.248600  0.267600  1.0  -1.0008
  O  O1475  1  0.259700  0.591200  0.068500  1.0  -0.589
  O  O1476  1  0.012300  0.251400  0.081500  1.0  -0.6165
  O  O1477  1  0.306600  0.510700  0.069700  1.0  -0.5961
  O  O1478  1  0.977300  0.808800  0.568500  1.0  -0.5895
  O  O1479  1  0.991400  0.568800  0.325200  1.0  -0.5952
  O  O1480  1  0.498600  0.250000  0.017600  1.0  -1.0007
  O  O1481  1  0.764400  0.928200  0.476400  1.0  -0.5806
  O  O1482  1  0.448600  0.014300  0.779300  1.0  -0.6108
  O  O1483  1  0.236100  0.241700  0.186200  1.0  -0.5933
  O  O1484  1  0.014300  0.279300  0.948600  1.0  -0.608
  O  O1485  1  0.441000  0.010700  0.704100  1.0  -0.5977
  O  O1486  1  0.072800  0.568600  0.355600  1.0  -0.5846
  O  O1487  1  0.291800  0.739100  0.313100  1.0  -0.6007
  O  O1488  1  0.430800  0.260900  0.012300  1.0  -0.6152
  O  O1489  1  0.288000  0.523600  0.451800  1.0  -0.5786
  O  O1490  1  0.174200  0.685200  0.261800  1.0  -0.6041
  O  O1491  1  0.716400  0.786900  0.291900  1.0  -0.5922
  O  O1492  1  0.190300  0.448800  0.005500  1.0  -0.5724
  O  O1493  1  0.071800  0.506700  0.259700  1.0  -0.6113
  O  O1494  1  0.314800  0.238200  0.325800  1.0  -0.6065
  O  O1495  1  0.989300  0.795900  0.059000  1.0  -0.5953
  O  O1496  1  0.250000  0.517600  0.998600  1.0  -1.0011
  O  O1497  1  0.087600  0.261800  0.576600  1.0  -0.6053
  O  O1498  1  0.808100  0.219600  0.312500  1.0  -0.5933
  O  O1499  1  0.674800  0.743600  0.166200  1.0  -0.5957
  O  O1500  1  0.187500  0.191900  0.280400  1.0  -0.5933
  O  O1501  1  0.451800  0.428200  0.663800  1.0  -0.58
  O  O1502  1  0.213000  0.068600  0.995800  1.0  -0.5855
  O  O1503  1  0.771900  0.005900  0.417200  1.0  -0.5919
  O  O1504  1  0.082800  0.228100  0.494100  1.0  -0.5938
  O  O1505  1  0.238200  0.825800  0.814800  1.0  -0.6063
  O  O1506  1  0.756400  0.931200  0.922600  1.0  -0.5938
  O  O1507  1  0.447300  0.426000  0.739100  1.0  -0.5993
  O  O1508  1  0.049900  0.813800  0.055500  1.0  -0.5935
  O  O1509  1  0.934900  0.428200  0.187900  1.0  -0.6068
  O  O1510  1  0.812500  0.808100  0.719600  1.0  -0.5925
  O  O1511  1  0.713100  0.929500  0.005000  1.0  -0.5912
  O  O1512  1  0.330100  0.069200  0.581500  1.0  -0.6151
  O  O1513  1  0.569200  0.739100  0.987700  1.0  -0.6154
  O  O1514  1  0.684800  0.241500  0.190300  1.0  -0.5724
  O  O1515  1  0.068800  0.577400  0.743600  1.0  -0.5968
  O  O1516  1  0.010700  0.204100  0.941000  1.0  -0.5949
  O  O1517  1  0.514300  0.565700  0.735000  1.0  -0.6121
  O  O1518  1  0.831500  0.240300  0.808800  1.0  -0.5897
  O  O1519  1  0.912400  0.738200  0.423400  1.0  -0.6053
  O  O1520  1  0.001400  0.019000  0.751400  1.0  -1.0013
  O  O1521  1  0.271900  0.854700  0.766000  1.0  -0.5927
  O  O1522  1  0.213100  0.208100  0.783600  1.0  -0.59
  O  O1523  1  0.765000  0.485700  0.934300  1.0  -0.6088
  O  O1524  1  0.750000  0.751400  0.732400  1.0  -1.0011
  O  O1525  1  0.069700  0.059000  0.263100  1.0  -0.5962
  O  O1526  1  0.686200  0.236100  0.741700  1.0  -0.5981
  O  O1527  1  0.436600  0.664600  0.911400  1.0  -0.5769
  O  O1528  1  0.247000  0.006700  0.934900  1.0  -0.6115
  O  O1529  1  0.004200  0.572800  0.717200  1.0  -0.5864
  O  O1530  1  0.739100  0.813100  0.791800  1.0  -0.6005
  O  O1531  1  0.443300  0.948800  0.758500  1.0  -0.571
  O  O1532  1  0.720700  0.551400  0.485700  1.0  -0.6083
  O  O1533  1  0.815200  0.005500  0.556700  1.0  -0.5701
  O  O1534  1  0.048200  0.712000  0.976400  1.0  -0.5824
  O  O1535  1  0.587600  0.011000  0.825800  1.0  -0.6046
  O  O1536  1  0.993300  0.565100  0.253000  1.0  -0.614
  O  O1537  1  0.450100  0.505600  0.763900  1.0  -0.5952
  O  O1538  1  0.088600  0.253200  0.025200  1.0  -0.5805
  O  O1539  1  0.065700  0.051400  0.330700  1.0  -0.6114
  O  O1540  1  0.495600  0.687500  0.907100  1.0  -0.5917
  O  O1541  1  0.924500  0.429500  0.716400  1.0  -0.5899
  O  O1542  1  0.748600  0.418500  0.487700  1.0  -0.6201
  O  O1543  1  0.240300  0.308800  0.331500  1.0  -0.5899
  O  O1544  1  0.565700  0.235000  0.014300  1.0  -0.6105
  O  O1545  1  0.565100  0.753000  0.493300  1.0  -0.6123
  O  O1546  1  0.981000  0.748600  0.498600  1.0  -1.0006
  O  O1547  1  0.512300  0.430800  0.760900  1.0  -0.6159
  O  O1548  1  0.411300  0.494100  0.266000  1.0  -0.5962
  O  O1549  1  0.505000  0.713100  0.429500  1.0  -0.5911
  O  O1550  1  0.825200  0.991400  0.068800  1.0  -0.5946
  O  O1551  1  0.068600  0.495800  0.713000  1.0  -0.586
  O  O1552  1  0.230800  0.000000  0.000000  1.0  -1.111
  O  O1553  1  0.022700  0.191200  0.431500  1.0  -0.5899
  O  O1554  1  0.508600  0.833800  0.577400  1.0  -0.5945
  O  O1555  1  0.572800  0.217200  0.504200  1.0  -0.5874
  O  O1556  1  0.495800  0.213000  0.568600  1.0  -0.5847
  O  O1557  1  0.926000  0.978700  0.186900  1.0  -0.6016
  O  O1558  1  0.056700  0.815200  0.505500  1.0  -0.5714
  O  O1559  1  0.987700  0.748600  0.918500  1.0  -0.6173
  O  O1560  1  0.184800  0.994500  0.443300  1.0  -0.5712
  O  O1561  1  0.283600  0.213100  0.708100  1.0  -0.5904
  O  O1562  1  0.753200  0.164600  0.728000  1.0  -0.5787
  O  O1563  1  0.855600  0.072800  0.068600  1.0  -0.5844
  O  O1564  1  0.717200  0.644400  0.213000  1.0  -0.5821
  O  O1565  1  0.448800  0.505500  0.690300  1.0  -0.57
  O  O1566  1  0.500000  0.769200  0.500000  1.0  -1.1116
  O  O1567  1  0.739100  0.487700  0.069200  1.0  -0.6175
  O  O1568  1  0.071800  0.023600  0.735600  1.0  -0.5809
  O  O1569  1  0.164600  0.228000  0.253200  1.0  -0.5812
  O  O1570  1  0.740300  0.408800  0.931500  1.0  -0.5881
  O  O1571  1  0.791800  0.478700  0.552700  1.0  -0.5999
  O  O1572  1  0.523600  0.951800  0.788000  1.0  -0.5804
  O  O1573  1  0.693400  0.489300  0.930300  1.0  -0.5964
  O  O1574  1  0.491400  0.166200  0.422600  1.0  -0.5945
  O  O1575  1  0.575500  0.291900  0.505000  1.0  -0.591
  O  O1576  1  0.931200  0.422600  0.256400  1.0  -0.5965
  O  O1577  1  0.234000  0.588700  0.005900  1.0  -0.5925
  O  O1578  1  0.763100  0.069700  0.559000  1.0  -0.5975
  O  O1579  1  0.412400  0.989000  0.174200  1.0  -0.6084
  O  O1580  1  0.994400  0.944500  0.758300  1.0  -0.5935
  O  O1581  1  0.836200  0.548200  0.071800  1.0  -0.581
  O  O1582  1  0.017600  0.267600  0.019000  1.0  -1.0007
  O  O1583  1  0.761800  0.174200  0.185200  1.0  -0.6052
  O  O1584  1  0.005600  0.055500  0.241700  1.0  -0.5943
  O  O1585  1  0.411400  0.436600  0.164600  1.0  -0.5772
  O  O1586  1  0.313800  0.763900  0.258300  1.0  -0.5951
  O  O1587  1  0.760900  0.552700  0.074000  1.0  -0.6009
  O  O1588  1  0.333800  0.325200  0.756400  1.0  -0.5941
  O  O1589  1  0.431200  0.174800  0.508600  1.0  -0.5955
  O  O1590  1  0.951800  0.288000  0.023600  1.0  -0.5819
  O  O1591  1  0.208100  0.283600  0.713100  1.0  -0.5931
  O  O1592  1  0.191200  0.931500  0.522700  1.0  -0.5878
  O  O1593  1  0.228100  0.994100  0.582800  1.0  -0.5922
  O  O1594  1  0.266000  0.271900  0.354700  1.0  -0.5928
  O  O1595  1  0.308100  0.995600  0.588500  1.0  -0.5941
  O  O1596  1  0.193400  0.263100  0.204100  1.0  -0.596
  O  O1597  1  0.830100  0.248600  0.260900  1.0  -0.6175
  O  O1598  1  0.783600  0.075500  0.070500  1.0  -0.5889
  O  O1599  1  0.943300  0.184800  0.494500  1.0  -0.5704
  O  O1600  1  0.489300  0.430300  0.193400  1.0  -0.5963
  O  O1601  1  0.687900  0.934900  0.928200  1.0  -0.6137
  O  O1602  1  0.260900  0.186900  0.208200  1.0  -0.5993
  O  O1603  1  0.423400  0.185200  0.011000  1.0  -0.607
  O  O1604  1  0.476400  0.048200  0.212000  1.0  -0.5819
  O  O1605  1  0.191900  0.780400  0.687500  1.0  -0.593
  O  O1606  1  0.264400  0.788000  0.836200  1.0  -0.5816
  O  O1607  1  0.260900  0.512300  0.930800  1.0  -0.6187
  O  O1608  1  0.263100  0.704100  0.693400  1.0  -0.5979
  O  O1609  1  0.185200  0.511000  0.923400  1.0  -0.6045
  O  O1610  1  0.019000  0.251400  0.501400  1.0  -1.0013
  O  O1611  1  0.246800  0.835400  0.272000  1.0  -0.5805
  O  O1612  1  0.208200  0.521300  0.447300  1.0  -0.5989
  O  O1613  1  0.251400  0.001400  0.519000  1.0  -1.0009
  O  O1614  1  0.808800  0.068500  0.477300  1.0  -0.5893
  O  O1615  1  0.241700  0.686200  0.736100  1.0  -0.592
  O  O1616  1  0.235600  0.071800  0.523600  1.0  -0.5808
  O  O1617  1  0.077400  0.508600  0.333800  1.0  -0.5964
  O  O1618  1  0.741500  0.556700  0.551200  1.0  -0.5693
  O  O1619  1  0.669900  0.930800  0.418500  1.0  -0.6147
  O  O1620  1  0.005900  0.917200  0.271900  1.0  -0.592
  O  O1621  1  0.187900  0.259700  0.753000  1.0  -0.6066
  O  O1622  1  0.809700  0.551200  0.994500  1.0  -0.572
  O  O1623  1  0.746800  0.474800  0.411400  1.0  -0.5774
  O  O1624  1  0.674200  0.412400  0.489000  1.0  -0.6078
  O  O1625  1  0.444500  0.950100  0.686200  1.0  -0.596
  O  O1626  1  0.241500  0.690300  0.184800  1.0  -0.5718
  O  O1627  1  0.994100  0.082800  0.728100  1.0  -0.5925
  O  O1628  1  0.730800  0.730800  0.230800  1.0  -1.1119
  O  O1629  1  0.592900  0.504400  0.812500  1.0  -0.5922
  O  O1630  1  0.478700  0.052700  0.291800  1.0  -0.5999
  O  O1631  1  0.929500  0.505000  0.213100  1.0  -0.5908
  O  O1632  1  0.004400  0.911500  0.191900  1.0  -0.5924
  O  O1633  1  0.265000  0.330700  0.279300  1.0  -0.6104
  O  O1634  1  0.212000  0.663800  0.235600  1.0  -0.5808
  O  O1635  1  0.240300  0.928200  0.993300  1.0  -0.6068
  O  O1636  1  0.011000  0.325800  0.087600  1.0  -0.6025
  O  O1637  1  0.418500  0.987700  0.248600  1.0  -0.6214
  O  O1638  1  0.063400  0.974800  0.228000  1.0  -0.5811
  O  O1639  1  0.927200  0.431400  0.644400  1.0  -0.5855
  O  O1640  1  0.759700  0.071800  0.006700  1.0  -0.606
  O  O1641  1  0.911500  0.691900  0.504400  1.0  -0.5934
  O  O1642  1  0.813100  0.291800  0.239100  1.0  -0.5992
  O  O1643  1  0.272000  0.936600  0.525200  1.0  -0.5767
  O  O1644  1  0.779300  0.265000  0.830700  1.0  -0.6109
  O  O1645  1  0.494100  0.766000  0.911300  1.0  -0.5922
  O  O1646  1  0.169300  0.934300  0.448600  1.0  -0.6143
  O  O1647  1  0.759700  0.691200  0.668500  1.0  -0.5905
  O  O1648  1  0.911400  0.746800  0.974800  1.0  -0.5812
  O  O1649  1  0.760900  0.830100  0.748600  1.0  -0.6168
  O  O1650  1  0.740300  0.747000  0.312100  1.0  -0.61
  O  O1651  1  0.431500  0.740300  0.908800  1.0  -0.5914
  O  O1652  1  0.944500  0.258300  0.494400  1.0  -0.5924
  O  O1653  1  0.738200  0.923400  0.412400  1.0  -0.6048
  O  O1654  1  0.493300  0.240300  0.428200  1.0  -0.6073
  O  O1655  1  0.253000  0.187900  0.759700  1.0  -0.6086
  O  O1656  1  0.081500  0.330100  0.569200  1.0  -0.6148
  O  O1657  1  0.974800  0.728000  0.563400  1.0  -0.578
  O  O1658  1  0.748600  0.998600  0.481000  1.0  -1.0012
  O  O1659  1  0.767600  0.250000  0.748600  1.0  -1.001
  O  O1660  1  0.186900  0.708200  0.760900  1.0  -0.5983
  O  O1661  1  0.287000  0.282800  0.855600  1.0  -0.5823
  O  O1662  1  0.753000  0.993300  0.065100  1.0  -0.6116
  O  O1663  1  0.788000  0.336200  0.764400  1.0  -0.58
  O  O1664  1  0.922600  0.491400  0.666200  1.0  -0.5966
