# generated using pymatgen
data_Co3H180Ru24C180(N9O58)2
_symmetry_space_group_name_H-M   'P 1'
_cell_length_a   55.28900000
_cell_length_b   28.91600000
_cell_length_c   17.46800000
_cell_angle_alpha   90.00000000
_cell_angle_beta   95.92000000
_cell_angle_gamma   90.00000000
_symmetry_Int_Tables_number   1
_chemical_formula_structural   Co3H180Ru24C180(N9O58)2
_chemical_formula_sum   'Co6 H360 Ru48 C360 N36 O232'
_cell_volume   27777.79634066
_cell_formula_units_Z   2
loop_
 _symmetry_equiv_pos_site_id
 _symmetry_equiv_pos_as_xyz
  1  'x, y, z'
loop_
 _atom_site_type_symbol
 _atom_site_label
 _atom_site_symmetry_multiplicity
 _atom_site_fract_x
 _atom_site_fract_y
 _atom_site_fract_z
 _atom_site_occupancy
 _atom_site_charge
  Co  Co1  1  0.500000  0.500000  0.500000  1.0  1.0868
  Co  Co2  1  0.000000  0.000000  0.500000  1.0  1.0868
  Co  Co3  1  0.474850  0.500000  0.298900  1.0  1.0689
  Co  Co4  1  0.974850  0.000000  0.298900  1.0  1.0689
  Co  Co5  1  0.525150  0.500000  0.701100  1.0  1.0691
  Co  Co6  1  0.025150  0.000000  0.701100  1.0  1.0691
  H  H7  1  0.380800  0.120900  0.661900  1.0  0.128
  H  H8  1  0.319200  0.198600  0.642900  1.0  0.1287
  H  H9  1  0.348900  0.321100  0.667700  1.0  0.1509
  H  H10  1  0.331900  0.336200  0.592100  1.0  0.1542
  H  H11  1  0.358300  0.358500  0.610200  1.0  0.1325
  H  H12  1  0.449900  0.230000  0.616500  1.0  0.1419
  H  H13  1  0.440000  0.182800  0.649800  1.0  0.1923
  H  H14  1  0.433600  0.231300  0.687100  1.0  0.1667
  H  H15  1  0.277000  0.197800  0.412300  1.0  0.1457
  H  H16  1  0.281500  0.164300  0.485200  1.0  0.1514
  H  H17  1  0.283800  0.144600  0.400700  1.0  0.1159
  H  H18  1  0.373600  0.038400  0.490300  1.0  0.1164
  H  H19  1  0.400000  0.058200  0.479200  1.0  0.1359
  H  H20  1  0.381800  0.044300  0.405600  1.0  0.1395
  H  H21  1  0.367400  0.077300  0.767100  1.0  0.1354
  H  H22  1  0.306300  0.153400  0.746100  1.0  0.1196
  H  H23  1  0.407900  0.330000  0.325200  1.0  0.1347
  H  H24  1  0.421600  0.332400  0.557800  1.0  0.1374
  H  H25  1  0.425700  0.208800  0.225600  1.0  0.1438
  H  H26  1  0.437600  0.169400  0.281700  1.0  0.193
  H  H27  1  0.444800  0.222400  0.296900  1.0  0.1558
  H  H28  1  0.338800  0.297200  0.197500  1.0  0.1601
  H  H29  1  0.357900  0.337400  0.222700  1.0  0.1441
  H  H30  1  0.332100  0.336300  0.256500  1.0  0.1586
  H  H31  1  0.436300  0.389900  0.315500  1.0  0.1419
  H  H32  1  0.450800  0.391400  0.547100  1.0  0.1318
  H  H33  1  0.303400  0.147000  0.109400  1.0  0.1343
  H  H34  1  0.363600  0.065900  0.139100  1.0  0.1323
  H  H35  1  0.231800  0.070500  0.075400  1.0  0.137
  H  H36  1  0.233600  0.070200  0.706400  1.0  0.1254
  H  H37  1  0.317000  0.186700  0.222300  1.0  0.1233
  H  H38  1  0.376300  0.106300  0.252000  1.0  0.132
  H  H39  1  0.206700  0.069900  0.176900  1.0  0.1272
  H  H40  1  0.208200  0.069800  0.590100  1.0  0.1283
  H  H41  1  0.248200  0.098600  0.376600  1.0  0.1426
  H  H42  1  0.235700  0.115700  0.450400  1.0  0.1379
  H  H43  1  0.227300  0.137200  0.367400  1.0  0.1582
  H  H44  1  0.116700  0.911500  0.561700  1.0  0.146
  H  H45  1  0.142200  0.912100  0.614100  1.0  0.1554
  H  H46  1  0.137000  0.873900  0.548200  1.0  0.1569
  H  H47  1  0.149200  0.872300  0.186900  1.0  0.1542
  H  H48  1  0.126900  0.900800  0.144000  1.0  0.1463
  H  H49  1  0.123600  0.874100  0.222500  1.0  0.1421
  H  H50  1  0.880800  0.620900  0.661900  1.0  0.128
  H  H51  1  0.819200  0.698600  0.642900  1.0  0.1287
  H  H52  1  0.848900  0.821100  0.667700  1.0  0.1509
  H  H53  1  0.831900  0.836200  0.592100  1.0  0.1542
  H  H54  1  0.858300  0.858500  0.610200  1.0  0.1325
  H  H55  1  0.949900  0.730000  0.616500  1.0  0.1419
  H  H56  1  0.940000  0.682800  0.649800  1.0  0.1923
  H  H57  1  0.933600  0.731300  0.687100  1.0  0.1672
  H  H58  1  0.777000  0.697800  0.412300  1.0  0.1457
  H  H59  1  0.781500  0.664300  0.485200  1.0  0.1514
  H  H60  1  0.783800  0.644600  0.400700  1.0  0.1159
  H  H61  1  0.873600  0.538400  0.490300  1.0  0.1164
  H  H62  1  0.900000  0.558200  0.479200  1.0  0.1359
  H  H63  1  0.881800  0.544300  0.405600  1.0  0.1395
  H  H64  1  0.867400  0.577300  0.767100  1.0  0.1354
  H  H65  1  0.806300  0.653400  0.746100  1.0  0.1196
  H  H66  1  0.907900  0.830000  0.325200  1.0  0.1347
  H  H67  1  0.921600  0.832400  0.557800  1.0  0.1374
  H  H68  1  0.925700  0.708800  0.225600  1.0  0.1421
  H  H69  1  0.937600  0.669400  0.281700  1.0  0.1884
  H  H70  1  0.944800  0.722400  0.296900  1.0  0.1558
  H  H71  1  0.838800  0.797200  0.197500  1.0  0.1601
  H  H72  1  0.857900  0.837400  0.222700  1.0  0.1441
  H  H73  1  0.832100  0.836300  0.256500  1.0  0.1586
  H  H74  1  0.936300  0.889900  0.315500  1.0  0.143
  H  H75  1  0.950800  0.891400  0.547100  1.0  0.1318
  H  H76  1  0.803400  0.647000  0.109400  1.0  0.1343
  H  H77  1  0.863600  0.565900  0.139100  1.0  0.1323
  H  H78  1  0.731800  0.570500  0.075400  1.0  0.137
  H  H79  1  0.733600  0.570200  0.706400  1.0  0.1254
  H  H80  1  0.817000  0.686700  0.222300  1.0  0.1233
  H  H81  1  0.876300  0.606300  0.252000  1.0  0.132
  H  H82  1  0.706700  0.569900  0.176900  1.0  0.1272
  H  H83  1  0.708200  0.569800  0.590100  1.0  0.1283
  H  H84  1  0.748200  0.598600  0.376600  1.0  0.1426
  H  H85  1  0.735700  0.615700  0.450400  1.0  0.1379
  H  H86  1  0.727300  0.637200  0.367400  1.0  0.1582
  H  H87  1  0.616700  0.411500  0.561700  1.0  0.146
  H  H88  1  0.642200  0.412100  0.614100  1.0  0.1554
  H  H89  1  0.637000  0.373900  0.548200  1.0  0.1569
  H  H90  1  0.649200  0.372300  0.186900  1.0  0.1542
  H  H91  1  0.626900  0.400800  0.144000  1.0  0.1463
  H  H92  1  0.623600  0.374100  0.222500  1.0  0.1421
  H  H93  1  0.619200  0.120900  0.338100  1.0  0.128
  H  H94  1  0.680800  0.198600  0.357100  1.0  0.1281
  H  H95  1  0.651100  0.321100  0.332300  1.0  0.1493
  H  H96  1  0.668100  0.336200  0.407900  1.0  0.1547
  H  H97  1  0.641700  0.358500  0.389800  1.0  0.1327
  H  H98  1  0.550100  0.230000  0.383500  1.0  0.1384
  H  H99  1  0.560000  0.182800  0.350200  1.0  0.1906
  H  H100  1  0.566400  0.231300  0.312900  1.0  0.1661
  H  H101  1  0.723000  0.197800  0.587700  1.0  0.1475
  H  H102  1  0.718500  0.164300  0.514800  1.0  0.1515
  H  H103  1  0.716200  0.144600  0.599300  1.0  0.1172
  H  H104  1  0.626400  0.038400  0.509700  1.0  0.1156
  H  H105  1  0.600000  0.058200  0.520800  1.0  0.1344
  H  H106  1  0.618200  0.044300  0.594400  1.0  0.1395
  H  H107  1  0.632600  0.077300  0.232900  1.0  0.1352
  H  H108  1  0.693700  0.153400  0.253900  1.0  0.1195
  H  H109  1  0.592100  0.330000  0.674800  1.0  0.1355
  H  H110  1  0.578400  0.332400  0.442200  1.0  0.1375
  H  H111  1  0.574300  0.208800  0.774400  1.0  0.1434
  H  H112  1  0.562400  0.169400  0.718300  1.0  0.1921
  H  H113  1  0.555200  0.222400  0.703100  1.0  0.1518
  H  H114  1  0.661200  0.297200  0.802500  1.0  0.1628
  H  H115  1  0.642100  0.337400  0.777300  1.0  0.1449
  H  H116  1  0.667900  0.336300  0.743500  1.0  0.1607
  H  H117  1  0.563700  0.389900  0.684500  1.0  0.1417
  H  H118  1  0.549200  0.391400  0.452900  1.0  0.1316
  H  H119  1  0.696600  0.147000  0.890600  1.0  0.1346
  H  H120  1  0.636400  0.065900  0.860900  1.0  0.1322
  H  H121  1  0.768200  0.070500  0.924600  1.0  0.1371
  H  H122  1  0.766400  0.070200  0.293600  1.0  0.1255
  H  H123  1  0.683000  0.186700  0.777700  1.0  0.1236
  H  H124  1  0.623700  0.106300  0.748000  1.0  0.1319
  H  H125  1  0.793300  0.069900  0.823100  1.0  0.1274
  H  H126  1  0.791800  0.069800  0.409900  1.0  0.1277
  H  H127  1  0.751800  0.098600  0.623400  1.0  0.1433
  H  H128  1  0.764300  0.115700  0.549600  1.0  0.1387
  H  H129  1  0.772700  0.137200  0.632600  1.0  0.157
  H  H130  1  0.883300  0.911500  0.438300  1.0  0.1422
  H  H131  1  0.857800  0.912100  0.385900  1.0  0.1546
  H  H132  1  0.863000  0.873900  0.451800  1.0  0.1561
  H  H133  1  0.850800  0.872300  0.813100  1.0  0.1543
  H  H134  1  0.873100  0.900800  0.856000  1.0  0.1469
  H  H135  1  0.876400  0.874100  0.777500  1.0  0.1461
  H  H136  1  0.119200  0.620900  0.338100  1.0  0.128
  H  H137  1  0.180800  0.698600  0.357100  1.0  0.1281
  H  H138  1  0.151100  0.821100  0.332300  1.0  0.1493
  H  H139  1  0.168100  0.836200  0.407900  1.0  0.1547
  H  H140  1  0.141700  0.858500  0.389800  1.0  0.1327
  H  H141  1  0.050100  0.730000  0.383500  1.0  0.1384
  H  H142  1  0.060000  0.682800  0.350200  1.0  0.1906
  H  H143  1  0.066400  0.731300  0.312900  1.0  0.1673
  H  H144  1  0.223000  0.697800  0.587700  1.0  0.1475
  H  H145  1  0.218500  0.664300  0.514800  1.0  0.1515
  H  H146  1  0.216200  0.644600  0.599300  1.0  0.1172
  H  H147  1  0.126400  0.538400  0.509700  1.0  0.1156
  H  H148  1  0.100000  0.558200  0.520800  1.0  0.1344
  H  H149  1  0.118200  0.544300  0.594400  1.0  0.1395
  H  H150  1  0.132600  0.577300  0.232900  1.0  0.1352
  H  H151  1  0.193700  0.653400  0.253900  1.0  0.1195
  H  H152  1  0.092100  0.830000  0.674800  1.0  0.1355
  H  H153  1  0.078400  0.832400  0.442200  1.0  0.1375
  H  H154  1  0.074300  0.708800  0.774400  1.0  0.1415
  H  H155  1  0.062400  0.669400  0.718300  1.0  0.1886
  H  H156  1  0.055200  0.722400  0.703100  1.0  0.1518
  H  H157  1  0.161200  0.797200  0.802500  1.0  0.1628
  H  H158  1  0.142100  0.837400  0.777300  1.0  0.1449
  H  H159  1  0.167900  0.836300  0.743500  1.0  0.1607
  H  H160  1  0.063700  0.889900  0.684500  1.0  0.1431
  H  H161  1  0.049200  0.891400  0.452900  1.0  0.1316
  H  H162  1  0.196600  0.647000  0.890600  1.0  0.1346
  H  H163  1  0.136400  0.565900  0.860900  1.0  0.1322
  H  H164  1  0.268200  0.570500  0.924600  1.0  0.1371
  H  H165  1  0.266400  0.570200  0.293600  1.0  0.1255
  H  H166  1  0.183000  0.686700  0.777700  1.0  0.1236
  H  H167  1  0.123700  0.606300  0.748000  1.0  0.1319
  H  H168  1  0.293300  0.569900  0.823100  1.0  0.1274
  H  H169  1  0.291800  0.569800  0.409900  1.0  0.1277
  H  H170  1  0.251800  0.598600  0.623400  1.0  0.1433
  H  H171  1  0.264300  0.615700  0.549600  1.0  0.1387
  H  H172  1  0.272700  0.637200  0.632600  1.0  0.157
  H  H173  1  0.383300  0.411500  0.438300  1.0  0.1422
  H  H174  1  0.357800  0.412100  0.385900  1.0  0.1546
  H  H175  1  0.363000  0.373900  0.451800  1.0  0.1561
  H  H176  1  0.350800  0.372300  0.813100  1.0  0.1543
  H  H177  1  0.373100  0.400800  0.856000  1.0  0.1469
  H  H178  1  0.376400  0.374100  0.777500  1.0  0.1461
  H  H179  1  0.619200  0.879100  0.338100  1.0  0.128
  H  H180  1  0.680800  0.801400  0.357100  1.0  0.1277
  H  H181  1  0.651100  0.678900  0.332300  1.0  0.1491
  H  H182  1  0.668100  0.663800  0.407900  1.0  0.1545
  H  H183  1  0.641700  0.641500  0.389800  1.0  0.1324
  H  H184  1  0.550100  0.770000  0.383500  1.0  0.1368
  H  H185  1  0.560000  0.817200  0.350200  1.0  0.1898
  H  H186  1  0.566400  0.768700  0.312900  1.0  0.1668
  H  H187  1  0.723000  0.802200  0.587700  1.0  0.1492
  H  H188  1  0.718500  0.835700  0.514800  1.0  0.1515
  H  H189  1  0.716200  0.855400  0.599300  1.0  0.118
  H  H190  1  0.626400  0.961600  0.509700  1.0  0.1169
  H  H191  1  0.600000  0.941800  0.520800  1.0  0.134
  H  H192  1  0.618200  0.955700  0.594400  1.0  0.1396
  H  H193  1  0.632600  0.922700  0.232900  1.0  0.1354
  H  H194  1  0.693700  0.846600  0.253900  1.0  0.1191
  H  H195  1  0.592100  0.670000  0.674800  1.0  0.1357
  H  H196  1  0.578400  0.667600  0.442200  1.0  0.1379
  H  H197  1  0.574300  0.791200  0.774400  1.0  0.1436
  H  H198  1  0.562400  0.830600  0.718300  1.0  0.1906
  H  H199  1  0.555200  0.777600  0.703100  1.0  0.1518
  H  H200  1  0.661200  0.702800  0.802500  1.0  0.1619
  H  H201  1  0.642100  0.662600  0.777300  1.0  0.1442
  H  H202  1  0.667900  0.663700  0.743500  1.0  0.161
  H  H203  1  0.563700  0.610100  0.684500  1.0  0.1417
  H  H204  1  0.549200  0.608600  0.452900  1.0  0.1311
  H  H205  1  0.696600  0.853000  0.890600  1.0  0.1345
  H  H206  1  0.636400  0.934100  0.860900  1.0  0.1321
  H  H207  1  0.768200  0.929500  0.924600  1.0  0.1372
  H  H208  1  0.766400  0.929800  0.293600  1.0  0.1252
  H  H209  1  0.683000  0.813300  0.777700  1.0  0.1239
  H  H210  1  0.623700  0.893700  0.748000  1.0  0.1323
  H  H211  1  0.793300  0.930100  0.823100  1.0  0.127
  H  H212  1  0.791800  0.930200  0.409900  1.0  0.1273
  H  H213  1  0.751800  0.901400  0.623400  1.0  0.1439
  H  H214  1  0.764300  0.884300  0.549600  1.0  0.1387
  H  H215  1  0.772700  0.862800  0.632600  1.0  0.1571
  H  H216  1  0.883300  0.088500  0.438300  1.0  0.142
  H  H217  1  0.857800  0.087900  0.385900  1.0  0.1546
  H  H218  1  0.863000  0.126100  0.451800  1.0  0.1556
  H  H219  1  0.850800  0.127700  0.813100  1.0  0.155
  H  H220  1  0.873100  0.099200  0.856000  1.0  0.1465
  H  H221  1  0.876400  0.125900  0.777500  1.0  0.1449
  H  H222  1  0.119200  0.379100  0.338100  1.0  0.128
  H  H223  1  0.180800  0.301400  0.357100  1.0  0.1277
  H  H224  1  0.151100  0.178900  0.332300  1.0  0.1491
  H  H225  1  0.168100  0.163800  0.407900  1.0  0.1545
  H  H226  1  0.141700  0.141500  0.389800  1.0  0.1324
  H  H227  1  0.050100  0.270000  0.383500  1.0  0.1368
  H  H228  1  0.060000  0.317200  0.350200  1.0  0.1898
  H  H229  1  0.066400  0.268700  0.312900  1.0  0.1659
  H  H230  1  0.223000  0.302200  0.587700  1.0  0.1492
  H  H231  1  0.218500  0.335700  0.514800  1.0  0.1515
  H  H232  1  0.216200  0.355400  0.599300  1.0  0.118
  H  H233  1  0.126400  0.461600  0.509700  1.0  0.1169
  H  H234  1  0.100000  0.441800  0.520800  1.0  0.134
  H  H235  1  0.118200  0.455700  0.594400  1.0  0.1396
  H  H236  1  0.132600  0.422700  0.232900  1.0  0.1354
  H  H237  1  0.193700  0.346600  0.253900  1.0  0.1191
  H  H238  1  0.092100  0.170000  0.674800  1.0  0.1357
  H  H239  1  0.078400  0.167600  0.442200  1.0  0.1379
  H  H240  1  0.074300  0.291200  0.774400  1.0  0.1433
  H  H241  1  0.062400  0.330600  0.718300  1.0  0.1875
  H  H242  1  0.055200  0.277600  0.703100  1.0  0.1518
  H  H243  1  0.161200  0.202800  0.802500  1.0  0.1619
  H  H244  1  0.142100  0.162600  0.777300  1.0  0.1442
  H  H245  1  0.167900  0.163700  0.743500  1.0  0.161
  H  H246  1  0.063700  0.110100  0.684500  1.0  0.1417
  H  H247  1  0.049200  0.108600  0.452900  1.0  0.1311
  H  H248  1  0.196600  0.353000  0.890600  1.0  0.1345
  H  H249  1  0.136400  0.434100  0.860900  1.0  0.1321
  H  H250  1  0.268200  0.429500  0.924600  1.0  0.1372
  H  H251  1  0.266400  0.429800  0.293600  1.0  0.1252
  H  H252  1  0.183000  0.313300  0.777700  1.0  0.1239
  H  H253  1  0.123700  0.393700  0.748000  1.0  0.1323
  H  H254  1  0.293300  0.430100  0.823100  1.0  0.127
  H  H255  1  0.291800  0.430200  0.409900  1.0  0.1273
  H  H256  1  0.251800  0.401400  0.623400  1.0  0.1439
  H  H257  1  0.264300  0.384300  0.549600  1.0  0.1387
  H  H258  1  0.272700  0.362800  0.632600  1.0  0.1571
  H  H259  1  0.383300  0.588500  0.438300  1.0  0.142
  H  H260  1  0.357800  0.587900  0.385900  1.0  0.1546
  H  H261  1  0.363000  0.626100  0.451800  1.0  0.1556
  H  H262  1  0.350800  0.627700  0.813100  1.0  0.155
  H  H263  1  0.373100  0.599200  0.856000  1.0  0.1465
  H  H264  1  0.376400  0.625900  0.777500  1.0  0.1449
  H  H265  1  0.380800  0.879100  0.661900  1.0  0.128
  H  H266  1  0.319200  0.801400  0.642900  1.0  0.1283
  H  H267  1  0.348900  0.678900  0.667700  1.0  0.151
  H  H268  1  0.331900  0.663800  0.592100  1.0  0.1539
  H  H269  1  0.358300  0.641500  0.610200  1.0  0.1321
  H  H270  1  0.449900  0.770000  0.616500  1.0  0.1409
  H  H271  1  0.440000  0.817200  0.649800  1.0  0.1907
  H  H272  1  0.433600  0.768700  0.687100  1.0  0.1669
  H  H273  1  0.277000  0.802200  0.412300  1.0  0.1467
  H  H274  1  0.281500  0.835700  0.485200  1.0  0.1515
  H  H275  1  0.283800  0.855400  0.400700  1.0  0.1171
  H  H276  1  0.373600  0.961600  0.490300  1.0  0.1174
  H  H277  1  0.400000  0.941800  0.479200  1.0  0.1359
  H  H278  1  0.381800  0.955700  0.405600  1.0  0.1392
  H  H279  1  0.367400  0.922700  0.767100  1.0  0.1352
  H  H280  1  0.306300  0.846600  0.746100  1.0  0.1201
  H  H281  1  0.407900  0.670000  0.325200  1.0  0.1349
  H  H282  1  0.421600  0.667600  0.557800  1.0  0.1373
  H  H283  1  0.425700  0.791200  0.225600  1.0  0.1437
  H  H284  1  0.437600  0.830600  0.281700  1.0  0.1917
  H  H285  1  0.444800  0.777600  0.296900  1.0  0.1559
  H  H286  1  0.338800  0.702800  0.197500  1.0  0.1596
  H  H287  1  0.357900  0.662600  0.222700  1.0  0.1439
  H  H288  1  0.332100  0.663700  0.256500  1.0  0.1592
  H  H289  1  0.436300  0.610100  0.315500  1.0  0.1417
  H  H290  1  0.450800  0.608600  0.547100  1.0  0.1314
  H  H291  1  0.303400  0.853000  0.109400  1.0  0.1343
  H  H292  1  0.363600  0.934100  0.139100  1.0  0.1323
  H  H293  1  0.231800  0.929500  0.075400  1.0  0.1371
  H  H294  1  0.233600  0.929800  0.706400  1.0  0.1251
  H  H295  1  0.317000  0.813300  0.222300  1.0  0.1233
  H  H296  1  0.376300  0.893700  0.252000  1.0  0.1322
  H  H297  1  0.206700  0.930100  0.176900  1.0  0.1269
  H  H298  1  0.208200  0.930200  0.590100  1.0  0.1275
  H  H299  1  0.248200  0.901400  0.376600  1.0  0.1429
  H  H300  1  0.235700  0.884300  0.450400  1.0  0.1373
  H  H301  1  0.227300  0.862800  0.367400  1.0  0.1575
  H  H302  1  0.116700  0.088500  0.561700  1.0  0.146
  H  H303  1  0.142200  0.087900  0.614100  1.0  0.1553
  H  H304  1  0.137000  0.126100  0.548200  1.0  0.1552
  H  H305  1  0.149200  0.127700  0.186900  1.0  0.1546
  H  H306  1  0.126900  0.099200  0.144000  1.0  0.1461
  H  H307  1  0.123600  0.125900  0.222500  1.0  0.1433
  H  H308  1  0.880800  0.379100  0.661900  1.0  0.128
  H  H309  1  0.819200  0.301400  0.642900  1.0  0.1283
  H  H310  1  0.848900  0.178900  0.667700  1.0  0.151
  H  H311  1  0.831900  0.163800  0.592100  1.0  0.1539
  H  H312  1  0.858300  0.141500  0.610200  1.0  0.1321
  H  H313  1  0.949900  0.270000  0.616500  1.0  0.1409
  H  H314  1  0.940000  0.317200  0.649800  1.0  0.1907
  H  H315  1  0.933600  0.268700  0.687100  1.0  0.1661
  H  H316  1  0.777000  0.302200  0.412300  1.0  0.1467
  H  H317  1  0.781500  0.335700  0.485200  1.0  0.1515
  H  H318  1  0.783800  0.355400  0.400700  1.0  0.1171
  H  H319  1  0.873600  0.461600  0.490300  1.0  0.1174
  H  H320  1  0.900000  0.441800  0.479200  1.0  0.1359
  H  H321  1  0.881800  0.455700  0.405600  1.0  0.1392
  H  H322  1  0.867400  0.422700  0.767100  1.0  0.1352
  H  H323  1  0.806300  0.346600  0.746100  1.0  0.1201
  H  H324  1  0.907900  0.170000  0.325200  1.0  0.1349
  H  H325  1  0.921600  0.167600  0.557800  1.0  0.1373
  H  H326  1  0.925700  0.291200  0.225600  1.0  0.1433
  H  H327  1  0.937600  0.330600  0.281700  1.0  0.1875
  H  H328  1  0.944800  0.277600  0.296900  1.0  0.1559
  H  H329  1  0.838800  0.202800  0.197500  1.0  0.1596
  H  H330  1  0.857900  0.162600  0.222700  1.0  0.1439
  H  H331  1  0.832100  0.163700  0.256500  1.0  0.1592
  H  H332  1  0.936300  0.110100  0.315500  1.0  0.1417
  H  H333  1  0.950800  0.108600  0.547100  1.0  0.1314
  H  H334  1  0.803400  0.353000  0.109400  1.0  0.1343
  H  H335  1  0.863600  0.434100  0.139100  1.0  0.1323
  H  H336  1  0.731800  0.429500  0.075400  1.0  0.1371
  H  H337  1  0.733600  0.429800  0.706400  1.0  0.1251
  H  H338  1  0.817000  0.313300  0.222300  1.0  0.1233
  H  H339  1  0.876300  0.393700  0.252000  1.0  0.1322
  H  H340  1  0.706700  0.430100  0.176900  1.0  0.1269
  H  H341  1  0.708200  0.430200  0.590100  1.0  0.1275
  H  H342  1  0.748200  0.401400  0.376600  1.0  0.1429
  H  H343  1  0.735700  0.384300  0.450400  1.0  0.1373
  H  H344  1  0.727300  0.362800  0.367400  1.0  0.1575
  H  H345  1  0.616700  0.588500  0.561700  1.0  0.146
  H  H346  1  0.642200  0.587900  0.614100  1.0  0.1553
  H  H347  1  0.637000  0.626100  0.548200  1.0  0.1552
  H  H348  1  0.649200  0.627700  0.186900  1.0  0.1546
  H  H349  1  0.626900  0.599200  0.144000  1.0  0.1461
  H  H350  1  0.623600  0.625900  0.222500  1.0  0.1433
  H  H351  1  0.091600  0.000000  0.237400  1.0  0.1387
  H  H352  1  0.092300  0.000000  0.470300  1.0  0.1347
  H  H353  1  0.048400  0.000000  0.226500  1.0  0.1431
  H  H354  1  0.049100  0.000000  0.457900  1.0  0.1386
  H  H355  1  0.591600  0.500000  0.237400  1.0  0.1387
  H  H356  1  0.592300  0.500000  0.470300  1.0  0.1347
  H  H357  1  0.548400  0.500000  0.226500  1.0  0.1427
  H  H358  1  0.549100  0.500000  0.457900  1.0  0.1386
  H  H359  1  0.908400  0.000000  0.762600  1.0  0.1391
  H  H360  1  0.907700  0.000000  0.529700  1.0  0.1353
  H  H361  1  0.951600  0.000000  0.773500  1.0  0.1422
  H  H362  1  0.950900  0.000000  0.542100  1.0  0.1389
  H  H363  1  0.408400  0.500000  0.762600  1.0  0.1391
  H  H364  1  0.407700  0.500000  0.529700  1.0  0.1353
  H  H365  1  0.451600  0.500000  0.773500  1.0  0.1415
  H  H366  1  0.450900  0.500000  0.542100  1.0  0.1389
  Ru  Ru367  1  0.362110  0.189570  0.542340  1.0  0.9829
  Ru  Ru368  1  0.390950  0.266340  0.445280  1.0  0.9053
  Ru  Ru369  1  0.359290  0.183580  0.350800  1.0  0.9544
  Ru  Ru370  1  0.282420  0.061190  0.914740  1.0  0.9597
  Ru  Ru371  1  0.862110  0.689570  0.542340  1.0  0.9829
  Ru  Ru372  1  0.890950  0.766340  0.445280  1.0  0.9053
  Ru  Ru373  1  0.859290  0.683580  0.350800  1.0  0.9544
  Ru  Ru374  1  0.782420  0.561190  0.914740  1.0  0.9597
  Ru  Ru375  1  0.637890  0.189570  0.457660  1.0  0.9824
  Ru  Ru376  1  0.609050  0.266340  0.554720  1.0  0.9072
  Ru  Ru377  1  0.640710  0.183580  0.649200  1.0  0.9506
  Ru  Ru378  1  0.717580  0.061190  0.085260  1.0  0.9592
  Ru  Ru379  1  0.137890  0.689570  0.457660  1.0  0.9824
  Ru  Ru380  1  0.109050  0.766340  0.554720  1.0  0.9072
  Ru  Ru381  1  0.140710  0.683580  0.649200  1.0  0.9506
  Ru  Ru382  1  0.217580  0.561190  0.085260  1.0  0.9592
  Ru  Ru383  1  0.637890  0.810430  0.457660  1.0  0.9828
  Ru  Ru384  1  0.609050  0.733660  0.554720  1.0  0.9066
  Ru  Ru385  1  0.640710  0.816420  0.649200  1.0  0.9506
  Ru  Ru386  1  0.717580  0.938810  0.085260  1.0  0.9563
  Ru  Ru387  1  0.137890  0.310430  0.457660  1.0  0.9828
  Ru  Ru388  1  0.109050  0.233660  0.554720  1.0  0.9066
  Ru  Ru389  1  0.140710  0.316420  0.649200  1.0  0.9506
  Ru  Ru390  1  0.217580  0.438810  0.085260  1.0  0.9563
  Ru  Ru391  1  0.362110  0.810430  0.542340  1.0  0.9831
  Ru  Ru392  1  0.390950  0.733660  0.445280  1.0  0.9049
  Ru  Ru393  1  0.359290  0.816420  0.350800  1.0  0.9545
  Ru  Ru394  1  0.282420  0.938810  0.914740  1.0  0.9578
  Ru  Ru395  1  0.862110  0.310430  0.542340  1.0  0.9831
  Ru  Ru396  1  0.890950  0.233660  0.445280  1.0  0.9049
  Ru  Ru397  1  0.859290  0.316420  0.350800  1.0  0.9545
  Ru  Ru398  1  0.782420  0.438810  0.914740  1.0  0.9578
  Ru  Ru399  1  0.337530  0.000000  0.934700  1.0  0.8344
  Ru  Ru400  1  0.185350  0.000000  0.285180  1.0  0.9252
  Ru  Ru401  1  0.186960  0.000000  0.475400  1.0  0.8974
  Ru  Ru402  1  0.134150  0.000000  0.367430  1.0  0.9156
  Ru  Ru403  1  0.837530  0.500000  0.934700  1.0  0.8344
  Ru  Ru404  1  0.685350  0.500000  0.285180  1.0  0.9252
  Ru  Ru405  1  0.686960  0.500000  0.475400  1.0  0.8974
  Ru  Ru406  1  0.634150  0.500000  0.367430  1.0  0.9156
  Ru  Ru407  1  0.662470  0.000000  0.065300  1.0  0.8338
  Ru  Ru408  1  0.814650  0.000000  0.714820  1.0  0.924
  Ru  Ru409  1  0.813040  0.000000  0.524600  1.0  0.8956
  Ru  Ru410  1  0.865850  0.000000  0.632570  1.0  0.9147
  Ru  Ru411  1  0.162470  0.500000  0.065300  1.0  0.8338
  Ru  Ru412  1  0.314650  0.500000  0.714820  1.0  0.924
  Ru  Ru413  1  0.313040  0.500000  0.524600  1.0  0.8956
  Ru  Ru414  1  0.365850  0.500000  0.632570  1.0  0.9147
  C  C415  1  0.358800  0.291100  0.569200  1.0  0.6645
  C  C416  1  0.412200  0.215200  0.584400  1.0  0.5653
  C  C417  1  0.313700  0.181800  0.446500  1.0  0.4732
  C  C418  1  0.373500  0.107400  0.452700  1.0  0.5526
  C  C419  1  0.365700  0.127200  0.680500  1.0  0.1578
  C  C420  1  0.328600  0.174300  0.668000  1.0  0.1254
  C  C421  1  0.348700  0.330300  0.613700  1.0  -0.3866
  C  C422  1  0.436300  0.215500  0.639100  1.0  -0.3669
  C  C423  1  0.286600  0.171600  0.434500  1.0  -0.3268
  C  C424  1  0.382900  0.057500  0.457500  1.0  -0.3503
  C  C425  1  0.357900  0.101400  0.742300  1.0  -0.0393
  C  C426  1  0.321700  0.147600  0.728500  1.0  -0.0608
  C  C427  1  0.411200  0.205600  0.332600  1.0  0.7134
  C  C428  1  0.354700  0.284300  0.306100  1.0  0.7871
  C  C429  1  0.416700  0.342400  0.370200  1.0  0.1723
  C  C430  1  0.424900  0.343900  0.508900  1.0  0.1672
  C  C431  1  0.336000  0.111800  0.766800  1.0  -0.1346
  C  C432  1  0.431600  0.201300  0.278900  1.0  -0.3867
  C  C433  1  0.345300  0.317300  0.240000  1.0  -0.3678
  C  C434  1  0.433500  0.378000  0.364400  1.0  -0.0757
  C  C435  1  0.441800  0.379400  0.502100  1.0  -0.0213
  C  C436  1  0.325800  0.083200  0.826200  1.0  0.7953
  C  C437  1  0.445900  0.396100  0.430900  1.0  -0.1141
  C  C438  1  0.463200  0.434200  0.416500  1.0  0.7002
  C  C439  1  0.322800  0.075100  0.041400  1.0  0.7496
  C  C440  1  0.331800  0.102300  0.114200  1.0  -0.1307
  C  C441  1  0.318000  0.138600  0.139500  1.0  -0.0824
  C  C442  1  0.353900  0.090400  0.155600  1.0  -0.0283
  C  C443  1  0.226500  0.042100  0.095000  1.0  -0.0441
  C  C444  1  0.228500  0.041600  0.683200  1.0  -0.0455
  C  C445  1  0.326400  0.161800  0.205500  1.0  0.1716
  C  C446  1  0.361700  0.114200  0.221400  1.0  0.1324
  C  C447  1  0.211600  0.041500  0.155500  1.0  0.1648
  C  C448  1  0.213500  0.041500  0.613700  1.0  0.1646
  C  C449  1  0.215700  0.072800  0.380200  1.0  0.4358
  C  C450  1  0.144400  0.939300  0.504600  1.0  0.7155
  C  C451  1  0.233000  0.109100  0.395100  1.0  -0.3206
  C  C452  1  0.134200  0.906100  0.562400  1.0  -0.4344
  C  C453  1  0.144400  0.933700  0.242700  1.0  0.7489
  C  C454  1  0.135000  0.891600  0.194300  1.0  -0.4067
  C  C455  1  0.858800  0.791100  0.569200  1.0  0.6645
  C  C456  1  0.912200  0.715200  0.584400  1.0  0.5653
  C  C457  1  0.813700  0.681800  0.446500  1.0  0.4732
  C  C458  1  0.873500  0.607400  0.452700  1.0  0.5526
  C  C459  1  0.865700  0.627200  0.680500  1.0  0.1578
  C  C460  1  0.828600  0.674300  0.668000  1.0  0.1254
  C  C461  1  0.848700  0.830300  0.613700  1.0  -0.3866
  C  C462  1  0.936300  0.715500  0.639100  1.0  -0.3669
  C  C463  1  0.786600  0.671600  0.434500  1.0  -0.3268
  C  C464  1  0.882900  0.557500  0.457500  1.0  -0.3503
  C  C465  1  0.857900  0.601400  0.742300  1.0  -0.0393
  C  C466  1  0.821700  0.647600  0.728500  1.0  -0.0608
  C  C467  1  0.911200  0.705600  0.332600  1.0  0.7134
  C  C468  1  0.854700  0.784300  0.306100  1.0  0.7871
  C  C469  1  0.916700  0.842400  0.370200  1.0  0.1723
  C  C470  1  0.924900  0.843900  0.508900  1.0  0.1672
  C  C471  1  0.836000  0.611800  0.766800  1.0  -0.1346
  C  C472  1  0.931600  0.701300  0.278900  1.0  -0.3867
  C  C473  1  0.845300  0.817300  0.240000  1.0  -0.3678
  C  C474  1  0.933500  0.878000  0.364400  1.0  -0.0757
  C  C475  1  0.941800  0.879400  0.502100  1.0  -0.0213
  C  C476  1  0.825800  0.583200  0.826200  1.0  0.7953
  C  C477  1  0.945900  0.896100  0.430900  1.0  -0.1141
  C  C478  1  0.963200  0.934200  0.416500  1.0  0.7002
  C  C479  1  0.822800  0.575100  0.041400  1.0  0.7496
  C  C480  1  0.831800  0.602300  0.114200  1.0  -0.1307
  C  C481  1  0.818000  0.638600  0.139500  1.0  -0.0824
  C  C482  1  0.853900  0.590400  0.155600  1.0  -0.0283
  C  C483  1  0.726500  0.542100  0.095000  1.0  -0.0441
  C  C484  1  0.728500  0.541600  0.683200  1.0  -0.0455
  C  C485  1  0.826400  0.661800  0.205500  1.0  0.1716
  C  C486  1  0.861700  0.614200  0.221400  1.0  0.1324
  C  C487  1  0.711600  0.541500  0.155500  1.0  0.1648
  C  C488  1  0.713500  0.541500  0.613700  1.0  0.1646
  C  C489  1  0.715700  0.572800  0.380200  1.0  0.4358
  C  C490  1  0.644400  0.439300  0.504600  1.0  0.7155
  C  C491  1  0.733000  0.609100  0.395100  1.0  -0.3206
  C  C492  1  0.634200  0.406100  0.562400  1.0  -0.4344
  C  C493  1  0.644400  0.433700  0.242700  1.0  0.7489
  C  C494  1  0.635000  0.391600  0.194300  1.0  -0.4067
  C  C495  1  0.641200  0.291100  0.430800  1.0  0.6643
  C  C496  1  0.587800  0.215200  0.415600  1.0  0.5632
  C  C497  1  0.686300  0.181800  0.553500  1.0  0.4722
  C  C498  1  0.626500  0.107400  0.547300  1.0  0.5525
  C  C499  1  0.634300  0.127200  0.319500  1.0  0.1587
  C  C500  1  0.671400  0.174300  0.332000  1.0  0.1258
  C  C501  1  0.651300  0.330300  0.386300  1.0  -0.3911
  C  C502  1  0.563700  0.215500  0.360900  1.0  -0.3681
  C  C503  1  0.713400  0.171600  0.565500  1.0  -0.3268
  C  C504  1  0.617100  0.057500  0.542500  1.0  -0.3501
  C  C505  1  0.642100  0.101400  0.257700  1.0  -0.0415
  C  C506  1  0.678300  0.147600  0.271500  1.0  -0.0586
  C  C507  1  0.588800  0.205600  0.667400  1.0  0.7144
  C  C508  1  0.645300  0.284300  0.693900  1.0  0.7847
  C  C509  1  0.583300  0.342400  0.629800  1.0  0.1703
  C  C510  1  0.575100  0.343900  0.491100  1.0  0.1677
  C  C511  1  0.664000  0.111800  0.233200  1.0  -0.1337
  C  C512  1  0.568400  0.201300  0.721100  1.0  -0.3843
  C  C513  1  0.654700  0.317300  0.760000  1.0  -0.3686
  C  C514  1  0.566500  0.378000  0.635600  1.0  -0.0765
  C  C515  1  0.558200  0.379400  0.497900  1.0  -0.0212
  C  C516  1  0.674200  0.083200  0.173800  1.0  0.7953
  C  C517  1  0.554100  0.396100  0.569100  1.0  -0.1149
  C  C518  1  0.536800  0.434200  0.583500  1.0  0.6985
  C  C519  1  0.677200  0.075100  0.958600  1.0  0.75
  C  C520  1  0.668200  0.102300  0.885800  1.0  -0.1296
  C  C521  1  0.682000  0.138600  0.860500  1.0  -0.0813
  C  C522  1  0.646100  0.090400  0.844400  1.0  -0.028
  C  C523  1  0.773500  0.042100  0.905000  1.0  -0.0438
  C  C524  1  0.771500  0.041600  0.316800  1.0  -0.0458
  C  C525  1  0.673600  0.161800  0.794500  1.0  0.1706
  C  C526  1  0.638300  0.114200  0.778600  1.0  0.1322
  C  C527  1  0.788400  0.041500  0.844500  1.0  0.1648
  C  C528  1  0.786500  0.041500  0.386300  1.0  0.1638
  C  C529  1  0.784300  0.072800  0.619800  1.0  0.438
  C  C530  1  0.855600  0.939300  0.495400  1.0  0.7148
  C  C531  1  0.767000  0.109100  0.604900  1.0  -0.3214
  C  C532  1  0.865800  0.906100  0.437600  1.0  -0.4307
  C  C533  1  0.855600  0.933700  0.757300  1.0  0.7481
  C  C534  1  0.865000  0.891600  0.805700  1.0  -0.4085
  C  C535  1  0.141200  0.791100  0.430800  1.0  0.6643
  C  C536  1  0.087800  0.715200  0.415600  1.0  0.5632
  C  C537  1  0.186300  0.681800  0.553500  1.0  0.4722
  C  C538  1  0.126500  0.607400  0.547300  1.0  0.5525
  C  C539  1  0.134300  0.627200  0.319500  1.0  0.1587
  C  C540  1  0.171400  0.674300  0.332000  1.0  0.1258
  C  C541  1  0.151300  0.830300  0.386300  1.0  -0.3911
  C  C542  1  0.063700  0.715500  0.360900  1.0  -0.3681
  C  C543  1  0.213400  0.671600  0.565500  1.0  -0.3268
  C  C544  1  0.117100  0.557500  0.542500  1.0  -0.3501
  C  C545  1  0.142100  0.601400  0.257700  1.0  -0.0415
  C  C546  1  0.178300  0.647600  0.271500  1.0  -0.0586
  C  C547  1  0.088800  0.705600  0.667400  1.0  0.7144
  C  C548  1  0.145300  0.784300  0.693900  1.0  0.7847
  C  C549  1  0.083300  0.842400  0.629800  1.0  0.1703
  C  C550  1  0.075100  0.843900  0.491100  1.0  0.1677
  C  C551  1  0.164000  0.611800  0.233200  1.0  -0.1337
  C  C552  1  0.068400  0.701300  0.721100  1.0  -0.3843
  C  C553  1  0.154700  0.817300  0.760000  1.0  -0.3686
  C  C554  1  0.066500  0.878000  0.635600  1.0  -0.0765
  C  C555  1  0.058200  0.879400  0.497900  1.0  -0.0212
  C  C556  1  0.174200  0.583200  0.173800  1.0  0.7953
  C  C557  1  0.054100  0.896100  0.569100  1.0  -0.1149
  C  C558  1  0.036800  0.934200  0.583500  1.0  0.6985
  C  C559  1  0.177200  0.575100  0.958600  1.0  0.75
  C  C560  1  0.168200  0.602300  0.885800  1.0  -0.1296
  C  C561  1  0.182000  0.638600  0.860500  1.0  -0.0813
  C  C562  1  0.146100  0.590400  0.844400  1.0  -0.028
  C  C563  1  0.273500  0.542100  0.905000  1.0  -0.0438
  C  C564  1  0.271500  0.541600  0.316800  1.0  -0.0458
  C  C565  1  0.173600  0.661800  0.794500  1.0  0.1706
  C  C566  1  0.138300  0.614200  0.778600  1.0  0.1322
  C  C567  1  0.288400  0.541500  0.844500  1.0  0.1648
  C  C568  1  0.286500  0.541500  0.386300  1.0  0.1638
  C  C569  1  0.284300  0.572800  0.619800  1.0  0.438
  C  C570  1  0.355600  0.439300  0.495400  1.0  0.7148
  C  C571  1  0.267000  0.609100  0.604900  1.0  -0.3214
  C  C572  1  0.365800  0.406100  0.437600  1.0  -0.4307
  C  C573  1  0.355600  0.433700  0.757300  1.0  0.7481
  C  C574  1  0.365000  0.391600  0.805700  1.0  -0.4085
  C  C575  1  0.641200  0.708900  0.430800  1.0  0.6648
  C  C576  1  0.587800  0.784800  0.415600  1.0  0.5615
  C  C577  1  0.686300  0.818200  0.553500  1.0  0.4726
  C  C578  1  0.626500  0.892600  0.547300  1.0  0.5543
  C  C579  1  0.634300  0.872800  0.319500  1.0  0.1586
  C  C580  1  0.671400  0.825700  0.332000  1.0  0.1271
  C  C581  1  0.651300  0.669700  0.386300  1.0  -0.3891
  C  C582  1  0.563700  0.784500  0.360900  1.0  -0.3681
  C  C583  1  0.713400  0.828400  0.565500  1.0  -0.3261
  C  C584  1  0.617100  0.942500  0.542500  1.0  -0.3484
  C  C585  1  0.642100  0.898600  0.257700  1.0  -0.042
  C  C586  1  0.678300  0.852400  0.271500  1.0  -0.0587
  C  C587  1  0.588800  0.794400  0.667400  1.0  0.7142
  C  C588  1  0.645300  0.715700  0.693900  1.0  0.7855
  C  C589  1  0.583300  0.657600  0.629800  1.0  0.17
  C  C590  1  0.575100  0.656100  0.491100  1.0  0.1678
  C  C591  1  0.664000  0.888200  0.233200  1.0  -0.1337
  C  C592  1  0.568400  0.798700  0.721100  1.0  -0.3843
  C  C593  1  0.654700  0.682700  0.760000  1.0  -0.3695
  C  C594  1  0.566500  0.622000  0.635600  1.0  -0.076
  C  C595  1  0.558200  0.620600  0.497900  1.0  -0.0219
  C  C596  1  0.674200  0.916800  0.173800  1.0  0.7964
  C  C597  1  0.554100  0.603900  0.569100  1.0  -0.1139
  C  C598  1  0.536800  0.565800  0.583500  1.0  0.6977
  C  C599  1  0.677200  0.924900  0.958600  1.0  0.7502
  C  C600  1  0.668200  0.897700  0.885800  1.0  -0.1294
  C  C601  1  0.682000  0.861400  0.860500  1.0  -0.0813
  C  C602  1  0.646100  0.909600  0.844400  1.0  -0.0291
  C  C603  1  0.773500  0.957900  0.905000  1.0  -0.0442
  C  C604  1  0.771500  0.958400  0.316800  1.0  -0.0461
  C  C605  1  0.673600  0.838200  0.794500  1.0  0.1706
  C  C606  1  0.638300  0.885800  0.778600  1.0  0.132
  C  C607  1  0.788400  0.958500  0.844500  1.0  0.1657
  C  C608  1  0.786500  0.958500  0.386300  1.0  0.1638
  C  C609  1  0.784300  0.927200  0.619800  1.0  0.4391
  C  C610  1  0.855600  0.060700  0.495400  1.0  0.715
  C  C611  1  0.767000  0.890900  0.604900  1.0  -0.321
  C  C612  1  0.865800  0.093900  0.437600  1.0  -0.4325
  C  C613  1  0.855600  0.066300  0.757300  1.0  0.7475
  C  C614  1  0.865000  0.108400  0.805700  1.0  -0.4083
  C  C615  1  0.141200  0.208900  0.430800  1.0  0.6648
  C  C616  1  0.087800  0.284800  0.415600  1.0  0.5615
  C  C617  1  0.186300  0.318200  0.553500  1.0  0.4726
  C  C618  1  0.126500  0.392600  0.547300  1.0  0.5543
  C  C619  1  0.134300  0.372800  0.319500  1.0  0.1586
  C  C620  1  0.171400  0.325700  0.332000  1.0  0.1271
  C  C621  1  0.151300  0.169700  0.386300  1.0  -0.3891
  C  C622  1  0.063700  0.284500  0.360900  1.0  -0.3681
  C  C623  1  0.213400  0.328400  0.565500  1.0  -0.3261
  C  C624  1  0.117100  0.442500  0.542500  1.0  -0.3484
  C  C625  1  0.142100  0.398600  0.257700  1.0  -0.042
  C  C626  1  0.178300  0.352400  0.271500  1.0  -0.0587
  C  C627  1  0.088800  0.294400  0.667400  1.0  0.7142
  C  C628  1  0.145300  0.215700  0.693900  1.0  0.7855
  C  C629  1  0.083300  0.157600  0.629800  1.0  0.17
  C  C630  1  0.075100  0.156100  0.491100  1.0  0.1678
  C  C631  1  0.164000  0.388200  0.233200  1.0  -0.1337
  C  C632  1  0.068400  0.298700  0.721100  1.0  -0.3843
  C  C633  1  0.154700  0.182700  0.760000  1.0  -0.3695
  C  C634  1  0.066500  0.122000  0.635600  1.0  -0.076
  C  C635  1  0.058200  0.120600  0.497900  1.0  -0.0219
  C  C636  1  0.174200  0.416800  0.173800  1.0  0.7964
  C  C637  1  0.054100  0.103900  0.569100  1.0  -0.1139
  C  C638  1  0.036800  0.065800  0.583500  1.0  0.6977
  C  C639  1  0.177200  0.424900  0.958600  1.0  0.7502
  C  C640  1  0.168200  0.397700  0.885800  1.0  -0.1294
  C  C641  1  0.182000  0.361400  0.860500  1.0  -0.0813
  C  C642  1  0.146100  0.409600  0.844400  1.0  -0.0291
  C  C643  1  0.273500  0.457900  0.905000  1.0  -0.0442
  C  C644  1  0.271500  0.458400  0.316800  1.0  -0.0461
  C  C645  1  0.173600  0.338200  0.794500  1.0  0.1706
  C  C646  1  0.138300  0.385800  0.778600  1.0  0.132
  C  C647  1  0.288400  0.458500  0.844500  1.0  0.1657
  C  C648  1  0.286500  0.458500  0.386300  1.0  0.1638
  C  C649  1  0.284300  0.427200  0.619800  1.0  0.4391
  C  C650  1  0.355600  0.560700  0.495400  1.0  0.715
  C  C651  1  0.267000  0.390900  0.604900  1.0  -0.321
  C  C652  1  0.365800  0.593900  0.437600  1.0  -0.4325
  C  C653  1  0.355600  0.566300  0.757300  1.0  0.7475
  C  C654  1  0.365000  0.608400  0.805700  1.0  -0.4083
  C  C655  1  0.358800  0.708900  0.569200  1.0  0.6653
  C  C656  1  0.412200  0.784800  0.584400  1.0  0.5642
  C  C657  1  0.313700  0.818200  0.446500  1.0  0.4727
  C  C658  1  0.373500  0.892600  0.452700  1.0  0.5542
  C  C659  1  0.365700  0.872800  0.680500  1.0  0.1581
  C  C660  1  0.328600  0.825700  0.668000  1.0  0.1262
  C  C661  1  0.348700  0.669700  0.613700  1.0  -0.3896
  C  C662  1  0.436300  0.784500  0.639100  1.0  -0.3669
  C  C663  1  0.286600  0.828400  0.434500  1.0  -0.3263
  C  C664  1  0.382900  0.942500  0.457500  1.0  -0.3493
  C  C665  1  0.357900  0.898600  0.742300  1.0  -0.0403
  C  C666  1  0.321700  0.852400  0.728500  1.0  -0.0604
  C  C667  1  0.411200  0.794400  0.332600  1.0  0.7134
  C  C668  1  0.354700  0.715700  0.306100  1.0  0.7882
  C  C669  1  0.416700  0.657600  0.370200  1.0  0.172
  C  C670  1  0.424900  0.656100  0.508900  1.0  0.1672
  C  C671  1  0.336000  0.888200  0.766800  1.0  -0.1344
  C  C672  1  0.431600  0.798700  0.278900  1.0  -0.3866
  C  C673  1  0.345300  0.682700  0.240000  1.0  -0.3661
  C  C674  1  0.433500  0.622000  0.364400  1.0  -0.0744
  C  C675  1  0.441800  0.620600  0.502100  1.0  -0.022
  C  C676  1  0.325800  0.916800  0.826200  1.0  0.7963
  C  C677  1  0.445900  0.603900  0.430900  1.0  -0.1141
  C  C678  1  0.463200  0.565800  0.416500  1.0  0.6992
  C  C679  1  0.322800  0.924900  0.041400  1.0  0.75
  C  C680  1  0.331800  0.897700  0.114200  1.0  -0.1301
  C  C681  1  0.318000  0.861400  0.139500  1.0  -0.082
  C  C682  1  0.353900  0.909600  0.155600  1.0  -0.0283
  C  C683  1  0.226500  0.957900  0.095000  1.0  -0.0443
  C  C684  1  0.228500  0.958400  0.683200  1.0  -0.0466
  C  C685  1  0.326400  0.838200  0.205500  1.0  0.1723
  C  C686  1  0.361700  0.885800  0.221400  1.0  0.1325
  C  C687  1  0.211600  0.958500  0.155500  1.0  0.1656
  C  C688  1  0.213500  0.958500  0.613700  1.0  0.1644
  C  C689  1  0.215700  0.927200  0.380200  1.0  0.4362
  C  C690  1  0.144400  0.060700  0.504600  1.0  0.7154
  C  C691  1  0.233000  0.890900  0.395100  1.0  -0.3206
  C  C692  1  0.134200  0.093900  0.562400  1.0  -0.4326
  C  C693  1  0.144400  0.066300  0.242700  1.0  0.7496
  C  C694  1  0.135000  0.108400  0.194300  1.0  -0.405
  C  C695  1  0.858800  0.208900  0.569200  1.0  0.6653
  C  C696  1  0.912200  0.284800  0.584400  1.0  0.5642
  C  C697  1  0.813700  0.318200  0.446500  1.0  0.4727
  C  C698  1  0.873500  0.392600  0.452700  1.0  0.5542
  C  C699  1  0.865700  0.372800  0.680500  1.0  0.1581
  C  C700  1  0.828600  0.325700  0.668000  1.0  0.1262
  C  C701  1  0.848700  0.169700  0.613700  1.0  -0.3896
  C  C702  1  0.936300  0.284500  0.639100  1.0  -0.3669
  C  C703  1  0.786600  0.328400  0.434500  1.0  -0.3263
  C  C704  1  0.882900  0.442500  0.457500  1.0  -0.3493
  C  C705  1  0.857900  0.398600  0.742300  1.0  -0.0403
  C  C706  1  0.821700  0.352400  0.728500  1.0  -0.0604
  C  C707  1  0.911200  0.294400  0.332600  1.0  0.7134
  C  C708  1  0.854700  0.215700  0.306100  1.0  0.7882
  C  C709  1  0.916700  0.157600  0.370200  1.0  0.172
  C  C710  1  0.924900  0.156100  0.508900  1.0  0.1672
  C  C711  1  0.836000  0.388200  0.766800  1.0  -0.1344
  C  C712  1  0.931600  0.298700  0.278900  1.0  -0.3866
  C  C713  1  0.845300  0.182700  0.240000  1.0  -0.3661
  C  C714  1  0.933500  0.122000  0.364400  1.0  -0.0744
  C  C715  1  0.941800  0.120600  0.502100  1.0  -0.022
  C  C716  1  0.825800  0.416800  0.826200  1.0  0.7963
  C  C717  1  0.945900  0.103900  0.430900  1.0  -0.1141
  C  C718  1  0.963200  0.065800  0.416500  1.0  0.6992
  C  C719  1  0.822800  0.424900  0.041400  1.0  0.75
  C  C720  1  0.831800  0.397700  0.114200  1.0  -0.1301
  C  C721  1  0.818000  0.361400  0.139500  1.0  -0.082
  C  C722  1  0.853900  0.409600  0.155600  1.0  -0.0283
  C  C723  1  0.726500  0.457900  0.095000  1.0  -0.0443
  C  C724  1  0.728500  0.458400  0.683200  1.0  -0.0466
  C  C725  1  0.826400  0.338200  0.205500  1.0  0.1723
  C  C726  1  0.861700  0.385800  0.221400  1.0  0.1325
  C  C727  1  0.711600  0.458500  0.155500  1.0  0.1656
  C  C728  1  0.713500  0.458500  0.613700  1.0  0.1644
  C  C729  1  0.715700  0.427200  0.380200  1.0  0.4362
  C  C730  1  0.644400  0.560700  0.504600  1.0  0.7154
  C  C731  1  0.733000  0.390900  0.395100  1.0  -0.3206
  C  C732  1  0.634200  0.593900  0.562400  1.0  -0.4326
  C  C733  1  0.644400  0.566300  0.242700  1.0  0.7496
  C  C734  1  0.635000  0.608400  0.194300  1.0  -0.405
  C  C735  1  0.253100  0.000000  0.007800  1.0  0.7315
  C  C736  1  0.251400  0.000000  0.799700  1.0  0.7598
  C  C737  1  0.232500  0.000000  0.062300  1.0  -0.0897
  C  C738  1  0.236200  0.000000  0.718400  1.0  -0.0814
  C  C739  1  0.083000  0.000000  0.281800  1.0  0.1703
  C  C740  1  0.083300  0.000000  0.421000  1.0  0.1772
  C  C741  1  0.057500  0.000000  0.275600  1.0  -0.0527
  C  C742  1  0.057700  0.000000  0.413700  1.0  -0.0609
  C  C743  1  0.045700  0.000000  0.341600  1.0  -0.0618
  C  C744  1  0.017900  0.000000  0.327800  1.0  0.6501
  C  C745  1  0.753100  0.500000  0.007800  1.0  0.7315
  C  C746  1  0.751400  0.500000  0.799700  1.0  0.7598
  C  C747  1  0.732500  0.500000  0.062300  1.0  -0.0897
  C  C748  1  0.736200  0.500000  0.718400  1.0  -0.0814
  C  C749  1  0.583000  0.500000  0.281800  1.0  0.1703
  C  C750  1  0.583300  0.500000  0.421000  1.0  0.1772
  C  C751  1  0.557500  0.500000  0.275600  1.0  -0.0527
  C  C752  1  0.557700  0.500000  0.413700  1.0  -0.0609
  C  C753  1  0.545700  0.500000  0.341600  1.0  -0.0618
  C  C754  1  0.517900  0.500000  0.327800  1.0  0.6501
  C  C755  1  0.746900  0.000000  0.992200  1.0  0.7317
  C  C756  1  0.748600  0.000000  0.200300  1.0  0.7609
  C  C757  1  0.767500  0.000000  0.937700  1.0  -0.091
  C  C758  1  0.763800  0.000000  0.281600  1.0  -0.0819
  C  C759  1  0.917000  0.000000  0.718200  1.0  0.1678
  C  C760  1  0.916700  0.000000  0.579000  1.0  0.1775
  C  C761  1  0.942500  0.000000  0.724400  1.0  -0.0529
  C  C762  1  0.942300  0.000000  0.586300  1.0  -0.0609
  C  C763  1  0.954300  0.000000  0.658400  1.0  -0.0607
  C  C764  1  0.982100  0.000000  0.672200  1.0  0.6496
  C  C765  1  0.246900  0.500000  0.992200  1.0  0.7317
  C  C766  1  0.248600  0.500000  0.200300  1.0  0.7609
  C  C767  1  0.267500  0.500000  0.937700  1.0  -0.091
  C  C768  1  0.263800  0.500000  0.281600  1.0  -0.0819
  C  C769  1  0.417000  0.500000  0.718200  1.0  0.1678
  C  C770  1  0.416700  0.500000  0.579000  1.0  0.1775
  C  C771  1  0.442500  0.500000  0.724400  1.0  -0.0529
  C  C772  1  0.442300  0.500000  0.586300  1.0  -0.0609
  C  C773  1  0.454300  0.500000  0.658400  1.0  -0.0607
  C  C774  1  0.482100  0.500000  0.672200  1.0  0.6496
  N  N775  1  0.351000  0.161100  0.647800  1.0  -0.3465
  N  N776  1  0.412800  0.325800  0.442300  1.0  -0.3009
  N  N777  1  0.347700  0.149800  0.245300  1.0  -0.2771
  N  N778  1  0.851000  0.661100  0.647800  1.0  -0.3465
  N  N779  1  0.912800  0.825800  0.442300  1.0  -0.3009
  N  N780  1  0.847700  0.649800  0.245300  1.0  -0.2771
  N  N781  1  0.649000  0.161100  0.352200  1.0  -0.3471
  N  N782  1  0.587200  0.325800  0.557700  1.0  -0.3018
  N  N783  1  0.652300  0.149800  0.754700  1.0  -0.2758
  N  N784  1  0.149000  0.661100  0.352200  1.0  -0.3471
  N  N785  1  0.087200  0.825800  0.557700  1.0  -0.3018
  N  N786  1  0.152300  0.649800  0.754700  1.0  -0.2758
  N  N787  1  0.649000  0.838900  0.352200  1.0  -0.3468
  N  N788  1  0.587200  0.674200  0.557700  1.0  -0.3009
  N  N789  1  0.652300  0.850200  0.754700  1.0  -0.2766
  N  N790  1  0.149000  0.338900  0.352200  1.0  -0.3468
  N  N791  1  0.087200  0.174200  0.557700  1.0  -0.3009
  N  N792  1  0.152300  0.350200  0.754700  1.0  -0.2766
  N  N793  1  0.351000  0.838900  0.647800  1.0  -0.3459
  N  N794  1  0.412800  0.674200  0.442300  1.0  -0.3001
  N  N795  1  0.347700  0.850200  0.245300  1.0  -0.2773
  N  N796  1  0.851000  0.338900  0.647800  1.0  -0.3459
  N  N797  1  0.912800  0.174200  0.442300  1.0  -0.3001
  N  N798  1  0.847700  0.350200  0.245300  1.0  -0.2773
  N  N799  1  0.205400  0.000000  0.186900  1.0  -0.2687
  N  N800  1  0.206100  0.000000  0.579400  1.0  -0.2996
  N  N801  1  0.095100  0.000000  0.355500  1.0  -0.303
  N  N802  1  0.705400  0.500000  0.186900  1.0  -0.2687
  N  N803  1  0.706100  0.500000  0.579400  1.0  -0.2996
  N  N804  1  0.595100  0.500000  0.355500  1.0  -0.303
  N  N805  1  0.794600  0.000000  0.813100  1.0  -0.2676
  N  N806  1  0.793900  0.000000  0.420600  1.0  -0.2997
  N  N807  1  0.904900  0.000000  0.644500  1.0  -0.3025
  N  N808  1  0.294600  0.500000  0.813100  1.0  -0.2676
  N  N809  1  0.293900  0.500000  0.420600  1.0  -0.2997
  N  N810  1  0.404900  0.500000  0.644500  1.0  -0.3025
  O  O811  1  0.348700  0.254600  0.576800  1.0  -0.5541
  O  O812  1  0.393600  0.199500  0.601800  1.0  -0.5465
  O  O813  1  0.328000  0.175800  0.502600  1.0  -0.5855
  O  O814  1  0.375000  0.124200  0.517300  1.0  -0.5517
  O  O815  1  0.370200  0.213700  0.451100  1.0  -0.8201
  O  O816  1  0.374000  0.300100  0.528500  1.0  -0.5768
  O  O817  1  0.416600  0.239300  0.525800  1.0  -0.5777
  O  O818  1  0.321800  0.182400  0.383200  1.0  -0.6189
  O  O819  1  0.366800  0.119600  0.389100  1.0  -0.5468
  O  O820  1  0.411400  0.242600  0.365900  1.0  -0.5733
  O  O821  1  0.367300  0.298100  0.364400  1.0  -0.5764
  O  O822  1  0.393500  0.178800  0.320700  1.0  -0.5752
  O  O823  1  0.351200  0.242800  0.293300  1.0  -0.5826
  O  O824  1  0.305300  0.089100  0.844300  1.0  -0.6119
  O  O825  1  0.338700  0.051200  0.849300  1.0  -0.6192
  O  O826  1  0.473900  0.448900  0.479300  1.0  -0.5883
  O  O827  1  0.465100  0.445300  0.347000  1.0  -0.5998
  O  O828  1  0.303100  0.086000  0.008700  1.0  -0.5938
  O  O829  1  0.257500  0.039500  0.985100  1.0  -0.6083
  O  O830  1  0.259300  0.037500  0.823800  1.0  -0.6086
  O  O831  1  0.338400  0.048100  0.021000  1.0  -0.5963
  O  O832  1  0.210500  0.051500  0.444400  1.0  -0.6072
  O  O833  1  0.166000  0.949600  0.518400  1.0  -0.5821
  O  O834  1  0.207600  0.050100  0.318700  1.0  -0.6303
  O  O835  1  0.131300  0.948400  0.447900  1.0  -0.5579
  O  O836  1  0.164300  0.949300  0.231000  1.0  -0.5733
  O  O837  1  0.131000  0.949500  0.285700  1.0  -0.5693
  O  O838  1  0.848700  0.754600  0.576800  1.0  -0.5541
  O  O839  1  0.893600  0.699500  0.601800  1.0  -0.5465
  O  O840  1  0.828000  0.675800  0.502600  1.0  -0.5855
  O  O841  1  0.875000  0.624200  0.517300  1.0  -0.5517
  O  O842  1  0.870200  0.713700  0.451100  1.0  -0.8201
  O  O843  1  0.874000  0.800100  0.528500  1.0  -0.5768
  O  O844  1  0.916600  0.739300  0.525800  1.0  -0.5777
  O  O845  1  0.821800  0.682400  0.383200  1.0  -0.6189
  O  O846  1  0.866800  0.619600  0.389100  1.0  -0.5468
  O  O847  1  0.911400  0.742600  0.365900  1.0  -0.5733
  O  O848  1  0.867300  0.798100  0.364400  1.0  -0.5764
  O  O849  1  0.893500  0.678800  0.320700  1.0  -0.5752
  O  O850  1  0.851200  0.742800  0.293300  1.0  -0.5826
  O  O851  1  0.805300  0.589100  0.844300  1.0  -0.6119
  O  O852  1  0.838700  0.551200  0.849300  1.0  -0.6192
  O  O853  1  0.973900  0.948900  0.479300  1.0  -0.5883
  O  O854  1  0.965100  0.945300  0.347000  1.0  -0.5998
  O  O855  1  0.803100  0.586000  0.008700  1.0  -0.5938
  O  O856  1  0.757500  0.539500  0.985100  1.0  -0.6083
  O  O857  1  0.759300  0.537500  0.823800  1.0  -0.6086
  O  O858  1  0.838400  0.548100  0.021000  1.0  -0.5963
  O  O859  1  0.710500  0.551500  0.444400  1.0  -0.6072
  O  O860  1  0.666000  0.449600  0.518400  1.0  -0.5821
  O  O861  1  0.707600  0.550100  0.318700  1.0  -0.6303
  O  O862  1  0.631300  0.448400  0.447900  1.0  -0.5579
  O  O863  1  0.664300  0.449300  0.231000  1.0  -0.5733
  O  O864  1  0.631000  0.449500  0.285700  1.0  -0.5693
  O  O865  1  0.651300  0.254600  0.423200  1.0  -0.5545
  O  O866  1  0.606400  0.199500  0.398200  1.0  -0.5494
  O  O867  1  0.672000  0.175800  0.497400  1.0  -0.5848
  O  O868  1  0.625000  0.124200  0.482700  1.0  -0.5525
  O  O869  1  0.629800  0.213700  0.548900  1.0  -0.8213
  O  O870  1  0.626000  0.300100  0.471500  1.0  -0.5774
  O  O871  1  0.583400  0.239300  0.474200  1.0  -0.5792
  O  O872  1  0.678200  0.182400  0.616800  1.0  -0.6155
  O  O873  1  0.633200  0.119600  0.610900  1.0  -0.5462
  O  O874  1  0.588600  0.242600  0.634100  1.0  -0.5752
  O  O875  1  0.632700  0.298100  0.635600  1.0  -0.5759
  O  O876  1  0.606500  0.178800  0.679300  1.0  -0.5745
  O  O877  1  0.648800  0.242800  0.706700  1.0  -0.5843
  O  O878  1  0.694700  0.089100  0.155700  1.0  -0.6132
  O  O879  1  0.661300  0.051200  0.150700  1.0  -0.62
  O  O880  1  0.526100  0.448900  0.520700  1.0  -0.5893
  O  O881  1  0.534900  0.445300  0.653000  1.0  -0.6035
  O  O882  1  0.696900  0.086000  0.991300  1.0  -0.5952
  O  O883  1  0.742500  0.039500  0.014900  1.0  -0.6074
  O  O884  1  0.740700  0.037500  0.176200  1.0  -0.6071
  O  O885  1  0.661600  0.048100  0.979000  1.0  -0.5977
  O  O886  1  0.789500  0.051500  0.555600  1.0  -0.606
  O  O887  1  0.834000  0.949600  0.481600  1.0  -0.5813
  O  O888  1  0.792400  0.050100  0.681300  1.0  -0.634
  O  O889  1  0.868700  0.948400  0.552100  1.0  -0.5579
  O  O890  1  0.835700  0.949300  0.769000  1.0  -0.572
  O  O891  1  0.869000  0.949500  0.714300  1.0  -0.5689
  O  O892  1  0.151300  0.754600  0.423200  1.0  -0.5545
  O  O893  1  0.106400  0.699500  0.398200  1.0  -0.5494
  O  O894  1  0.172000  0.675800  0.497400  1.0  -0.5848
  O  O895  1  0.125000  0.624200  0.482700  1.0  -0.5525
  O  O896  1  0.129800  0.713700  0.548900  1.0  -0.8213
  O  O897  1  0.126000  0.800100  0.471500  1.0  -0.5774
  O  O898  1  0.083400  0.739300  0.474200  1.0  -0.5792
  O  O899  1  0.178200  0.682400  0.616800  1.0  -0.6155
  O  O900  1  0.133200  0.619600  0.610900  1.0  -0.5462
  O  O901  1  0.088600  0.742600  0.634100  1.0  -0.5752
  O  O902  1  0.132700  0.798100  0.635600  1.0  -0.5759
  O  O903  1  0.106500  0.678800  0.679300  1.0  -0.5745
  O  O904  1  0.148800  0.742800  0.706700  1.0  -0.5843
  O  O905  1  0.194700  0.589100  0.155700  1.0  -0.6132
  O  O906  1  0.161300  0.551200  0.150700  1.0  -0.62
  O  O907  1  0.026100  0.948900  0.520700  1.0  -0.5893
  O  O908  1  0.034900  0.945300  0.653000  1.0  -0.6035
  O  O909  1  0.196900  0.586000  0.991300  1.0  -0.5952
  O  O910  1  0.242500  0.539500  0.014900  1.0  -0.6074
  O  O911  1  0.240700  0.537500  0.176200  1.0  -0.6071
  O  O912  1  0.161600  0.548100  0.979000  1.0  -0.5977
  O  O913  1  0.289500  0.551500  0.555600  1.0  -0.606
  O  O914  1  0.334000  0.449600  0.481600  1.0  -0.5813
  O  O915  1  0.292400  0.550100  0.681300  1.0  -0.634
  O  O916  1  0.368700  0.448400  0.552100  1.0  -0.5579
  O  O917  1  0.335700  0.449300  0.769000  1.0  -0.572
  O  O918  1  0.369000  0.449500  0.714300  1.0  -0.5689
  O  O919  1  0.651300  0.745400  0.423200  1.0  -0.5541
  O  O920  1  0.606400  0.800500  0.398200  1.0  -0.5492
  O  O921  1  0.672000  0.824200  0.497400  1.0  -0.5848
  O  O922  1  0.625000  0.875800  0.482700  1.0  -0.5527
  O  O923  1  0.629800  0.786300  0.548900  1.0  -0.821
  O  O924  1  0.626000  0.699900  0.471500  1.0  -0.5775
  O  O925  1  0.583400  0.760700  0.474200  1.0  -0.5797
  O  O926  1  0.678200  0.817600  0.616800  1.0  -0.6154
  O  O927  1  0.633200  0.880400  0.610900  1.0  -0.5461
  O  O928  1  0.588600  0.757400  0.634100  1.0  -0.575
  O  O929  1  0.632700  0.701900  0.635600  1.0  -0.5762
  O  O930  1  0.606500  0.821200  0.679300  1.0  -0.5745
  O  O931  1  0.648800  0.757200  0.706700  1.0  -0.5828
  O  O932  1  0.694700  0.910900  0.155700  1.0  -0.6132
  O  O933  1  0.661300  0.948800  0.150700  1.0  -0.62
  O  O934  1  0.526100  0.551100  0.520700  1.0  -0.5889
  O  O935  1  0.534900  0.554700  0.653000  1.0  -0.6019
  O  O936  1  0.696900  0.914000  0.991300  1.0  -0.5947
  O  O937  1  0.742500  0.960500  0.014900  1.0  -0.6087
  O  O938  1  0.740700  0.962500  0.176200  1.0  -0.6065
  O  O939  1  0.661600  0.951900  0.979000  1.0  -0.5977
  O  O940  1  0.789500  0.948500  0.555600  1.0  -0.6072
  O  O941  1  0.834000  0.050400  0.481600  1.0  -0.5812
  O  O942  1  0.792400  0.949900  0.681300  1.0  -0.633
  O  O943  1  0.868700  0.051600  0.552100  1.0  -0.5578
  O  O944  1  0.835700  0.050700  0.769000  1.0  -0.5722
  O  O945  1  0.869000  0.050500  0.714300  1.0  -0.5685
  O  O946  1  0.151300  0.245400  0.423200  1.0  -0.5541
  O  O947  1  0.106400  0.300500  0.398200  1.0  -0.5492
  O  O948  1  0.172000  0.324200  0.497400  1.0  -0.5848
  O  O949  1  0.125000  0.375800  0.482700  1.0  -0.5527
  O  O950  1  0.129800  0.286300  0.548900  1.0  -0.821
  O  O951  1  0.126000  0.199900  0.471500  1.0  -0.5775
  O  O952  1  0.083400  0.260700  0.474200  1.0  -0.5797
  O  O953  1  0.178200  0.317600  0.616800  1.0  -0.6154
  O  O954  1  0.133200  0.380400  0.610900  1.0  -0.5461
  O  O955  1  0.088600  0.257400  0.634100  1.0  -0.575
  O  O956  1  0.132700  0.201900  0.635600  1.0  -0.5762
  O  O957  1  0.106500  0.321200  0.679300  1.0  -0.5745
  O  O958  1  0.148800  0.257200  0.706700  1.0  -0.5828
  O  O959  1  0.194700  0.410900  0.155700  1.0  -0.6132
  O  O960  1  0.161300  0.448800  0.150700  1.0  -0.62
  O  O961  1  0.026100  0.051100  0.520700  1.0  -0.5889
  O  O962  1  0.034900  0.054700  0.653000  1.0  -0.6019
  O  O963  1  0.196900  0.414000  0.991300  1.0  -0.5947
  O  O964  1  0.242500  0.460500  0.014900  1.0  -0.6087
  O  O965  1  0.240700  0.462500  0.176200  1.0  -0.6065
  O  O966  1  0.161600  0.451900  0.979000  1.0  -0.5977
  O  O967  1  0.289500  0.448500  0.555600  1.0  -0.6072
  O  O968  1  0.334000  0.550400  0.481600  1.0  -0.5812
  O  O969  1  0.292400  0.449900  0.681300  1.0  -0.633
  O  O970  1  0.368700  0.551600  0.552100  1.0  -0.5578
  O  O971  1  0.335700  0.550700  0.769000  1.0  -0.5722
  O  O972  1  0.369000  0.550500  0.714300  1.0  -0.5685
  O  O973  1  0.348700  0.745400  0.576800  1.0  -0.5544
  O  O974  1  0.393600  0.800500  0.601800  1.0  -0.5472
  O  O975  1  0.328000  0.824200  0.502600  1.0  -0.5864
  O  O976  1  0.375000  0.875800  0.517300  1.0  -0.5515
  O  O977  1  0.370200  0.786300  0.451100  1.0  -0.8198
  O  O978  1  0.374000  0.699900  0.528500  1.0  -0.5769
  O  O979  1  0.416600  0.760700  0.525800  1.0  -0.578
  O  O980  1  0.321800  0.817600  0.383200  1.0  -0.619
  O  O981  1  0.366800  0.880400  0.389100  1.0  -0.5468
  O  O982  1  0.411400  0.757400  0.365900  1.0  -0.5751
  O  O983  1  0.367300  0.701900  0.364400  1.0  -0.5762
  O  O984  1  0.393500  0.821200  0.320700  1.0  -0.5747
  O  O985  1  0.351200  0.757200  0.293300  1.0  -0.583
  O  O986  1  0.305300  0.910900  0.844300  1.0  -0.612
  O  O987  1  0.338700  0.948800  0.849300  1.0  -0.6197
  O  O988  1  0.473900  0.551100  0.479300  1.0  -0.5882
  O  O989  1  0.465100  0.554700  0.347000  1.0  -0.5992
  O  O990  1  0.303100  0.914000  0.008700  1.0  -0.5928
  O  O991  1  0.257500  0.960500  0.985100  1.0  -0.6092
  O  O992  1  0.259300  0.962500  0.823800  1.0  -0.6079
  O  O993  1  0.338400  0.951900  0.021000  1.0  -0.5969
  O  O994  1  0.210500  0.948500  0.444400  1.0  -0.6075
  O  O995  1  0.166000  0.050400  0.518400  1.0  -0.5823
  O  O996  1  0.207600  0.949900  0.318700  1.0  -0.6297
  O  O997  1  0.131300  0.051600  0.447900  1.0  -0.5576
  O  O998  1  0.164300  0.050700  0.231000  1.0  -0.5731
  O  O999  1  0.131000  0.050500  0.285700  1.0  -0.5696
  O  O1000  1  0.848700  0.245400  0.576800  1.0  -0.5544
  O  O1001  1  0.893600  0.300500  0.601800  1.0  -0.5472
  O  O1002  1  0.828000  0.324200  0.502600  1.0  -0.5864
  O  O1003  1  0.875000  0.375800  0.517300  1.0  -0.5515
  O  O1004  1  0.870200  0.286300  0.451100  1.0  -0.8198
  O  O1005  1  0.874000  0.199900  0.528500  1.0  -0.5769
  O  O1006  1  0.916600  0.260700  0.525800  1.0  -0.578
  O  O1007  1  0.821800  0.317600  0.383200  1.0  -0.619
  O  O1008  1  0.866800  0.380400  0.389100  1.0  -0.5468
  O  O1009  1  0.911400  0.257400  0.365900  1.0  -0.5751
  O  O1010  1  0.867300  0.201900  0.364400  1.0  -0.5762
  O  O1011  1  0.893500  0.321200  0.320700  1.0  -0.5747
  O  O1012  1  0.851200  0.257200  0.293300  1.0  -0.583
  O  O1013  1  0.805300  0.410900  0.844300  1.0  -0.612
  O  O1014  1  0.838700  0.448800  0.849300  1.0  -0.6197
  O  O1015  1  0.973900  0.051100  0.479300  1.0  -0.5882
  O  O1016  1  0.965100  0.054700  0.347000  1.0  -0.5992
  O  O1017  1  0.803100  0.414000  0.008700  1.0  -0.5928
  O  O1018  1  0.757500  0.460500  0.985100  1.0  -0.6092
  O  O1019  1  0.759300  0.462500  0.823800  1.0  -0.6079
  O  O1020  1  0.838400  0.451900  0.021000  1.0  -0.5969
  O  O1021  1  0.710500  0.448500  0.444400  1.0  -0.6075
  O  O1022  1  0.666000  0.550400  0.518400  1.0  -0.5823
  O  O1023  1  0.707600  0.449900  0.318700  1.0  -0.6297
  O  O1024  1  0.631300  0.551600  0.447900  1.0  -0.5576
  O  O1025  1  0.664300  0.550700  0.231000  1.0  -0.5731
  O  O1026  1  0.631000  0.550500  0.285700  1.0  -0.5696
  O  O1027  1  0.300570  0.000000  0.920300  1.0  -1.0251
  O  O1028  1  0.170700  0.000000  0.382600  1.0  -0.9031
  O  O1029  1  0.007400  0.000000  0.385100  1.0  -0.5987
  O  O1030  1  0.010300  0.000000  0.260300  1.0  -0.4851
  O  O1031  1  0.800570  0.500000  0.920300  1.0  -1.0251
  O  O1032  1  0.670700  0.500000  0.382600  1.0  -0.9031
  O  O1033  1  0.507400  0.500000  0.385100  1.0  -0.5987
  O  O1034  1  0.510300  0.500000  0.260300  1.0  -0.4794
  O  O1035  1  0.699430  0.000000  0.079700  1.0  -1.0253
  O  O1036  1  0.829300  0.000000  0.617400  1.0  -0.9032
  O  O1037  1  0.992600  0.000000  0.614900  1.0  -0.5985
  O  O1038  1  0.989700  0.000000  0.739700  1.0  -0.4829
  O  O1039  1  0.199430  0.500000  0.079700  1.0  -1.0253
  O  O1040  1  0.329300  0.500000  0.617400  1.0  -0.9032
  O  O1041  1  0.492600  0.500000  0.614900  1.0  -0.5985
  O  O1042  1  0.489700  0.500000  0.739700  1.0  -0.4729
