# generated using pymatgen
data_Cd3H34C60(N5O6)2
_symmetry_space_group_name_H-M   'P 1'
_cell_length_a   13.59530000
_cell_length_b   17.01310000
_cell_length_c   51.88700000
_cell_angle_alpha   90.00000000
_cell_angle_beta   90.00000000
_cell_angle_gamma   90.00000000
_symmetry_Int_Tables_number   1
_chemical_formula_structural   Cd3H34C60(N5O6)2
_chemical_formula_sum   'Cd24 H272 C480 N80 O96'
_cell_volume   12001.36962194
_cell_formula_units_Z   8
loop_
 _symmetry_equiv_pos_site_id
 _symmetry_equiv_pos_as_xyz
  1  'x, y, z'
loop_
 _atom_site_type_symbol
 _atom_site_label
 _atom_site_symmetry_multiplicity
 _atom_site_fract_x
 _atom_site_fract_y
 _atom_site_fract_z
 _atom_site_occupancy
 _atom_site_charge
  Cd  Cd1  1  0.678630  0.480280  0.171450  1.0  1.0494
  Cd  Cd2  1  0.904760  0.975970  0.166770  1.0  1.0109
  Cd  Cd3  1  0.639760  0.997150  0.991280  1.0  1.0135
  Cd  Cd4  1  0.321370  0.019720  0.671450  1.0  1.0492
  Cd  Cd5  1  0.095240  0.524030  0.666770  1.0  1.0114
  Cd  Cd6  1  0.360240  0.502850  0.491280  1.0  1.0118
  Cd  Cd7  1  0.178630  0.519720  0.328550  1.0  1.0491
  Cd  Cd8  1  0.404760  0.024030  0.333230  1.0  1.0113
  Cd  Cd9  1  0.139760  0.002850  0.508720  1.0  1.0127
  Cd  Cd10  1  0.821370  0.980280  0.828550  1.0  1.0499
  Cd  Cd11  1  0.595240  0.475970  0.833230  1.0  1.0106
  Cd  Cd12  1  0.860240  0.497150  0.008720  1.0  1.0125
  Cd  Cd13  1  0.321370  0.519720  0.828550  1.0  1.0492
  Cd  Cd14  1  0.095240  0.024030  0.833230  1.0  1.0113
  Cd  Cd15  1  0.360240  0.002850  0.008720  1.0  1.0119
  Cd  Cd16  1  0.678630  0.980280  0.328550  1.0  1.0497
  Cd  Cd17  1  0.904760  0.475970  0.333230  1.0  1.0106
  Cd  Cd18  1  0.639760  0.497150  0.508720  1.0  1.0136
  Cd  Cd19  1  0.821370  0.480280  0.671450  1.0  1.0495
  Cd  Cd20  1  0.595240  0.975970  0.666770  1.0  1.0109
  Cd  Cd21  1  0.860240  0.997150  0.491280  1.0  1.0127
  Cd  Cd22  1  0.178630  0.019720  0.171450  1.0  1.0491
  Cd  Cd23  1  0.404760  0.524030  0.166770  1.0  1.0115
  Cd  Cd24  1  0.139760  0.502850  0.991280  1.0  1.013
  H  H25  1  0.913900  0.400900  0.143200  1.0  0.2978
  H  H26  1  0.666400  0.064400  0.130100  1.0  0.2915
  H  H27  1  0.875700  0.106200  0.214000  1.0  0.0788
  H  H28  1  0.885600  0.240800  0.221200  1.0  0.1192
  H  H29  1  0.905000  0.325600  0.186300  1.0  0.0987
  H  H30  1  0.909300  0.523900  0.123300  1.0  0.1195
  H  H31  1  0.896300  0.639700  0.098800  1.0  0.1238
  H  H32  1  0.890300  0.631400  0.054400  1.0  0.08
  H  H33  1  0.918700  0.401900  0.056700  1.0  0.0796
  H  H34  1  0.925700  0.159900  0.068300  1.0  0.1135
  H  H35  1  0.922700  0.022900  0.066400  1.0  0.1175
  H  H36  1  0.915400  0.950800  0.104700  1.0  0.0905
  H  H37  1  0.641900  0.332500  0.212500  1.0  0.0856
  H  H38  1  0.638500  0.195500  0.213900  1.0  0.1123
  H  H39  1  0.655800  0.123800  0.176000  1.0  0.1089
  H  H40  1  0.664800  0.949700  0.106100  1.0  0.1176
  H  H41  1  0.657300  0.842600  0.078000  1.0  0.113
  H  H42  1  0.656000  0.863900  0.033800  1.0  0.0866
  H  H43  1  0.673500  0.092600  0.044000  1.0  0.0898
  H  H44  1  0.685000  0.332900  0.065800  1.0  0.1184
  H  H45  1  0.676700  0.469200  0.069500  1.0  0.1126
  H  H46  1  0.668700  0.525900  0.110300  1.0  0.0792
  H  H47  1  0.519600  0.929800  0.153600  1.0  0.1125
  H  H48  1  0.393100  0.837500  0.156400  1.0  0.1084
  H  H49  1  0.431100  0.704200  0.158100  1.0  0.1013
  H  H50  1  0.721500  0.756600  0.159600  1.0  0.1054
  H  H51  1  0.372700  0.535000  0.254900  1.0  0.1076
  H  H52  1  0.560200  0.510100  0.314400  1.0  0.1032
  H  H53  1  0.691900  0.502500  0.285800  1.0  0.1053
  H  H54  1  0.663800  0.505500  0.241400  1.0  0.1093
  H  H55  1  0.017900  0.944300  0.982100  1.0  0.1008
  H  H56  1  0.145900  0.854300  0.984900  1.0  0.1037
  H  H57  1  0.113300  0.720400  0.989900  1.0  0.1079
  H  H58  1  0.821500  0.767200  0.988900  1.0  0.0971
  H  H59  1  0.086100  0.099100  0.643200  1.0  0.2994
  H  H60  1  0.333600  0.435600  0.630100  1.0  0.2902
  H  H61  1  0.124300  0.393800  0.714000  1.0  0.0787
  H  H62  1  0.114400  0.259200  0.721200  1.0  0.1191
  H  H63  1  0.095000  0.174400  0.686300  1.0  0.0991
  H  H64  1  0.090700  0.976100  0.623300  1.0  0.1198
  H  H65  1  0.103700  0.860300  0.598800  1.0  0.1238
  H  H66  1  0.109700  0.868600  0.554400  1.0  0.0797
  H  H67  1  0.081300  0.098100  0.556700  1.0  0.0801
  H  H68  1  0.074300  0.340100  0.568300  1.0  0.1135
  H  H69  1  0.077300  0.477100  0.566400  1.0  0.1174
  H  H70  1  0.084600  0.549200  0.604700  1.0  0.0897
  H  H71  1  0.358100  0.167500  0.712500  1.0  0.0853
  H  H72  1  0.361500  0.304500  0.713900  1.0  0.1112
  H  H73  1  0.344200  0.376200  0.676000  1.0  0.1094
  H  H74  1  0.335200  0.550300  0.606100  1.0  0.1171
  H  H75  1  0.342700  0.657400  0.578000  1.0  0.1133
  H  H76  1  0.344000  0.636100  0.533800  1.0  0.0867
  H  H77  1  0.326500  0.407400  0.544000  1.0  0.0894
  H  H78  1  0.315000  0.167100  0.565800  1.0  0.1182
  H  H79  1  0.323300  0.030800  0.569500  1.0  0.1119
  H  H80  1  0.331300  0.974100  0.610300  1.0  0.0805
  H  H81  1  0.480400  0.570200  0.653600  1.0  0.1131
  H  H82  1  0.606900  0.662500  0.656400  1.0  0.1083
  H  H83  1  0.568900  0.795800  0.658100  1.0  0.1016
  H  H84  1  0.278500  0.743400  0.659600  1.0  0.1057
  H  H85  1  0.627300  0.965000  0.754900  1.0  0.1075
  H  H86  1  0.439800  0.989900  0.814400  1.0  0.1037
  H  H87  1  0.308100  0.997500  0.785800  1.0  0.1052
  H  H88  1  0.336200  0.994500  0.741400  1.0  0.1092
  H  H89  1  0.982100  0.555700  0.482100  1.0  0.1015
  H  H90  1  0.854100  0.645700  0.484900  1.0  0.1041
  H  H91  1  0.886700  0.779600  0.489900  1.0  0.1075
  H  H92  1  0.178500  0.732800  0.488900  1.0  0.0968
  H  H93  1  0.413900  0.599100  0.356800  1.0  0.2987
  H  H94  1  0.166400  0.935600  0.369900  1.0  0.2894
  H  H95  1  0.375700  0.893800  0.286000  1.0  0.0785
  H  H96  1  0.385600  0.759200  0.278800  1.0  0.1194
  H  H97  1  0.405000  0.674400  0.313700  1.0  0.0986
  H  H98  1  0.409300  0.476100  0.376700  1.0  0.1201
  H  H99  1  0.396300  0.360300  0.401200  1.0  0.1239
  H  H100  1  0.390300  0.368600  0.445600  1.0  0.0794
  H  H101  1  0.418700  0.598100  0.443300  1.0  0.0791
  H  H102  1  0.425700  0.840100  0.431700  1.0  0.113
  H  H103  1  0.422700  0.977100  0.433600  1.0  0.1176
  H  H104  1  0.415400  0.049200  0.395300  1.0  0.0892
  H  H105  1  0.141900  0.667500  0.287500  1.0  0.0856
  H  H106  1  0.138500  0.804500  0.286100  1.0  0.1119
  H  H107  1  0.155800  0.876200  0.324000  1.0  0.1095
  H  H108  1  0.164800  0.050300  0.393900  1.0  0.1173
  H  H109  1  0.157300  0.157400  0.422000  1.0  0.1133
  H  H110  1  0.156000  0.136100  0.466200  1.0  0.0858
  H  H111  1  0.173500  0.907400  0.456000  1.0  0.0893
  H  H112  1  0.185000  0.667100  0.434200  1.0  0.1175
  H  H113  1  0.176700  0.530800  0.430500  1.0  0.1119
  H  H114  1  0.168700  0.474100  0.389700  1.0  0.0805
  H  H115  1  0.019600  0.070200  0.346400  1.0  0.1136
  H  H116  1  0.893100  0.162500  0.343600  1.0  0.1086
  H  H117  1  0.931100  0.295800  0.341900  1.0  0.1011
  H  H118  1  0.221500  0.243400  0.340400  1.0  0.1055
  H  H119  1  0.872700  0.465000  0.245100  1.0  0.1076
  H  H120  1  0.060200  0.489900  0.185600  1.0  0.1011
  H  H121  1  0.191900  0.497500  0.214200  1.0  0.1051
  H  H122  1  0.163800  0.494500  0.258600  1.0  0.1096
  H  H123  1  0.517900  0.055700  0.517900  1.0  0.1011
  H  H124  1  0.645900  0.145700  0.515100  1.0  0.1038
  H  H125  1  0.613300  0.279600  0.510100  1.0  0.1069
  H  H126  1  0.321500  0.232800  0.511100  1.0  0.097
  H  H127  1  0.586100  0.900900  0.856800  1.0  0.2981
  H  H128  1  0.833600  0.564400  0.869900  1.0  0.2901
  H  H129  1  0.624300  0.606200  0.786000  1.0  0.079
  H  H130  1  0.614400  0.740800  0.778800  1.0  0.1196
  H  H131  1  0.595000  0.825600  0.813700  1.0  0.0997
  H  H132  1  0.590700  0.023900  0.876700  1.0  0.1194
  H  H133  1  0.603700  0.139700  0.901200  1.0  0.1231
  H  H134  1  0.609700  0.131400  0.945600  1.0  0.0798
  H  H135  1  0.581300  0.901900  0.943300  1.0  0.0796
  H  H136  1  0.574300  0.659900  0.931700  1.0  0.1133
  H  H137  1  0.577300  0.522900  0.933600  1.0  0.1173
  H  H138  1  0.584600  0.450800  0.895300  1.0  0.0907
  H  H139  1  0.858100  0.832500  0.787500  1.0  0.0852
  H  H140  1  0.861500  0.695500  0.786100  1.0  0.112
  H  H141  1  0.844200  0.623800  0.824000  1.0  0.1095
  H  H142  1  0.835200  0.449700  0.893900  1.0  0.1172
  H  H143  1  0.842700  0.342600  0.922000  1.0  0.1132
  H  H144  1  0.844000  0.363900  0.966200  1.0  0.0863
  H  H145  1  0.826500  0.592600  0.956000  1.0  0.0896
  H  H146  1  0.815000  0.832900  0.934200  1.0  0.118
  H  H147  1  0.823300  0.969200  0.930500  1.0  0.1126
  H  H148  1  0.831300  0.025900  0.889700  1.0  0.0791
  H  H149  1  0.980400  0.429800  0.846400  1.0  0.1117
  H  H150  1  0.106900  0.337500  0.843600  1.0  0.1083
  H  H151  1  0.068900  0.204200  0.841900  1.0  0.1018
  H  H152  1  0.778500  0.256600  0.840400  1.0  0.1054
  H  H153  1  0.127300  0.035000  0.745100  1.0  0.1071
  H  H154  1  0.939800  0.010100  0.685600  1.0  0.1012
  H  H155  1  0.808100  0.002500  0.714200  1.0  0.1055
  H  H156  1  0.836200  0.005500  0.758600  1.0  0.1095
  H  H157  1  0.482100  0.444300  0.017900  1.0  0.1009
  H  H158  1  0.354100  0.354300  0.015100  1.0  0.1037
  H  H159  1  0.386700  0.220400  0.010100  1.0  0.1068
  H  H160  1  0.678500  0.267200  0.011100  1.0  0.0969
  H  H161  1  0.086100  0.599100  0.856800  1.0  0.2986
  H  H162  1  0.333600  0.935600  0.869900  1.0  0.2895
  H  H163  1  0.124300  0.893800  0.786000  1.0  0.0788
  H  H164  1  0.114400  0.759200  0.778800  1.0  0.1192
  H  H165  1  0.095000  0.674400  0.813700  1.0  0.099
  H  H166  1  0.090700  0.476100  0.876700  1.0  0.1196
  H  H167  1  0.103700  0.360300  0.901200  1.0  0.1237
  H  H168  1  0.109700  0.368600  0.945600  1.0  0.0794
  H  H169  1  0.081300  0.598100  0.943300  1.0  0.0793
  H  H170  1  0.074300  0.840100  0.931700  1.0  0.1136
  H  H171  1  0.077300  0.977100  0.933600  1.0  0.1174
  H  H172  1  0.084600  0.049200  0.895300  1.0  0.0895
  H  H173  1  0.358100  0.667500  0.787500  1.0  0.0855
  H  H174  1  0.361500  0.804500  0.786100  1.0  0.1122
  H  H175  1  0.344200  0.876200  0.824000  1.0  0.1099
  H  H176  1  0.335200  0.050300  0.893900  1.0  0.1172
  H  H177  1  0.342700  0.157400  0.922000  1.0  0.1136
  H  H178  1  0.344000  0.136100  0.966200  1.0  0.0859
  H  H179  1  0.326500  0.907400  0.956000  1.0  0.0895
  H  H180  1  0.315000  0.667100  0.934200  1.0  0.1174
  H  H181  1  0.323300  0.530800  0.930500  1.0  0.1119
  H  H182  1  0.331300  0.474100  0.889700  1.0  0.0805
  H  H183  1  0.480400  0.070200  0.846400  1.0  0.1132
  H  H184  1  0.606900  0.162500  0.843600  1.0  0.1086
  H  H185  1  0.568900  0.295800  0.841900  1.0  0.1015
  H  H186  1  0.278500  0.243400  0.840400  1.0  0.1055
  H  H187  1  0.627300  0.465000  0.745100  1.0  0.1077
  H  H188  1  0.439800  0.489900  0.685600  1.0  0.1018
  H  H189  1  0.308100  0.497500  0.714200  1.0  0.1054
  H  H190  1  0.336200  0.494500  0.758600  1.0  0.109
  H  H191  1  0.982100  0.055700  0.017900  1.0  0.1012
  H  H192  1  0.854100  0.145700  0.015100  1.0  0.1037
  H  H193  1  0.886700  0.279600  0.010100  1.0  0.1067
  H  H194  1  0.178500  0.232800  0.011100  1.0  0.0971
  H  H195  1  0.913900  0.900900  0.356800  1.0  0.2982
  H  H196  1  0.666400  0.564400  0.369900  1.0  0.2902
  H  H197  1  0.875700  0.606200  0.286000  1.0  0.0794
  H  H198  1  0.885600  0.740800  0.278800  1.0  0.1198
  H  H199  1  0.905000  0.825600  0.313700  1.0  0.0993
  H  H200  1  0.909300  0.023900  0.376700  1.0  0.12
  H  H201  1  0.896300  0.139700  0.401200  1.0  0.1236
  H  H202  1  0.890300  0.131400  0.445600  1.0  0.0799
  H  H203  1  0.918700  0.901900  0.443300  1.0  0.0794
  H  H204  1  0.925700  0.659900  0.431700  1.0  0.1134
  H  H205  1  0.922700  0.522900  0.433600  1.0  0.1173
  H  H206  1  0.915400  0.450800  0.395300  1.0  0.0906
  H  H207  1  0.641900  0.832500  0.287500  1.0  0.0853
  H  H208  1  0.638500  0.695500  0.286100  1.0  0.1129
  H  H209  1  0.655800  0.623800  0.324000  1.0  0.1095
  H  H210  1  0.664800  0.449700  0.393900  1.0  0.117
  H  H211  1  0.657300  0.342600  0.422000  1.0  0.1129
  H  H212  1  0.656000  0.363900  0.466200  1.0  0.0863
  H  H213  1  0.673500  0.592600  0.456000  1.0  0.0897
  H  H214  1  0.685000  0.832900  0.434200  1.0  0.118
  H  H215  1  0.676700  0.969200  0.430500  1.0  0.1122
  H  H216  1  0.668700  0.025900  0.389700  1.0  0.079
  H  H217  1  0.519600  0.429800  0.346400  1.0  0.1124
  H  H218  1  0.393100  0.337500  0.343600  1.0  0.1082
  H  H219  1  0.431100  0.204200  0.341900  1.0  0.1012
  H  H220  1  0.721500  0.256600  0.340400  1.0  0.1054
  H  H221  1  0.372700  0.035000  0.245100  1.0  0.1074
  H  H222  1  0.560200  0.010100  0.185600  1.0  0.1008
  H  H223  1  0.691900  0.002500  0.214200  1.0  0.1054
  H  H224  1  0.663800  0.005500  0.258600  1.0  0.1091
  H  H225  1  0.017900  0.444300  0.517900  1.0  0.1008
  H  H226  1  0.145900  0.354300  0.515100  1.0  0.1038
  H  H227  1  0.113300  0.220400  0.510100  1.0  0.1074
  H  H228  1  0.821500  0.267200  0.511100  1.0  0.0968
  H  H229  1  0.586100  0.400900  0.643200  1.0  0.2978
  H  H230  1  0.833600  0.064400  0.630100  1.0  0.2915
  H  H231  1  0.624300  0.106200  0.714000  1.0  0.0794
  H  H232  1  0.614400  0.240800  0.721200  1.0  0.1192
  H  H233  1  0.595000  0.325600  0.686300  1.0  0.099
  H  H234  1  0.590700  0.523900  0.623300  1.0  0.1195
  H  H235  1  0.603700  0.639700  0.598800  1.0  0.1236
  H  H236  1  0.609700  0.631400  0.554400  1.0  0.0798
  H  H237  1  0.581300  0.401900  0.556700  1.0  0.0799
  H  H238  1  0.574300  0.159900  0.568300  1.0  0.1139
  H  H239  1  0.577300  0.022900  0.566400  1.0  0.1174
  H  H240  1  0.584600  0.950800  0.604700  1.0  0.0905
  H  H241  1  0.858100  0.332500  0.712500  1.0  0.0855
  H  H242  1  0.861500  0.195500  0.713900  1.0  0.1126
  H  H243  1  0.844200  0.123800  0.676000  1.0  0.1093
  H  H244  1  0.835200  0.949700  0.606100  1.0  0.1178
  H  H245  1  0.842700  0.842600  0.578000  1.0  0.1133
  H  H246  1  0.844000  0.863900  0.533800  1.0  0.0865
  H  H247  1  0.826500  0.092600  0.544000  1.0  0.0898
  H  H248  1  0.815000  0.332900  0.565800  1.0  0.1183
  H  H249  1  0.823300  0.469200  0.569500  1.0  0.1131
  H  H250  1  0.831300  0.525900  0.610300  1.0  0.0791
  H  H251  1  0.980400  0.929800  0.653600  1.0  0.1117
  H  H252  1  0.106900  0.837500  0.656400  1.0  0.1084
  H  H253  1  0.068900  0.704200  0.658100  1.0  0.102
  H  H254  1  0.778500  0.756600  0.659600  1.0  0.1056
  H  H255  1  0.127300  0.535000  0.754900  1.0  0.1073
  H  H256  1  0.939800  0.510100  0.814400  1.0  0.1037
  H  H257  1  0.808100  0.502500  0.785800  1.0  0.1053
  H  H258  1  0.836200  0.505500  0.741400  1.0  0.1096
  H  H259  1  0.482100  0.944300  0.482100  1.0  0.101
  H  H260  1  0.354100  0.854300  0.484900  1.0  0.1038
  H  H261  1  0.386700  0.720400  0.489900  1.0  0.1077
  H  H262  1  0.678500  0.767200  0.488900  1.0  0.0969
  H  H263  1  0.413900  0.099100  0.143200  1.0  0.2995
  H  H264  1  0.166400  0.435600  0.130100  1.0  0.29
  H  H265  1  0.375700  0.393800  0.214000  1.0  0.079
  H  H266  1  0.385600  0.259200  0.221200  1.0  0.1193
  H  H267  1  0.405000  0.174400  0.186300  1.0  0.0988
  H  H268  1  0.409300  0.976100  0.123300  1.0  0.1199
  H  H269  1  0.396300  0.860300  0.098800  1.0  0.124
  H  H270  1  0.390300  0.868600  0.054400  1.0  0.0794
  H  H271  1  0.418700  0.098100  0.056700  1.0  0.0799
  H  H272  1  0.425700  0.340100  0.068300  1.0  0.1135
  H  H273  1  0.422700  0.477100  0.066400  1.0  0.1177
  H  H274  1  0.415400  0.549200  0.104700  1.0  0.0895
  H  H275  1  0.141900  0.167500  0.212500  1.0  0.0854
  H  H276  1  0.138500  0.304500  0.213900  1.0  0.1121
  H  H277  1  0.155800  0.376200  0.176000  1.0  0.1095
  H  H278  1  0.164800  0.550300  0.106100  1.0  0.1174
  H  H279  1  0.157300  0.657400  0.078000  1.0  0.1131
  H  H280  1  0.156000  0.636100  0.033800  1.0  0.0867
  H  H281  1  0.173500  0.407400  0.044000  1.0  0.0893
  H  H282  1  0.185000  0.167100  0.065800  1.0  0.1183
  H  H283  1  0.176700  0.030800  0.069500  1.0  0.1116
  H  H284  1  0.168700  0.974100  0.110300  1.0  0.0806
  H  H285  1  0.019600  0.570200  0.153600  1.0  0.1135
  H  H286  1  0.893100  0.662500  0.156400  1.0  0.1084
  H  H287  1  0.931100  0.795800  0.158100  1.0  0.1013
  H  H288  1  0.221500  0.743400  0.159600  1.0  0.1055
  H  H289  1  0.872700  0.965000  0.254900  1.0  0.1075
  H  H290  1  0.060200  0.989900  0.314400  1.0  0.1034
  H  H291  1  0.191900  0.997500  0.285800  1.0  0.1051
  H  H292  1  0.163800  0.994500  0.241400  1.0  0.1099
  H  H293  1  0.517900  0.555700  0.982100  1.0  0.1014
  H  H294  1  0.645900  0.645700  0.984900  1.0  0.104
  H  H295  1  0.613300  0.779600  0.989900  1.0  0.1074
  H  H296  1  0.321500  0.732800  0.988900  1.0  0.097
  C  C297  1  0.884700  0.140300  0.199730  1.0  0.1677
  C  C298  1  0.889700  0.220700  0.204180  1.0  -0.1085
  C  C299  1  0.900700  0.270500  0.183610  1.0  -0.0805
  C  C300  1  0.905700  0.239400  0.158530  1.0  -0.0095
  C  C301  1  0.914400  0.283900  0.135310  1.0  0.1066
  C  C302  1  0.919700  0.374000  0.105150  1.0  0.3571
  C  C303  1  0.915700  0.450400  0.092310  1.0  0.009
  C  C304  1  0.908400  0.521800  0.105030  1.0  -0.07
  C  C305  1  0.899900  0.589900  0.090610  1.0  -0.1148
  C  C306  1  0.896600  0.584400  0.064160  1.0  0.1613
  C  C307  1  0.912700  0.450700  0.065460  1.0  0.186
  C  C308  1  0.919100  0.250300  0.111220  1.0  0.1206
  C  C309  1  0.917000  0.167000  0.107790  1.0  -0.0299
  C  C310  1  0.921700  0.129700  0.083680  1.0  -0.0086
  C  C311  1  0.920300  0.049200  0.082510  1.0  -0.1424
  C  C312  1  0.915300  0.006600  0.105460  1.0  0.1607
  C  C313  1  0.910300  0.120200  0.130070  1.0  0.0985
  C  C314  1  0.903300  0.156800  0.155700  1.0  0.1232
  C  C315  1  0.647500  0.303800  0.196870  1.0  0.1653
  C  C316  1  0.645900  0.221800  0.197850  1.0  -0.0999
  C  C317  1  0.655000  0.179700  0.175550  1.0  -0.0801
  C  C318  1  0.663400  0.219700  0.151980  1.0  -0.0122
  C  C319  1  0.669600  0.183600  0.127130  1.0  0.0947
  C  C320  1  0.673000  0.105400  0.093500  1.0  0.3671
  C  C321  1  0.670000  0.033400  0.077790  1.0  0.0175
  C  C322  1  0.664900  0.957700  0.088020  1.0  -0.086
  C  C323  1  0.660000  0.894700  0.071400  1.0  -0.0986
  C  C324  1  0.659000  0.907700  0.045150  1.0  0.1706
  C  C325  1  0.669000  0.041300  0.051180  1.0  0.1776
  C  C326  1  0.674500  0.226200  0.104380  1.0  0.1027
  C  C327  1  0.675100  0.310200  0.104620  1.0  -0.019
  C  C328  1  0.679500  0.356800  0.082270  1.0  -0.012
  C  C329  1  0.675900  0.436900  0.084470  1.0  -0.1435
  C  C330  1  0.671200  0.470300  0.108940  1.0  0.1662
  C  C331  1  0.670100  0.348600  0.128690  1.0  0.1324
  C  C332  1  0.663500  0.302700  0.152410  1.0  0.1042
  C  C333  1  0.632300  0.851800  0.156320  1.0  -0.1416
  C  C334  1  0.534900  0.875500  0.155240  1.0  -0.1187
  C  C335  1  0.459800  0.820900  0.156490  1.0  -0.1143
  C  C336  1  0.482600  0.742000  0.157880  1.0  -0.0522
  C  C337  1  0.580200  0.716900  0.158890  1.0  -0.1567
  C  C338  1  0.654800  0.772800  0.158440  1.0  -0.0057
  C  C339  1  0.714300  0.910300  0.155880  1.0  0.6722
  C  C340  1  0.606600  0.631900  0.159770  1.0  0.726
  C  C341  1  0.515500  0.521900  0.244110  1.0  -0.1279
  C  C342  1  0.437600  0.527300  0.261220  1.0  -0.0229
  C  C343  1  0.453700  0.521500  0.287440  1.0  -0.147
  C  C344  1  0.548400  0.512800  0.296380  1.0  -0.1228
  C  C345  1  0.626800  0.507900  0.279420  1.0  -0.1218
  C  C346  1  0.610500  0.510900  0.253150  1.0  -0.0202
  C  C347  1  0.495000  0.524200  0.215750  1.0  0.6961
  C  C348  1  0.366400  0.523000  0.305600  1.0  0.673
  C  C349  1  0.906500  0.864900  0.985070  1.0  -0.1544
  C  C350  1  0.003700  0.890000  0.984020  1.0  -0.0532
  C  C351  1  0.079700  0.836500  0.985800  1.0  -0.1238
  C  C352  1  0.060500  0.756900  0.988920  1.0  -0.0363
  C  C353  1  0.964100  0.730600  0.990630  1.0  -0.1666
  C  C354  1  0.887700  0.785000  0.988310  1.0  -0.0278
  C  C355  1  0.820800  0.921600  0.983630  1.0  0.6479
  C  C356  1  0.940300  0.646600  0.996070  1.0  0.6633
  C  C357  1  0.115300  0.359700  0.699730  1.0  0.1675
  C  C358  1  0.110300  0.279300  0.704180  1.0  -0.108
  C  C359  1  0.099300  0.229500  0.683610  1.0  -0.081
  C  C360  1  0.094300  0.260600  0.658530  1.0  -0.0096
  C  C361  1  0.085600  0.216100  0.635310  1.0  0.1075
  C  C362  1  0.080300  0.126000  0.605150  1.0  0.357
  C  C363  1  0.084300  0.049600  0.592310  1.0  0.009
  C  C364  1  0.091600  0.978200  0.605030  1.0  -0.0709
  C  C365  1  0.100100  0.910100  0.590610  1.0  -0.1155
  C  C366  1  0.103400  0.915600  0.564160  1.0  0.1618
  C  C367  1  0.087300  0.049300  0.565460  1.0  0.1854
  C  C368  1  0.080900  0.249700  0.611220  1.0  0.1216
  C  C369  1  0.083000  0.333000  0.607790  1.0  -0.029
  C  C370  1  0.078300  0.370300  0.583680  1.0  -0.009
  C  C371  1  0.079700  0.450800  0.582510  1.0  -0.1398
  C  C372  1  0.084700  0.493400  0.605460  1.0  0.1595
  C  C373  1  0.089700  0.379800  0.630070  1.0  0.0979
  C  C374  1  0.096700  0.343200  0.655700  1.0  0.1221
  C  C375  1  0.352500  0.196200  0.696870  1.0  0.1652
  C  C376  1  0.354100  0.278200  0.697850  1.0  -0.0987
  C  C377  1  0.345000  0.320300  0.675550  1.0  -0.0797
  C  C378  1  0.336600  0.280300  0.651980  1.0  -0.0124
  C  C379  1  0.330400  0.316400  0.627130  1.0  0.0946
  C  C380  1  0.327000  0.394600  0.593500  1.0  0.3681
  C  C381  1  0.330000  0.466600  0.577790  1.0  0.0157
  C  C382  1  0.335100  0.542300  0.588020  1.0  -0.0877
  C  C383  1  0.340000  0.605300  0.571400  1.0  -0.0975
  C  C384  1  0.341000  0.592300  0.545150  1.0  0.1701
  C  C385  1  0.331000  0.458700  0.551180  1.0  0.1786
  C  C386  1  0.325500  0.273800  0.604380  1.0  0.1016
  C  C387  1  0.324900  0.189800  0.604620  1.0  -0.0196
  C  C388  1  0.320500  0.143200  0.582270  1.0  -0.0125
  C  C389  1  0.324100  0.063100  0.584470  1.0  -0.1462
  C  C390  1  0.328800  0.029700  0.608940  1.0  0.1676
  C  C391  1  0.329900  0.151400  0.628690  1.0  0.133
  C  C392  1  0.336500  0.197300  0.652410  1.0  0.1038
  C  C393  1  0.367700  0.648200  0.656320  1.0  -0.142
  C  C394  1  0.465100  0.624500  0.655240  1.0  -0.1184
  C  C395  1  0.540200  0.679100  0.656490  1.0  -0.1135
  C  C396  1  0.517400  0.758000  0.657880  1.0  -0.0528
  C  C397  1  0.419800  0.783100  0.658890  1.0  -0.1573
  C  C398  1  0.345200  0.727200  0.658440  1.0  -0.0077
  C  C399  1  0.285700  0.589700  0.655880  1.0  0.6712
  C  C400  1  0.393400  0.868100  0.659770  1.0  0.7257
  C  C401  1  0.484500  0.978100  0.744110  1.0  -0.1278
  C  C402  1  0.562400  0.972700  0.761220  1.0  -0.0218
  C  C403  1  0.546300  0.978500  0.787440  1.0  -0.1459
  C  C404  1  0.451600  0.987200  0.796380  1.0  -0.1219
  C  C405  1  0.373200  0.992100  0.779420  1.0  -0.123
  C  C406  1  0.389500  0.989100  0.753150  1.0  -0.0205
  C  C407  1  0.505000  0.975800  0.715750  1.0  0.6946
  C  C408  1  0.633600  0.977000  0.805600  1.0  0.6749
  C  C409  1  0.093500  0.635100  0.485070  1.0  -0.1542
  C  C410  1  0.996300  0.610000  0.484020  1.0  -0.0525
  C  C411  1  0.920300  0.663500  0.485800  1.0  -0.1259
  C  C412  1  0.939500  0.743100  0.488920  1.0  -0.0351
  C  C413  1  0.035900  0.769400  0.490630  1.0  -0.1661
  C  C414  1  0.112300  0.715000  0.488310  1.0  -0.0281
  C  C415  1  0.179200  0.578400  0.483630  1.0  0.6487
  C  C416  1  0.059700  0.853400  0.496070  1.0  0.6636
  C  C417  1  0.384700  0.859700  0.300270  1.0  0.1659
  C  C418  1  0.389700  0.779300  0.295820  1.0  -0.1088
  C  C419  1  0.400700  0.729500  0.316390  1.0  -0.081
  C  C420  1  0.405700  0.760600  0.341470  1.0  -0.0103
  C  C421  1  0.414400  0.716100  0.364690  1.0  0.1082
  C  C422  1  0.419700  0.626000  0.394850  1.0  0.358
  C  C423  1  0.415700  0.549600  0.407690  1.0  0.0089
  C  C424  1  0.408400  0.478200  0.394970  1.0  -0.0709
  C  C425  1  0.399900  0.410100  0.409390  1.0  -0.1156
  C  C426  1  0.396600  0.415600  0.435840  1.0  0.1621
  C  C427  1  0.412700  0.549300  0.434540  1.0  0.1856
  C  C428  1  0.419100  0.749700  0.388780  1.0  0.1212
  C  C429  1  0.417000  0.833000  0.392210  1.0  -0.0285
  C  C430  1  0.421700  0.870300  0.416320  1.0  -0.0104
  C  C431  1  0.420300  0.950800  0.417490  1.0  -0.1397
  C  C432  1  0.415300  0.993400  0.394540  1.0  0.1599
  C  C433  1  0.410300  0.879800  0.369930  1.0  0.0992
  C  C434  1  0.403300  0.843200  0.344300  1.0  0.1226
  C  C435  1  0.147500  0.696200  0.303130  1.0  0.1677
  C  C436  1  0.145900  0.778200  0.302150  1.0  -0.0988
  C  C437  1  0.155000  0.820300  0.324450  1.0  -0.0786
  C  C438  1  0.163400  0.780300  0.348020  1.0  -0.0126
  C  C439  1  0.169600  0.816400  0.372870  1.0  0.0946
  C  C440  1  0.173000  0.894600  0.406500  1.0  0.3676
  C  C441  1  0.170000  0.966600  0.422210  1.0  0.0168
  C  C442  1  0.164900  0.042300  0.411980  1.0  -0.0877
  C  C443  1  0.160000  0.105300  0.428600  1.0  -0.0977
  C  C444  1  0.159000  0.092300  0.454850  1.0  0.1701
  C  C445  1  0.169000  0.958700  0.448820  1.0  0.1782
  C  C446  1  0.174500  0.773800  0.395620  1.0  0.1021
  C  C447  1  0.175100  0.689800  0.395380  1.0  -0.0186
  C  C448  1  0.179500  0.643200  0.417730  1.0  -0.0151
  C  C449  1  0.175900  0.563100  0.415530  1.0  -0.1451
  C  C450  1  0.171200  0.529700  0.391060  1.0  0.1673
  C  C451  1  0.170100  0.651400  0.371310  1.0  0.1332
  C  C452  1  0.163500  0.697300  0.347590  1.0  0.1033
  C  C453  1  0.132300  0.148200  0.343680  1.0  -0.1408
  C  C454  1  0.034900  0.124500  0.344760  1.0  -0.1185
  C  C455  1  0.959800  0.179100  0.343510  1.0  -0.1132
  C  C456  1  0.982600  0.258000  0.342120  1.0  -0.0525
  C  C457  1  0.080200  0.283100  0.341110  1.0  -0.1568
  C  C458  1  0.154800  0.227200  0.341560  1.0  -0.0055
  C  C459  1  0.214300  0.089700  0.344120  1.0  0.673
  C  C460  1  0.106600  0.368100  0.340230  1.0  0.725
  C  C461  1  0.015500  0.478100  0.255890  1.0  -0.1269
  C  C462  1  0.937600  0.472700  0.238780  1.0  -0.0232
  C  C463  1  0.953700  0.478500  0.212560  1.0  -0.1454
  C  C464  1  0.048400  0.487200  0.203620  1.0  -0.1209
  C  C465  1  0.126800  0.492100  0.220580  1.0  -0.1219
  C  C466  1  0.110500  0.489100  0.246850  1.0  -0.0195
  C  C467  1  0.995000  0.475800  0.284250  1.0  0.6953
  C  C468  1  0.866400  0.477000  0.194400  1.0  0.6732
  C  C469  1  0.406500  0.135100  0.514930  1.0  -0.1558
  C  C470  1  0.503700  0.110000  0.515980  1.0  -0.0534
  C  C471  1  0.579700  0.163500  0.514200  1.0  -0.1236
  C  C472  1  0.560500  0.243100  0.511080  1.0  -0.0361
  C  C473  1  0.464100  0.269400  0.509370  1.0  -0.1665
  C  C474  1  0.387700  0.215000  0.511690  1.0  -0.0293
  C  C475  1  0.320800  0.078400  0.516370  1.0  0.6472
  C  C476  1  0.440300  0.353400  0.503930  1.0  0.663
  C  C477  1  0.615300  0.640300  0.800270  1.0  0.1667
  C  C478  1  0.610300  0.720700  0.795820  1.0  -0.1095
  C  C479  1  0.599300  0.770500  0.816390  1.0  -0.0802
  C  C480  1  0.594300  0.739400  0.841470  1.0  -0.0106
  C  C481  1  0.585600  0.783900  0.864690  1.0  0.1073
  C  C482  1  0.580300  0.874000  0.894850  1.0  0.3578
  C  C483  1  0.584300  0.950400  0.907690  1.0  0.0092
  C  C484  1  0.591600  0.021800  0.894970  1.0  -0.0709
  C  C485  1  0.600100  0.089900  0.909390  1.0  -0.1142
  C  C486  1  0.603400  0.084400  0.935840  1.0  0.1626
  C  C487  1  0.587300  0.950700  0.934540  1.0  0.1845
  C  C488  1  0.580900  0.750300  0.888780  1.0  0.1207
  C  C489  1  0.583000  0.667000  0.892210  1.0  -0.0292
  C  C490  1  0.578300  0.629700  0.916320  1.0  -0.0108
  C  C491  1  0.579700  0.549200  0.917490  1.0  -0.1417
  C  C492  1  0.584700  0.506600  0.894540  1.0  0.1616
  C  C493  1  0.589700  0.620200  0.869930  1.0  0.0986
  C  C494  1  0.596700  0.656800  0.844300  1.0  0.1215
  C  C495  1  0.852500  0.803800  0.803130  1.0  0.1672
  C  C496  1  0.854100  0.721800  0.802150  1.0  -0.0989
  C  C497  1  0.845000  0.679700  0.824450  1.0  -0.0793
  C  C498  1  0.836600  0.719700  0.848020  1.0  -0.0124
  C  C499  1  0.830400  0.683600  0.872870  1.0  0.095
  C  C500  1  0.827000  0.605400  0.906500  1.0  0.3687
  C  C501  1  0.830000  0.533400  0.922210  1.0  0.0161
  C  C502  1  0.835100  0.457700  0.911980  1.0  -0.0854
  C  C503  1  0.840000  0.394700  0.928600  1.0  -0.0972
  C  C504  1  0.841000  0.407700  0.954850  1.0  0.1723
  C  C505  1  0.831000  0.541300  0.948820  1.0  0.1774
  C  C506  1  0.825500  0.726200  0.895620  1.0  0.1024
  C  C507  1  0.824900  0.810200  0.895380  1.0  -0.0183
  C  C508  1  0.820500  0.856800  0.917730  1.0  -0.0148
  C  C509  1  0.824100  0.936900  0.915530  1.0  -0.1434
  C  C510  1  0.828800  0.970300  0.891060  1.0  0.1671
  C  C511  1  0.829900  0.848600  0.871310  1.0  0.1325
  C  C512  1  0.836500  0.802700  0.847590  1.0  0.104
  C  C513  1  0.867700  0.351800  0.843680  1.0  -0.1421
  C  C514  1  0.965100  0.375500  0.844760  1.0  -0.1189
  C  C515  1  0.040200  0.320900  0.843510  1.0  -0.1131
  C  C516  1  0.017400  0.242000  0.842120  1.0  -0.0523
  C  C517  1  0.919800  0.216900  0.841110  1.0  -0.1572
  C  C518  1  0.845200  0.272800  0.841560  1.0  -0.0075
  C  C519  1  0.785700  0.410300  0.844120  1.0  0.6713
  C  C520  1  0.893400  0.131900  0.840230  1.0  0.7265
  C  C521  1  0.984500  0.021900  0.755890  1.0  -0.1272
  C  C522  1  0.062400  0.027300  0.738780  1.0  -0.0222
  C  C523  1  0.046300  0.021500  0.712560  1.0  -0.1447
  C  C524  1  0.951600  0.012800  0.703620  1.0  -0.1209
  C  C525  1  0.873200  0.007900  0.720580  1.0  -0.1236
  C  C526  1  0.889500  0.010900  0.746850  1.0  -0.0193
  C  C527  1  0.005000  0.024200  0.784250  1.0  0.695
  C  C528  1  0.133600  0.023000  0.694400  1.0  0.6749
  C  C529  1  0.593500  0.364900  0.014930  1.0  -0.154
  C  C530  1  0.496300  0.390000  0.015980  1.0  -0.0529
  C  C531  1  0.420300  0.336500  0.014200  1.0  -0.1257
  C  C532  1  0.439500  0.256900  0.011080  1.0  -0.0352
  C  C533  1  0.535900  0.230600  0.009370  1.0  -0.1669
  C  C534  1  0.612300  0.285000  0.011690  1.0  -0.0298
  C  C535  1  0.679200  0.421600  0.016370  1.0  0.6493
  C  C536  1  0.559700  0.146600  0.003930  1.0  0.6634
  C  C537  1  0.115300  0.859700  0.800270  1.0  0.1661
  C  C538  1  0.110300  0.779300  0.795820  1.0  -0.109
  C  C539  1  0.099300  0.729500  0.816390  1.0  -0.081
  C  C540  1  0.094300  0.760600  0.841470  1.0  -0.0105
  C  C541  1  0.085600  0.716100  0.864690  1.0  0.1081
  C  C542  1  0.080300  0.626000  0.894850  1.0  0.3581
  C  C543  1  0.084300  0.549600  0.907690  1.0  0.0092
  C  C544  1  0.091600  0.478200  0.894970  1.0  -0.0711
  C  C545  1  0.100100  0.410100  0.909390  1.0  -0.1155
  C  C546  1  0.103400  0.415600  0.935840  1.0  0.1621
  C  C547  1  0.087300  0.549300  0.934540  1.0  0.1853
  C  C548  1  0.080900  0.749700  0.888780  1.0  0.121
  C  C549  1  0.083000  0.833000  0.892210  1.0  -0.0285
  C  C550  1  0.078300  0.870300  0.916320  1.0  -0.0109
  C  C551  1  0.079700  0.950800  0.917490  1.0  -0.1402
  C  C552  1  0.084700  0.993400  0.894540  1.0  0.1598
  C  C553  1  0.089700  0.879800  0.869930  1.0  0.0985
  C  C554  1  0.096700  0.843200  0.844300  1.0  0.1217
  C  C555  1  0.352500  0.696200  0.803130  1.0  0.1676
  C  C556  1  0.354100  0.778200  0.802150  1.0  -0.0984
  C  C557  1  0.345000  0.820300  0.824450  1.0  -0.0786
  C  C558  1  0.336600  0.780300  0.848020  1.0  -0.0126
  C  C559  1  0.330400  0.816400  0.872870  1.0  0.0947
  C  C560  1  0.327000  0.894600  0.906500  1.0  0.3682
  C  C561  1  0.330000  0.966600  0.922210  1.0  0.0155
  C  C562  1  0.335100  0.042300  0.911980  1.0  -0.0878
  C  C563  1  0.340000  0.105300  0.928600  1.0  -0.0975
  C  C564  1  0.341000  0.092300  0.954850  1.0  0.1697
  C  C565  1  0.331000  0.958700  0.948820  1.0  0.178
  C  C566  1  0.325500  0.773800  0.895620  1.0  0.1022
  C  C567  1  0.324900  0.689800  0.895380  1.0  -0.0187
  C  C568  1  0.320500  0.643200  0.917730  1.0  -0.0148
  C  C569  1  0.324100  0.563100  0.915530  1.0  -0.1451
  C  C570  1  0.328800  0.529700  0.891060  1.0  0.1675
  C  C571  1  0.329900  0.651400  0.871310  1.0  0.1331
  C  C572  1  0.336500  0.697300  0.847590  1.0  0.1033
  C  C573  1  0.367700  0.148200  0.843680  1.0  -0.1418
  C  C574  1  0.465100  0.124500  0.844760  1.0  -0.1186
  C  C575  1  0.540200  0.179100  0.843510  1.0  -0.1128
  C  C576  1  0.517400  0.258000  0.842120  1.0  -0.0526
  C  C577  1  0.419800  0.283100  0.841110  1.0  -0.1571
  C  C578  1  0.345200  0.227200  0.841560  1.0  -0.0079
  C  C579  1  0.285700  0.089700  0.844120  1.0  0.6714
  C  C580  1  0.393400  0.368100  0.840230  1.0  0.7255
  C  C581  1  0.484500  0.478100  0.755890  1.0  -0.1268
  C  C582  1  0.562400  0.472700  0.738780  1.0  -0.0221
  C  C583  1  0.546300  0.478500  0.712560  1.0  -0.1445
  C  C584  1  0.451600  0.487200  0.703620  1.0  -0.1205
  C  C585  1  0.373200  0.492100  0.720580  1.0  -0.1232
  C  C586  1  0.389500  0.489100  0.746850  1.0  -0.0193
  C  C587  1  0.505000  0.475800  0.784250  1.0  0.6951
  C  C588  1  0.633600  0.477000  0.694400  1.0  0.6754
  C  C589  1  0.093500  0.135100  0.014930  1.0  -0.156
  C  C590  1  0.996300  0.110000  0.015980  1.0  -0.0524
  C  C591  1  0.920300  0.163500  0.014200  1.0  -0.1253
  C  C592  1  0.939500  0.243100  0.011080  1.0  -0.0352
  C  C593  1  0.035900  0.269400  0.009370  1.0  -0.1664
  C  C594  1  0.112300  0.215000  0.011690  1.0  -0.0296
  C  C595  1  0.179200  0.078400  0.016370  1.0  0.6482
  C  C596  1  0.059700  0.353400  0.003930  1.0  0.6632
  C  C597  1  0.884700  0.640300  0.300270  1.0  0.1664
  C  C598  1  0.889700  0.720700  0.295820  1.0  -0.1093
  C  C599  1  0.900700  0.770500  0.316390  1.0  -0.0802
  C  C600  1  0.905700  0.739400  0.341470  1.0  -0.0104
  C  C601  1  0.914400  0.783900  0.364690  1.0  0.1074
  C  C602  1  0.919700  0.874000  0.394850  1.0  0.3577
  C  C603  1  0.915700  0.950400  0.407690  1.0  0.0091
  C  C604  1  0.908400  0.021800  0.394970  1.0  -0.0707
  C  C605  1  0.899900  0.089900  0.409390  1.0  -0.1147
  C  C606  1  0.896600  0.084400  0.435840  1.0  0.1619
  C  C607  1  0.912700  0.950700  0.434540  1.0  0.185
  C  C608  1  0.919100  0.750300  0.388780  1.0  0.121
  C  C609  1  0.917000  0.667000  0.392210  1.0  -0.0293
  C  C610  1  0.921700  0.629700  0.416320  1.0  -0.0103
  C  C611  1  0.920300  0.549200  0.417490  1.0  -0.1421
  C  C612  1  0.915300  0.506600  0.394540  1.0  0.1613
  C  C613  1  0.910300  0.620200  0.369930  1.0  0.0992
  C  C614  1  0.903300  0.656800  0.344300  1.0  0.1223
  C  C615  1  0.647500  0.803800  0.303130  1.0  0.1673
  C  C616  1  0.645900  0.721800  0.302150  1.0  -0.0993
  C  C617  1  0.655000  0.679700  0.324450  1.0  -0.0793
  C  C618  1  0.663400  0.719700  0.348020  1.0  -0.0124
  C  C619  1  0.669600  0.683600  0.372870  1.0  0.0949
  C  C620  1  0.673000  0.605400  0.406500  1.0  0.3681
  C  C621  1  0.670000  0.533400  0.422210  1.0  0.0169
  C  C622  1  0.664900  0.457700  0.411980  1.0  -0.0854
  C  C623  1  0.660000  0.394700  0.428600  1.0  -0.098
  C  C624  1  0.659000  0.407700  0.454850  1.0  0.1717
  C  C625  1  0.669000  0.541300  0.448820  1.0  0.178
  C  C626  1  0.674500  0.726200  0.395620  1.0  0.1023
  C  C627  1  0.675100  0.810200  0.395380  1.0  -0.0182
  C  C628  1  0.679500  0.856800  0.417730  1.0  -0.0152
  C  C629  1  0.675900  0.936900  0.415530  1.0  -0.1436
  C  C630  1  0.671200  0.970300  0.391060  1.0  0.1665
  C  C631  1  0.670100  0.848600  0.371310  1.0  0.1325
  C  C632  1  0.663500  0.802700  0.347590  1.0  0.104
  C  C633  1  0.632300  0.351800  0.343680  1.0  -0.141
  C  C634  1  0.534900  0.375500  0.344760  1.0  -0.1189
  C  C635  1  0.459800  0.320900  0.343510  1.0  -0.1139
  C  C636  1  0.482600  0.242000  0.342120  1.0  -0.052
  C  C637  1  0.580200  0.216900  0.341110  1.0  -0.1567
  C  C638  1  0.654800  0.272800  0.341560  1.0  -0.0055
  C  C639  1  0.714300  0.410300  0.344120  1.0  0.6724
  C  C640  1  0.606600  0.131900  0.340230  1.0  0.7258
  C  C641  1  0.515500  0.021900  0.255890  1.0  -0.1272
  C  C642  1  0.437600  0.027300  0.238780  1.0  -0.0233
  C  C643  1  0.453700  0.021500  0.212560  1.0  -0.1461
  C  C644  1  0.548400  0.012800  0.203620  1.0  -0.1214
  C  C645  1  0.626800  0.007900  0.220580  1.0  -0.122
  C  C646  1  0.610500  0.010900  0.246850  1.0  -0.0195
  C  C647  1  0.495000  0.024200  0.284250  1.0  0.6952
  C  C648  1  0.366400  0.023000  0.194400  1.0  0.6733
  C  C649  1  0.906500  0.364900  0.514930  1.0  -0.154
  C  C650  1  0.003700  0.390000  0.515980  1.0  -0.0533
  C  C651  1  0.079700  0.336500  0.514200  1.0  -0.1239
  C  C652  1  0.060500  0.256900  0.511080  1.0  -0.0362
  C  C653  1  0.964100  0.230600  0.509370  1.0  -0.1671
  C  C654  1  0.887700  0.285000  0.511690  1.0  -0.0293
  C  C655  1  0.820800  0.421600  0.516370  1.0  0.648
  C  C656  1  0.940300  0.146600  0.503930  1.0  0.6631
  C  C657  1  0.615300  0.140300  0.699730  1.0  0.1682
  C  C658  1  0.610300  0.220700  0.704180  1.0  -0.1086
  C  C659  1  0.599300  0.270500  0.683610  1.0  -0.0807
  C  C660  1  0.594300  0.239400  0.658530  1.0  -0.0097
  C  C661  1  0.585600  0.283900  0.635310  1.0  0.1066
  C  C662  1  0.580300  0.374000  0.605150  1.0  0.3573
  C  C663  1  0.584300  0.450400  0.592310  1.0  0.0091
  C  C664  1  0.591600  0.521800  0.605030  1.0  -0.0704
  C  C665  1  0.600100  0.589900  0.590610  1.0  -0.1144
  C  C666  1  0.603400  0.584400  0.564160  1.0  0.1619
  C  C667  1  0.587300  0.450700  0.565460  1.0  0.1857
  C  C668  1  0.580900  0.250300  0.611220  1.0  0.1203
  C  C669  1  0.583000  0.167000  0.607790  1.0  -0.0299
  C  C670  1  0.578300  0.129700  0.583680  1.0  -0.0089
  C  C671  1  0.579700  0.049200  0.582510  1.0  -0.142
  C  C672  1  0.584700  0.006600  0.605460  1.0  0.1609
  C  C673  1  0.589700  0.120200  0.630070  1.0  0.0979
  C  C674  1  0.596700  0.156800  0.655700  1.0  0.1223
  C  C675  1  0.852500  0.303800  0.696870  1.0  0.1652
  C  C676  1  0.854100  0.221800  0.697850  1.0  -0.0989
  C  C677  1  0.845000  0.179700  0.675550  1.0  -0.0801
  C  C678  1  0.836600  0.219700  0.651980  1.0  -0.0123
  C  C679  1  0.830400  0.183600  0.627130  1.0  0.0948
  C  C680  1  0.827000  0.105400  0.593500  1.0  0.3677
  C  C681  1  0.830000  0.033400  0.577790  1.0  0.0164
  C  C682  1  0.835100  0.957700  0.588020  1.0  -0.0856
  C  C683  1  0.840000  0.894700  0.571400  1.0  -0.0978
  C  C684  1  0.841000  0.907700  0.545150  1.0  0.1715
  C  C685  1  0.831000  0.041300  0.551180  1.0  0.1774
  C  C686  1  0.825500  0.226200  0.604380  1.0  0.1029
  C  C687  1  0.824900  0.310200  0.604620  1.0  -0.0192
  C  C688  1  0.820500  0.356800  0.582270  1.0  -0.0118
  C  C689  1  0.824100  0.436900  0.584470  1.0  -0.1435
  C  C690  1  0.828800  0.470300  0.608940  1.0  0.1667
  C  C691  1  0.829900  0.348600  0.628690  1.0  0.1324
  C  C692  1  0.836500  0.302700  0.652410  1.0  0.1044
  C  C693  1  0.867700  0.851800  0.656320  1.0  -0.1427
  C  C694  1  0.965100  0.875500  0.655240  1.0  -0.1186
  C  C695  1  0.040200  0.820900  0.656490  1.0  -0.1138
  C  C696  1  0.017400  0.742000  0.657880  1.0  -0.0528
  C  C697  1  0.919800  0.716900  0.658890  1.0  -0.1572
  C  C698  1  0.845200  0.772800  0.658440  1.0  -0.0074
  C  C699  1  0.785700  0.910300  0.655880  1.0  0.6708
  C  C700  1  0.893400  0.631900  0.659770  1.0  0.7266
  C  C701  1  0.984500  0.521900  0.744110  1.0  -0.1278
  C  C702  1  0.062400  0.527300  0.761220  1.0  -0.0219
  C  C703  1  0.046300  0.521500  0.787440  1.0  -0.1459
  C  C704  1  0.951600  0.512800  0.796380  1.0  -0.1221
  C  C705  1  0.873200  0.507900  0.779420  1.0  -0.1232
  C  C706  1  0.889500  0.510900  0.753150  1.0  -0.0204
  C  C707  1  0.005000  0.524200  0.715750  1.0  0.6956
  C  C708  1  0.133600  0.523000  0.805600  1.0  0.6746
  C  C709  1  0.593500  0.864900  0.485070  1.0  -0.1543
  C  C710  1  0.496300  0.890000  0.484020  1.0  -0.0529
  C  C711  1  0.420300  0.836500  0.485800  1.0  -0.1261
  C  C712  1  0.439500  0.756900  0.488920  1.0  -0.0353
  C  C713  1  0.535900  0.730600  0.490630  1.0  -0.1663
  C  C714  1  0.612300  0.785000  0.488310  1.0  -0.0282
  C  C715  1  0.679200  0.921600  0.483630  1.0  0.6494
  C  C716  1  0.559700  0.646600  0.496070  1.0  0.6639
  C  C717  1  0.384700  0.359700  0.199730  1.0  0.167
  C  C718  1  0.389700  0.279300  0.204180  1.0  -0.1078
  C  C719  1  0.400700  0.229500  0.183610  1.0  -0.0809
  C  C720  1  0.405700  0.260600  0.158530  1.0  -0.0095
  C  C721  1  0.414400  0.216100  0.135310  1.0  0.1075
  C  C722  1  0.419700  0.126000  0.105150  1.0  0.3569
  C  C723  1  0.415700  0.049600  0.092310  1.0  0.0087
  C  C724  1  0.408400  0.978200  0.105030  1.0  -0.0707
  C  C725  1  0.399900  0.910100  0.090610  1.0  -0.1155
  C  C726  1  0.396600  0.915600  0.064160  1.0  0.1621
  C  C727  1  0.412700  0.049300  0.065460  1.0  0.1856
  C  C728  1  0.419100  0.249700  0.111220  1.0  0.1217
  C  C729  1  0.417000  0.333000  0.107790  1.0  -0.029
  C  C730  1  0.421700  0.370300  0.083680  1.0  -0.0088
  C  C731  1  0.420300  0.450800  0.082510  1.0  -0.1398
  C  C732  1  0.415300  0.493400  0.105460  1.0  0.1595
  C  C733  1  0.410300  0.379800  0.130070  1.0  0.0988
  C  C734  1  0.403300  0.343200  0.155700  1.0  0.1231
  C  C735  1  0.147500  0.196200  0.196870  1.0  0.1653
  C  C736  1  0.145900  0.278200  0.197850  1.0  -0.0997
  C  C737  1  0.155000  0.320300  0.175550  1.0  -0.0797
  C  C738  1  0.163400  0.280300  0.151980  1.0  -0.0124
  C  C739  1  0.169600  0.316400  0.127130  1.0  0.0945
  C  C740  1  0.173000  0.394600  0.093500  1.0  0.3676
  C  C741  1  0.170000  0.466600  0.077790  1.0  0.0172
  C  C742  1  0.164900  0.542300  0.088020  1.0  -0.0884
  C  C743  1  0.160000  0.605300  0.071400  1.0  -0.0975
  C  C744  1  0.159000  0.592300  0.045150  1.0  0.17
  C  C745  1  0.169000  0.458700  0.051180  1.0  0.1785
  C  C746  1  0.174500  0.273800  0.104380  1.0  0.1015
  C  C747  1  0.175100  0.189800  0.104620  1.0  -0.0195
  C  C748  1  0.179500  0.143200  0.082270  1.0  -0.0127
  C  C749  1  0.175900  0.063100  0.084470  1.0  -0.1462
  C  C750  1  0.171200  0.029700  0.108940  1.0  0.1674
  C  C751  1  0.170100  0.151400  0.128690  1.0  0.1331
  C  C752  1  0.163500  0.197300  0.152410  1.0  0.1037
  C  C753  1  0.132300  0.648200  0.156320  1.0  -0.1411
  C  C754  1  0.034900  0.624500  0.155240  1.0  -0.1184
  C  C755  1  0.959800  0.679100  0.156490  1.0  -0.1138
  C  C756  1  0.982600  0.758000  0.157880  1.0  -0.0526
  C  C757  1  0.080200  0.783100  0.158890  1.0  -0.157
  C  C758  1  0.154800  0.727200  0.158440  1.0  -0.0055
  C  C759  1  0.214300  0.589700  0.155880  1.0  0.6729
  C  C760  1  0.106600  0.868100  0.159770  1.0  0.7253
  C  C761  1  0.015500  0.978100  0.244110  1.0  -0.1279
  C  C762  1  0.937600  0.972700  0.261220  1.0  -0.0229
  C  C763  1  0.953700  0.978500  0.287440  1.0  -0.1465
  C  C764  1  0.048400  0.987200  0.296380  1.0  -0.1221
  C  C765  1  0.126800  0.992100  0.279420  1.0  -0.1218
  C  C766  1  0.110500  0.989100  0.253150  1.0  -0.0202
  C  C767  1  0.995000  0.975800  0.215750  1.0  0.6952
  C  C768  1  0.866400  0.977000  0.305600  1.0  0.6729
  C  C769  1  0.406500  0.635100  0.985070  1.0  -0.1538
  C  C770  1  0.503700  0.610000  0.984020  1.0  -0.0533
  C  C771  1  0.579700  0.663500  0.985800  1.0  -0.1235
  C  C772  1  0.560500  0.743100  0.988920  1.0  -0.0361
  C  C773  1  0.464100  0.769400  0.990630  1.0  -0.1664
  C  C774  1  0.387700  0.715000  0.988310  1.0  -0.0278
  C  C775  1  0.320800  0.578400  0.983630  1.0  0.6476
  C  C776  1  0.440300  0.853400  0.996070  1.0  0.6631
  N  N777  1  0.891900  0.108900  0.176270  1.0  -0.3559
  N  N778  1  0.910300  0.041220  0.128460  1.0  -0.3654
  N  N779  1  0.656400  0.343200  0.174850  1.0  -0.3696
  N  N780  1  0.669900  0.427690  0.130440  1.0  -0.3794
  N  N781  1  0.922800  0.306800  0.092410  1.0  -0.443
  N  N782  1  0.915500  0.363880  0.131340  1.0  -0.2759
  N  N783  1  0.676600  0.176500  0.083440  1.0  -0.4572
  N  N784  1  0.669000  0.105660  0.119870  1.0  -0.2778
  N  N785  1  0.901800  0.515800  0.051440  1.0  -0.3606
  N  N786  1  0.662000  0.979800  0.035160  1.0  -0.3544
  N  N787  1  0.108100  0.391100  0.676270  1.0  -0.3569
  N  N788  1  0.089700  0.458780  0.628460  1.0  -0.3674
  N  N789  1  0.343600  0.156800  0.674850  1.0  -0.3683
  N  N790  1  0.330100  0.072310  0.630440  1.0  -0.3778
  N  N791  1  0.077200  0.193200  0.592410  1.0  -0.4422
  N  N792  1  0.084500  0.136120  0.631340  1.0  -0.2742
  N  N793  1  0.323400  0.323500  0.583440  1.0  -0.4583
  N  N794  1  0.331000  0.394340  0.619870  1.0  -0.2779
  N  N795  1  0.098200  0.984200  0.551440  1.0  -0.3597
  N  N796  1  0.338000  0.520200  0.535160  1.0  -0.3559
  N  N797  1  0.391900  0.891100  0.323730  1.0  -0.3565
  N  N798  1  0.410300  0.958780  0.371540  1.0  -0.3708
  N  N799  1  0.156400  0.656800  0.325150  1.0  -0.3661
  N  N800  1  0.169900  0.572310  0.369560  1.0  -0.38
  N  N801  1  0.422800  0.693200  0.407590  1.0  -0.4451
  N  N802  1  0.415500  0.636120  0.368660  1.0  -0.2742
  N  N803  1  0.176600  0.823500  0.416560  1.0  -0.4603
  N  N804  1  0.169000  0.894340  0.380130  1.0  -0.2777
  N  N805  1  0.401800  0.484200  0.448560  1.0  -0.3604
  N  N806  1  0.162000  0.020200  0.464840  1.0  -0.3543
  N  N807  1  0.608100  0.608900  0.823730  1.0  -0.3554
  N  N808  1  0.589700  0.541220  0.871540  1.0  -0.3686
  N  N809  1  0.843600  0.843200  0.825150  1.0  -0.3683
  N  N810  1  0.830100  0.927690  0.869560  1.0  -0.3814
  N  N811  1  0.577200  0.806800  0.907590  1.0  -0.4452
  N  N812  1  0.584500  0.863880  0.868660  1.0  -0.2755
  N  N813  1  0.823400  0.676500  0.916560  1.0  -0.4616
  N  N814  1  0.831000  0.605660  0.880130  1.0  -0.2773
  N  N815  1  0.598200  0.015800  0.948560  1.0  -0.3602
  N  N816  1  0.838000  0.479800  0.964840  1.0  -0.3552
  N  N817  1  0.108100  0.891100  0.823730  1.0  -0.3565
  N  N818  1  0.089700  0.958780  0.871540  1.0  -0.3712
  N  N819  1  0.343600  0.656800  0.825150  1.0  -0.3661
  N  N820  1  0.330100  0.572310  0.869560  1.0  -0.38
  N  N821  1  0.077200  0.693200  0.907590  1.0  -0.4453
  N  N822  1  0.084500  0.636120  0.868660  1.0  -0.2739
  N  N823  1  0.323400  0.823500  0.916560  1.0  -0.4603
  N  N824  1  0.331000  0.894340  0.880130  1.0  -0.2775
  N  N825  1  0.098200  0.484200  0.948560  1.0  -0.3594
  N  N826  1  0.338000  0.020200  0.964840  1.0  -0.3553
  N  N827  1  0.891900  0.608900  0.323730  1.0  -0.3554
  N  N828  1  0.910300  0.541220  0.371540  1.0  -0.3682
  N  N829  1  0.656400  0.843200  0.325150  1.0  -0.3683
  N  N830  1  0.669900  0.927690  0.369560  1.0  -0.3813
  N  N831  1  0.922800  0.806800  0.407590  1.0  -0.4449
  N  N832  1  0.915500  0.863880  0.368660  1.0  -0.2757
  N  N833  1  0.676600  0.676500  0.416560  1.0  -0.4616
  N  N834  1  0.669000  0.605660  0.380130  1.0  -0.2773
  N  N835  1  0.901800  0.015800  0.448560  1.0  -0.3611
  N  N836  1  0.662000  0.479800  0.464840  1.0  -0.3543
  N  N837  1  0.608100  0.108900  0.676270  1.0  -0.3559
  N  N838  1  0.589700  0.041220  0.628460  1.0  -0.3659
  N  N839  1  0.843600  0.343200  0.674850  1.0  -0.3696
  N  N840  1  0.830100  0.427690  0.630440  1.0  -0.3794
  N  N841  1  0.577200  0.306800  0.592410  1.0  -0.4428
  N  N842  1  0.584500  0.363880  0.631340  1.0  -0.2756
  N  N843  1  0.823400  0.176500  0.583440  1.0  -0.4571
  N  N844  1  0.831000  0.105660  0.619870  1.0  -0.2778
  N  N845  1  0.598200  0.515800  0.551440  1.0  -0.3598
  N  N846  1  0.838000  0.979800  0.535160  1.0  -0.3548
  N  N847  1  0.391900  0.391100  0.176270  1.0  -0.3569
  N  N848  1  0.410300  0.458780  0.128460  1.0  -0.3669
  N  N849  1  0.156400  0.156800  0.174850  1.0  -0.3683
  N  N850  1  0.169900  0.072310  0.130440  1.0  -0.3776
  N  N851  1  0.422800  0.193200  0.092410  1.0  -0.4424
  N  N852  1  0.415500  0.136120  0.131340  1.0  -0.2745
  N  N853  1  0.176600  0.323500  0.083440  1.0  -0.458
  N  N854  1  0.169000  0.394340  0.119870  1.0  -0.2779
  N  N855  1  0.401800  0.984200  0.051440  1.0  -0.3608
  N  N856  1  0.162000  0.520200  0.035160  1.0  -0.3553
  O  O857  1  0.696600  0.982560  0.156100  1.0  -0.616
  O  O858  1  0.801200  0.882570  0.155210  1.0  -0.606
  O  O859  1  0.545400  0.581870  0.151810  1.0  -0.6878
  O  O860  1  0.689900  0.612220  0.168050  1.0  -0.5831
  O  O861  1  0.416400  0.557030  0.208250  1.0  -0.5729
  O  O862  1  0.553500  0.490640  0.200680  1.0  -0.7096
  O  O863  1  0.282700  0.520500  0.295460  1.0  -0.5814
  O  O864  1  0.379500  0.527240  0.329510  1.0  -0.6453
  O  O865  1  0.736000  0.892160  0.984190  1.0  -0.5788
  O  O866  1  0.835700  0.994060  0.982440  1.0  -0.6143
  O  O867  1  0.853200  0.629870  0.002870  1.0  -0.6044
  O  O868  1  0.004900  0.593810  0.994170  1.0  -0.7635
  O  O869  1  0.303400  0.517440  0.656100  1.0  -0.6149
  O  O870  1  0.198800  0.617430  0.655210  1.0  -0.6064
  O  O871  1  0.454600  0.918130  0.651810  1.0  -0.6875
  O  O872  1  0.310100  0.887780  0.668050  1.0  -0.5821
  O  O873  1  0.583600  0.942970  0.708250  1.0  -0.573
  O  O874  1  0.446500  0.009360  0.700680  1.0  -0.7101
  O  O875  1  0.717300  0.979500  0.795460  1.0  -0.5816
  O  O876  1  0.620500  0.972760  0.829510  1.0  -0.6451
  O  O877  1  0.264000  0.607840  0.484190  1.0  -0.5801
  O  O878  1  0.164300  0.505940  0.482440  1.0  -0.6158
  O  O879  1  0.146800  0.870130  0.502870  1.0  -0.6042
  O  O880  1  0.995100  0.906190  0.494170  1.0  -0.7638
  O  O881  1  0.196600  0.017440  0.343900  1.0  -0.6147
  O  O882  1  0.301200  0.117430  0.344790  1.0  -0.6058
  O  O883  1  0.045400  0.418130  0.348190  1.0  -0.6867
  O  O884  1  0.189900  0.387780  0.331950  1.0  -0.5832
  O  O885  1  0.916400  0.442970  0.291750  1.0  -0.5719
  O  O886  1  0.053500  0.509360  0.299320  1.0  -0.7103
  O  O887  1  0.782700  0.479500  0.204540  1.0  -0.5815
  O  O888  1  0.879500  0.472760  0.170490  1.0  -0.6457
  O  O889  1  0.236000  0.107840  0.515810  1.0  -0.5786
  O  O890  1  0.335700  0.005940  0.517560  1.0  -0.6156
  O  O891  1  0.353200  0.370130  0.497130  1.0  -0.6041
  O  O892  1  0.504900  0.406190  0.505830  1.0  -0.7634
  O  O893  1  0.803400  0.482560  0.843900  1.0  -0.6153
  O  O894  1  0.698800  0.382570  0.844790  1.0  -0.6065
  O  O895  1  0.954600  0.081870  0.848190  1.0  -0.6884
  O  O896  1  0.810100  0.112220  0.831950  1.0  -0.5827
  O  O897  1  0.083600  0.057030  0.791750  1.0  -0.5724
  O  O898  1  0.946500  0.990640  0.799320  1.0  -0.7102
  O  O899  1  0.217300  0.020500  0.704540  1.0  -0.5818
  O  O900  1  0.120500  0.027240  0.670490  1.0  -0.6459
  O  O901  1  0.764000  0.392160  0.015810  1.0  -0.5809
  O  O902  1  0.664300  0.494060  0.017560  1.0  -0.6152
  O  O903  1  0.646800  0.129870  0.997130  1.0  -0.6034
  O  O904  1  0.495100  0.093810  0.005830  1.0  -0.7635
  O  O905  1  0.303400  0.017440  0.843900  1.0  -0.6138
  O  O906  1  0.198800  0.117430  0.844790  1.0  -0.6063
  O  O907  1  0.454600  0.418130  0.848190  1.0  -0.687
  O  O908  1  0.310100  0.387780  0.831950  1.0  -0.5826
  O  O909  1  0.583600  0.442970  0.791750  1.0  -0.5723
  O  O910  1  0.446500  0.509360  0.799320  1.0  -0.7102
  O  O911  1  0.717300  0.479500  0.704540  1.0  -0.5818
  O  O912  1  0.620500  0.472760  0.670490  1.0  -0.6456
  O  O913  1  0.264000  0.107840  0.015810  1.0  -0.5804
  O  O914  1  0.164300  0.005940  0.017560  1.0  -0.6165
  O  O915  1  0.146800  0.370130  0.997130  1.0  -0.604
  O  O916  1  0.995100  0.406190  0.005830  1.0  -0.7631
  O  O917  1  0.696600  0.482560  0.343900  1.0  -0.6152
  O  O918  1  0.801200  0.382570  0.344790  1.0  -0.6059
  O  O919  1  0.545400  0.081870  0.348190  1.0  -0.6882
  O  O920  1  0.689900  0.112220  0.331950  1.0  -0.5829
  O  O921  1  0.416400  0.057030  0.291750  1.0  -0.5719
  O  O922  1  0.553500  0.990640  0.299320  1.0  -0.7104
  O  O923  1  0.282700  0.020500  0.204540  1.0  -0.5816
  O  O924  1  0.379500  0.027240  0.170490  1.0  -0.6457
  O  O925  1  0.736000  0.392160  0.515810  1.0  -0.579
  O  O926  1  0.835700  0.494060  0.517560  1.0  -0.6156
  O  O927  1  0.853200  0.129870  0.497130  1.0  -0.604
  O  O928  1  0.004900  0.093810  0.505830  1.0  -0.7634
  O  O929  1  0.803400  0.982560  0.656100  1.0  -0.6161
  O  O930  1  0.698800  0.882570  0.655210  1.0  -0.6064
  O  O931  1  0.954600  0.581870  0.651810  1.0  -0.6877
  O  O932  1  0.810100  0.612220  0.668050  1.0  -0.582
  O  O933  1  0.083600  0.557030  0.708250  1.0  -0.5732
  O  O934  1  0.946500  0.490640  0.700680  1.0  -0.7093
  O  O935  1  0.217300  0.520500  0.795460  1.0  -0.5816
  O  O936  1  0.120500  0.527240  0.829510  1.0  -0.6455
  O  O937  1  0.764000  0.892160  0.484190  1.0  -0.5807
  O  O938  1  0.664300  0.994060  0.482440  1.0  -0.6161
  O  O939  1  0.646800  0.629870  0.502870  1.0  -0.604
  O  O940  1  0.495100  0.593810  0.494170  1.0  -0.764
  O  O941  1  0.196600  0.517440  0.156100  1.0  -0.6159
  O  O942  1  0.301200  0.617430  0.155210  1.0  -0.6059
  O  O943  1  0.045400  0.918130  0.151810  1.0  -0.6873
  O  O944  1  0.189900  0.887780  0.168050  1.0  -0.5831
  O  O945  1  0.916400  0.942970  0.208250  1.0  -0.5725
  O  O946  1  0.053500  0.009360  0.200680  1.0  -0.7102
  O  O947  1  0.782700  0.979500  0.295460  1.0  -0.5812
  O  O948  1  0.879500  0.972760  0.329510  1.0  -0.6454
  O  O949  1  0.236000  0.607840  0.984190  1.0  -0.5784
  O  O950  1  0.335700  0.505940  0.982440  1.0  -0.6164
  O  O951  1  0.353200  0.870130  0.002870  1.0  -0.6041
  O  O952  1  0.504900  0.906190  0.994170  1.0  -0.7638
