# generated using pymatgen
data_Cu3H76C56S4(N4O3)6
_symmetry_space_group_name_H-M   'P 1'
_cell_length_a   15.37620000
_cell_length_b   25.98470000
_cell_length_c   25.44310000
_cell_angle_alpha   90.00000000
_cell_angle_beta   97.62600000
_cell_angle_gamma   90.00000000
_symmetry_Int_Tables_number   1
_chemical_formula_structural   Cu3H76C56S4(N4O3)6
_chemical_formula_sum   'Cu12 H304 C224 S16 N96 O72'
_cell_volume   10075.77619765
_cell_formula_units_Z   4
loop_
 _symmetry_equiv_pos_site_id
 _symmetry_equiv_pos_as_xyz
  1  'x, y, z'
loop_
 _atom_site_type_symbol
 _atom_site_label
 _atom_site_symmetry_multiplicity
 _atom_site_fract_x
 _atom_site_fract_y
 _atom_site_fract_z
 _atom_site_occupancy
 _atom_site_charge
  Cu  Cu1  1  0.643130  0.658200  0.181520  1.0  0.9133
  Cu  Cu2  1  0.471230  0.733700  0.240200  1.0  0.9048
  Cu  Cu3  1  0.297730  0.687680  0.794220  1.0  0.8296
  Cu  Cu4  1  0.356870  0.158200  0.318480  1.0  0.9154
  Cu  Cu5  1  0.528770  0.233700  0.259800  1.0  0.9054
  Cu  Cu6  1  0.702270  0.187680  0.705780  1.0  0.829
  Cu  Cu7  1  0.356870  0.341800  0.818480  1.0  0.9155
  Cu  Cu8  1  0.528770  0.266300  0.759800  1.0  0.9058
  Cu  Cu9  1  0.702270  0.312320  0.205780  1.0  0.8302
  Cu  Cu10  1  0.643130  0.841800  0.681520  1.0  0.9132
  Cu  Cu11  1  0.471230  0.766300  0.740200  1.0  0.9052
  Cu  Cu12  1  0.297730  0.812320  0.294220  1.0  0.8314
  H  H13  1  0.608100  0.741900  0.072800  1.0  0.1043
  H  H14  1  0.413900  0.804000  0.138600  1.0  0.1067
  H  H15  1  0.528600  0.831000  0.849000  1.0  0.1007
  H  H16  1  0.342000  0.754400  0.908600  1.0  0.1006
  H  H17  1  0.419500  0.772400  0.992800  1.0  0.0835
  H  H18  1  0.523000  0.770800  0.989300  1.0  0.0856
  H  H19  1  0.368800  0.891400  0.922700  1.0  0.1009
  H  H20  1  0.326400  0.845600  0.953200  1.0  0.1017
  H  H21  1  0.348200  0.919500  0.008800  1.0  0.0746
  H  H22  1  0.422600  0.876900  0.085900  1.0  0.0788
  H  H23  1  0.358300  0.836800  0.052000  1.0  0.08
  H  H24  1  0.623600  0.834300  0.041300  1.0  0.1002
  H  H25  1  0.585000  0.875400  0.079200  1.0  0.0858
  H  H26  1  0.612800  0.916700  0.999400  1.0  0.0719
  H  H27  1  0.534300  0.889400  0.916900  1.0  0.0846
  H  H28  1  0.593000  0.842800  0.943300  1.0  0.0937
  H  H29  1  0.472600  0.954600  0.975800  1.0  0.0794
  H  H30  1  0.492200  0.948700  0.039000  1.0  0.0812
  H  H31  1  0.812800  0.701700  0.261000  1.0  0.1153
  H  H32  1  0.634500  0.776600  0.330600  1.0  0.0909
  H  H33  1  0.075700  0.703700  0.361500  1.0  0.1002
  H  H34  1  0.113400  0.849800  0.328300  1.0  0.1061
  H  H35  1  0.910200  0.773800  0.291700  1.0  0.0866
  H  H36  1  0.919400  0.726200  0.332400  1.0  0.081
  H  H37  1  0.004500  0.870800  0.383700  1.0  0.0923
  H  H38  1  0.962400  0.862200  0.323100  1.0  0.0807
  H  H39  1  0.856400  0.900800  0.371200  1.0  0.0729
  H  H40  1  0.803100  0.844500  0.300900  1.0  0.0815
  H  H41  1  0.740400  0.842300  0.346500  1.0  0.0739
  H  H42  1  0.753600  0.767200  0.411200  1.0  0.0934
  H  H43  1  0.823800  0.722500  0.405900  1.0  0.0968
  H  H44  1  0.878700  0.779100  0.475600  1.0  0.0768
  H  H45  1  0.017800  0.796300  0.447500  1.0  0.0958
  H  H46  1  0.984400  0.740100  0.427800  1.0  0.088
  H  H47  1  0.908500  0.866600  0.456800  1.0  0.0752
  H  H48  1  0.805300  0.855500  0.442700  1.0  0.0968
  H  H49  1  0.316300  0.681100  0.153900  1.0  0.1064
  H  H50  1  0.132600  0.757900  0.216900  1.0  0.107
  H  H51  1  0.887200  0.746900  0.116700  1.0  0.0965
  H  H52  1  0.826200  0.606500  0.161000  1.0  0.1144
  H  H53  1  0.201900  0.664600  0.080000  1.0  0.0933
  H  H54  1  0.130700  0.710000  0.072800  1.0  0.1018
  H  H55  1  0.078600  0.638300  0.018300  1.0  0.074
  H  H56  1  0.938400  0.630800  0.047500  1.0  0.0864
  H  H57  1  0.970900  0.689500  0.053200  1.0  0.0774
  H  H58  1  0.031300  0.725000  0.142800  1.0  0.08
  H  H59  1  0.039200  0.688500  0.194200  1.0  0.0883
  H  H60  1  0.150100  0.617700  0.205100  1.0  0.0954
  H  H61  1  0.213200  0.607900  0.160700  1.0  0.0689
  H  H62  1  0.097600  0.545900  0.151300  1.0  0.0795
  H  H63  1  0.989000  0.596200  0.185700  1.0  0.0894
  H  H64  1  0.949800  0.573500  0.128800  1.0  0.0748
  H  H65  1  0.151900  0.572000  0.071800  1.0  0.0909
  H  H66  1  0.049300  0.558800  0.059100  1.0  0.0801
  H  H67  1  0.413200  0.329300  0.273600  1.0  0.105
  H  H68  1  0.596100  0.417100  0.223400  1.0  0.1053
  H  H69  1  0.368500  0.632000  0.263000  1.0  0.1045
  H  H70  1  0.558800  0.554400  0.207300  1.0  0.1102
  H  H71  1  0.474400  0.481500  0.206600  1.0  0.0754
  H  H72  1  0.529700  0.487500  0.264500  1.0  0.0804
  H  H73  1  0.322600  0.520800  0.187700  1.0  0.0993
  H  H74  1  0.281100  0.550400  0.233900  1.0  0.0774
  H  H75  1  0.220000  0.465900  0.222500  1.0  0.0853
  H  H76  1  0.313300  0.392600  0.241500  1.0  0.0735
  H  H77  1  0.343800  0.424200  0.192800  1.0  0.0883
  H  H78  1  0.482300  0.438700  0.341500  1.0  0.0963
  H  H79  1  0.397700  0.402000  0.332400  1.0  0.0812
  H  H80  1  0.360500  0.481000  0.372200  1.0  0.0835
  H  H81  1  0.366500  0.559600  0.323700  1.0  0.0909
  H  H82  1  0.463200  0.535500  0.336300  1.0  0.0983
  H  H83  1  0.246900  0.439600  0.313000  1.0  0.0872
  H  H84  1  0.233600  0.500800  0.309700  1.0  0.0843
  H  H85  1  0.638100  0.618800  0.094700  1.0  0.3418
  H  H86  1  0.554100  0.616000  0.108100  1.0  0.3929
  H  H87  1  0.372100  0.645200  0.873100  1.0  0.4303
  H  H88  1  0.283000  0.637600  0.873600  1.0  0.3273
  H  H89  1  0.391900  0.241900  0.427200  1.0  0.1048
  H  H90  1  0.586100  0.304000  0.361400  1.0  0.1059
  H  H91  1  0.471400  0.331000  0.651000  1.0  0.1008
  H  H92  1  0.658000  0.254400  0.591400  1.0  0.1005
  H  H93  1  0.580500  0.272400  0.507200  1.0  0.0836
  H  H94  1  0.477000  0.270800  0.510700  1.0  0.0862
  H  H95  1  0.631200  0.391400  0.577300  1.0  0.0994
  H  H96  1  0.673600  0.345600  0.546800  1.0  0.103
  H  H97  1  0.651800  0.419500  0.491200  1.0  0.0755
  H  H98  1  0.577400  0.376900  0.414100  1.0  0.0802
  H  H99  1  0.641700  0.336800  0.448000  1.0  0.0794
  H  H100  1  0.376400  0.334300  0.458700  1.0  0.0984
  H  H101  1  0.415000  0.375400  0.420800  1.0  0.0859
  H  H102  1  0.387200  0.416700  0.500600  1.0  0.0695
  H  H103  1  0.465700  0.389400  0.583100  1.0  0.0818
  H  H104  1  0.407000  0.342800  0.556700  1.0  0.0934
  H  H105  1  0.527400  0.454600  0.524200  1.0  0.0793
  H  H106  1  0.507800  0.448700  0.461000  1.0  0.0826
  H  H107  1  0.187200  0.201700  0.239000  1.0  0.1172
  H  H108  1  0.365500  0.276600  0.169400  1.0  0.0902
  H  H109  1  0.924300  0.203700  0.138500  1.0  0.1
  H  H110  1  0.886600  0.349800  0.171700  1.0  0.1064
  H  H111  1  0.089800  0.273800  0.208300  1.0  0.0867
  H  H112  1  0.080600  0.226200  0.167600  1.0  0.0795
  H  H113  1  0.995500  0.370800  0.116300  1.0  0.0929
  H  H114  1  0.037600  0.362200  0.176900  1.0  0.0776
  H  H115  1  0.143600  0.400800  0.128800  1.0  0.0732
  H  H116  1  0.196900  0.344500  0.199100  1.0  0.0814
  H  H117  1  0.259600  0.342300  0.153500  1.0  0.077
  H  H118  1  0.246400  0.267200  0.088800  1.0  0.091
  H  H119  1  0.176200  0.222500  0.094100  1.0  0.0964
  H  H120  1  0.121300  0.279100  0.024400  1.0  0.0765
  H  H121  1  0.982200  0.296300  0.052500  1.0  0.0955
  H  H122  1  0.015600  0.240100  0.072200  1.0  0.0876
  H  H123  1  0.091500  0.366600  0.043200  1.0  0.0766
  H  H124  1  0.194700  0.355500  0.057300  1.0  0.0954
  H  H125  1  0.683700  0.181100  0.346100  1.0  0.1071
  H  H126  1  0.867400  0.257900  0.283100  1.0  0.107
  H  H127  1  0.112800  0.246900  0.383300  1.0  0.0959
  H  H128  1  0.173800  0.106500  0.339000  1.0  0.1145
  H  H129  1  0.798100  0.164600  0.420000  1.0  0.093
  H  H130  1  0.869300  0.210000  0.427200  1.0  0.1014
  H  H131  1  0.921400  0.138300  0.481700  1.0  0.0739
  H  H132  1  0.061600  0.130800  0.452500  1.0  0.0883
  H  H133  1  0.029100  0.189500  0.446800  1.0  0.0766
  H  H134  1  0.968700  0.225000  0.357200  1.0  0.0788
  H  H135  1  0.960800  0.188500  0.305800  1.0  0.0878
  H  H136  1  0.849900  0.117700  0.294900  1.0  0.0934
  H  H137  1  0.786800  0.107900  0.339300  1.0  0.0689
  H  H138  1  0.902400  0.045900  0.348700  1.0  0.0792
  H  H139  1  0.011000  0.096200  0.314300  1.0  0.0885
  H  H140  1  0.050200  0.073500  0.371200  1.0  0.075
  H  H141  1  0.848100  0.072000  0.428200  1.0  0.0916
  H  H142  1  0.950700  0.058800  0.440900  1.0  0.0809
  H  H143  1  0.586800  0.829300  0.226400  1.0  0.1045
  H  H144  1  0.403900  0.917100  0.276600  1.0  0.1058
  H  H145  1  0.631500  0.132000  0.237000  1.0  0.1043
  H  H146  1  0.441200  0.054400  0.292700  1.0  0.1105
  H  H147  1  0.525600  0.981500  0.293400  1.0  0.0755
  H  H148  1  0.470300  0.987500  0.235500  1.0  0.0791
  H  H149  1  0.677400  0.020800  0.312300  1.0  0.099
  H  H150  1  0.718900  0.050400  0.266100  1.0  0.0764
  H  H151  1  0.780000  0.965900  0.277500  1.0  0.0824
  H  H152  1  0.686700  0.892600  0.258500  1.0  0.0737
  H  H153  1  0.656200  0.924200  0.307200  1.0  0.0872
  H  H154  1  0.517700  0.938700  0.158500  1.0  0.0983
  H  H155  1  0.602300  0.902000  0.167600  1.0  0.0793
  H  H156  1  0.639500  0.981000  0.127800  1.0  0.0849
  H  H157  1  0.633500  0.059600  0.176300  1.0  0.0915
  H  H158  1  0.536800  0.035500  0.163700  1.0  0.1002
  H  H159  1  0.753100  0.939600  0.187000  1.0  0.0848
  H  H160  1  0.766400  0.000800  0.190300  1.0  0.0846
  H  H161  1  0.361900  0.118800  0.405300  1.0  0.339
  H  H162  1  0.445900  0.116000  0.391900  1.0  0.3951
  H  H163  1  0.627900  0.145200  0.626900  1.0  0.4289
  H  H164  1  0.717000  0.137600  0.626400  1.0  0.3261
  H  H165  1  0.391900  0.258100  0.927200  1.0  0.1043
  H  H166  1  0.586100  0.196000  0.861400  1.0  0.1058
  H  H167  1  0.471400  0.169000  0.151000  1.0  0.1011
  H  H168  1  0.658000  0.245600  0.091400  1.0  0.1008
  H  H169  1  0.580500  0.227600  0.007200  1.0  0.0827
  H  H170  1  0.477000  0.229200  0.010700  1.0  0.0853
  H  H171  1  0.631200  0.108600  0.077300  1.0  0.0997
  H  H172  1  0.673600  0.154400  0.046800  1.0  0.103
  H  H173  1  0.651800  0.080500  0.991200  1.0  0.0752
  H  H174  1  0.577400  0.123100  0.914100  1.0  0.0801
  H  H175  1  0.641700  0.163200  0.948000  1.0  0.0797
  H  H176  1  0.376400  0.165700  0.958700  1.0  0.0985
  H  H177  1  0.415000  0.124600  0.920800  1.0  0.086
  H  H178  1  0.387200  0.083300  0.000600  1.0  0.0698
  H  H179  1  0.465700  0.110600  0.083100  1.0  0.084
  H  H180  1  0.407000  0.157200  0.056700  1.0  0.0936
  H  H181  1  0.527400  0.045400  0.024200  1.0  0.0806
  H  H182  1  0.507800  0.051300  0.961000  1.0  0.0824
  H  H183  1  0.187200  0.298300  0.739000  1.0  0.1175
  H  H184  1  0.365500  0.223400  0.669400  1.0  0.0903
  H  H185  1  0.924300  0.296300  0.638500  1.0  0.0997
  H  H186  1  0.886600  0.150200  0.671700  1.0  0.1077
  H  H187  1  0.089800  0.226200  0.708300  1.0  0.0859
  H  H188  1  0.080600  0.273800  0.667600  1.0  0.0778
  H  H189  1  0.995500  0.129200  0.616300  1.0  0.0926
  H  H190  1  0.037600  0.137800  0.676900  1.0  0.0791
  H  H191  1  0.143600  0.099200  0.628800  1.0  0.0736
  H  H192  1  0.196900  0.155500  0.699100  1.0  0.0819
  H  H193  1  0.259600  0.157700  0.653500  1.0  0.0766
  H  H194  1  0.246400  0.232800  0.588800  1.0  0.0914
  H  H195  1  0.176200  0.277500  0.594100  1.0  0.0967
  H  H196  1  0.121300  0.220900  0.524400  1.0  0.077
  H  H197  1  0.982200  0.203700  0.552500  1.0  0.095
  H  H198  1  0.015600  0.259900  0.572200  1.0  0.0861
  H  H199  1  0.091500  0.133400  0.543200  1.0  0.0766
  H  H200  1  0.194700  0.144500  0.557300  1.0  0.0943
  H  H201  1  0.683700  0.318900  0.846100  1.0  0.1065
  H  H202  1  0.867400  0.242100  0.783100  1.0  0.1069
  H  H203  1  0.112800  0.253100  0.883300  1.0  0.0966
  H  H204  1  0.173800  0.393500  0.839000  1.0  0.1141
  H  H205  1  0.798100  0.335400  0.920000  1.0  0.0931
  H  H206  1  0.869300  0.290000  0.927200  1.0  0.1024
  H  H207  1  0.921400  0.361700  0.981700  1.0  0.0725
  H  H208  1  0.061600  0.369200  0.952500  1.0  0.0876
  H  H209  1  0.029100  0.310500  0.946800  1.0  0.0783
  H  H210  1  0.968700  0.275000  0.857200  1.0  0.0802
  H  H211  1  0.960800  0.311500  0.805800  1.0  0.0874
  H  H212  1  0.849900  0.382300  0.794900  1.0  0.0936
  H  H213  1  0.786800  0.392100  0.839300  1.0  0.0686
  H  H214  1  0.902400  0.454100  0.848700  1.0  0.0793
  H  H215  1  0.011000  0.403800  0.814300  1.0  0.0874
  H  H216  1  0.050200  0.426500  0.871200  1.0  0.0754
  H  H217  1  0.848100  0.428000  0.928200  1.0  0.0903
  H  H218  1  0.950700  0.441200  0.940900  1.0  0.0803
  H  H219  1  0.586800  0.670700  0.726400  1.0  0.1042
  H  H220  1  0.403900  0.582900  0.776600  1.0  0.1053
  H  H221  1  0.631500  0.368000  0.737000  1.0  0.1043
  H  H222  1  0.441200  0.445600  0.792700  1.0  0.1103
  H  H223  1  0.525600  0.518500  0.793400  1.0  0.075
  H  H224  1  0.470300  0.512500  0.735500  1.0  0.0788
  H  H225  1  0.677400  0.479200  0.812300  1.0  0.0989
  H  H226  1  0.718900  0.449600  0.766100  1.0  0.0769
  H  H227  1  0.780000  0.534100  0.777500  1.0  0.0823
  H  H228  1  0.686700  0.607400  0.758500  1.0  0.0723
  H  H229  1  0.656200  0.575800  0.807200  1.0  0.0876
  H  H230  1  0.517700  0.561300  0.658500  1.0  0.0984
  H  H231  1  0.602300  0.598000  0.667600  1.0  0.0794
  H  H232  1  0.639500  0.519000  0.627800  1.0  0.0847
  H  H233  1  0.633500  0.440400  0.676300  1.0  0.0913
  H  H234  1  0.536800  0.464500  0.663700  1.0  0.1004
  H  H235  1  0.753100  0.560400  0.687000  1.0  0.0866
  H  H236  1  0.766400  0.499200  0.690300  1.0  0.0834
  H  H237  1  0.361900  0.381200  0.905300  1.0  0.3389
  H  H238  1  0.445900  0.384000  0.891900  1.0  0.395
  H  H239  1  0.627900  0.354800  0.126900  1.0  0.4295
  H  H240  1  0.717000  0.362400  0.126400  1.0  0.3253
  H  H241  1  0.608100  0.758100  0.572800  1.0  0.1044
  H  H242  1  0.413900  0.696000  0.638600  1.0  0.1068
  H  H243  1  0.528600  0.669000  0.349000  1.0  0.1003
  H  H244  1  0.342000  0.745600  0.408600  1.0  0.1002
  H  H245  1  0.419500  0.727600  0.492800  1.0  0.0824
  H  H246  1  0.523000  0.729200  0.489300  1.0  0.0846
  H  H247  1  0.368800  0.608600  0.422700  1.0  0.1009
  H  H248  1  0.326400  0.654400  0.453200  1.0  0.1015
  H  H249  1  0.348200  0.580500  0.508800  1.0  0.0747
  H  H250  1  0.422600  0.623100  0.585900  1.0  0.0801
  H  H251  1  0.358300  0.663200  0.552000  1.0  0.0797
  H  H252  1  0.623600  0.665700  0.541300  1.0  0.0997
  H  H253  1  0.585000  0.624600  0.579200  1.0  0.0861
  H  H254  1  0.612800  0.583300  0.499400  1.0  0.0718
  H  H255  1  0.534300  0.610600  0.416900  1.0  0.0841
  H  H256  1  0.593000  0.657200  0.443300  1.0  0.0934
  H  H257  1  0.472600  0.545400  0.475800  1.0  0.0796
  H  H258  1  0.492200  0.551300  0.539000  1.0  0.0818
  H  H259  1  0.812800  0.798300  0.761000  1.0  0.1162
  H  H260  1  0.634500  0.723400  0.830600  1.0  0.0907
  H  H261  1  0.075700  0.796300  0.861500  1.0  0.0997
  H  H262  1  0.113400  0.650200  0.828300  1.0  0.1074
  H  H263  1  0.910200  0.726200  0.791700  1.0  0.087
  H  H264  1  0.919400  0.773800  0.832400  1.0  0.0786
  H  H265  1  0.004500  0.629200  0.883700  1.0  0.0933
  H  H266  1  0.962400  0.637800  0.823100  1.0  0.0805
  H  H267  1  0.856400  0.599200  0.871200  1.0  0.0734
  H  H268  1  0.803100  0.655500  0.800900  1.0  0.0811
  H  H269  1  0.740400  0.657700  0.846500  1.0  0.074
  H  H270  1  0.753600  0.732800  0.911200  1.0  0.0926
  H  H271  1  0.823800  0.777500  0.905900  1.0  0.0963
  H  H272  1  0.878700  0.720900  0.975600  1.0  0.0766
  H  H273  1  0.017800  0.703700  0.947500  1.0  0.0956
  H  H274  1  0.984400  0.759900  0.927800  1.0  0.0842
  H  H275  1  0.908500  0.633400  0.956800  1.0  0.0766
  H  H276  1  0.805300  0.644500  0.942700  1.0  0.0981
  H  H277  1  0.316300  0.818900  0.653900  1.0  0.1062
  H  H278  1  0.132600  0.742100  0.716900  1.0  0.1068
  H  H279  1  0.887200  0.753100  0.616700  1.0  0.0962
  H  H280  1  0.826200  0.893500  0.661000  1.0  0.1136
  H  H281  1  0.201900  0.835400  0.580000  1.0  0.0931
  H  H282  1  0.130700  0.790000  0.572800  1.0  0.1006
  H  H283  1  0.078600  0.861700  0.518300  1.0  0.0741
  H  H284  1  0.938400  0.869200  0.547500  1.0  0.0874
  H  H285  1  0.970900  0.810500  0.553200  1.0  0.0778
  H  H286  1  0.031300  0.775000  0.642800  1.0  0.0804
  H  H287  1  0.039200  0.811500  0.694200  1.0  0.0884
  H  H288  1  0.150100  0.882300  0.705100  1.0  0.0947
  H  H289  1  0.213200  0.892100  0.660700  1.0  0.0697
  H  H290  1  0.097600  0.954100  0.651300  1.0  0.0794
  H  H291  1  0.989000  0.903800  0.685700  1.0  0.0887
  H  H292  1  0.949800  0.926500  0.628800  1.0  0.0763
  H  H293  1  0.151900  0.928000  0.571800  1.0  0.0912
  H  H294  1  0.049300  0.941200  0.559100  1.0  0.0815
  H  H295  1  0.413200  0.170700  0.773600  1.0  0.1042
  H  H296  1  0.596100  0.082900  0.723400  1.0  0.1053
  H  H297  1  0.368500  0.868000  0.763000  1.0  0.1045
  H  H298  1  0.558800  0.945600  0.707300  1.0  0.1104
  H  H299  1  0.474400  0.018500  0.706600  1.0  0.0752
  H  H300  1  0.529700  0.012500  0.764500  1.0  0.0806
  H  H301  1  0.322600  0.979200  0.687700  1.0  0.0993
  H  H302  1  0.281100  0.949600  0.733900  1.0  0.0781
  H  H303  1  0.220000  0.034100  0.722500  1.0  0.0855
  H  H304  1  0.313300  0.107400  0.741500  1.0  0.0716
  H  H305  1  0.343800  0.075800  0.692800  1.0  0.0883
  H  H306  1  0.482300  0.061300  0.841500  1.0  0.0965
  H  H307  1  0.397700  0.098000  0.832400  1.0  0.0793
  H  H308  1  0.360500  0.019000  0.872200  1.0  0.0839
  H  H309  1  0.366500  0.940400  0.823700  1.0  0.0925
  H  H310  1  0.463200  0.964500  0.836300  1.0  0.0985
  H  H311  1  0.246900  0.060400  0.813000  1.0  0.0875
  H  H312  1  0.233600  0.999200  0.809700  1.0  0.0851
  H  H313  1  0.638100  0.881200  0.594700  1.0  0.3412
  H  H314  1  0.554100  0.884000  0.608100  1.0  0.3943
  H  H315  1  0.372100  0.854800  0.373100  1.0  0.4302
  H  H316  1  0.283000  0.862400  0.373600  1.0  0.327
  C  C317  1  0.567300  0.749140  0.096700  1.0  0.1647
  C  C318  1  0.462000  0.782900  0.132300  1.0  0.1673
  C  C319  1  0.481600  0.808140  0.852800  1.0  0.1211
  C  C320  1  0.380400  0.766470  0.885000  1.0  0.1543
  C  C321  1  0.490200  0.824080  0.044600  1.0  0.2201
  C  C322  1  0.472900  0.793810  0.993000  1.0  -0.214
  C  C323  1  0.460300  0.832620  0.947000  1.0  0.2403
  C  C324  1  0.379400  0.867100  0.952800  1.0  -0.2174
  C  C325  1  0.399000  0.896600  0.004700  1.0  0.0798
  C  C326  1  0.411600  0.858100  0.051800  1.0  -0.2543
  C  C327  1  0.572800  0.856700  0.045100  1.0  -0.2626
  C  C328  1  0.558900  0.895100  0.999200  1.0  0.0917
  C  C329  1  0.542100  0.865200  0.947100  1.0  -0.2407
  C  C330  1  0.481100  0.929400  0.005200  1.0  -0.1812
  C  C331  1  0.758500  0.714100  0.269900  1.0  0.1244
  C  C332  1  0.661000  0.754800  0.307400  1.0  0.1628
  C  C333  1  0.101600  0.734400  0.350700  1.0  0.1708
  C  C334  1  0.121500  0.813750  0.332900  1.0  0.1142
  C  C335  1  0.817200  0.775800  0.344500  1.0  0.2517
  C  C336  1  0.907700  0.763540  0.329000  1.0  -0.2221
  C  C337  1  0.975800  0.793550  0.366200  1.0  0.2436
  C  C338  1  0.959300  0.851500  0.360100  1.0  -0.2567
  C  C339  1  0.868100  0.863000  0.375100  1.0  0.0514
  C  C340  1  0.799900  0.834060  0.338000  1.0  -0.2559
  C  C341  1  0.812700  0.759900  0.401700  1.0  -0.2394
  C  C342  1  0.881400  0.789800  0.438100  1.0  0.0951
  C  C343  1  0.972600  0.777400  0.423700  1.0  -0.2271
  C  C344  1  0.863900  0.847400  0.432800  1.0  -0.2128
  C  C345  1  0.287900  0.704700  0.174600  1.0  0.1387
  C  C346  1  0.187900  0.746300  0.208800  1.0  0.1238
  C  C347  1  0.855800  0.718800  0.128800  1.0  0.1601
  C  C348  1  0.823600  0.642200  0.152900  1.0  0.0935
  C  C349  1  0.134700  0.672500  0.145300  1.0  0.2348
  C  C350  1  0.142100  0.674600  0.086200  1.0  -0.2404
  C  C351  1  0.074400  0.637400  0.057100  1.0  0.0921
  C  C352  1  0.982700  0.654100  0.066700  1.0  -0.2442
  C  C353  1  0.976000  0.652300  0.126300  1.0  0.2638
  C  C354  1  0.043100  0.689370  0.155700  1.0  -0.2629
  C  C355  1  0.153500  0.618500  0.166500  1.0  -0.2431
  C  C356  1  0.085400  0.581600  0.137600  1.0  0.0522
  C  C357  1  0.993700  0.597450  0.147300  1.0  -0.2583
  C  C358  1  0.092400  0.582900  0.078000  1.0  -0.1927
  C  C359  1  0.465300  0.340260  0.260700  1.0  0.139
  C  C360  1  0.565000  0.387890  0.233300  1.0  0.1329
  C  C361  1  0.420200  0.623950  0.247900  1.0  0.1187
  C  C362  1  0.523700  0.581730  0.217600  1.0  0.1363
  C  C363  1  0.429200  0.433330  0.262800  1.0  0.2488
  C  C364  1  0.410500  0.527470  0.257200  1.0  0.2304
  C  C365  1  0.470000  0.482870  0.245100  1.0  -0.2604
  C  C366  1  0.318900  0.521210  0.226200  1.0  -0.2297
  C  C367  1  0.279800  0.470630  0.242800  1.0  0.0809
  C  C368  1  0.338900  0.425520  0.231200  1.0  -0.2447
  C  C369  1  0.423000  0.434680  0.321400  1.0  -0.2408
  C  C370  1  0.364800  0.479850  0.333400  1.0  0.0776
  C  C371  1  0.404100  0.530230  0.316200  1.0  -0.256
  C  C372  1  0.272600  0.472200  0.302100  1.0  -0.2018
  C  C373  1  0.432700  0.249140  0.403300  1.0  0.1643
  C  C374  1  0.538000  0.282900  0.367700  1.0  0.1677
  C  C375  1  0.518400  0.308140  0.647200  1.0  0.1206
  C  C376  1  0.619600  0.266470  0.615000  1.0  0.1558
  C  C377  1  0.509800  0.324080  0.455400  1.0  0.2187
  C  C378  1  0.527100  0.293810  0.507000  1.0  -0.2148
  C  C379  1  0.539700  0.332620  0.553000  1.0  0.2409
  C  C380  1  0.620600  0.367100  0.547200  1.0  -0.2154
  C  C381  1  0.601000  0.396600  0.495300  1.0  0.0799
  C  C382  1  0.588400  0.358100  0.448200  1.0  -0.2505
  C  C383  1  0.427200  0.356700  0.454900  1.0  -0.2649
  C  C384  1  0.441100  0.395100  0.500800  1.0  0.093
  C  C385  1  0.457900  0.365200  0.552900  1.0  -0.2415
  C  C386  1  0.518900  0.429400  0.494800  1.0  -0.181
  C  C387  1  0.241500  0.214100  0.230100  1.0  0.1253
  C  C388  1  0.339000  0.254800  0.192600  1.0  0.1624
  C  C389  1  0.898400  0.234400  0.149300  1.0  0.1705
  C  C390  1  0.878500  0.313750  0.167100  1.0  0.1145
  C  C391  1  0.182800  0.275800  0.155500  1.0  0.2523
  C  C392  1  0.092300  0.263540  0.171000  1.0  -0.2222
  C  C393  1  0.024200  0.293550  0.133800  1.0  0.2435
  C  C394  1  0.040700  0.351500  0.139900  1.0  -0.2584
  C  C395  1  0.131900  0.363000  0.124900  1.0  0.0522
  C  C396  1  0.200100  0.334060  0.162000  1.0  -0.2541
  C  C397  1  0.187300  0.259900  0.098300  1.0  -0.2382
  C  C398  1  0.118600  0.289800  0.061900  1.0  0.0934
  C  C399  1  0.027400  0.277400  0.076300  1.0  -0.2293
  C  C400  1  0.136100  0.347400  0.067200  1.0  -0.2112
  C  C401  1  0.712100  0.204700  0.325400  1.0  0.1376
  C  C402  1  0.812100  0.246300  0.291200  1.0  0.1236
  C  C403  1  0.144200  0.218800  0.371200  1.0  0.1608
  C  C404  1  0.176400  0.142200  0.347100  1.0  0.0932
  C  C405  1  0.865300  0.172500  0.354700  1.0  0.2348
  C  C406  1  0.857900  0.174600  0.413800  1.0  -0.2428
  C  C407  1  0.925600  0.137400  0.442900  1.0  0.0927
  C  C408  1  0.017300  0.154100  0.433300  1.0  -0.2414
  C  C409  1  0.024000  0.152300  0.373700  1.0  0.263
  C  C410  1  0.956900  0.189370  0.344300  1.0  -0.261
  C  C411  1  0.846500  0.118500  0.333500  1.0  -0.2456
  C  C412  1  0.914600  0.081600  0.362400  1.0  0.0534
  C  C413  1  0.006300  0.097450  0.352700  1.0  -0.2589
  C  C414  1  0.907600  0.082900  0.422000  1.0  -0.1926
  C  C415  1  0.534700  0.840260  0.239300  1.0  0.1386
  C  C416  1  0.435000  0.887890  0.266700  1.0  0.134
  C  C417  1  0.579800  0.123950  0.252100  1.0  0.1197
  C  C418  1  0.476300  0.081730  0.282400  1.0  0.1366
  C  C419  1  0.570800  0.933330  0.237200  1.0  0.2488
  C  C420  1  0.589500  0.027470  0.242800  1.0  0.2309
  C  C421  1  0.530000  0.982870  0.254900  1.0  -0.261
  C  C422  1  0.681100  0.021210  0.273800  1.0  -0.2292
  C  C423  1  0.720200  0.970630  0.257200  1.0  0.0803
  C  C424  1  0.661100  0.925520  0.268800  1.0  -0.2448
  C  C425  1  0.577000  0.934680  0.178600  1.0  -0.2408
  C  C426  1  0.635200  0.979850  0.166600  1.0  0.0775
  C  C427  1  0.595900  0.030230  0.183800  1.0  -0.2563
  C  C428  1  0.727400  0.972200  0.197900  1.0  -0.2009
  C  C429  1  0.432700  0.250860  0.903300  1.0  0.1631
  C  C430  1  0.538000  0.217100  0.867700  1.0  0.1678
  C  C431  1  0.518400  0.191860  0.147200  1.0  0.1205
  C  C432  1  0.619600  0.233530  0.115000  1.0  0.1554
  C  C433  1  0.509800  0.175920  0.955400  1.0  0.2201
  C  C434  1  0.527100  0.206190  0.007000  1.0  -0.2161
  C  C435  1  0.539700  0.167380  0.053000  1.0  0.2412
  C  C436  1  0.620600  0.132900  0.047200  1.0  -0.2159
  C  C437  1  0.601000  0.103400  0.995300  1.0  0.079
  C  C438  1  0.588400  0.141900  0.948200  1.0  -0.2514
  C  C439  1  0.427200  0.143300  0.954900  1.0  -0.2642
  C  C440  1  0.441100  0.104900  0.000800  1.0  0.0951
  C  C441  1  0.457900  0.134800  0.052900  1.0  -0.2409
  C  C442  1  0.518900  0.070600  0.994800  1.0  -0.1765
  C  C443  1  0.241500  0.285900  0.730100  1.0  0.124
  C  C444  1  0.339000  0.245200  0.692600  1.0  0.1622
  C  C445  1  0.898400  0.265600  0.649300  1.0  0.1722
  C  C446  1  0.878500  0.186250  0.667100  1.0  0.1143
  C  C447  1  0.182800  0.224200  0.655500  1.0  0.2524
  C  C448  1  0.092300  0.236460  0.671000  1.0  -0.2253
  C  C449  1  0.024200  0.206450  0.633800  1.0  0.2439
  C  C450  1  0.040700  0.148500  0.639900  1.0  -0.2562
  C  C451  1  0.131900  0.137000  0.624900  1.0  0.0519
  C  C452  1  0.200100  0.165940  0.662000  1.0  -0.2538
  C  C453  1  0.187300  0.240100  0.598300  1.0  -0.241
  C  C454  1  0.118600  0.210200  0.561900  1.0  0.0942
  C  C455  1  0.027400  0.222600  0.576300  1.0  -0.231
  C  C456  1  0.136100  0.152600  0.567200  1.0  -0.2097
  C  C457  1  0.712100  0.295300  0.825400  1.0  0.1371
  C  C458  1  0.812100  0.253700  0.791200  1.0  0.1239
  C  C459  1  0.144200  0.281200  0.871200  1.0  0.1614
  C  C460  1  0.176400  0.357800  0.847100  1.0  0.0936
  C  C461  1  0.865300  0.327500  0.854700  1.0  0.2338
  C  C462  1  0.857900  0.325400  0.913800  1.0  -0.2411
  C  C463  1  0.925600  0.362600  0.942900  1.0  0.0925
  C  C464  1  0.017300  0.345900  0.933300  1.0  -0.2421
  C  C465  1  0.024000  0.347700  0.873700  1.0  0.2629
  C  C466  1  0.956900  0.310630  0.844300  1.0  -0.2623
  C  C467  1  0.846500  0.381500  0.833500  1.0  -0.2448
  C  C468  1  0.914600  0.418400  0.862400  1.0  0.0535
  C  C469  1  0.006300  0.402550  0.852700  1.0  -0.2607
  C  C470  1  0.907600  0.417100  0.922000  1.0  -0.1997
  C  C471  1  0.534700  0.659740  0.739300  1.0  0.1386
  C  C472  1  0.435000  0.612110  0.766700  1.0  0.1343
  C  C473  1  0.579800  0.376050  0.752100  1.0  0.1199
  C  C474  1  0.476300  0.418270  0.782400  1.0  0.136
  C  C475  1  0.570800  0.566670  0.737200  1.0  0.2502
  C  C476  1  0.589500  0.472530  0.742800  1.0  0.23
  C  C477  1  0.530000  0.517130  0.754900  1.0  -0.2614
  C  C478  1  0.681100  0.478790  0.773800  1.0  -0.23
  C  C479  1  0.720200  0.529370  0.757200  1.0  0.0804
  C  C480  1  0.661100  0.574480  0.768800  1.0  -0.2453
  C  C481  1  0.577000  0.565320  0.678600  1.0  -0.2409
  C  C482  1  0.635200  0.520150  0.666667  1.0  0.0778
  C  C483  1  0.595900  0.469770  0.683800  1.0  -0.2558
  C  C484  1  0.727400  0.527800  0.697900  1.0  -0.2008
  C  C485  1  0.567300  0.750860  0.596700  1.0  0.1642
  C  C486  1  0.462000  0.717100  0.632300  1.0  0.1671
  C  C487  1  0.481600  0.691860  0.352800  1.0  0.1209
  C  C488  1  0.380400  0.733530  0.385000  1.0  0.1536
  C  C489  1  0.490200  0.675920  0.544600  1.0  0.2216
  C  C490  1  0.472900  0.706190  0.493000  1.0  -0.2162
  C  C491  1  0.460300  0.667380  0.447000  1.0  0.2407
  C  C492  1  0.379400  0.632900  0.452800  1.0  -0.2174
  C  C493  1  0.399000  0.603400  0.504700  1.0  0.0815
  C  C494  1  0.411600  0.641900  0.551800  1.0  -0.2542
  C  C495  1  0.572800  0.643300  0.545100  1.0  -0.2621
  C  C496  1  0.558900  0.604900  0.499200  1.0  0.0913
  C  C497  1  0.542100  0.634800  0.447100  1.0  -0.2415
  C  C498  1  0.481100  0.570600  0.505200  1.0  -0.1769
  C  C499  1  0.758500  0.785900  0.769900  1.0  0.1255
  C  C500  1  0.661000  0.745200  0.807400  1.0  0.1628
  C  C501  1  0.101600  0.765600  0.850700  1.0  0.1714
  C  C502  1  0.121500  0.686250  0.832900  1.0  0.1146
  C  C503  1  0.817200  0.724200  0.844500  1.0  0.2518
  C  C504  1  0.907700  0.736460  0.829000  1.0  -0.223
  C  C505  1  0.975800  0.706450  0.866200  1.0  0.2439
  C  C506  1  0.959300  0.648500  0.860100  1.0  -0.2543
  C  C507  1  0.868100  0.637000  0.875100  1.0  0.0511
  C  C508  1  0.799900  0.665940  0.838000  1.0  -0.2558
  C  C509  1  0.812700  0.740100  0.901700  1.0  -0.2467
  C  C510  1  0.881400  0.710200  0.938100  1.0  0.0936
  C  C511  1  0.972600  0.722600  0.923700  1.0  -0.2297
  C  C512  1  0.863900  0.652600  0.932800  1.0  -0.2084
  C  C513  1  0.287900  0.795300  0.674600  1.0  0.1385
  C  C514  1  0.187900  0.753700  0.708800  1.0  0.1257
  C  C515  1  0.855800  0.781200  0.628800  1.0  0.1596
  C  C516  1  0.823600  0.857800  0.652900  1.0  0.0937
  C  C517  1  0.134700  0.827500  0.645300  1.0  0.2341
  C  C518  1  0.142100  0.825400  0.586200  1.0  -0.2415
  C  C519  1  0.074400  0.862600  0.557100  1.0  0.0926
  C  C520  1  0.982700  0.845900  0.566700  1.0  -0.2443
  C  C521  1  0.976000  0.847700  0.626300  1.0  0.2638
  C  C522  1  0.043100  0.810630  0.655700  1.0  -0.2623
  C  C523  1  0.153500  0.881500  0.666500  1.0  -0.2437
  C  C524  1  0.085400  0.918400  0.637600  1.0  0.0529
  C  C525  1  0.993700  0.902550  0.647300  1.0  -0.2646
  C  C526  1  0.092400  0.917100  0.578000  1.0  -0.1952
  C  C527  1  0.465300  0.159740  0.760700  1.0  0.1379
  C  C528  1  0.565000  0.112110  0.733300  1.0  0.1334
  C  C529  1  0.420200  0.876050  0.747900  1.0  0.1193
  C  C530  1  0.523700  0.918270  0.717600  1.0  0.1356
  C  C531  1  0.429200  0.066670  0.762800  1.0  0.2498
  C  C532  1  0.410500  0.972530  0.757200  1.0  0.2291
  C  C533  1  0.470000  0.017130  0.745100  1.0  -0.2606
  C  C534  1  0.318900  0.978790  0.726200  1.0  -0.2305
  C  C535  1  0.279800  0.029370  0.742800  1.0  0.0811
  C  C536  1  0.338900  0.074480  0.731200  1.0  -0.2446
  C  C537  1  0.423000  0.065320  0.821400  1.0  -0.2412
  C  C538  1  0.364800  0.020150  0.833400  1.0  0.0775
  C  C539  1  0.404100  0.969770  0.816200  1.0  -0.2556
  C  C540  1  0.272600  0.027800  0.802100  1.0  -0.2015
  S  S541  1  0.736770  0.521190  0.218120  1.0  1.6878
  S  S542  1  0.395800  0.647200  0.049800  1.0  1.655
  S  S543  1  0.561810  0.845120  0.410750  1.0  1.515
  S  S544  1  0.983860  0.842200  0.193420  1.0  1.5264
  S  S545  1  0.263230  0.021190  0.281880  1.0  1.6885
  S  S546  1  0.604200  0.147200  0.450200  1.0  1.6537
  S  S547  1  0.438190  0.345120  0.089250  1.0  1.5144
  S  S548  1  0.016140  0.342200  0.306580  1.0  1.5284
  S  S549  1  0.263230  0.478810  0.781880  1.0  1.6882
  S  S550  1  0.604200  0.352800  0.950200  1.0  1.6531
  S  S551  1  0.438190  0.154880  0.589250  1.0  1.5127
  S  S552  1  0.016140  0.157800  0.806580  1.0  1.5272
  S  S553  1  0.736770  0.978810  0.718120  1.0  1.688
  S  S554  1  0.395800  0.852800  0.549800  1.0  1.654
  S  S555  1  0.561810  0.654880  0.910750  1.0  1.5145
  S  S556  1  0.983860  0.657800  0.693420  1.0  1.5255
  N  N557  1  0.563600  0.725210  0.141200  1.0  -0.2277
  N  N558  1  0.496400  0.747030  0.164010  1.0  -0.2085
  N  N559  1  0.503800  0.786100  0.089420  1.0  -0.1109
  N  N560  1  0.445900  0.776490  0.815790  1.0  -0.2147
  N  N561  1  0.381500  0.749810  0.836710  1.0  -0.2242
  N  N562  1  0.442500  0.803690  0.896550  1.0  -0.0621
  N  N563  1  0.680400  0.700800  0.246110  1.0  -0.2648
  N  N564  1  0.618300  0.727460  0.270220  1.0  -0.2444
  N  N565  1  0.749200  0.748170  0.308820  1.0  -0.0327
  N  N566  1  0.177900  0.736380  0.333430  1.0  -0.3236
  N  N567  1  0.190100  0.788090  0.322280  1.0  -0.1997
  N  N568  1  0.064000  0.781520  0.351460  1.0  -0.0399
  N  N569  1  0.328200  0.738420  0.207830  1.0  -0.243
  N  N570  1  0.263900  0.764680  0.229610  1.0  -0.2234
  N  N571  1  0.199900  0.708350  0.174160  1.0  -0.0286
  N  N572  1  0.776000  0.721920  0.140900  1.0  -0.2947
  N  N573  1  0.755500  0.672890  0.156430  1.0  -0.1608
  N  N574  1  0.888100  0.670070  0.135830  1.0  -0.0424
  N  N575  1  0.528200  0.309840  0.249140  1.0  -0.2221
  N  N576  1  0.591800  0.340350  0.231430  1.0  -0.2206
  N  N577  1  0.486300  0.389310  0.251490  1.0  -0.0614
  N  N578  1  0.473700  0.657710  0.231130  1.0  -0.213
  N  N579  1  0.539600  0.630420  0.211690  1.0  -0.2232
  N  N580  1  0.450500  0.575820  0.240440  1.0  -0.0402
  N  N581  1  0.436400  0.225210  0.358800  1.0  -0.2286
  N  N582  1  0.503600  0.247030  0.335990  1.0  -0.208
  N  N583  1  0.496200  0.286100  0.410580  1.0  -0.1117
  N  N584  1  0.554100  0.276490  0.684210  1.0  -0.2149
  N  N585  1  0.618500  0.249810  0.663290  1.0  -0.2232
  N  N586  1  0.557500  0.303690  0.603450  1.0  -0.0631
  N  N587  1  0.319600  0.200800  0.253890  1.0  -0.2638
  N  N588  1  0.381700  0.227460  0.229780  1.0  -0.2463
  N  N589  1  0.250800  0.248170  0.191180  1.0  -0.033
  N  N590  1  0.822100  0.236380  0.166570  1.0  -0.3243
  N  N591  1  0.809900  0.288090  0.177720  1.0  -0.2007
  N  N592  1  0.936000  0.281520  0.148540  1.0  -0.0402
  N  N593  1  0.671800  0.238420  0.292170  1.0  -0.2415
  N  N594  1  0.736100  0.264680  0.270390  1.0  -0.2234
  N  N595  1  0.800100  0.208350  0.325840  1.0  -0.0293
  N  N596  1  0.224000  0.221920  0.359100  1.0  -0.2947
  N  N597  1  0.244500  0.172890  0.343570  1.0  -0.1635
  N  N598  1  0.111900  0.170070  0.364170  1.0  -0.0428
  N  N599  1  0.471800  0.809840  0.250860  1.0  -0.2222
  N  N600  1  0.408200  0.840350  0.268570  1.0  -0.2195
  N  N601  1  0.513700  0.889310  0.248510  1.0  -0.0626
  N  N602  1  0.526300  0.157710  0.268870  1.0  -0.2139
  N  N603  1  0.460400  0.130420  0.288310  1.0  -0.2247
  N  N604  1  0.549500  0.075820  0.259560  1.0  -0.0396
  N  N605  1  0.436400  0.274790  0.858800  1.0  -0.2278
  N  N606  1  0.503600  0.252970  0.835990  1.0  -0.2078
  N  N607  1  0.496200  0.213900  0.910580  1.0  -0.111
  N  N608  1  0.554100  0.223510  0.184210  1.0  -0.215
  N  N609  1  0.618500  0.250190  0.163290  1.0  -0.224
  N  N610  1  0.557500  0.196310  0.103450  1.0  -0.0632
  N  N611  1  0.319600  0.299200  0.753890  1.0  -0.2648
  N  N612  1  0.381700  0.272540  0.729780  1.0  -0.2468
  N  N613  1  0.250800  0.251830  0.691180  1.0  -0.0348
  N  N614  1  0.822100  0.263620  0.666570  1.0  -0.3266
  N  N615  1  0.809900  0.211910  0.677720  1.0  -0.2008
  N  N616  1  0.936000  0.218480  0.648540  1.0  -0.0401
  N  N617  1  0.671800  0.261580  0.792170  1.0  -0.242
  N  N618  1  0.736100  0.235320  0.770390  1.0  -0.2215
  N  N619  1  0.800100  0.291650  0.825840  1.0  -0.0294
  N  N620  1  0.224000  0.278080  0.859100  1.0  -0.2935
  N  N621  1  0.244500  0.327110  0.843570  1.0  -0.1639
  N  N622  1  0.111900  0.329930  0.864170  1.0  -0.0427
  N  N623  1  0.471800  0.690160  0.750860  1.0  -0.2234
  N  N624  1  0.408200  0.659650  0.768570  1.0  -0.2187
  N  N625  1  0.513700  0.610690  0.748510  1.0  -0.0626
  N  N626  1  0.526300  0.342290  0.768870  1.0  -0.2122
  N  N627  1  0.460400  0.369580  0.788310  1.0  -0.2253
  N  N628  1  0.549500  0.424180  0.759560  1.0  -0.0392
  N  N629  1  0.563600  0.774790  0.641200  1.0  -0.2281
  N  N630  1  0.496400  0.752970  0.664010  1.0  -0.2092
  N  N631  1  0.503800  0.713900  0.589420  1.0  -0.1106
  N  N632  1  0.445900  0.723510  0.315790  1.0  -0.2142
  N  N633  1  0.381500  0.750190  0.336710  1.0  -0.2237
  N  N634  1  0.442500  0.696310  0.396550  1.0  -0.0625
  N  N635  1  0.680400  0.799200  0.746110  1.0  -0.2646
  N  N636  1  0.618300  0.772540  0.770220  1.0  -0.2447
  N  N637  1  0.749200  0.751830  0.808820  1.0  -0.0346
  N  N638  1  0.177900  0.763620  0.833430  1.0  -0.3267
  N  N639  1  0.190100  0.711910  0.822280  1.0  -0.1996
  N  N640  1  0.064000  0.718480  0.851460  1.0  -0.0398
  N  N641  1  0.328200  0.761580  0.707830  1.0  -0.2428
  N  N642  1  0.263900  0.735320  0.729610  1.0  -0.2211
  N  N643  1  0.199900  0.791650  0.674160  1.0  -0.0292
  N  N644  1  0.776000  0.778080  0.640900  1.0  -0.293
  N  N645  1  0.755500  0.827110  0.656430  1.0  -0.1611
  N  N646  1  0.888100  0.829930  0.635830  1.0  -0.0423
  N  N647  1  0.528200  0.190160  0.749140  1.0  -0.2232
  N  N648  1  0.591800  0.159650  0.731430  1.0  -0.2201
  N  N649  1  0.486300  0.110690  0.751490  1.0  -0.0618
  N  N650  1  0.473700  0.842290  0.731130  1.0  -0.2115
  N  N651  1  0.539600  0.869580  0.711690  1.0  -0.2234
  N  N652  1  0.450500  0.924180  0.740440  1.0  -0.0403
  O  O653  1  0.654700  0.499900  0.193500  1.0  -0.6291
  O  O654  1  0.765100  0.485200  0.259900  1.0  -0.6174
  O  O655  1  0.801400  0.522800  0.179800  1.0  -0.6422
  O  O656  1  0.725100  0.574440  0.237100  1.0  -0.714
  O  O657  1  0.413600  0.627000  0.104400  1.0  -0.675
  O  O658  1  0.478900  0.645800  0.027000  1.0  -0.6787
  O  O659  1  0.332800  0.614300  0.018500  1.0  -0.6751
  O  O660  1  0.361800  0.698500  0.053500  1.0  -0.6526
  O  O661  1  0.567500  0.852400  0.353700  1.0  -0.6375
  O  O662  1  0.474100  0.861100  0.419600  1.0  -0.6574
  O  O663  1  0.582600  0.794500  0.419800  1.0  -0.5839
  O  O664  1  0.622800  0.879900  0.441200  1.0  -0.6802
  O  O665  1  0.892000  0.857200  0.190000  1.0  -0.6823
  O  O666  1  0.999800  0.794370  0.219900  1.0  -0.5821
  O  O667  1  0.038300  0.883100  0.222700  1.0  -0.6935
  O  O668  1  0.015600  0.833000  0.139600  1.0  -0.6003
  O  O669  1  0.608300  0.611960  0.120020  1.0  -0.7645
  O  O670  1  0.323800  0.637890  0.853580  1.0  -0.7808
  O  O671  1  0.345300  0.999900  0.306500  1.0  -0.6298
  O  O672  1  0.234900  0.985200  0.240100  1.0  -0.6148
  O  O673  1  0.198600  0.022800  0.320200  1.0  -0.6441
  O  O674  1  0.274900  0.074440  0.262900  1.0  -0.713
  O  O675  1  0.586400  0.127000  0.395600  1.0  -0.6742
  O  O676  1  0.521100  0.145800  0.473000  1.0  -0.6784
  O  O677  1  0.667200  0.114300  0.481500  1.0  -0.6756
  O  O678  1  0.638200  0.198500  0.446500  1.0  -0.6512
  O  O679  1  0.432500  0.352400  0.146300  1.0  -0.6377
  O  O680  1  0.525900  0.361100  0.080400  1.0  -0.6594
  O  O681  1  0.417400  0.294500  0.080200  1.0  -0.5826
  O  O682  1  0.377200  0.379900  0.058800  1.0  -0.6815
  O  O683  1  0.108000  0.357200  0.310000  1.0  -0.6846
  O  O684  1  0.000200  0.294370  0.280100  1.0  -0.581
  O  O685  1  0.961700  0.383100  0.277300  1.0  -0.6916
  O  O686  1  0.984400  0.333000  0.360400  1.0  -0.6002
  O  O687  1  0.391700  0.111960  0.379980  1.0  -0.7675
  O  O688  1  0.676200  0.137890  0.646420  1.0  -0.7777
  O  O689  1  0.345300  0.500100  0.806500  1.0  -0.6292
  O  O690  1  0.234900  0.514800  0.740100  1.0  -0.6154
  O  O691  1  0.198600  0.477200  0.820200  1.0  -0.6439
  O  O692  1  0.274900  0.425560  0.762900  1.0  -0.7136
  O  O693  1  0.586400  0.373000  0.895600  1.0  -0.6742
  O  O694  1  0.521100  0.354200  0.973000  1.0  -0.6768
  O  O695  1  0.667200  0.385700  0.981500  1.0  -0.6755
  O  O696  1  0.638200  0.301500  0.946500  1.0  -0.6511
  O  O697  1  0.432500  0.147600  0.646300  1.0  -0.6377
  O  O698  1  0.525900  0.138900  0.580400  1.0  -0.6588
  O  O699  1  0.417400  0.205500  0.580200  1.0  -0.5839
  O  O700  1  0.377200  0.120100  0.558800  1.0  -0.6813
  O  O701  1  0.108000  0.142800  0.810000  1.0  -0.6854
  O  O702  1  0.000200  0.205630  0.780100  1.0  -0.5805
  O  O703  1  0.961700  0.116900  0.777300  1.0  -0.6936
  O  O704  1  0.984400  0.167000  0.860400  1.0  -0.605
  O  O705  1  0.391700  0.388040  0.879980  1.0  -0.769
  O  O706  1  0.676200  0.362110  0.146420  1.0  -0.7808
  O  O707  1  0.654700  0.000100  0.693500  1.0  -0.6286
  O  O708  1  0.765100  0.014800  0.759900  1.0  -0.6176
  O  O709  1  0.801400  0.977200  0.679800  1.0  -0.6429
  O  O710  1  0.725100  0.925560  0.737100  1.0  -0.7154
  O  O711  1  0.413600  0.873000  0.604400  1.0  -0.6751
  O  O712  1  0.478900  0.854200  0.527000  1.0  -0.6773
  O  O713  1  0.332800  0.885700  0.518500  1.0  -0.676
  O  O714  1  0.361800  0.801500  0.553500  1.0  -0.6503
  O  O715  1  0.567500  0.647600  0.853700  1.0  -0.6376
  O  O716  1  0.474100  0.638900  0.919600  1.0  -0.6605
  O  O717  1  0.582600  0.705500  0.919800  1.0  -0.5835
  O  O718  1  0.622800  0.620100  0.941200  1.0  -0.6814
  O  O719  1  0.892000  0.642800  0.690000  1.0  -0.6824
  O  O720  1  0.999800  0.705630  0.719900  1.0  -0.5824
  O  O721  1  0.038300  0.616900  0.722700  1.0  -0.6937
  O  O722  1  0.015600  0.667000  0.639600  1.0  -0.5987
  O  O723  1  0.608300  0.888040  0.620020  1.0  -0.7647
  O  O724  1  0.323800  0.862110  0.353580  1.0  -0.7827
