# generated using pymatgen
data_AgH21(C5N2)3
_symmetry_space_group_name_H-M   'P 1'
_cell_length_a   23.38230000
_cell_length_b   23.38230000
_cell_length_c   28.18570000
_cell_angle_alpha   90.00000000
_cell_angle_beta   90.00000000
_cell_angle_gamma   90.00000000
_symmetry_Int_Tables_number   1
_chemical_formula_structural   AgH21(C5N2)3
_chemical_formula_sum   'Ag32 H672 C480 N192'
_cell_volume   15410.02281585
_cell_formula_units_Z   32
loop_
 _symmetry_equiv_pos_site_id
 _symmetry_equiv_pos_as_xyz
  1  'x, y, z'
loop_
 _atom_site_type_symbol
 _atom_site_label
 _atom_site_symmetry_multiplicity
 _atom_site_fract_x
 _atom_site_fract_y
 _atom_site_fract_z
 _atom_site_occupancy
 _atom_site_charge
  Ag  Ag1  1  0.557020  0.503060  0.473470  1.0  0.3748
  Ag  Ag2  1  0.057020  0.003060  0.973470  1.0  0.3748
  Ag  Ag3  1  0.942980  0.496940  0.973470  1.0  0.3761
  Ag  Ag4  1  0.442980  0.996940  0.473470  1.0  0.3761
  Ag  Ag5  1  0.746940  0.307020  0.723470  1.0  0.3756
  Ag  Ag6  1  0.246940  0.807020  0.223470  1.0  0.3756
  Ag  Ag7  1  0.753060  0.692980  0.223470  1.0  0.3758
  Ag  Ag8  1  0.253060  0.192980  0.723470  1.0  0.3758
  Ag  Ag9  1  0.942980  0.503060  0.526530  1.0  0.3762
  Ag  Ag10  1  0.442980  0.003060  0.026530  1.0  0.3762
  Ag  Ag11  1  0.557020  0.496940  0.026530  1.0  0.3746
  Ag  Ag12  1  0.057020  0.996940  0.526530  1.0  0.3746
  Ag  Ag13  1  0.753060  0.307020  0.276530  1.0  0.3751
  Ag  Ag14  1  0.253060  0.807020  0.776530  1.0  0.3751
  Ag  Ag15  1  0.746940  0.692980  0.776530  1.0  0.3761
  Ag  Ag16  1  0.246940  0.192980  0.276530  1.0  0.3761
  Ag  Ag17  1  0.442980  0.496940  0.526530  1.0  0.3759
  Ag  Ag18  1  0.942980  0.996940  0.026530  1.0  0.3759
  Ag  Ag19  1  0.057020  0.503060  0.026530  1.0  0.3746
  Ag  Ag20  1  0.557020  0.003060  0.526530  1.0  0.3746
  Ag  Ag21  1  0.253060  0.692980  0.276530  1.0  0.3755
  Ag  Ag22  1  0.753060  0.192980  0.776530  1.0  0.3755
  Ag  Ag23  1  0.246940  0.307020  0.776530  1.0  0.3756
  Ag  Ag24  1  0.746940  0.807020  0.276530  1.0  0.3756
  Ag  Ag25  1  0.057020  0.496940  0.473470  1.0  0.3749
  Ag  Ag26  1  0.557020  0.996940  0.973470  1.0  0.3749
  Ag  Ag27  1  0.442980  0.503060  0.973470  1.0  0.3763
  Ag  Ag28  1  0.942980  0.003060  0.473470  1.0  0.3763
  Ag  Ag29  1  0.246940  0.692980  0.723470  1.0  0.3763
  Ag  Ag30  1  0.746940  0.192980  0.223470  1.0  0.3763
  Ag  Ag31  1  0.253060  0.307020  0.223470  1.0  0.3753
  Ag  Ag32  1  0.753060  0.807020  0.723470  1.0  0.3753
  H  H33  1  0.422900  0.409800  0.333700  1.0  0.1159
  H  H34  1  0.409800  0.461700  0.300200  1.0  0.1156
  H  H35  1  0.363600  0.441000  0.336700  1.0  0.1033
  H  H36  1  0.470700  0.613400  0.466000  1.0  0.1134
  H  H37  1  0.431900  0.640500  0.426600  1.0  0.124
  H  H38  1  0.497800  0.633700  0.418000  1.0  0.1166
  H  H39  1  0.297500  0.594500  0.391100  1.0  0.0965
  H  H40  1  0.291200  0.540500  0.358600  1.0  0.1037
  H  H41  1  0.258400  0.596900  0.345900  1.0  0.1072
  H  H42  1  0.506400  0.580900  0.285500  1.0  0.1055
  H  H43  1  0.510800  0.638200  0.314100  1.0  0.1211
  H  H44  1  0.496000  0.639500  0.259900  1.0  0.1072
  H  H45  1  0.710100  0.287400  0.459700  1.0  0.11
  H  H46  1  0.748600  0.324200  0.425900  1.0  0.1017
  H  H47  1  0.685200  0.310800  0.411800  1.0  0.1055
  H  H48  1  0.690700  0.536900  0.513200  1.0  0.0948
  H  H49  1  0.719500  0.500000  0.553100  1.0  0.0989
  H  H50  1  0.653000  0.508900  0.552900  1.0  0.1027
  H  H51  1  0.462900  0.432200  0.411400  1.0  0.2852
  H  H52  1  0.396800  0.667200  0.253000  1.0  0.2823
  H  H53  1  0.612100  0.375500  0.440900  1.0  0.3063
  H  H54  1  0.922900  0.909800  0.833700  1.0  0.1159
  H  H55  1  0.909800  0.961700  0.800200  1.0  0.1156
  H  H56  1  0.863600  0.941000  0.836700  1.0  0.1033
  H  H57  1  0.970700  0.113400  0.966000  1.0  0.1134
  H  H58  1  0.931900  0.140500  0.926600  1.0  0.124
  H  H59  1  0.997800  0.133700  0.918000  1.0  0.1166
  H  H60  1  0.797500  0.094500  0.891100  1.0  0.0965
  H  H61  1  0.791200  0.040500  0.858600  1.0  0.1037
  H  H62  1  0.758400  0.096900  0.845900  1.0  0.1072
  H  H63  1  0.006400  0.080900  0.785500  1.0  0.1055
  H  H64  1  0.010800  0.138200  0.814100  1.0  0.1211
  H  H65  1  0.996000  0.139500  0.759900  1.0  0.1072
  H  H66  1  0.210100  0.787400  0.959700  1.0  0.11
  H  H67  1  0.248600  0.824200  0.925900  1.0  0.1017
  H  H68  1  0.185200  0.810800  0.911800  1.0  0.1055
  H  H69  1  0.190700  0.036900  0.013200  1.0  0.0943
  H  H70  1  0.219500  0.000000  0.053100  1.0  0.0989
  H  H71  1  0.153000  0.008900  0.052900  1.0  0.1027
  H  H72  1  0.962900  0.932200  0.911400  1.0  0.2852
  H  H73  1  0.896800  0.167200  0.753000  1.0  0.2823
  H  H74  1  0.112100  0.875500  0.940900  1.0  0.3063
  H  H75  1  0.077100  0.590200  0.833700  1.0  0.1178
  H  H76  1  0.090200  0.538300  0.800200  1.0  0.1153
  H  H77  1  0.136400  0.559000  0.836700  1.0  0.1039
  H  H78  1  0.029300  0.386600  0.966000  1.0  0.1134
  H  H79  1  0.068100  0.359500  0.926600  1.0  0.1219
  H  H80  1  0.002200  0.366300  0.918000  1.0  0.1173
  H  H81  1  0.202500  0.405500  0.891100  1.0  0.0969
  H  H82  1  0.208800  0.459500  0.858600  1.0  0.1043
  H  H83  1  0.241600  0.403100  0.845900  1.0  0.1079
  H  H84  1  0.993600  0.419100  0.785500  1.0  0.1045
  H  H85  1  0.989200  0.361800  0.814100  1.0  0.1221
  H  H86  1  0.004000  0.360500  0.759900  1.0  0.1071
  H  H87  1  0.789900  0.712600  0.959700  1.0  0.1095
  H  H88  1  0.751400  0.675800  0.925900  1.0  0.1001
  H  H89  1  0.814800  0.689200  0.911800  1.0  0.1053
  H  H90  1  0.809300  0.463100  0.013200  1.0  0.0963
  H  H91  1  0.780500  0.500000  0.053100  1.0  0.0993
  H  H92  1  0.847000  0.491100  0.052900  1.0  0.1052
  H  H93  1  0.037100  0.567800  0.911400  1.0  0.2822
  H  H94  1  0.103200  0.332800  0.753000  1.0  0.2839
  H  H95  1  0.887900  0.624500  0.940900  1.0  0.3072
  H  H96  1  0.577100  0.090200  0.333700  1.0  0.1178
  H  H97  1  0.590200  0.038300  0.300200  1.0  0.1152
  H  H98  1  0.636400  0.059000  0.336700  1.0  0.1039
  H  H99  1  0.529300  0.886600  0.466000  1.0  0.1134
  H  H100  1  0.568100  0.859500  0.426600  1.0  0.1219
  H  H101  1  0.502200  0.866300  0.418000  1.0  0.1173
  H  H102  1  0.702500  0.905500  0.391100  1.0  0.0969
  H  H103  1  0.708800  0.959500  0.358600  1.0  0.1043
  H  H104  1  0.741600  0.903100  0.345900  1.0  0.1079
  H  H105  1  0.493600  0.919100  0.285500  1.0  0.1045
  H  H106  1  0.489200  0.861800  0.314100  1.0  0.1221
  H  H107  1  0.504000  0.860500  0.259900  1.0  0.1071
  H  H108  1  0.289900  0.212600  0.459700  1.0  0.1095
  H  H109  1  0.251400  0.175800  0.425900  1.0  0.1001
  H  H110  1  0.314800  0.189200  0.411800  1.0  0.1053
  H  H111  1  0.309300  0.963100  0.513200  1.0  0.0963
  H  H112  1  0.280500  0.000000  0.553100  1.0  0.0993
  H  H113  1  0.347000  0.991100  0.552900  1.0  0.1053
  H  H114  1  0.537100  0.067800  0.411400  1.0  0.2822
  H  H115  1  0.603200  0.832800  0.253000  1.0  0.2839
  H  H116  1  0.387900  0.124500  0.440900  1.0  0.3072
  H  H117  1  0.840200  0.172900  0.583700  1.0  0.1149
  H  H118  1  0.788300  0.159800  0.550200  1.0  0.1159
  H  H119  1  0.809000  0.113600  0.586700  1.0  0.1047
  H  H120  1  0.636600  0.220700  0.716000  1.0  0.1141
  H  H121  1  0.609500  0.181900  0.676600  1.0  0.1245
  H  H122  1  0.616300  0.247800  0.668000  1.0  0.117
  H  H123  1  0.655500  0.047500  0.641100  1.0  0.0965
  H  H124  1  0.709500  0.041200  0.608600  1.0  0.1042
  H  H125  1  0.653100  0.008400  0.595900  1.0  0.1089
  H  H126  1  0.669100  0.256400  0.535500  1.0  0.1056
  H  H127  1  0.611800  0.260800  0.564100  1.0  0.1224
  H  H128  1  0.610500  0.246000  0.509900  1.0  0.1079
  H  H129  1  0.962600  0.460100  0.709700  1.0  0.1093
  H  H130  1  0.925800  0.498600  0.675900  1.0  0.1014
  H  H131  1  0.939200  0.435200  0.661800  1.0  0.1051
  H  H132  1  0.713100  0.440700  0.763200  1.0  0.0942
  H  H133  1  0.750000  0.469500  0.803100  1.0  0.0991
  H  H134  1  0.741100  0.403000  0.802900  1.0  0.1035
  H  H135  1  0.817800  0.212900  0.661400  1.0  0.281
  H  H136  1  0.582800  0.146800  0.503000  1.0  0.2809
  H  H137  1  0.874500  0.362100  0.690900  1.0  0.3088
  H  H138  1  0.340200  0.672900  0.083700  1.0  0.1149
  H  H139  1  0.288300  0.659800  0.050200  1.0  0.1159
  H  H140  1  0.309000  0.613600  0.086700  1.0  0.1047
  H  H141  1  0.136600  0.720700  0.216000  1.0  0.1141
  H  H142  1  0.109500  0.681900  0.176600  1.0  0.1245
  H  H143  1  0.116300  0.747800  0.168000  1.0  0.117
  H  H144  1  0.155500  0.547500  0.141100  1.0  0.0965
  H  H145  1  0.209500  0.541200  0.108600  1.0  0.1042
  H  H146  1  0.153100  0.508400  0.095900  1.0  0.1089
  H  H147  1  0.169100  0.756400  0.035500  1.0  0.1056
  H  H148  1  0.111800  0.760800  0.064100  1.0  0.1224
  H  H149  1  0.110500  0.746000  0.009900  1.0  0.1079
  H  H150  1  0.462600  0.960100  0.209700  1.0  0.1093
  H  H151  1  0.425800  0.998600  0.175900  1.0  0.1014
  H  H152  1  0.439200  0.935200  0.161800  1.0  0.1051
  H  H153  1  0.213100  0.940700  0.263200  1.0  0.0942
  H  H154  1  0.250000  0.969500  0.303100  1.0  0.0991
  H  H155  1  0.241100  0.903000  0.302900  1.0  0.1035
  H  H156  1  0.317800  0.712900  0.161400  1.0  0.281
  H  H157  1  0.082800  0.646800  0.003000  1.0  0.2809
  H  H158  1  0.374500  0.862100  0.190900  1.0  0.3088
  H  H159  1  0.659800  0.827100  0.083700  1.0  0.115
  H  H160  1  0.711700  0.840200  0.050200  1.0  0.1164
  H  H161  1  0.691000  0.886400  0.086700  1.0  0.1041
  H  H162  1  0.863400  0.779300  0.216000  1.0  0.1139
  H  H163  1  0.890500  0.818100  0.176600  1.0  0.1238
  H  H164  1  0.883700  0.752200  0.168000  1.0  0.1169
  H  H165  1  0.844500  0.952500  0.141100  1.0  0.097
  H  H166  1  0.790500  0.958800  0.108600  1.0  0.1038
  H  H167  1  0.846900  0.991600  0.095900  1.0  0.1077
  H  H168  1  0.830900  0.743600  0.035500  1.0  0.1062
  H  H169  1  0.888200  0.739200  0.064100  1.0  0.1214
  H  H170  1  0.889500  0.754000  0.009900  1.0  0.1089
  H  H171  1  0.537400  0.539900  0.209700  1.0  0.1082
  H  H172  1  0.574200  0.501400  0.175900  1.0  0.1002
  H  H173  1  0.560800  0.564800  0.161800  1.0  0.1068
  H  H174  1  0.786900  0.559300  0.263200  1.0  0.0953
  H  H175  1  0.750000  0.530500  0.303100  1.0  0.1007
  H  H176  1  0.758900  0.597000  0.302900  1.0  0.1028
  H  H177  1  0.682200  0.787100  0.161400  1.0  0.2805
  H  H178  1  0.917200  0.853200  0.003000  1.0  0.2824
  H  H179  1  0.625500  0.637900  0.190900  1.0  0.3084
  H  H180  1  0.159800  0.327100  0.583700  1.0  0.115
  H  H181  1  0.211700  0.340200  0.550200  1.0  0.1164
  H  H182  1  0.191000  0.386400  0.586700  1.0  0.1041
  H  H183  1  0.363400  0.279300  0.716000  1.0  0.1139
  H  H184  1  0.390500  0.318100  0.676600  1.0  0.1238
  H  H185  1  0.383700  0.252200  0.668000  1.0  0.1169
  H  H186  1  0.344500  0.452500  0.641100  1.0  0.097
  H  H187  1  0.290500  0.458800  0.608600  1.0  0.1038
  H  H188  1  0.346900  0.491600  0.595900  1.0  0.1077
  H  H189  1  0.330900  0.243600  0.535500  1.0  0.1062
  H  H190  1  0.388200  0.239200  0.564100  1.0  0.1214
  H  H191  1  0.389500  0.254000  0.509900  1.0  0.1089
  H  H192  1  0.037400  0.039900  0.709700  1.0  0.1082
  H  H193  1  0.074200  0.001400  0.675900  1.0  0.1002
  H  H194  1  0.060800  0.064800  0.661800  1.0  0.1068
  H  H195  1  0.286900  0.059300  0.763200  1.0  0.0953
  H  H196  1  0.250000  0.030500  0.803100  1.0  0.1007
  H  H197  1  0.258900  0.097000  0.802900  1.0  0.1028
  H  H198  1  0.182200  0.287100  0.661400  1.0  0.2805
  H  H199  1  0.417200  0.353200  0.503000  1.0  0.2824
  H  H200  1  0.125500  0.137900  0.690900  1.0  0.3084
  H  H201  1  0.077100  0.409800  0.666300  1.0  0.1163
  H  H202  1  0.090200  0.461700  0.699800  1.0  0.1155
  H  H203  1  0.136400  0.441000  0.663300  1.0  0.1044
  H  H204  1  0.029300  0.613400  0.534000  1.0  0.1138
  H  H205  1  0.068100  0.640500  0.573400  1.0  0.1213
  H  H206  1  0.002200  0.633700  0.582000  1.0  0.1166
  H  H207  1  0.202500  0.594500  0.608900  1.0  0.0965
  H  H208  1  0.208800  0.540500  0.641400  1.0  0.1021
  H  H209  1  0.241600  0.596900  0.654100  1.0  0.108
  H  H210  1  0.993600  0.580900  0.714500  1.0  0.1053
  H  H211  1  0.989200  0.638200  0.685900  1.0  0.1233
  H  H212  1  0.004000  0.639500  0.740100  1.0  0.1072
  H  H213  1  0.789900  0.287400  0.540300  1.0  0.1092
  H  H214  1  0.751400  0.324200  0.574100  1.0  0.0997
  H  H215  1  0.814800  0.310800  0.588200  1.0  0.1059
  H  H216  1  0.809300  0.536900  0.486800  1.0  0.0941
  H  H217  1  0.780500  0.500000  0.446900  1.0  0.0994
  H  H218  1  0.847000  0.508900  0.447100  1.0  0.1049
  H  H219  1  0.037100  0.432200  0.588600  1.0  0.2846
  H  H220  1  0.103200  0.667200  0.747000  1.0  0.282
  H  H221  1  0.887900  0.375500  0.559100  1.0  0.3049
  H  H222  1  0.577100  0.909800  0.166300  1.0  0.1163
  H  H223  1  0.590200  0.961700  0.199800  1.0  0.1155
  H  H224  1  0.636400  0.941000  0.163300  1.0  0.1044
  H  H225  1  0.529300  0.113400  0.034000  1.0  0.1138
  H  H226  1  0.568100  0.140500  0.073400  1.0  0.1213
  H  H227  1  0.502200  0.133700  0.082000  1.0  0.1166
  H  H228  1  0.702500  0.094500  0.108900  1.0  0.0965
  H  H229  1  0.708800  0.040500  0.141400  1.0  0.1021
  H  H230  1  0.741600  0.096900  0.154100  1.0  0.108
  H  H231  1  0.493600  0.080900  0.214500  1.0  0.1053
  H  H232  1  0.489200  0.138200  0.185900  1.0  0.1233
  H  H233  1  0.504000  0.139500  0.240100  1.0  0.1072
  H  H234  1  0.289900  0.787400  0.040300  1.0  0.1092
  H  H235  1  0.251400  0.824200  0.074100  1.0  0.0997
  H  H236  1  0.314800  0.810800  0.088200  1.0  0.1059
  H  H237  1  0.309300  0.036900  0.986800  1.0  0.0941
  H  H238  1  0.280500  0.000000  0.946900  1.0  0.0994
  H  H239  1  0.347000  0.008900  0.947100  1.0  0.1049
  H  H240  1  0.537100  0.932200  0.088600  1.0  0.2846
  H  H241  1  0.603200  0.167200  0.247000  1.0  0.282
  H  H242  1  0.387900  0.875500  0.059100  1.0  0.3049
  H  H243  1  0.422900  0.590200  0.166300  1.0  0.1178
  H  H244  1  0.409800  0.538300  0.199800  1.0  0.1159
  H  H245  1  0.363600  0.559000  0.163300  1.0  0.1052
  H  H246  1  0.470700  0.386600  0.034000  1.0  0.1139
  H  H247  1  0.431900  0.359500  0.073400  1.0  0.1203
  H  H248  1  0.497800  0.366300  0.082000  1.0  0.117
  H  H249  1  0.297500  0.405500  0.108900  1.0  0.0966
  H  H250  1  0.291200  0.459500  0.141400  1.0  0.1044
  H  H251  1  0.258400  0.403100  0.154100  1.0  0.1084
  H  H252  1  0.506400  0.419100  0.214500  1.0  0.105
  H  H253  1  0.510800  0.361800  0.185900  1.0  0.1219
  H  H254  1  0.496000  0.360500  0.240100  1.0  0.1064
  H  H255  1  0.710100  0.712600  0.040300  1.0  0.1099
  H  H256  1  0.748600  0.675800  0.074100  1.0  0.1022
  H  H257  1  0.685200  0.689200  0.088200  1.0  0.1061
  H  H258  1  0.690700  0.463100  0.986800  1.0  0.0968
  H  H259  1  0.719500  0.500000  0.946900  1.0  0.0996
  H  H260  1  0.653000  0.491100  0.947100  1.0  0.1028
  H  H261  1  0.462900  0.567800  0.088600  1.0  0.2827
  H  H262  1  0.396800  0.332800  0.247000  1.0  0.282
  H  H263  1  0.612100  0.624500  0.059100  1.0  0.3058
  H  H264  1  0.922900  0.090200  0.666300  1.0  0.1178
  H  H265  1  0.909800  0.038300  0.699800  1.0  0.1157
  H  H266  1  0.863600  0.059000  0.663300  1.0  0.1052
  H  H267  1  0.970700  0.886600  0.534000  1.0  0.1139
  H  H268  1  0.931900  0.859500  0.573400  1.0  0.1203
  H  H269  1  0.997800  0.866300  0.582000  1.0  0.117
  H  H270  1  0.797500  0.905500  0.608900  1.0  0.0966
  H  H271  1  0.791200  0.959500  0.641400  1.0  0.1044
  H  H272  1  0.758400  0.903100  0.654100  1.0  0.1084
  H  H273  1  0.006400  0.919100  0.714500  1.0  0.105
  H  H274  1  0.010800  0.861800  0.685900  1.0  0.1225
  H  H275  1  0.996000  0.860500  0.740100  1.0  0.1064
  H  H276  1  0.210100  0.212600  0.540300  1.0  0.1099
  H  H277  1  0.248600  0.175800  0.574100  1.0  0.1022
  H  H278  1  0.185200  0.189200  0.588200  1.0  0.1061
  H  H279  1  0.190700  0.963100  0.486800  1.0  0.0968
  H  H280  1  0.219500  0.000000  0.446900  1.0  0.0996
  H  H281  1  0.153000  0.991100  0.447100  1.0  0.1028
  H  H282  1  0.962900  0.067800  0.588600  1.0  0.2827
  H  H283  1  0.896800  0.832800  0.747000  1.0  0.282
  H  H284  1  0.112100  0.124500  0.559100  1.0  0.3059
  H  H285  1  0.659800  0.172900  0.416300  1.0  0.1155
  H  H286  1  0.711700  0.159800  0.449800  1.0  0.1159
  H  H287  1  0.691000  0.113600  0.413300  1.0  0.1045
  H  H288  1  0.863400  0.220700  0.284000  1.0  0.1144
  H  H289  1  0.890500  0.181900  0.323400  1.0  0.1223
  H  H290  1  0.883700  0.247800  0.332000  1.0  0.1162
  H  H291  1  0.844500  0.047500  0.358900  1.0  0.0966
  H  H292  1  0.790500  0.041200  0.391400  1.0  0.1035
  H  H293  1  0.846900  0.008400  0.404100  1.0  0.1093
  H  H294  1  0.830900  0.256400  0.464500  1.0  0.1062
  H  H295  1  0.888200  0.260800  0.435900  1.0  0.1227
  H  H296  1  0.889500  0.246000  0.490100  1.0  0.1079
  H  H297  1  0.537400  0.460100  0.290300  1.0  0.1086
  H  H298  1  0.574200  0.498600  0.324100  1.0  0.1006
  H  H299  1  0.560800  0.435200  0.338200  1.0  0.1081
  H  H300  1  0.786900  0.440700  0.236800  1.0  0.0951
  H  H301  1  0.750000  0.469500  0.196900  1.0  0.1001
  H  H302  1  0.758900  0.403000  0.197100  1.0  0.1031
  H  H303  1  0.682200  0.212900  0.338600  1.0  0.2815
  H  H304  1  0.917200  0.146800  0.497000  1.0  0.2807
  H  H305  1  0.625500  0.362100  0.309100  1.0  0.3062
  H  H306  1  0.159800  0.672900  0.916300  1.0  0.1155
  H  H307  1  0.211700  0.659800  0.949800  1.0  0.1159
  H  H308  1  0.191000  0.613600  0.913300  1.0  0.1045
  H  H309  1  0.363400  0.720700  0.784000  1.0  0.1144
  H  H310  1  0.390500  0.681900  0.823400  1.0  0.1223
  H  H311  1  0.383700  0.747800  0.832000  1.0  0.1162
  H  H312  1  0.344500  0.547500  0.858900  1.0  0.0966
  H  H313  1  0.290500  0.541200  0.891400  1.0  0.1035
  H  H314  1  0.346900  0.508400  0.904100  1.0  0.1093
  H  H315  1  0.330900  0.756400  0.964500  1.0  0.1062
  H  H316  1  0.388200  0.760800  0.935900  1.0  0.1227
  H  H317  1  0.389500  0.746000  0.990100  1.0  0.1079
  H  H318  1  0.037400  0.960100  0.790300  1.0  0.1086
  H  H319  1  0.074200  0.998600  0.824100  1.0  0.1006
  H  H320  1  0.060800  0.935200  0.838200  1.0  0.1081
  H  H321  1  0.286900  0.940700  0.736800  1.0  0.0951
  H  H322  1  0.250000  0.969500  0.696900  1.0  0.1001
  H  H323  1  0.258900  0.903000  0.697100  1.0  0.1031
  H  H324  1  0.182200  0.712900  0.838600  1.0  0.2815
  H  H325  1  0.417200  0.646800  0.997000  1.0  0.2807
  H  H326  1  0.125500  0.862100  0.809100  1.0  0.3062
  H  H327  1  0.840200  0.827100  0.916300  1.0  0.1168
  H  H328  1  0.788300  0.840200  0.949800  1.0  0.1155
  H  H329  1  0.809000  0.886400  0.913300  1.0  0.1047
  H  H330  1  0.636600  0.779300  0.784000  1.0  0.1147
  H  H331  1  0.609500  0.818100  0.823400  1.0  0.1238
  H  H332  1  0.616300  0.752200  0.832000  1.0  0.117
  H  H333  1  0.655500  0.952500  0.858900  1.0  0.0965
  H  H334  1  0.709500  0.958800  0.891400  1.0  0.1035
  H  H335  1  0.653100  0.991600  0.904100  1.0  0.1089
  H  H336  1  0.669100  0.743600  0.964500  1.0  0.1058
  H  H337  1  0.611800  0.739200  0.935900  1.0  0.1244
  H  H338  1  0.610500  0.754000  0.990100  1.0  0.1086
  H  H339  1  0.962600  0.539900  0.790300  1.0  0.1088
  H  H340  1  0.925800  0.501400  0.824100  1.0  0.1012
  H  H341  1  0.939200  0.564800  0.838200  1.0  0.1055
  H  H342  1  0.713100  0.559300  0.736800  1.0  0.0942
  H  H343  1  0.750000  0.530500  0.696900  1.0  0.0994
  H  H344  1  0.741100  0.597000  0.697100  1.0  0.1034
  H  H345  1  0.817800  0.787100  0.838600  1.0  0.2812
  H  H346  1  0.582800  0.853200  0.997000  1.0  0.2808
  H  H347  1  0.874500  0.637900  0.809100  1.0  0.3074
  H  H348  1  0.340200  0.327100  0.416300  1.0  0.1168
  H  H349  1  0.288300  0.340200  0.449800  1.0  0.1155
  H  H350  1  0.309000  0.386400  0.413300  1.0  0.1047
  H  H351  1  0.136600  0.279300  0.284000  1.0  0.1147
  H  H352  1  0.109500  0.318100  0.323400  1.0  0.1238
  H  H353  1  0.116300  0.252200  0.332000  1.0  0.117
  H  H354  1  0.155500  0.452500  0.358900  1.0  0.0965
  H  H355  1  0.209500  0.458800  0.391400  1.0  0.1035
  H  H356  1  0.153100  0.491600  0.404100  1.0  0.1089
  H  H357  1  0.169100  0.243600  0.464500  1.0  0.1058
  H  H358  1  0.111800  0.239200  0.435900  1.0  0.1244
  H  H359  1  0.110500  0.254000  0.490100  1.0  0.1086
  H  H360  1  0.462600  0.039900  0.290300  1.0  0.1088
  H  H361  1  0.425800  0.001400  0.324100  1.0  0.1012
  H  H362  1  0.439200  0.064800  0.338200  1.0  0.1055
  H  H363  1  0.213100  0.059300  0.236800  1.0  0.0942
  H  H364  1  0.250000  0.030500  0.196900  1.0  0.0994
  H  H365  1  0.241100  0.097000  0.197100  1.0  0.1034
  H  H366  1  0.317800  0.287100  0.338600  1.0  0.2812
  H  H367  1  0.082800  0.353200  0.497000  1.0  0.2808
  H  H368  1  0.374500  0.137900  0.309100  1.0  0.3074
  H  H369  1  0.577100  0.590200  0.666300  1.0  0.1185
  H  H370  1  0.590200  0.538300  0.699800  1.0  0.1152
  H  H371  1  0.636400  0.559000  0.663300  1.0  0.1046
  H  H372  1  0.529300  0.386600  0.534000  1.0  0.1137
  H  H373  1  0.568100  0.359500  0.573400  1.0  0.121
  H  H374  1  0.502200  0.366300  0.582000  1.0  0.1176
  H  H375  1  0.702500  0.405500  0.608900  1.0  0.0966
  H  H376  1  0.708800  0.459500  0.641400  1.0  0.104
  H  H377  1  0.741600  0.403100  0.654100  1.0  0.1085
  H  H378  1  0.493600  0.419100  0.714500  1.0  0.1047
  H  H379  1  0.489200  0.361800  0.685900  1.0  0.1237
  H  H380  1  0.504000  0.360500  0.740100  1.0  0.1069
  H  H381  1  0.289900  0.712600  0.540300  1.0  0.1099
  H  H382  1  0.251400  0.675800  0.574100  1.0  0.0998
  H  H383  1  0.314800  0.689200  0.588200  1.0  0.1054
  H  H384  1  0.309300  0.463100  0.486800  1.0  0.0967
  H  H385  1  0.280500  0.500000  0.446900  1.0  0.0995
  H  H386  1  0.347000  0.491100  0.447100  1.0  0.1052
  H  H387  1  0.537100  0.567800  0.588600  1.0  0.283
  H  H388  1  0.603200  0.332800  0.747000  1.0  0.2826
  H  H389  1  0.387900  0.624500  0.559100  1.0  0.3069
  H  H390  1  0.077100  0.090200  0.166300  1.0  0.1185
  H  H391  1  0.090200  0.038300  0.199800  1.0  0.1151
  H  H392  1  0.136400  0.059000  0.163300  1.0  0.1046
  H  H393  1  0.029300  0.886600  0.034000  1.0  0.1137
  H  H394  1  0.068100  0.859500  0.073400  1.0  0.121
  H  H395  1  0.002200  0.866300  0.082000  1.0  0.1176
  H  H396  1  0.202500  0.905500  0.108900  1.0  0.0966
  H  H397  1  0.208800  0.959500  0.141400  1.0  0.104
  H  H398  1  0.241600  0.903100  0.154100  1.0  0.1085
  H  H399  1  0.993600  0.919100  0.214500  1.0  0.1047
  H  H400  1  0.989200  0.861800  0.185900  1.0  0.1237
  H  H401  1  0.004000  0.860500  0.240100  1.0  0.1069
  H  H402  1  0.789900  0.212600  0.040300  1.0  0.1099
  H  H403  1  0.751400  0.175800  0.074100  1.0  0.0998
  H  H404  1  0.814800  0.189200  0.088200  1.0  0.1054
  H  H405  1  0.809300  0.963100  0.986800  1.0  0.0967
  H  H406  1  0.780500  0.000000  0.946900  1.0  0.0995
  H  H407  1  0.847000  0.991100  0.947100  1.0  0.1052
  H  H408  1  0.037100  0.067800  0.088600  1.0  0.283
  H  H409  1  0.103200  0.832800  0.247000  1.0  0.2826
  H  H410  1  0.887900  0.124500  0.059100  1.0  0.3062
  H  H411  1  0.922900  0.409800  0.166300  1.0  0.1163
  H  H412  1  0.909800  0.461700  0.199800  1.0  0.1162
  H  H413  1  0.863600  0.441000  0.163300  1.0  0.1042
  H  H414  1  0.970700  0.613400  0.034000  1.0  0.1137
  H  H415  1  0.931900  0.640500  0.073400  1.0  0.1215
  H  H416  1  0.997800  0.633700  0.082000  1.0  0.1167
  H  H417  1  0.797500  0.594500  0.108900  1.0  0.0963
  H  H418  1  0.791200  0.540500  0.141400  1.0  0.1035
  H  H419  1  0.758400  0.596900  0.154100  1.0  0.1075
  H  H420  1  0.006400  0.580900  0.214500  1.0  0.1055
  H  H421  1  0.010800  0.638200  0.185900  1.0  0.1222
  H  H422  1  0.996000  0.639500  0.240100  1.0  0.1069
  H  H423  1  0.210100  0.287400  0.040300  1.0  0.1095
  H  H424  1  0.248600  0.324200  0.074100  1.0  0.102
  H  H425  1  0.185200  0.310800  0.088200  1.0  0.1077
  H  H426  1  0.190700  0.536900  0.986800  1.0  0.0941
  H  H427  1  0.219500  0.500000  0.946900  1.0  0.0992
  H  H428  1  0.153000  0.508900  0.947100  1.0  0.1029
  H  H429  1  0.962900  0.432200  0.088600  1.0  0.2849
  H  H430  1  0.896800  0.667200  0.247000  1.0  0.2813
  H  H431  1  0.112100  0.375500  0.059100  1.0  0.3038
  H  H432  1  0.422900  0.909800  0.666300  1.0  0.1163
  H  H433  1  0.409800  0.961700  0.699800  1.0  0.1162
  H  H434  1  0.363600  0.941000  0.663300  1.0  0.1042
  H  H435  1  0.470700  0.113400  0.534000  1.0  0.1137
  H  H436  1  0.431900  0.140500  0.573400  1.0  0.1215
  H  H437  1  0.497800  0.133700  0.582000  1.0  0.1167
  H  H438  1  0.297500  0.094500  0.608900  1.0  0.0963
  H  H439  1  0.291200  0.040500  0.641400  1.0  0.1035
  H  H440  1  0.258400  0.096900  0.654100  1.0  0.1075
  H  H441  1  0.506400  0.080900  0.714500  1.0  0.1055
  H  H442  1  0.510800  0.138200  0.685900  1.0  0.122
  H  H443  1  0.496000  0.139500  0.740100  1.0  0.1069
  H  H444  1  0.710100  0.787400  0.540300  1.0  0.1095
  H  H445  1  0.748600  0.824200  0.574100  1.0  0.102
  H  H446  1  0.685200  0.810800  0.588200  1.0  0.1077
  H  H447  1  0.690700  0.036900  0.486800  1.0  0.0941
  H  H448  1  0.719500  0.000000  0.446900  1.0  0.0992
  H  H449  1  0.653000  0.008900  0.447100  1.0  0.1029
  H  H450  1  0.462900  0.932200  0.588600  1.0  0.2849
  H  H451  1  0.396800  0.167200  0.747000  1.0  0.2813
  H  H452  1  0.612100  0.875500  0.559100  1.0  0.3038
  H  H453  1  0.159800  0.827100  0.416300  1.0  0.1158
  H  H454  1  0.211700  0.840200  0.449800  1.0  0.1163
  H  H455  1  0.191000  0.886400  0.413300  1.0  0.1044
  H  H456  1  0.363400  0.779300  0.284000  1.0  0.1146
  H  H457  1  0.390500  0.818100  0.323400  1.0  0.1236
  H  H458  1  0.383700  0.752200  0.332000  1.0  0.1173
  H  H459  1  0.344500  0.952500  0.358900  1.0  0.0967
  H  H460  1  0.290500  0.958800  0.391400  1.0  0.1033
  H  H461  1  0.346900  0.991600  0.404100  1.0  0.1082
  H  H462  1  0.330900  0.743600  0.464500  1.0  0.1062
  H  H463  1  0.388200  0.739200  0.435900  1.0  0.1223
  H  H464  1  0.389500  0.754000  0.490100  1.0  0.1081
  H  H465  1  0.037400  0.539900  0.290300  1.0  0.1088
  H  H466  1  0.074200  0.501400  0.324100  1.0  0.1007
  H  H467  1  0.060800  0.564800  0.338200  1.0  0.1075
  H  H468  1  0.286900  0.559300  0.236800  1.0  0.0948
  H  H469  1  0.250000  0.530500  0.196900  1.0  0.0997
  H  H470  1  0.258900  0.597000  0.197100  1.0  0.1037
  H  H471  1  0.182200  0.787100  0.338600  1.0  0.2803
  H  H472  1  0.417200  0.853200  0.497000  1.0  0.281
  H  H473  1  0.125500  0.637900  0.309100  1.0  0.3057
  H  H474  1  0.659800  0.327100  0.916300  1.0  0.1158
  H  H475  1  0.711700  0.340200  0.949800  1.0  0.1163
  H  H476  1  0.691000  0.386400  0.913300  1.0  0.1044
  H  H477  1  0.863400  0.279300  0.784000  1.0  0.1146
  H  H478  1  0.890500  0.318100  0.823400  1.0  0.1236
  H  H479  1  0.883700  0.252200  0.832000  1.0  0.1173
  H  H480  1  0.844500  0.452500  0.858900  1.0  0.0967
  H  H481  1  0.790500  0.458800  0.891400  1.0  0.1033
  H  H482  1  0.846900  0.491600  0.904100  1.0  0.1082
  H  H483  1  0.830900  0.243600  0.964500  1.0  0.1062
  H  H484  1  0.888200  0.239200  0.935900  1.0  0.1223
  H  H485  1  0.889500  0.254000  0.990100  1.0  0.1081
  H  H486  1  0.537400  0.039900  0.790300  1.0  0.1088
  H  H487  1  0.574200  0.001400  0.824100  1.0  0.1007
  H  H488  1  0.560800  0.064800  0.838200  1.0  0.1075
  H  H489  1  0.786900  0.059300  0.736800  1.0  0.0948
  H  H490  1  0.750000  0.030500  0.696900  1.0  0.0997
  H  H491  1  0.758900  0.097000  0.697100  1.0  0.1037
  H  H492  1  0.682200  0.287100  0.838600  1.0  0.2803
  H  H493  1  0.917200  0.353200  0.997000  1.0  0.281
  H  H494  1  0.625500  0.137900  0.809100  1.0  0.3057
  H  H495  1  0.340200  0.172900  0.916300  1.0  0.1164
  H  H496  1  0.288300  0.159800  0.949800  1.0  0.1155
  H  H497  1  0.309000  0.113600  0.913300  1.0  0.1053
  H  H498  1  0.136600  0.220700  0.784000  1.0  0.1142
  H  H499  1  0.109500  0.181900  0.823400  1.0  0.1219
  H  H500  1  0.116300  0.247800  0.832000  1.0  0.1164
  H  H501  1  0.155500  0.047500  0.858900  1.0  0.0965
  H  H502  1  0.209500  0.041200  0.891400  1.0  0.1037
  H  H503  1  0.153100  0.008400  0.904100  1.0  0.11
  H  H504  1  0.169100  0.256400  0.964500  1.0  0.1057
  H  H505  1  0.111800  0.260800  0.935900  1.0  0.124
  H  H506  1  0.110500  0.246000  0.990100  1.0  0.1083
  H  H507  1  0.462600  0.460100  0.790300  1.0  0.109
  H  H508  1  0.425800  0.498600  0.824100  1.0  0.101
  H  H509  1  0.439200  0.435200  0.838200  1.0  0.1067
  H  H510  1  0.213100  0.440700  0.736800  1.0  0.0946
  H  H511  1  0.250000  0.469500  0.696900  1.0  0.0997
  H  H512  1  0.241100  0.403000  0.697100  1.0  0.1031
  H  H513  1  0.317800  0.212900  0.838600  1.0  0.2815
  H  H514  1  0.082800  0.146800  0.997000  1.0  0.2804
  H  H515  1  0.374500  0.362100  0.809100  1.0  0.3086
  H  H516  1  0.840200  0.672900  0.416300  1.0  0.1164
  H  H517  1  0.788300  0.659800  0.449800  1.0  0.1155
  H  H518  1  0.809000  0.613600  0.413300  1.0  0.1053
  H  H519  1  0.636600  0.720700  0.284000  1.0  0.1142
  H  H520  1  0.609500  0.681900  0.323400  1.0  0.1219
  H  H521  1  0.616300  0.747800  0.332000  1.0  0.1164
  H  H522  1  0.655500  0.547500  0.358900  1.0  0.0965
  H  H523  1  0.709500  0.541200  0.391400  1.0  0.1038
  H  H524  1  0.653100  0.508400  0.404100  1.0  0.11
  H  H525  1  0.669100  0.756400  0.464500  1.0  0.1057
  H  H526  1  0.611800  0.760800  0.435900  1.0  0.124
  H  H527  1  0.610500  0.746000  0.490100  1.0  0.1083
  H  H528  1  0.962600  0.960100  0.290300  1.0  0.109
  H  H529  1  0.925800  0.998600  0.324100  1.0  0.101
  H  H530  1  0.939200  0.935200  0.338200  1.0  0.1067
  H  H531  1  0.713100  0.940700  0.236800  1.0  0.0946
  H  H532  1  0.750000  0.969500  0.196900  1.0  0.0997
  H  H533  1  0.741100  0.903000  0.197100  1.0  0.1031
  H  H534  1  0.817800  0.712900  0.338600  1.0  0.2815
  H  H535  1  0.582800  0.646800  0.497000  1.0  0.2804
  H  H536  1  0.874500  0.862100  0.309100  1.0  0.3086
  H  H537  1  0.922900  0.590200  0.333700  1.0  0.1165
  H  H538  1  0.909800  0.538300  0.300200  1.0  0.1161
  H  H539  1  0.863600  0.559000  0.336700  1.0  0.1041
  H  H540  1  0.970700  0.386600  0.466000  1.0  0.1132
  H  H541  1  0.931900  0.359500  0.426600  1.0  0.1233
  H  H542  1  0.997800  0.366300  0.418000  1.0  0.1165
  H  H543  1  0.797500  0.405500  0.391100  1.0  0.0971
  H  H544  1  0.791200  0.459500  0.358600  1.0  0.1045
  H  H545  1  0.758400  0.403100  0.345900  1.0  0.1077
  H  H546  1  0.006400  0.419100  0.285500  1.0  0.1048
  H  H547  1  0.010800  0.361800  0.314100  1.0  0.1219
  H  H548  1  0.996000  0.360500  0.259900  1.0  0.1066
  H  H549  1  0.210100  0.712600  0.459700  1.0  0.1091
  H  H550  1  0.248600  0.675800  0.425900  1.0  0.1018
  H  H551  1  0.185200  0.689200  0.411800  1.0  0.1054
  H  H552  1  0.190700  0.463100  0.513200  1.0  0.0964
  H  H553  1  0.219500  0.500000  0.553100  1.0  0.0993
  H  H554  1  0.153000  0.491100  0.552900  1.0  0.1029
  H  H555  1  0.962900  0.567800  0.411400  1.0  0.282
  H  H556  1  0.896800  0.332800  0.253000  1.0  0.2837
  H  H557  1  0.112100  0.624500  0.440900  1.0  0.3065
  H  H558  1  0.422900  0.090200  0.833700  1.0  0.1165
  H  H559  1  0.409800  0.038300  0.800200  1.0  0.1163
  H  H560  1  0.363600  0.059000  0.836700  1.0  0.1041
  H  H561  1  0.470700  0.886600  0.966000  1.0  0.1132
  H  H562  1  0.431900  0.859500  0.926600  1.0  0.1233
  H  H563  1  0.497800  0.866300  0.918000  1.0  0.1165
  H  H564  1  0.297500  0.905500  0.891100  1.0  0.0971
  H  H565  1  0.291200  0.959500  0.858600  1.0  0.1045
  H  H566  1  0.258400  0.903100  0.845900  1.0  0.1077
  H  H567  1  0.506400  0.919100  0.785500  1.0  0.1048
  H  H568  1  0.510800  0.861800  0.814100  1.0  0.1209
  H  H569  1  0.496000  0.860500  0.759900  1.0  0.1066
  H  H570  1  0.710100  0.212600  0.959700  1.0  0.1091
  H  H571  1  0.748600  0.175800  0.925900  1.0  0.1018
  H  H572  1  0.685200  0.189200  0.911800  1.0  0.1054
  H  H573  1  0.690700  0.963100  0.013200  1.0  0.0964
  H  H574  1  0.719500  0.000000  0.053100  1.0  0.0993
  H  H575  1  0.653000  0.991100  0.052900  1.0  0.1029
  H  H576  1  0.462900  0.067800  0.911400  1.0  0.282
  H  H577  1  0.396800  0.832800  0.753000  1.0  0.2837
  H  H578  1  0.612100  0.124500  0.940900  1.0  0.3065
  H  H579  1  0.577100  0.409800  0.833700  1.0  0.1156
  H  H580  1  0.590200  0.461700  0.800200  1.0  0.1146
  H  H581  1  0.636400  0.441000  0.836700  1.0  0.1043
  H  H582  1  0.529300  0.613400  0.966000  1.0  0.1138
  H  H583  1  0.568100  0.640500  0.926600  1.0  0.122
  H  H584  1  0.502200  0.633700  0.918000  1.0  0.117
  H  H585  1  0.702500  0.594500  0.891100  1.0  0.0964
  H  H586  1  0.708800  0.540500  0.858600  1.0  0.1033
  H  H587  1  0.741600  0.596900  0.845900  1.0  0.1076
  H  H588  1  0.493600  0.580900  0.785500  1.0  0.1053
  H  H589  1  0.489200  0.638200  0.814100  1.0  0.1219
  H  H590  1  0.504000  0.639500  0.759900  1.0  0.1076
  H  H591  1  0.289900  0.287400  0.959700  1.0  0.1099
  H  H592  1  0.251400  0.324200  0.925900  1.0  0.0998
  H  H593  1  0.314800  0.310800  0.911800  1.0  0.1061
  H  H594  1  0.309300  0.536900  0.013200  1.0  0.0962
  H  H595  1  0.280500  0.500000  0.053100  1.0  0.1001
  H  H596  1  0.347000  0.508900  0.052900  1.0  0.1038
  H  H597  1  0.537100  0.432200  0.911400  1.0  0.285
  H  H598  1  0.603200  0.667200  0.753000  1.0  0.2829
  H  H599  1  0.387900  0.375500  0.940900  1.0  0.3073
  H  H600  1  0.077100  0.909800  0.333700  1.0  0.1156
  H  H601  1  0.090200  0.961700  0.300200  1.0  0.1146
  H  H602  1  0.136400  0.941000  0.336700  1.0  0.1043
  H  H603  1  0.029300  0.113400  0.466000  1.0  0.1138
  H  H604  1  0.068100  0.140500  0.426600  1.0  0.122
  H  H605  1  0.002200  0.133700  0.418000  1.0  0.117
  H  H606  1  0.202500  0.094500  0.391100  1.0  0.0964
  H  H607  1  0.208800  0.040500  0.358600  1.0  0.1033
  H  H608  1  0.241600  0.096900  0.345900  1.0  0.1076
  H  H609  1  0.993600  0.080900  0.285500  1.0  0.1053
  H  H610  1  0.989200  0.138200  0.314100  1.0  0.1219
  H  H611  1  0.004000  0.139500  0.259900  1.0  0.1076
  H  H612  1  0.789900  0.787400  0.459700  1.0  0.1099
  H  H613  1  0.751400  0.824200  0.425900  1.0  0.0998
  H  H614  1  0.814800  0.810800  0.411800  1.0  0.1061
  H  H615  1  0.809300  0.036900  0.513200  1.0  0.0962
  H  H616  1  0.780500  0.000000  0.553100  1.0  0.1001
  H  H617  1  0.847000  0.008900  0.552900  1.0  0.1038
  H  H618  1  0.037100  0.932200  0.411400  1.0  0.285
  H  H619  1  0.103200  0.167200  0.253000  1.0  0.2829
  H  H620  1  0.887900  0.875500  0.440900  1.0  0.3073
  H  H621  1  0.340200  0.827100  0.583700  1.0  0.1158
  H  H622  1  0.288300  0.840200  0.550200  1.0  0.1155
  H  H623  1  0.309000  0.886400  0.586700  1.0  0.1041
  H  H624  1  0.136600  0.779300  0.716000  1.0  0.1145
  H  H625  1  0.109500  0.818100  0.676600  1.0  0.1253
  H  H626  1  0.116300  0.752200  0.668000  1.0  0.1167
  H  H627  1  0.155500  0.952500  0.641100  1.0  0.0964
  H  H628  1  0.209500  0.958800  0.608600  1.0  0.1038
  H  H629  1  0.153100  0.991600  0.595900  1.0  0.1082
  H  H630  1  0.169100  0.743600  0.535500  1.0  0.1056
  H  H631  1  0.111800  0.739200  0.564100  1.0  0.1229
  H  H632  1  0.110500  0.754000  0.509900  1.0  0.108
  H  H633  1  0.462600  0.539900  0.709700  1.0  0.1086
  H  H634  1  0.425800  0.501400  0.675900  1.0  0.1009
  H  H635  1  0.439200  0.564800  0.661800  1.0  0.1055
  H  H636  1  0.213100  0.559300  0.763200  1.0  0.0944
  H  H637  1  0.250000  0.530500  0.803100  1.0  0.0994
  H  H638  1  0.241100  0.597000  0.802900  1.0  0.1025
  H  H639  1  0.317800  0.787100  0.661400  1.0  0.2815
  H  H640  1  0.082800  0.853200  0.503000  1.0  0.2812
  H  H641  1  0.374500  0.637900  0.690900  1.0  0.3079
  H  H642  1  0.840200  0.327100  0.083700  1.0  0.1158
  H  H643  1  0.788300  0.340200  0.050200  1.0  0.1155
  H  H644  1  0.809000  0.386400  0.086700  1.0  0.1041
  H  H645  1  0.636600  0.279300  0.216000  1.0  0.1145
  H  H646  1  0.609500  0.318100  0.176600  1.0  0.1253
  H  H647  1  0.616300  0.252200  0.168000  1.0  0.1167
  H  H648  1  0.655500  0.452500  0.141100  1.0  0.0964
  H  H649  1  0.709500  0.458800  0.108600  1.0  0.1038
  H  H650  1  0.653100  0.491600  0.095900  1.0  0.1082
  H  H651  1  0.669100  0.243600  0.035500  1.0  0.1056
  H  H652  1  0.611800  0.239200  0.064100  1.0  0.1229
  H  H653  1  0.610500  0.254000  0.009900  1.0  0.108
  H  H654  1  0.962600  0.039900  0.209700  1.0  0.1086
  H  H655  1  0.925800  0.001400  0.175900  1.0  0.1009
  H  H656  1  0.939200  0.064800  0.161800  1.0  0.1055
  H  H657  1  0.713100  0.059300  0.263200  1.0  0.0944
  H  H658  1  0.750000  0.030500  0.303100  1.0  0.0994
  H  H659  1  0.741100  0.097000  0.302900  1.0  0.1025
  H  H660  1  0.817800  0.287100  0.161400  1.0  0.2815
  H  H661  1  0.582800  0.353200  0.003000  1.0  0.2812
  H  H662  1  0.874500  0.137900  0.190900  1.0  0.3079
  H  H663  1  0.159800  0.172900  0.083700  1.0  0.1149
  H  H664  1  0.211700  0.159800  0.050200  1.0  0.1158
  H  H665  1  0.191000  0.113600  0.086700  1.0  0.1038
  H  H666  1  0.363400  0.220700  0.216000  1.0  0.1135
  H  H667  1  0.390500  0.181900  0.176600  1.0  0.1239
  H  H668  1  0.383700  0.247800  0.168000  1.0  0.1165
  H  H669  1  0.344500  0.047500  0.141100  1.0  0.0972
  H  H670  1  0.290500  0.041200  0.108600  1.0  0.1038
  H  H671  1  0.346900  0.008400  0.095900  1.0  0.1087
  H  H672  1  0.330900  0.256400  0.035500  1.0  0.1064
  H  H673  1  0.388200  0.260800  0.064100  1.0  0.1216
  H  H674  1  0.389500  0.246000  0.009900  1.0  0.1087
  H  H675  1  0.037400  0.460100  0.209700  1.0  0.1085
  H  H676  1  0.074200  0.498600  0.175900  1.0  0.1008
  H  H677  1  0.060800  0.435200  0.161800  1.0  0.1065
  H  H678  1  0.286900  0.440700  0.263200  1.0  0.0954
  H  H679  1  0.250000  0.469500  0.303100  1.0  0.0992
  H  H680  1  0.258900  0.403000  0.302900  1.0  0.1034
  H  H681  1  0.182200  0.212900  0.161400  1.0  0.2809
  H  H682  1  0.417200  0.146800  0.003000  1.0  0.2823
  H  H683  1  0.125500  0.362100  0.190900  1.0  0.3085
  H  H684  1  0.659800  0.672900  0.583700  1.0  0.1149
  H  H685  1  0.711700  0.659800  0.550200  1.0  0.1158
  H  H686  1  0.691000  0.613600  0.586700  1.0  0.1038
  H  H687  1  0.863400  0.720700  0.716000  1.0  0.1135
  H  H688  1  0.890500  0.681900  0.676600  1.0  0.1239
  H  H689  1  0.883700  0.747800  0.668000  1.0  0.1165
  H  H690  1  0.844500  0.547500  0.641100  1.0  0.0972
  H  H691  1  0.790500  0.541200  0.608600  1.0  0.1039
  H  H692  1  0.846900  0.508400  0.595900  1.0  0.1087
  H  H693  1  0.830900  0.756400  0.535500  1.0  0.1064
  H  H694  1  0.888200  0.760800  0.564100  1.0  0.1216
  H  H695  1  0.889500  0.746000  0.509900  1.0  0.1087
  H  H696  1  0.537400  0.960100  0.709700  1.0  0.1085
  H  H697  1  0.574200  0.998600  0.675900  1.0  0.1008
  H  H698  1  0.560800  0.935200  0.661800  1.0  0.1065
  H  H699  1  0.786900  0.940700  0.763200  1.0  0.0954
  H  H700  1  0.750000  0.969500  0.803100  1.0  0.0992
  H  H701  1  0.758900  0.903000  0.802900  1.0  0.1034
  H  H702  1  0.682200  0.712900  0.661400  1.0  0.2809
  H  H703  1  0.917200  0.646800  0.503000  1.0  0.2823
  H  H704  1  0.625500  0.862100  0.690900  1.0  0.3085
  C  C705  1  0.403900  0.446110  0.331280  1.0  -0.4013
  C  C706  1  0.427450  0.485900  0.367300  1.0  0.1574
  C  C707  1  0.425890  0.545170  0.369970  1.0  -0.1934
  C  C708  1  0.454730  0.558930  0.411810  1.0  0.2124
  C  C709  1  0.464700  0.616780  0.432450  1.0  -0.3809
  C  C710  1  0.293020  0.581500  0.358990  1.0  -0.4072
  C  C711  1  0.342490  0.600890  0.330200  1.0  0.2297
  C  C712  1  0.400430  0.584910  0.335320  1.0  -0.2067
  C  C713  1  0.428860  0.615100  0.300640  1.0  0.1296
  C  C714  1  0.491100  0.618800  0.288990  1.0  -0.3993
  C  C715  1  0.710500  0.318840  0.437800  1.0  -0.4002
  C  C716  1  0.691370  0.371960  0.462600  1.0  0.1495
  C  C717  1  0.719570  0.409770  0.492420  1.0  -0.1564
  C  C718  1  0.679360  0.452010  0.503520  1.0  0.206
  C  C719  1  0.686260  0.504090  0.533340  1.0  -0.3927
  C  C720  1  0.903900  0.946110  0.831280  1.0  -0.4008
  C  C721  1  0.927450  0.985900  0.867300  1.0  0.1574
  C  C722  1  0.925890  0.045170  0.869970  1.0  -0.1934
  C  C723  1  0.954730  0.058930  0.911810  1.0  0.2124
  C  C724  1  0.964700  0.116780  0.932450  1.0  -0.3809
  C  C725  1  0.793020  0.081500  0.858990  1.0  -0.4072
  C  C726  1  0.842490  0.100890  0.830200  1.0  0.2297
  C  C727  1  0.900430  0.084910  0.835320  1.0  -0.2067
  C  C728  1  0.928860  0.115100  0.800640  1.0  0.1296
  C  C729  1  0.991100  0.118800  0.788990  1.0  -0.3993
  C  C730  1  0.210500  0.818840  0.937800  1.0  -0.4002
  C  C731  1  0.191370  0.871960  0.962600  1.0  0.1495
  C  C732  1  0.219570  0.909770  0.992420  1.0  -0.1564
  C  C733  1  0.179360  0.952010  0.003520  1.0  0.206
  C  C734  1  0.186260  0.004090  0.033340  1.0  -0.3927
  C  C735  1  0.096100  0.553890  0.831280  1.0  -0.4004
  C  C736  1  0.072550  0.514100  0.867300  1.0  0.1581
  C  C737  1  0.074110  0.454830  0.869970  1.0  -0.1937
  C  C738  1  0.045270  0.441070  0.911810  1.0  0.2128
  C  C739  1  0.035300  0.383220  0.932450  1.0  -0.3814
  C  C740  1  0.206980  0.418500  0.858990  1.0  -0.4071
  C  C741  1  0.157510  0.399110  0.830200  1.0  0.2332
  C  C742  1  0.099570  0.415090  0.835320  1.0  -0.2071
  C  C743  1  0.071140  0.384900  0.800640  1.0  0.128
  C  C744  1  0.008900  0.381200  0.788990  1.0  -0.3996
  C  C745  1  0.789500  0.681160  0.937800  1.0  -0.3996
  C  C746  1  0.808630  0.628040  0.962600  1.0  0.1495
  C  C747  1  0.780430  0.590230  0.992420  1.0  -0.155
  C  C748  1  0.820640  0.547990  0.003520  1.0  0.2041
  C  C749  1  0.813740  0.495910  0.033340  1.0  -0.3919
  C  C750  1  0.596100  0.053890  0.331280  1.0  -0.4013
  C  C751  1  0.572550  0.014100  0.367300  1.0  0.1581
  C  C752  1  0.574110  0.954830  0.369970  1.0  -0.1937
  C  C753  1  0.545270  0.941070  0.411810  1.0  0.2141
  C  C754  1  0.535300  0.883220  0.432450  1.0  -0.3814
  C  C755  1  0.706980  0.918500  0.358990  1.0  -0.4071
  C  C756  1  0.657510  0.899110  0.330200  1.0  0.2332
  C  C757  1  0.599570  0.915090  0.335320  1.0  -0.2071
  C  C758  1  0.571140  0.884900  0.300640  1.0  0.128
  C  C759  1  0.508900  0.881200  0.288990  1.0  -0.3996
  C  C760  1  0.289500  0.181160  0.437800  1.0  -0.3996
  C  C761  1  0.308630  0.128040  0.462600  1.0  0.1495
  C  C762  1  0.280430  0.090230  0.492420  1.0  -0.155
  C  C763  1  0.320640  0.047990  0.503520  1.0  0.2033
  C  C764  1  0.313740  0.995910  0.533340  1.0  -0.3919
  C  C765  1  0.803890  0.153900  0.581280  1.0  -0.4011
  C  C766  1  0.764100  0.177450  0.617300  1.0  0.158
  C  C767  1  0.704830  0.175890  0.619970  1.0  -0.192
  C  C768  1  0.691070  0.204730  0.661810  1.0  0.2112
  C  C769  1  0.633220  0.214700  0.682450  1.0  -0.3813
  C  C770  1  0.668500  0.043020  0.608990  1.0  -0.4061
  C  C771  1  0.649110  0.092490  0.580200  1.0  0.2318
  C  C772  1  0.665090  0.150430  0.585320  1.0  -0.2072
  C  C773  1  0.634900  0.178860  0.550640  1.0  0.1303
  C  C774  1  0.631200  0.241100  0.538990  1.0  -0.4014
  C  C775  1  0.931160  0.460500  0.687800  1.0  -0.3992
  C  C776  1  0.878040  0.441370  0.712600  1.0  0.1488
  C  C777  1  0.840230  0.469570  0.742420  1.0  -0.1539
  C  C778  1  0.797990  0.429360  0.753520  1.0  0.2044
  C  C779  1  0.745910  0.436260  0.783340  1.0  -0.3929
  C  C780  1  0.303890  0.653900  0.081280  1.0  -0.4011
  C  C781  1  0.264100  0.677450  0.117300  1.0  0.158
  C  C782  1  0.204830  0.675890  0.119970  1.0  -0.192
  C  C783  1  0.191070  0.704730  0.161810  1.0  0.2112
  C  C784  1  0.133220  0.714700  0.182450  1.0  -0.3813
  C  C785  1  0.168500  0.543020  0.108990  1.0  -0.4061
  C  C786  1  0.149110  0.592490  0.080200  1.0  0.2318
  C  C787  1  0.165090  0.650430  0.085320  1.0  -0.2072
  C  C788  1  0.134900  0.678860  0.050640  1.0  0.1303
  C  C789  1  0.131200  0.741100  0.038990  1.0  -0.4014
  C  C790  1  0.431160  0.960500  0.187800  1.0  -0.3992
  C  C791  1  0.378040  0.941370  0.212600  1.0  0.1488
  C  C792  1  0.340230  0.969570  0.242420  1.0  -0.1539
  C  C793  1  0.297990  0.929360  0.253520  1.0  0.2044
  C  C794  1  0.245910  0.936260  0.283340  1.0  -0.3929
  C  C795  1  0.696110  0.846100  0.081280  1.0  -0.4021
  C  C796  1  0.735900  0.822550  0.117300  1.0  0.1578
  C  C797  1  0.795170  0.824110  0.119970  1.0  -0.1926
  C  C798  1  0.808930  0.795270  0.161810  1.0  0.2116
  C  C799  1  0.866780  0.785300  0.182450  1.0  -0.3827
  C  C800  1  0.831500  0.956980  0.108990  1.0  -0.4086
  C  C801  1  0.850890  0.907510  0.080200  1.0  0.2315
  C  C802  1  0.834910  0.849570  0.085320  1.0  -0.2076
  C  C803  1  0.865100  0.821140  0.050640  1.0  0.1311
  C  C804  1  0.868800  0.758900  0.038990  1.0  -0.4019
  C  C805  1  0.568840  0.539500  0.187800  1.0  -0.3978
  C  C806  1  0.621960  0.558630  0.212600  1.0  0.1492
  C  C807  1  0.659770  0.530430  0.242420  1.0  -0.1551
  C  C808  1  0.702010  0.570640  0.253520  1.0  0.2047
  C  C809  1  0.754090  0.563740  0.283340  1.0  -0.3928
  C  C810  1  0.196110  0.346100  0.581280  1.0  -0.4021
  C  C811  1  0.235900  0.322550  0.617300  1.0  0.1578
  C  C812  1  0.295170  0.324110  0.619970  1.0  -0.1926
  C  C813  1  0.308930  0.295270  0.661810  1.0  0.2116
  C  C814  1  0.366780  0.285300  0.682450  1.0  -0.3827
  C  C815  1  0.331500  0.456980  0.608990  1.0  -0.4086
  C  C816  1  0.350890  0.407510  0.580200  1.0  0.2315
  C  C817  1  0.334910  0.349570  0.585320  1.0  -0.2076
  C  C818  1  0.365100  0.321140  0.550640  1.0  0.1311
  C  C819  1  0.368800  0.258900  0.538990  1.0  -0.4019
  C  C820  1  0.068840  0.039500  0.687800  1.0  -0.3977
  C  C821  1  0.121960  0.058630  0.712600  1.0  0.1492
  C  C822  1  0.159770  0.030430  0.742420  1.0  -0.1551
  C  C823  1  0.202010  0.070640  0.753520  1.0  0.2047
  C  C824  1  0.254090  0.063740  0.783340  1.0  -0.3928
  C  C825  1  0.096100  0.446110  0.668720  1.0  -0.403
  C  C826  1  0.072550  0.485900  0.632700  1.0  0.1576
  C  C827  1  0.074110  0.545170  0.630030  1.0  -0.1946
  C  C828  1  0.045270  0.558930  0.588190  1.0  0.2117
  C  C829  1  0.035300  0.616780  0.567550  1.0  -0.3806
  C  C830  1  0.206980  0.581500  0.641010  1.0  -0.4069
  C  C831  1  0.157510  0.600890  0.669800  1.0  0.2325
  C  C832  1  0.099570  0.584910  0.664680  1.0  -0.2063
  C  C833  1  0.071140  0.615100  0.699360  1.0  0.1271
  C  C834  1  0.008900  0.618800  0.711010  1.0  -0.4
  C  C835  1  0.789500  0.318840  0.562200  1.0  -0.3999
  C  C836  1  0.808630  0.371960  0.537400  1.0  0.1499
  C  C837  1  0.780430  0.409770  0.507580  1.0  -0.1561
  C  C838  1  0.820640  0.452010  0.496480  1.0  0.2042
  C  C839  1  0.813740  0.504090  0.466660  1.0  -0.3925
  C  C840  1  0.596100  0.946110  0.168720  1.0  -0.4013
  C  C841  1  0.572550  0.985900  0.132700  1.0  0.1576
  C  C842  1  0.574110  0.045170  0.130030  1.0  -0.1946
  C  C843  1  0.545270  0.058930  0.088190  1.0  0.2117
  C  C844  1  0.535300  0.116780  0.067550  1.0  -0.3806
  C  C845  1  0.706980  0.081500  0.141010  1.0  -0.4069
  C  C846  1  0.657510  0.100890  0.169800  1.0  0.2325
  C  C847  1  0.599570  0.084910  0.164680  1.0  -0.2063
  C  C848  1  0.571140  0.115100  0.199360  1.0  0.1271
  C  C849  1  0.508900  0.118800  0.211010  1.0  -0.4
  C  C850  1  0.289500  0.818840  0.062200  1.0  -0.3999
  C  C851  1  0.308630  0.871960  0.037400  1.0  0.1499
  C  C852  1  0.280430  0.909770  0.007580  1.0  -0.1561
  C  C853  1  0.320640  0.952010  0.996480  1.0  0.2042
  C  C854  1  0.313740  0.004090  0.966660  1.0  -0.3925
  C  C855  1  0.403900  0.553890  0.168720  1.0  -0.4006
  C  C856  1  0.427450  0.514100  0.132700  1.0  0.1576
  C  C857  1  0.425890  0.454830  0.130030  1.0  -0.1944
  C  C858  1  0.454730  0.441070  0.088190  1.0  0.2118
  C  C859  1  0.464700  0.383220  0.067550  1.0  -0.3818
  C  C860  1  0.293020  0.418500  0.141010  1.0  -0.4071
  C  C861  1  0.342490  0.399110  0.169800  1.0  0.2308
  C  C862  1  0.400430  0.415090  0.164680  1.0  -0.2062
  C  C863  1  0.428860  0.384900  0.199360  1.0  0.1298
  C  C864  1  0.491100  0.381200  0.211010  1.0  -0.3988
  C  C865  1  0.710500  0.681160  0.062200  1.0  -0.3999
  C  C866  1  0.691370  0.628040  0.037400  1.0  0.1496
  C  C867  1  0.719570  0.590230  0.007580  1.0  -0.1567
  C  C868  1  0.679360  0.547990  0.996480  1.0  0.2055
  C  C869  1  0.686260  0.495910  0.966660  1.0  -0.3924
  C  C870  1  0.903900  0.053890  0.668720  1.0  -0.4007
  C  C871  1  0.927450  0.014100  0.632700  1.0  0.1576
  C  C872  1  0.925890  0.954830  0.630030  1.0  -0.1944
  C  C873  1  0.954730  0.941070  0.588190  1.0  0.2123
  C  C874  1  0.964700  0.883220  0.567550  1.0  -0.3818
  C  C875  1  0.793020  0.918500  0.641010  1.0  -0.4071
  C  C876  1  0.842490  0.899110  0.669800  1.0  0.2308
  C  C877  1  0.900430  0.915090  0.664680  1.0  -0.2062
  C  C878  1  0.928860  0.884900  0.699360  1.0  0.1298
  C  C879  1  0.991100  0.881200  0.711010  1.0  -0.3988
  C  C880  1  0.210500  0.181160  0.562200  1.0  -0.3999
  C  C881  1  0.191370  0.128040  0.537400  1.0  0.1496
  C  C882  1  0.219570  0.090230  0.507580  1.0  -0.1567
  C  C883  1  0.179360  0.047990  0.496480  1.0  0.2053
  C  C884  1  0.186260  0.995910  0.466660  1.0  -0.3924
  C  C885  1  0.696110  0.153900  0.418720  1.0  -0.4003
  C  C886  1  0.735900  0.177450  0.382700  1.0  0.1582
  C  C887  1  0.795170  0.175890  0.380030  1.0  -0.1938
  C  C888  1  0.808930  0.204730  0.338190  1.0  0.2112
  C  C889  1  0.866780  0.214700  0.317550  1.0  -0.3825
  C  C890  1  0.831500  0.043020  0.391010  1.0  -0.4082
  C  C891  1  0.850890  0.092490  0.419800  1.0  0.2301
  C  C892  1  0.834910  0.150430  0.414680  1.0  -0.2064
  C  C893  1  0.865100  0.178860  0.449360  1.0  0.1303
  C  C894  1  0.868800  0.241100  0.461010  1.0  -0.4013
  C  C895  1  0.568840  0.460500  0.312200  1.0  -0.3979
  C  C896  1  0.621960  0.441370  0.287400  1.0  0.1498
  C  C897  1  0.659770  0.469570  0.257580  1.0  -0.1558
  C  C898  1  0.702010  0.429360  0.246480  1.0  0.2052
  C  C899  1  0.754090  0.436260  0.216660  1.0  -0.393
  C  C900  1  0.196110  0.653900  0.918720  1.0  -0.4003
  C  C901  1  0.235900  0.677450  0.882700  1.0  0.1582
  C  C902  1  0.295170  0.675890  0.880030  1.0  -0.1938
  C  C903  1  0.308930  0.704730  0.838190  1.0  0.2112
  C  C904  1  0.366780  0.714700  0.817550  1.0  -0.3825
  C  C905  1  0.331500  0.543020  0.891010  1.0  -0.4082
  C  C906  1  0.350890  0.592490  0.919800  1.0  0.2301
  C  C907  1  0.334910  0.650430  0.914680  1.0  -0.2064
  C  C908  1  0.365100  0.678860  0.949360  1.0  0.1303
  C  C909  1  0.368800  0.741100  0.961010  1.0  -0.4013
  C  C910  1  0.068840  0.960500  0.812200  1.0  -0.3979
  C  C911  1  0.121960  0.941370  0.787400  1.0  0.1498
  C  C912  1  0.159770  0.969570  0.757580  1.0  -0.1558
  C  C913  1  0.202010  0.929360  0.746480  1.0  0.2052
  C  C914  1  0.254090  0.936260  0.716660  1.0  -0.393
  C  C915  1  0.803890  0.846100  0.918720  1.0  -0.4005
  C  C916  1  0.764100  0.822550  0.882700  1.0  0.1575
  C  C917  1  0.704830  0.824110  0.880030  1.0  -0.1929
  C  C918  1  0.691070  0.795270  0.838190  1.0  0.2107
  C  C919  1  0.633220  0.785300  0.817550  1.0  -0.3811
  C  C920  1  0.668500  0.956980  0.891010  1.0  -0.408
  C  C921  1  0.649110  0.907510  0.919800  1.0  0.2331
  C  C922  1  0.665090  0.849570  0.914680  1.0  -0.2071
  C  C923  1  0.634900  0.821140  0.949360  1.0  0.1304
  C  C924  1  0.631200  0.758900  0.961010  1.0  -0.4018
  C  C925  1  0.931160  0.539500  0.812200  1.0  -0.3992
  C  C926  1  0.878040  0.558630  0.787400  1.0  0.1496
  C  C927  1  0.840230  0.530430  0.757580  1.0  -0.1546
  C  C928  1  0.797990  0.570640  0.746480  1.0  0.204
  C  C929  1  0.745910  0.563740  0.716660  1.0  -0.393
  C  C930  1  0.303890  0.346100  0.418720  1.0  -0.4005
  C  C931  1  0.264100  0.322550  0.382700  1.0  0.1575
  C  C932  1  0.204830  0.324110  0.380030  1.0  -0.1929
  C  C933  1  0.191070  0.295270  0.338190  1.0  0.2107
  C  C934  1  0.133220  0.285300  0.317550  1.0  -0.3811
  C  C935  1  0.168500  0.456980  0.391010  1.0  -0.408
  C  C936  1  0.149110  0.407510  0.419800  1.0  0.2331
  C  C937  1  0.165090  0.349570  0.414680  1.0  -0.2071
  C  C938  1  0.134900  0.321140  0.449360  1.0  0.1304
  C  C939  1  0.131200  0.258900  0.461010  1.0  -0.4018
  C  C940  1  0.431160  0.039500  0.312200  1.0  -0.3993
  C  C941  1  0.378040  0.058630  0.287400  1.0  0.1496
  C  C942  1  0.340230  0.030430  0.257580  1.0  -0.1546
  C  C943  1  0.297990  0.070640  0.246480  1.0  0.204
  C  C944  1  0.245910  0.063740  0.216660  1.0  -0.393
  C  C945  1  0.596100  0.553890  0.668720  1.0  -0.4005
  C  C946  1  0.572550  0.514100  0.632700  1.0  0.1582
  C  C947  1  0.574110  0.454830  0.630030  1.0  -0.1946
  C  C948  1  0.545270  0.441070  0.588190  1.0  0.2121
  C  C949  1  0.535300  0.383220  0.567550  1.0  -0.3816
  C  C950  1  0.706980  0.418500  0.641010  1.0  -0.4071
  C  C951  1  0.657510  0.399110  0.669800  1.0  0.2332
  C  C952  1  0.599570  0.415090  0.664680  1.0  -0.2065
  C  C953  1  0.571140  0.384900  0.699360  1.0  0.1277
  C  C954  1  0.508900  0.381200  0.711010  1.0  -0.3993
  C  C955  1  0.289500  0.681160  0.562200  1.0  -0.3998
  C  C956  1  0.308630  0.628040  0.537400  1.0  0.1499
  C  C957  1  0.280430  0.590230  0.507580  1.0  -0.1555
  C  C958  1  0.320640  0.547990  0.496480  1.0  0.204
  C  C959  1  0.313740  0.495910  0.466660  1.0  -0.3919
  C  C960  1  0.096100  0.053890  0.168720  1.0  -0.4003
  C  C961  1  0.072550  0.014100  0.132700  1.0  0.1582
  C  C962  1  0.074110  0.954830  0.130030  1.0  -0.1946
  C  C963  1  0.045270  0.941070  0.088190  1.0  0.2124
  C  C964  1  0.035300  0.883220  0.067550  1.0  -0.3816
  C  C965  1  0.206980  0.918500  0.141010  1.0  -0.4071
  C  C966  1  0.157510  0.899110  0.169800  1.0  0.2332
  C  C967  1  0.099570  0.915090  0.164680  1.0  -0.2065
  C  C968  1  0.071140  0.884900  0.199360  1.0  0.1277
  C  C969  1  0.008900  0.881200  0.211010  1.0  -0.3993
  C  C970  1  0.789500  0.181160  0.062200  1.0  -0.3998
  C  C971  1  0.808630  0.128040  0.037400  1.0  0.1499
  C  C972  1  0.780430  0.090230  0.007580  1.0  -0.1555
  C  C973  1  0.820640  0.047990  0.996480  1.0  0.2032
  C  C974  1  0.813740  0.995910  0.966660  1.0  -0.3919
  C  C975  1  0.903900  0.446110  0.168720  1.0  -0.4002
  C  C976  1  0.927450  0.485900  0.132700  1.0  0.1574
  C  C977  1  0.925890  0.545170  0.130030  1.0  -0.1945
  C  C978  1  0.954730  0.558930  0.088190  1.0  0.2119
  C  C979  1  0.964700  0.616780  0.067550  1.0  -0.3812
  C  C980  1  0.793020  0.581500  0.141010  1.0  -0.4071
  C  C981  1  0.842490  0.600890  0.169800  1.0  0.2295
  C  C982  1  0.900430  0.584910  0.164680  1.0  -0.2061
  C  C983  1  0.928860  0.615100  0.199360  1.0  0.1289
  C  C984  1  0.991100  0.618800  0.211010  1.0  -0.3993
  C  C985  1  0.210500  0.318840  0.062200  1.0  -0.4004
  C  C986  1  0.191370  0.371960  0.037400  1.0  0.1497
  C  C987  1  0.219570  0.409770  0.007580  1.0  -0.1569
  C  C988  1  0.179360  0.452010  0.996480  1.0  0.2057
  C  C989  1  0.186260  0.504090  0.966660  1.0  -0.3929
  C  C990  1  0.403900  0.946110  0.668720  1.0  -0.4009
  C  C991  1  0.427450  0.985900  0.632700  1.0  0.1574
  C  C992  1  0.425890  0.045170  0.630030  1.0  -0.1945
  C  C993  1  0.454730  0.058930  0.588190  1.0  0.2119
  C  C994  1  0.464700  0.116780  0.567550  1.0  -0.3812
  C  C995  1  0.293020  0.081500  0.641010  1.0  -0.4071
  C  C996  1  0.342490  0.100890  0.669800  1.0  0.2295
  C  C997  1  0.400430  0.084910  0.664680  1.0  -0.2061
  C  C998  1  0.428860  0.115100  0.699360  1.0  0.1289
  C  C999  1  0.491100  0.118800  0.711010  1.0  -0.3993
  C  C1000  1  0.710500  0.818840  0.562200  1.0  -0.4004
  C  C1001  1  0.691370  0.871960  0.537400  1.0  0.1497
  C  C1002  1  0.719570  0.909770  0.507580  1.0  -0.1569
  C  C1003  1  0.679360  0.952010  0.496480  1.0  0.2057
  C  C1004  1  0.686260  0.004090  0.466660  1.0  -0.3929
  C  C1005  1  0.196110  0.846100  0.418720  1.0  -0.4016
  C  C1006  1  0.235900  0.822550  0.382700  1.0  0.1579
  C  C1007  1  0.295170  0.824110  0.380030  1.0  -0.1934
  C  C1008  1  0.308930  0.795270  0.338190  1.0  0.2113
  C  C1009  1  0.366780  0.785300  0.317550  1.0  -0.3824
  C  C1010  1  0.331500  0.956980  0.391010  1.0  -0.4083
  C  C1011  1  0.350890  0.907510  0.419800  1.0  0.2313
  C  C1012  1  0.334910  0.849570  0.414680  1.0  -0.207
  C  C1013  1  0.365100  0.821140  0.449360  1.0  0.131
  C  C1014  1  0.368800  0.758900  0.461010  1.0  -0.4017
  C  C1015  1  0.068840  0.539500  0.312200  1.0  -0.3987
  C  C1016  1  0.121960  0.558630  0.287400  1.0  0.1499
  C  C1017  1  0.159770  0.530430  0.257580  1.0  -0.1559
  C  C1018  1  0.202010  0.570640  0.246480  1.0  0.2044
  C  C1019  1  0.254090  0.563740  0.216660  1.0  -0.3929
  C  C1020  1  0.696110  0.346100  0.918720  1.0  -0.4016
  C  C1021  1  0.735900  0.322550  0.882700  1.0  0.1579
  C  C1022  1  0.795170  0.324110  0.880030  1.0  -0.1934
  C  C1023  1  0.808930  0.295270  0.838190  1.0  0.2113
  C  C1024  1  0.866780  0.285300  0.817550  1.0  -0.3824
  C  C1025  1  0.831500  0.456980  0.891010  1.0  -0.4083
  C  C1026  1  0.850890  0.407510  0.919800  1.0  0.2313
  C  C1027  1  0.834910  0.349570  0.914680  1.0  -0.207
  C  C1028  1  0.865100  0.321140  0.949360  1.0  0.131
  C  C1029  1  0.868800  0.258900  0.961010  1.0  -0.4017
  C  C1030  1  0.568840  0.039500  0.812200  1.0  -0.3987
  C  C1031  1  0.621960  0.058630  0.787400  1.0  0.1499
  C  C1032  1  0.659770  0.030430  0.757580  1.0  -0.1559
  C  C1033  1  0.702010  0.070640  0.746480  1.0  0.2044
  C  C1034  1  0.754090  0.063740  0.716660  1.0  -0.3929
  C  C1035  1  0.303890  0.153900  0.918720  1.0  -0.401
  C  C1036  1  0.264100  0.177450  0.882700  1.0  0.1578
  C  C1037  1  0.204830  0.175890  0.880030  1.0  -0.1931
  C  C1038  1  0.191070  0.204730  0.838190  1.0  0.2103
  C  C1039  1  0.133220  0.214700  0.817550  1.0  -0.3812
  C  C1040  1  0.168500  0.043020  0.891010  1.0  -0.4081
  C  C1041  1  0.149110  0.092490  0.919800  1.0  0.2316
  C  C1042  1  0.165090  0.150430  0.914680  1.0  -0.2068
  C  C1043  1  0.134900  0.178860  0.949360  1.0  0.1298
  C  C1044  1  0.131200  0.241100  0.961010  1.0  -0.401
  C  C1045  1  0.431160  0.460500  0.812200  1.0  -0.3988
  C  C1046  1  0.378040  0.441370  0.787400  1.0  0.1494
  C  C1047  1  0.340230  0.469570  0.757580  1.0  -0.1544
  C  C1048  1  0.297990  0.429360  0.746480  1.0  0.2044
  C  C1049  1  0.245910  0.436260  0.716660  1.0  -0.3929
  C  C1050  1  0.803890  0.653900  0.418720  1.0  -0.401
  C  C1051  1  0.764100  0.677450  0.382700  1.0  0.1578
  C  C1052  1  0.704830  0.675890  0.380030  1.0  -0.1931
  C  C1053  1  0.691070  0.704730  0.338190  1.0  0.2103
  C  C1054  1  0.633220  0.714700  0.317550  1.0  -0.3812
  C  C1055  1  0.668500  0.543020  0.391010  1.0  -0.4081
  C  C1056  1  0.649110  0.592490  0.419800  1.0  0.2316
  C  C1057  1  0.665090  0.650430  0.414680  1.0  -0.2068
  C  C1058  1  0.634900  0.678860  0.449360  1.0  0.1298
  C  C1059  1  0.631200  0.741100  0.461010  1.0  -0.401
  C  C1060  1  0.931160  0.960500  0.312200  1.0  -0.3988
  C  C1061  1  0.878040  0.941370  0.287400  1.0  0.1494
  C  C1062  1  0.840230  0.969570  0.257580  1.0  -0.1544
  C  C1063  1  0.797990  0.929360  0.246480  1.0  0.2044
  C  C1064  1  0.745910  0.936260  0.216660  1.0  -0.3929
  C  C1065  1  0.903900  0.553890  0.331280  1.0  -0.4006
  C  C1066  1  0.927450  0.514100  0.367300  1.0  0.1578
  C  C1067  1  0.925890  0.454830  0.369970  1.0  -0.1932
  C  C1068  1  0.954730  0.441070  0.411810  1.0  0.2126
  C  C1069  1  0.964700  0.383220  0.432450  1.0  -0.3817
  C  C1070  1  0.793020  0.418500  0.358990  1.0  -0.407
  C  C1071  1  0.842490  0.399110  0.330200  1.0  0.2308
  C  C1072  1  0.900430  0.415090  0.335320  1.0  -0.2067
  C  C1073  1  0.928860  0.384900  0.300640  1.0  0.13
  C  C1074  1  0.991100  0.381200  0.288990  1.0  -0.3995
  C  C1075  1  0.210500  0.681160  0.437800  1.0  -0.4
  C  C1076  1  0.191370  0.628040  0.462600  1.0  0.1494
  C  C1077  1  0.219570  0.590230  0.492420  1.0  -0.1561
  C  C1078  1  0.179360  0.547990  0.503520  1.0  0.2056
  C  C1079  1  0.186260  0.495910  0.533340  1.0  -0.3922
  C  C1080  1  0.403900  0.053890  0.831280  1.0  -0.4005
  C  C1081  1  0.427450  0.014100  0.867300  1.0  0.1578
  C  C1082  1  0.425890  0.954830  0.869970  1.0  -0.1932
  C  C1083  1  0.454730  0.941070  0.911810  1.0  0.2137
  C  C1084  1  0.464700  0.883220  0.932450  1.0  -0.3817
  C  C1085  1  0.293020  0.918500  0.858990  1.0  -0.407
  C  C1086  1  0.342490  0.899110  0.830200  1.0  0.2308
  C  C1087  1  0.400430  0.915090  0.835320  1.0  -0.2067
  C  C1088  1  0.428860  0.884900  0.800640  1.0  0.13
  C  C1089  1  0.491100  0.881200  0.788990  1.0  -0.3995
  C  C1090  1  0.710500  0.181160  0.937800  1.0  -0.4
  C  C1091  1  0.691370  0.128040  0.962600  1.0  0.1494
  C  C1092  1  0.719570  0.090230  0.992420  1.0  -0.1561
  C  C1093  1  0.679360  0.047990  0.003520  1.0  0.2054
  C  C1094  1  0.686260  0.995910  0.033340  1.0  -0.3922
  C  C1095  1  0.596100  0.446110  0.831280  1.0  -0.4036
  C  C1096  1  0.572550  0.485900  0.867300  1.0  0.1574
  C  C1097  1  0.574110  0.545170  0.869970  1.0  -0.1937
  C  C1098  1  0.545270  0.558930  0.911810  1.0  0.2123
  C  C1099  1  0.535300  0.616780  0.932450  1.0  -0.3805
  C  C1100  1  0.706980  0.581500  0.858990  1.0  -0.4071
  C  C1101  1  0.657510  0.600890  0.830200  1.0  0.2327
  C  C1102  1  0.599570  0.584910  0.835320  1.0  -0.207
  C  C1103  1  0.571140  0.615100  0.800640  1.0  0.128
  C  C1104  1  0.508900  0.618800  0.788990  1.0  -0.4002
  C  C1105  1  0.289500  0.318840  0.937800  1.0  -0.3994
  C  C1106  1  0.308630  0.371960  0.962600  1.0  0.1494
  C  C1107  1  0.280430  0.409770  0.992420  1.0  -0.1557
  C  C1108  1  0.320640  0.452010  0.003520  1.0  0.2046
  C  C1109  1  0.313740  0.504090  0.033340  1.0  -0.3926
  C  C1110  1  0.096100  0.946110  0.331280  1.0  -0.4036
  C  C1111  1  0.072550  0.985900  0.367300  1.0  0.1574
  C  C1112  1  0.074110  0.045170  0.369970  1.0  -0.1937
  C  C1113  1  0.045270  0.058930  0.411810  1.0  0.2123
  C  C1114  1  0.035300  0.116780  0.432450  1.0  -0.3805
  C  C1115  1  0.206980  0.081500  0.358990  1.0  -0.4071
  C  C1116  1  0.157510  0.100890  0.330200  1.0  0.2327
  C  C1117  1  0.099570  0.084910  0.335320  1.0  -0.207
  C  C1118  1  0.071140  0.115100  0.300640  1.0  0.128
  C  C1119  1  0.008900  0.118800  0.288990  1.0  -0.4002
  C  C1120  1  0.789500  0.818840  0.437800  1.0  -0.3994
  C  C1121  1  0.808630  0.871960  0.462600  1.0  0.1494
  C  C1122  1  0.780430  0.909770  0.492420  1.0  -0.1557
  C  C1123  1  0.820640  0.952010  0.503520  1.0  0.2046
  C  C1124  1  0.813740  0.004090  0.533340  1.0  -0.3926
  C  C1125  1  0.303890  0.846100  0.581280  1.0  -0.4014
  C  C1126  1  0.264100  0.822550  0.617300  1.0  0.1573
  C  C1127  1  0.204830  0.824110  0.619970  1.0  -0.1921
  C  C1128  1  0.191070  0.795270  0.661810  1.0  0.2115
  C  C1129  1  0.133220  0.785300  0.682450  1.0  -0.3814
  C  C1130  1  0.168500  0.956980  0.608990  1.0  -0.4082
  C  C1131  1  0.149110  0.907510  0.580200  1.0  0.2333
  C  C1132  1  0.165090  0.849570  0.585320  1.0  -0.2076
  C  C1133  1  0.134900  0.821140  0.550640  1.0  0.1306
  C  C1134  1  0.131200  0.758900  0.538990  1.0  -0.4023
  C  C1135  1  0.431160  0.539500  0.687800  1.0  -0.3989
  C  C1136  1  0.378040  0.558630  0.712600  1.0  0.149
  C  C1137  1  0.340230  0.530430  0.742420  1.0  -0.1541
  C  C1138  1  0.297990  0.570640  0.753520  1.0  0.2042
  C  C1139  1  0.245910  0.563740  0.783340  1.0  -0.3931
  C  C1140  1  0.803890  0.346100  0.081280  1.0  -0.4014
  C  C1141  1  0.764100  0.322550  0.117300  1.0  0.1573
  C  C1142  1  0.704830  0.324110  0.119970  1.0  -0.1921
  C  C1143  1  0.691070  0.295270  0.161810  1.0  0.2115
  C  C1144  1  0.633220  0.285300  0.182450  1.0  -0.3814
  C  C1145  1  0.668500  0.456980  0.108990  1.0  -0.4082
  C  C1146  1  0.649110  0.407510  0.080200  1.0  0.2333
  C  C1147  1  0.665090  0.349570  0.085320  1.0  -0.2076
  C  C1148  1  0.634900  0.321140  0.050640  1.0  0.1306
  C  C1149  1  0.631200  0.258900  0.038990  1.0  -0.4023
  C  C1150  1  0.931160  0.039500  0.187800  1.0  -0.3989
  C  C1151  1  0.878040  0.058630  0.212600  1.0  0.149
  C  C1152  1  0.840230  0.030430  0.242420  1.0  -0.1541
  C  C1153  1  0.797990  0.070640  0.253520  1.0  0.2042
  C  C1154  1  0.745910  0.063740  0.283340  1.0  -0.3931
  C  C1155  1  0.196110  0.153900  0.081280  1.0  -0.4005
  C  C1156  1  0.235900  0.177450  0.117300  1.0  0.1582
  C  C1157  1  0.295170  0.175890  0.119970  1.0  -0.1926
  C  C1158  1  0.308930  0.204730  0.161810  1.0  0.2115
  C  C1159  1  0.366780  0.214700  0.182450  1.0  -0.3826
  C  C1160  1  0.331500  0.043020  0.108990  1.0  -0.4084
  C  C1161  1  0.350890  0.092490  0.080200  1.0  0.2303
  C  C1162  1  0.334910  0.150430  0.085320  1.0  -0.2069
  C  C1163  1  0.365100  0.178860  0.050640  1.0  0.1307
  C  C1164  1  0.368800  0.241100  0.038990  1.0  -0.4016
  C  C1165  1  0.068840  0.460500  0.187800  1.0  -0.3979
  C  C1166  1  0.121960  0.441370  0.212600  1.0  0.1491
  C  C1167  1  0.159770  0.469570  0.242420  1.0  -0.1551
  C  C1168  1  0.202010  0.429360  0.253520  1.0  0.2054
  C  C1169  1  0.254090  0.436260  0.283340  1.0  -0.3929
  C  C1170  1  0.696110  0.653900  0.581280  1.0  -0.4005
  C  C1171  1  0.735900  0.677450  0.617300  1.0  0.1582
  C  C1172  1  0.795170  0.675890  0.619970  1.0  -0.1926
  C  C1173  1  0.808930  0.704730  0.661810  1.0  0.2115
  C  C1174  1  0.866780  0.714700  0.682450  1.0  -0.3826
  C  C1175  1  0.831500  0.543020  0.608990  1.0  -0.4084
  C  C1176  1  0.850890  0.592490  0.580200  1.0  0.2303
  C  C1177  1  0.834910  0.650430  0.585320  1.0  -0.2069
  C  C1178  1  0.865100  0.678860  0.550640  1.0  0.1307
  C  C1179  1  0.868800  0.741100  0.538990  1.0  -0.4016
  C  C1180  1  0.568840  0.960500  0.687800  1.0  -0.3977
  C  C1181  1  0.621960  0.941370  0.712600  1.0  0.1491
  C  C1182  1  0.659770  0.969570  0.742420  1.0  -0.1551
  C  C1183  1  0.702010  0.929360  0.753520  1.0  0.2054
  C  C1184  1  0.754090  0.936260  0.783340  1.0  -0.3929
  N  N1185  1  0.473460  0.511410  0.433390  1.0  -0.3103
  N  N1186  1  0.456150  0.467670  0.405380  1.0  -0.1229
  N  N1187  1  0.389190  0.645470  0.276740  1.0  -0.132
  N  N1188  1  0.336220  0.637780  0.294420  1.0  -0.3313
  N  N1189  1  0.629450  0.440960  0.482630  1.0  -0.308
  N  N1190  1  0.637960  0.391890  0.457790  1.0  -0.1272
  N  N1191  1  0.973460  0.011410  0.933390  1.0  -0.3103
  N  N1192  1  0.956150  0.967670  0.905380  1.0  -0.1229
  N  N1193  1  0.889190  0.145470  0.776740  1.0  -0.132
  N  N1194  1  0.836220  0.137780  0.794420  1.0  -0.3313
  N  N1195  1  0.129450  0.940960  0.982630  1.0  -0.3076
  N  N1196  1  0.137960  0.891890  0.957790  1.0  -0.1272
  N  N1197  1  0.026540  0.488590  0.933390  1.0  -0.3086
  N  N1198  1  0.043850  0.532330  0.905380  1.0  -0.1244
  N  N1199  1  0.110810  0.354530  0.776740  1.0  -0.1344
  N  N1200  1  0.163780  0.362220  0.794420  1.0  -0.3369
  N  N1201  1  0.870550  0.559040  0.982630  1.0  -0.3078
  N  N1202  1  0.862040  0.608110  0.957790  1.0  -0.1255
  N  N1203  1  0.526540  0.988590  0.433390  1.0  -0.3086
  N  N1204  1  0.543850  0.032330  0.405380  1.0  -0.1244
  N  N1205  1  0.610810  0.854530  0.276740  1.0  -0.1344
  N  N1206  1  0.663780  0.862220  0.294420  1.0  -0.3369
  N  N1207  1  0.370550  0.059040  0.482630  1.0  -0.3078
  N  N1208  1  0.362040  0.108110  0.457790  1.0  -0.1255
  N  N1209  1  0.738590  0.223460  0.683390  1.0  -0.3096
  N  N1210  1  0.782330  0.206150  0.655380  1.0  -0.1244
  N  N1211  1  0.604530  0.139190  0.526740  1.0  -0.1304
  N  N1212  1  0.612220  0.086220  0.544420  1.0  -0.3414
  N  N1213  1  0.809040  0.379450  0.732630  1.0  -0.3123
  N  N1214  1  0.858110  0.387960  0.707790  1.0  -0.128
  N  N1215  1  0.238590  0.723460  0.183390  1.0  -0.3096
  N  N1216  1  0.282330  0.706150  0.155380  1.0  -0.1244
  N  N1217  1  0.104530  0.639190  0.026740  1.0  -0.1304
  N  N1218  1  0.112220  0.586220  0.044420  1.0  -0.3414
  N  N1219  1  0.309040  0.879450  0.232630  1.0  -0.3123
  N  N1220  1  0.358110  0.887960  0.207790  1.0  -0.128
  N  N1221  1  0.761410  0.776540  0.183390  1.0  -0.3093
  N  N1222  1  0.717670  0.793850  0.155380  1.0  -0.1238
  N  N1223  1  0.895470  0.860810  0.026740  1.0  -0.1326
  N  N1224  1  0.887780  0.913780  0.044420  1.0  -0.3341
  N  N1225  1  0.690960  0.620550  0.232630  1.0  -0.3131
  N  N1226  1  0.641890  0.612040  0.207790  1.0  -0.1283
  N  N1227  1  0.261410  0.276540  0.683390  1.0  -0.3093
  N  N1228  1  0.217670  0.293850  0.655380  1.0  -0.1238
  N  N1229  1  0.395470  0.360810  0.526740  1.0  -0.1326
  N  N1230  1  0.387780  0.413780  0.544420  1.0  -0.3341
  N  N1231  1  0.190960  0.120550  0.732630  1.0  -0.3131
  N  N1232  1  0.141890  0.112040  0.707790  1.0  -0.1283
  N  N1233  1  0.026540  0.511410  0.566610  1.0  -0.3116
  N  N1234  1  0.043850  0.467670  0.594620  1.0  -0.1238
  N  N1235  1  0.110810  0.645470  0.723260  1.0  -0.1337
  N  N1236  1  0.163780  0.637780  0.705580  1.0  -0.3344
  N  N1237  1  0.870550  0.440960  0.517370  1.0  -0.3076
  N  N1238  1  0.862040  0.391890  0.542210  1.0  -0.1263
  N  N1239  1  0.526540  0.011410  0.066610  1.0  -0.3116
  N  N1240  1  0.543850  0.967670  0.094620  1.0  -0.1238
  N  N1241  1  0.610810  0.145470  0.223260  1.0  -0.1337
  N  N1242  1  0.663780  0.137780  0.205580  1.0  -0.3344
  N  N1243  1  0.370550  0.940960  0.017370  1.0  -0.3073
  N  N1244  1  0.362040  0.891890  0.042210  1.0  -0.1263
  N  N1245  1  0.473460  0.488590  0.066610  1.0  -0.3125
  N  N1246  1  0.456150  0.532330  0.094620  1.0  -0.1233
  N  N1247  1  0.389190  0.354530  0.223260  1.0  -0.1343
  N  N1248  1  0.336220  0.362220  0.205580  1.0  -0.3426
  N  N1249  1  0.629450  0.559040  0.017370  1.0  -0.3094
  N  N1250  1  0.637960  0.608110  0.042210  1.0  -0.1275
  N  N1251  1  0.973460  0.988590  0.566610  1.0  -0.3125
  N  N1252  1  0.956150  0.032330  0.594620  1.0  -0.1233
  N  N1253  1  0.889190  0.854530  0.723260  1.0  -0.1343
  N  N1254  1  0.836220  0.862220  0.705580  1.0  -0.3426
  N  N1255  1  0.129450  0.059040  0.517370  1.0  -0.3094
  N  N1256  1  0.137960  0.108110  0.542210  1.0  -0.1275
  N  N1257  1  0.761410  0.223460  0.316610  1.0  -0.3119
  N  N1258  1  0.717670  0.206150  0.344620  1.0  -0.1246
  N  N1259  1  0.895470  0.139190  0.473260  1.0  -0.1328
  N  N1260  1  0.887780  0.086220  0.455580  1.0  -0.3293
  N  N1261  1  0.690960  0.379450  0.267370  1.0  -0.3127
  N  N1262  1  0.641890  0.387960  0.292210  1.0  -0.127
  N  N1263  1  0.261410  0.723460  0.816610  1.0  -0.3119
  N  N1264  1  0.217670  0.706150  0.844620  1.0  -0.1246
  N  N1265  1  0.395470  0.639190  0.973260  1.0  -0.1328
  N  N1266  1  0.387780  0.586220  0.955580  1.0  -0.3293
  N  N1267  1  0.190960  0.879450  0.767370  1.0  -0.3127
  N  N1268  1  0.141890  0.887960  0.792210  1.0  -0.127
  N  N1269  1  0.738590  0.776540  0.816610  1.0  -0.3116
  N  N1270  1  0.782330  0.793850  0.844620  1.0  -0.1242
  N  N1271  1  0.604530  0.860810  0.973260  1.0  -0.1334
  N  N1272  1  0.612220  0.913780  0.955580  1.0  -0.34
  N  N1273  1  0.809040  0.620550  0.767370  1.0  -0.3124
  N  N1274  1  0.858110  0.612040  0.792210  1.0  -0.1282
  N  N1275  1  0.238590  0.276540  0.316610  1.0  -0.3116
  N  N1276  1  0.282330  0.293850  0.344620  1.0  -0.1242
  N  N1277  1  0.104530  0.360810  0.473260  1.0  -0.1334
  N  N1278  1  0.112220  0.413780  0.455580  1.0  -0.34
  N  N1279  1  0.309040  0.120550  0.267370  1.0  -0.3124
  N  N1280  1  0.358110  0.112040  0.292210  1.0  -0.1282
  N  N1281  1  0.526540  0.488590  0.566610  1.0  -0.3116
  N  N1282  1  0.543850  0.532330  0.594620  1.0  -0.1243
  N  N1283  1  0.610810  0.354530  0.723260  1.0  -0.135
  N  N1284  1  0.663780  0.362220  0.705580  1.0  -0.3366
  N  N1285  1  0.370550  0.559040  0.517370  1.0  -0.3082
  N  N1286  1  0.362040  0.608110  0.542210  1.0  -0.1257
  N  N1287  1  0.026540  0.988590  0.066610  1.0  -0.3116
  N  N1288  1  0.043850  0.032330  0.094620  1.0  -0.1243
  N  N1289  1  0.110810  0.854530  0.223260  1.0  -0.135
  N  N1290  1  0.163780  0.862220  0.205580  1.0  -0.3366
  N  N1291  1  0.870550  0.059040  0.017370  1.0  -0.3082
  N  N1292  1  0.862040  0.108110  0.042210  1.0  -0.1257
  N  N1293  1  0.973460  0.511410  0.066610  1.0  -0.3127
  N  N1294  1  0.956150  0.467670  0.094620  1.0  -0.1237
  N  N1295  1  0.889190  0.645470  0.223260  1.0  -0.1329
  N  N1296  1  0.836220  0.637780  0.205580  1.0  -0.3319
  N  N1297  1  0.129450  0.440960  0.017370  1.0  -0.3085
  N  N1298  1  0.137960  0.391890  0.042210  1.0  -0.1264
  N  N1299  1  0.473460  0.011410  0.566610  1.0  -0.3127
  N  N1300  1  0.456150  0.967670  0.594620  1.0  -0.1237
  N  N1301  1  0.389190  0.145470  0.723260  1.0  -0.1329
  N  N1302  1  0.336220  0.137780  0.705580  1.0  -0.3319
  N  N1303  1  0.629450  0.940960  0.517370  1.0  -0.308
  N  N1304  1  0.637960  0.891890  0.542210  1.0  -0.1266
  N  N1305  1  0.261410  0.776540  0.316610  1.0  -0.3121
  N  N1306  1  0.217670  0.793850  0.344620  1.0  -0.1251
  N  N1307  1  0.395470  0.860810  0.473260  1.0  -0.1325
  N  N1308  1  0.387780  0.913780  0.455580  1.0  -0.3345
  N  N1309  1  0.190960  0.620550  0.267370  1.0  -0.3136
  N  N1310  1  0.141890  0.612040  0.292210  1.0  -0.1285
  N  N1311  1  0.761410  0.276540  0.816610  1.0  -0.3121
  N  N1312  1  0.717670  0.293850  0.844620  1.0  -0.1251
  N  N1313  1  0.895470  0.360810  0.973260  1.0  -0.1325
  N  N1314  1  0.887780  0.413780  0.955580  1.0  -0.3345
  N  N1315  1  0.690960  0.120550  0.767370  1.0  -0.3136
  N  N1316  1  0.641890  0.112040  0.792210  1.0  -0.1285
  N  N1317  1  0.238590  0.223460  0.816610  1.0  -0.3114
  N  N1318  1  0.282330  0.206150  0.844620  1.0  -0.1238
  N  N1319  1  0.104530  0.139190  0.973260  1.0  -0.133
  N  N1320  1  0.112220  0.086220  0.955580  1.0  -0.3407
  N  N1321  1  0.309040  0.379450  0.767370  1.0  -0.312
  N  N1322  1  0.358110  0.387960  0.792210  1.0  -0.1274
  N  N1323  1  0.738590  0.723460  0.316610  1.0  -0.3114
  N  N1324  1  0.782330  0.706150  0.344620  1.0  -0.1238
  N  N1325  1  0.604530  0.639190  0.473260  1.0  -0.133
  N  N1326  1  0.612220  0.586220  0.455580  1.0  -0.3407
  N  N1327  1  0.809040  0.879450  0.267370  1.0  -0.312
  N  N1328  1  0.858110  0.887960  0.292210  1.0  -0.1274
  N  N1329  1  0.973460  0.488590  0.433390  1.0  -0.3115
  N  N1330  1  0.956150  0.532330  0.405380  1.0  -0.1231
  N  N1331  1  0.889190  0.354530  0.276740  1.0  -0.1317
  N  N1332  1  0.836220  0.362220  0.294420  1.0  -0.3428
  N  N1333  1  0.129450  0.559040  0.482630  1.0  -0.3092
  N  N1334  1  0.137960  0.608110  0.457790  1.0  -0.1275
  N  N1335  1  0.473460  0.988590  0.933390  1.0  -0.3115
  N  N1336  1  0.456150  0.032330  0.905380  1.0  -0.1231
  N  N1337  1  0.389190  0.854530  0.776740  1.0  -0.1317
  N  N1338  1  0.336220  0.862220  0.794420  1.0  -0.3428
  N  N1339  1  0.629450  0.059040  0.982630  1.0  -0.3092
  N  N1340  1  0.637960  0.108110  0.957790  1.0  -0.1275
  N  N1341  1  0.526540  0.511410  0.933390  1.0  -0.3102
  N  N1342  1  0.543850  0.467670  0.905380  1.0  -0.1232
  N  N1343  1  0.610810  0.645470  0.776740  1.0  -0.1329
  N  N1344  1  0.663780  0.637780  0.794420  1.0  -0.3341
  N  N1345  1  0.370550  0.440960  0.982630  1.0  -0.3071
  N  N1346  1  0.362040  0.391890  0.957790  1.0  -0.1261
  N  N1347  1  0.026540  0.011410  0.433390  1.0  -0.3102
  N  N1348  1  0.043850  0.967670  0.405380  1.0  -0.1232
  N  N1349  1  0.110810  0.145470  0.276740  1.0  -0.1329
  N  N1350  1  0.163780  0.137780  0.294420  1.0  -0.3341
  N  N1351  1  0.870550  0.940960  0.482630  1.0  -0.3068
  N  N1352  1  0.862040  0.891890  0.457790  1.0  -0.1261
  N  N1353  1  0.238590  0.776540  0.683390  1.0  -0.3089
  N  N1354  1  0.282330  0.793850  0.655380  1.0  -0.1236
  N  N1355  1  0.104530  0.860810  0.526740  1.0  -0.1345
  N  N1356  1  0.112220  0.913780  0.544420  1.0  -0.3392
  N  N1357  1  0.309040  0.620550  0.732630  1.0  -0.3123
  N  N1358  1  0.358110  0.612040  0.707790  1.0  -0.1278
  N  N1359  1  0.738590  0.276540  0.183390  1.0  -0.3089
  N  N1360  1  0.782330  0.293850  0.155380  1.0  -0.1236
  N  N1361  1  0.604530  0.360810  0.026740  1.0  -0.1345
  N  N1362  1  0.612220  0.413780  0.044420  1.0  -0.3392
  N  N1363  1  0.809040  0.120550  0.232630  1.0  -0.3123
  N  N1364  1  0.858110  0.112040  0.207790  1.0  -0.1278
  N  N1365  1  0.261410  0.223460  0.183390  1.0  -0.3104
  N  N1366  1  0.217670  0.206150  0.155380  1.0  -0.1249
  N  N1367  1  0.395470  0.139190  0.026740  1.0  -0.133
  N  N1368  1  0.387780  0.086220  0.044420  1.0  -0.3294
  N  N1369  1  0.190960  0.379450  0.232630  1.0  -0.3127
  N  N1370  1  0.141890  0.387960  0.207790  1.0  -0.1295
  N  N1371  1  0.761410  0.723460  0.683390  1.0  -0.3104
  N  N1372  1  0.717670  0.706150  0.655380  1.0  -0.1249
  N  N1373  1  0.895470  0.639190  0.526740  1.0  -0.133
  N  N1374  1  0.887780  0.586220  0.544420  1.0  -0.3294
  N  N1375  1  0.690960  0.879450  0.732630  1.0  -0.3127
  N  N1376  1  0.641890  0.887960  0.707790  1.0  -0.1295
