# generated using pymatgen
data_CoH14C22Br4(NO)4
_symmetry_space_group_name_H-M   'P 1'
_cell_length_a   20.40290000
_cell_length_b   17.33100000
_cell_length_c   38.67930000
_cell_angle_alpha   90.00000000
_cell_angle_beta   91.03800000
_cell_angle_gamma   90.00000000
_symmetry_Int_Tables_number   1
_chemical_formula_structural   CoH14C22Br4(NO)4
_chemical_formula_sum   'Co16 H224 C352 Br64 N64 O64'
_cell_volume   13674.85895564
_cell_formula_units_Z   16
loop_
 _symmetry_equiv_pos_site_id
 _symmetry_equiv_pos_as_xyz
  1  'x, y, z'
loop_
 _atom_site_type_symbol
 _atom_site_label
 _atom_site_symmetry_multiplicity
 _atom_site_fract_x
 _atom_site_fract_y
 _atom_site_fract_z
 _atom_site_occupancy
 _atom_site_charge
  Co  Co1  1  0.252870  0.576510  0.586260  1.0  0.8805
  Co  Co2  1  0.750270  0.431340  0.670510  1.0  0.9732
  Co  Co3  1  0.247130  0.076510  0.413740  1.0  0.8785
  Co  Co4  1  0.749730  0.931340  0.329490  1.0  0.9738
  Co  Co5  1  0.247130  0.923490  0.913740  1.0  0.878
  Co  Co6  1  0.749730  0.068660  0.829490  1.0  0.9737
  Co  Co7  1  0.252870  0.423490  0.086260  1.0  0.8803
  Co  Co8  1  0.750270  0.568660  0.170510  1.0  0.9732
  Co  Co9  1  0.752870  0.076510  0.086260  1.0  0.8805
  Co  Co10  1  0.250270  0.931340  0.170510  1.0  0.9732
  Co  Co11  1  0.747130  0.576510  0.913740  1.0  0.8785
  Co  Co12  1  0.249730  0.431340  0.829490  1.0  0.9738
  Co  Co13  1  0.747130  0.423490  0.413740  1.0  0.878
  Co  Co14  1  0.249730  0.568660  0.329490  1.0  0.9737
  Co  Co15  1  0.752870  0.923490  0.586260  1.0  0.8803
  Co  Co16  1  0.250270  0.068660  0.670510  1.0  0.9732
  H  H17  1  0.124200  0.798700  0.572700  1.0  0.1093
  H  H18  1  0.259000  0.742000  0.554000  1.0  0.0995
  H  H19  1  0.261200  0.893400  0.556900  1.0  0.1003
  H  H20  1  0.244600  0.930400  0.592800  1.0  0.1063
  H  H21  1  0.020500  0.823500  0.553700  1.0  0.1118
  H  H22  1  0.486500  0.457000  0.782700  1.0  0.1187
  H  H23  1  0.599000  0.307700  0.834300  1.0  0.1242
  H  H24  1  0.993100  0.944600  0.531900  1.0  0.1112
  H  H25  1  0.165000  0.071100  0.483600  1.0  0.0979
  H  H26  1  0.677500  0.583800  0.798200  1.0  0.1222
  H  H27  1  0.722900  0.532800  0.822200  1.0  0.1053
  H  H28  1  0.830400  0.536000  0.785400  1.0  0.1214
  H  H29  1  0.217100  0.833700  0.643600  1.0  0.1292
  H  H30  1  0.705200  0.230600  0.863000  1.0  0.0876
  H  H31  1  0.352700  0.035400  0.474000  1.0  0.1056
  H  H32  1  0.702100  0.380500  0.866000  1.0  0.1323
  H  H33  1  0.743400  0.423100  0.838100  1.0  0.1059
  H  H34  1  0.169900  0.093100  0.553700  1.0  0.1109
  H  H35  1  0.222400  0.039800  0.571600  1.0  0.0926
  H  H36  1  0.070900  0.040300  0.531000  1.0  0.1111
  H  H37  1  0.226600  0.695800  0.650900  1.0  0.0986
  H  H38  1  0.573100  0.539600  0.779600  1.0  0.1054
  H  H39  1  0.668100  0.475200  0.736700  1.0  0.1003
  H  H40  1  0.500100  0.343000  0.811800  1.0  0.1019
  H  H41  1  0.857300  0.492800  0.726300  1.0  0.1035
  H  H42  1  0.804800  0.198300  0.779500  1.0  0.101
  H  H43  1  0.785600  0.337800  0.784200  1.0  0.1396
  H  H44  1  0.327100  0.024900  0.535600  1.0  0.1168
  H  H45  1  0.375800  0.298700  0.427300  1.0  0.1099
  H  H46  1  0.241000  0.242000  0.446000  1.0  0.1
  H  H47  1  0.238800  0.393400  0.443100  1.0  0.1016
  H  H48  1  0.255400  0.430400  0.407200  1.0  0.1075
  H  H49  1  0.479500  0.323500  0.446300  1.0  0.1115
  H  H50  1  0.013500  0.957000  0.217300  1.0  0.119
  H  H51  1  0.901000  0.807700  0.165700  1.0  0.1243
  H  H52  1  0.506900  0.444600  0.468100  1.0  0.1115
  H  H53  1  0.335000  0.571100  0.516400  1.0  0.0983
  H  H54  1  0.822500  0.083800  0.201800  1.0  0.1223
  H  H55  1  0.777100  0.032800  0.177800  1.0  0.1048
  H  H56  1  0.669600  0.036000  0.214600  1.0  0.1221
  H  H57  1  0.282900  0.333700  0.356400  1.0  0.1291
  H  H58  1  0.794800  0.730600  0.137000  1.0  0.0874
  H  H59  1  0.147300  0.535400  0.526000  1.0  0.1057
  H  H60  1  0.797900  0.880500  0.134000  1.0  0.1319
  H  H61  1  0.756600  0.923100  0.161900  1.0  0.1078
  H  H62  1  0.330100  0.593100  0.446300  1.0  0.1111
  H  H63  1  0.277600  0.539800  0.428400  1.0  0.0928
  H  H64  1  0.429100  0.540300  0.469000  1.0  0.1109
  H  H65  1  0.273400  0.195800  0.349100  1.0  0.0977
  H  H66  1  0.926900  0.039600  0.220400  1.0  0.1047
  H  H67  1  0.831900  0.975200  0.263300  1.0  0.1003
  H  H68  1  0.999900  0.843000  0.188200  1.0  0.1025
  H  H69  1  0.642700  0.992800  0.273700  1.0  0.1037
  H  H70  1  0.695200  0.698300  0.220500  1.0  0.1013
  H  H71  1  0.714400  0.837800  0.215800  1.0  0.1401
  H  H72  1  0.172900  0.524900  0.464400  1.0  0.1161
  H  H73  1  0.375800  0.701300  0.927300  1.0  0.1101
  H  H74  1  0.241000  0.758000  0.946000  1.0  0.0997
  H  H75  1  0.238800  0.606600  0.943100  1.0  0.1009
  H  H76  1  0.255400  0.569600  0.907200  1.0  0.1074
  H  H77  1  0.479500  0.676500  0.946300  1.0  0.1114
  H  H78  1  0.013500  0.043000  0.717300  1.0  0.119
  H  H79  1  0.901000  0.192300  0.665700  1.0  0.1244
  H  H80  1  0.506900  0.555400  0.968100  1.0  0.1111
  H  H81  1  0.335000  0.428900  0.016400  1.0  0.0987
  H  H82  1  0.822500  0.916200  0.701800  1.0  0.1213
  H  H83  1  0.777100  0.967200  0.677800  1.0  0.105
  H  H84  1  0.669600  0.964000  0.714600  1.0  0.1218
  H  H85  1  0.282900  0.666300  0.856400  1.0  0.1296
  H  H86  1  0.794800  0.269400  0.637000  1.0  0.0873
  H  H87  1  0.147300  0.464600  0.026000  1.0  0.1055
  H  H88  1  0.797900  0.119500  0.634000  1.0  0.1327
  H  H89  1  0.756600  0.076900  0.661900  1.0  0.1078
  H  H90  1  0.330100  0.406900  0.946300  1.0  0.1073
  H  H91  1  0.277600  0.460200  0.928400  1.0  0.0931
  H  H92  1  0.429100  0.459700  0.969000  1.0  0.111
  H  H93  1  0.273400  0.804200  0.849100  1.0  0.0972
  H  H94  1  0.926900  0.960400  0.720400  1.0  0.1059
  H  H95  1  0.831900  0.024800  0.763300  1.0  0.1008
  H  H96  1  0.999900  0.157000  0.688200  1.0  0.1027
  H  H97  1  0.642700  0.007200  0.773700  1.0  0.1038
  H  H98  1  0.695200  0.301700  0.720500  1.0  0.1009
  H  H99  1  0.714400  0.162200  0.715800  1.0  0.1431
  H  H100  1  0.172900  0.475100  0.964400  1.0  0.1162
  H  H101  1  0.124200  0.201300  0.072700  1.0  0.1096
  H  H102  1  0.259000  0.258000  0.054000  1.0  0.0996
  H  H103  1  0.261200  0.106600  0.056900  1.0  0.1001
  H  H104  1  0.244600  0.069600  0.092800  1.0  0.1069
  H  H105  1  0.020500  0.176500  0.053700  1.0  0.113
  H  H106  1  0.486500  0.543000  0.282700  1.0  0.1185
  H  H107  1  0.599000  0.692300  0.334300  1.0  0.1244
  H  H108  1  0.993100  0.055400  0.031900  1.0  0.1113
  H  H109  1  0.165000  0.928900  0.983600  1.0  0.0979
  H  H110  1  0.677500  0.416200  0.298200  1.0  0.1201
  H  H111  1  0.722900  0.467200  0.322200  1.0  0.106
  H  H112  1  0.830400  0.464000  0.285400  1.0  0.1218
  H  H113  1  0.217100  0.166300  0.143600  1.0  0.1296
  H  H114  1  0.705200  0.769400  0.363000  1.0  0.0876
  H  H115  1  0.352700  0.964600  0.974000  1.0  0.1057
  H  H116  1  0.702100  0.619500  0.366000  1.0  0.1321
  H  H117  1  0.743400  0.576900  0.338100  1.0  0.1065
  H  H118  1  0.169900  0.906900  0.053700  1.0  0.1084
  H  H119  1  0.222400  0.960200  0.071600  1.0  0.0932
  H  H120  1  0.070900  0.959700  0.031000  1.0  0.1109
  H  H121  1  0.226600  0.304200  0.150900  1.0  0.0985
  H  H122  1  0.573100  0.460400  0.279600  1.0  0.1054
  H  H123  1  0.668100  0.524800  0.236700  1.0  0.1002
  H  H124  1  0.500100  0.657000  0.311800  1.0  0.1029
  H  H125  1  0.857300  0.507200  0.226300  1.0  0.1033
  H  H126  1  0.804800  0.801700  0.279500  1.0  0.1005
  H  H127  1  0.785600  0.662200  0.284200  1.0  0.1431
  H  H128  1  0.327100  0.975100  0.035600  1.0  0.1165
  H  H129  1  0.624200  0.298700  0.072700  1.0  0.1093
  H  H130  1  0.759000  0.242000  0.054000  1.0  0.0995
  H  H131  1  0.761200  0.393400  0.056900  1.0  0.1003
  H  H132  1  0.744600  0.430400  0.092800  1.0  0.1063
  H  H133  1  0.520500  0.323500  0.053700  1.0  0.1118
  H  H134  1  0.986500  0.957000  0.282700  1.0  0.1187
  H  H135  1  0.099000  0.807700  0.334300  1.0  0.1242
  H  H136  1  0.493100  0.444600  0.031900  1.0  0.1112
  H  H137  1  0.665000  0.571100  0.983600  1.0  0.0979
  H  H138  1  0.177500  0.083800  0.298200  1.0  0.1222
  H  H139  1  0.222900  0.032800  0.322200  1.0  0.1053
  H  H140  1  0.330400  0.036000  0.285400  1.0  0.1214
  H  H141  1  0.717100  0.333700  0.143600  1.0  0.1292
  H  H142  1  0.205200  0.730600  0.363000  1.0  0.0876
  H  H143  1  0.852700  0.535400  0.974000  1.0  0.1056
  H  H144  1  0.202100  0.880500  0.366000  1.0  0.1323
  H  H145  1  0.243400  0.923100  0.338100  1.0  0.1059
  H  H146  1  0.669900  0.593100  0.053700  1.0  0.1109
  H  H147  1  0.722400  0.539800  0.071600  1.0  0.0926
  H  H148  1  0.570900  0.540300  0.031000  1.0  0.1111
  H  H149  1  0.726600  0.195800  0.150900  1.0  0.0986
  H  H150  1  0.073100  0.039600  0.279600  1.0  0.1054
  H  H151  1  0.168100  0.975200  0.236700  1.0  0.1003
  H  H152  1  0.000100  0.843000  0.311800  1.0  0.1019
  H  H153  1  0.357300  0.992800  0.226300  1.0  0.1035
  H  H154  1  0.304800  0.698300  0.279500  1.0  0.101
  H  H155  1  0.285600  0.837800  0.284200  1.0  0.1396
  H  H156  1  0.827100  0.524900  0.035600  1.0  0.1168
  H  H157  1  0.875800  0.798700  0.927300  1.0  0.1099
  H  H158  1  0.741000  0.742000  0.946000  1.0  0.1
  H  H159  1  0.738800  0.893400  0.943100  1.0  0.1016
  H  H160  1  0.755400  0.930400  0.907200  1.0  0.1075
  H  H161  1  0.979500  0.823500  0.946300  1.0  0.1115
  H  H162  1  0.513500  0.457000  0.717300  1.0  0.119
  H  H163  1  0.401000  0.307700  0.665700  1.0  0.1243
  H  H164  1  0.006900  0.944600  0.968100  1.0  0.1115
  H  H165  1  0.835000  0.071100  0.016400  1.0  0.0983
  H  H166  1  0.322500  0.583800  0.701800  1.0  0.1223
  H  H167  1  0.277100  0.532800  0.677800  1.0  0.1048
  H  H168  1  0.169600  0.536000  0.714600  1.0  0.1221
  H  H169  1  0.782900  0.833700  0.856400  1.0  0.1291
  H  H170  1  0.294800  0.230600  0.637000  1.0  0.0874
  H  H171  1  0.647300  0.035400  0.026000  1.0  0.1057
  H  H172  1  0.297900  0.380500  0.634000  1.0  0.1319
  H  H173  1  0.256600  0.423100  0.661900  1.0  0.1078
  H  H174  1  0.830100  0.093100  0.946300  1.0  0.1111
  H  H175  1  0.777600  0.039800  0.928400  1.0  0.0928
  H  H176  1  0.929100  0.040300  0.969000  1.0  0.1109
  H  H177  1  0.773400  0.695800  0.849100  1.0  0.0977
  H  H178  1  0.426900  0.539600  0.720400  1.0  0.1047
  H  H179  1  0.331900  0.475200  0.763300  1.0  0.1003
  H  H180  1  0.499900  0.343000  0.688200  1.0  0.1025
  H  H181  1  0.142700  0.492800  0.773700  1.0  0.1037
  H  H182  1  0.195200  0.198300  0.720500  1.0  0.1013
  H  H183  1  0.214400  0.337800  0.715800  1.0  0.1401
  H  H184  1  0.672900  0.024900  0.964400  1.0  0.1161
  H  H185  1  0.875800  0.201300  0.427300  1.0  0.1101
  H  H186  1  0.741000  0.258000  0.446000  1.0  0.0997
  H  H187  1  0.738800  0.106600  0.443100  1.0  0.1009
  H  H188  1  0.755400  0.069600  0.407200  1.0  0.1074
  H  H189  1  0.979500  0.176500  0.446300  1.0  0.1114
  H  H190  1  0.513500  0.543000  0.217300  1.0  0.119
  H  H191  1  0.401000  0.692300  0.165700  1.0  0.1244
  H  H192  1  0.006900  0.055400  0.468100  1.0  0.1111
  H  H193  1  0.835000  0.928900  0.516400  1.0  0.0987
  H  H194  1  0.322500  0.416200  0.201800  1.0  0.1213
  H  H195  1  0.277100  0.467200  0.177800  1.0  0.105
  H  H196  1  0.169600  0.464000  0.214600  1.0  0.1218
  H  H197  1  0.782900  0.166300  0.356400  1.0  0.1296
  H  H198  1  0.294800  0.769400  0.137000  1.0  0.0873
  H  H199  1  0.647300  0.964600  0.526000  1.0  0.1055
  H  H200  1  0.297900  0.619500  0.134000  1.0  0.1327
  H  H201  1  0.256600  0.576900  0.161900  1.0  0.1078
  H  H202  1  0.830100  0.906900  0.446300  1.0  0.1073
  H  H203  1  0.777600  0.960200  0.428400  1.0  0.0931
  H  H204  1  0.929100  0.959700  0.469000  1.0  0.111
  H  H205  1  0.773400  0.304200  0.349100  1.0  0.0972
  H  H206  1  0.426900  0.460400  0.220400  1.0  0.1059
  H  H207  1  0.331900  0.524800  0.263300  1.0  0.1008
  H  H208  1  0.499900  0.657000  0.188200  1.0  0.1027
  H  H209  1  0.142700  0.507200  0.273700  1.0  0.1038
  H  H210  1  0.195200  0.801700  0.220500  1.0  0.1009
  H  H211  1  0.214400  0.662200  0.215800  1.0  0.1431
  H  H212  1  0.672900  0.975100  0.464400  1.0  0.1162
  H  H213  1  0.624200  0.701300  0.572700  1.0  0.1096
  H  H214  1  0.759000  0.758000  0.554000  1.0  0.0996
  H  H215  1  0.761200  0.606600  0.556900  1.0  0.1001
  H  H216  1  0.744600  0.569600  0.592800  1.0  0.1069
  H  H217  1  0.520500  0.676500  0.553700  1.0  0.113
  H  H218  1  0.986500  0.043000  0.782700  1.0  0.1185
  H  H219  1  0.099000  0.192300  0.834300  1.0  0.1244
  H  H220  1  0.493100  0.555400  0.531900  1.0  0.1113
  H  H221  1  0.665000  0.428900  0.483600  1.0  0.0979
  H  H222  1  0.177500  0.916200  0.798200  1.0  0.1201
  H  H223  1  0.222900  0.967200  0.822200  1.0  0.106
  H  H224  1  0.330400  0.964000  0.785400  1.0  0.1218
  H  H225  1  0.717100  0.666300  0.643600  1.0  0.1296
  H  H226  1  0.205200  0.269400  0.863000  1.0  0.0876
  H  H227  1  0.852700  0.464600  0.474000  1.0  0.1057
  H  H228  1  0.202100  0.119500  0.866000  1.0  0.1321
  H  H229  1  0.243400  0.076900  0.838100  1.0  0.1065
  H  H230  1  0.669900  0.406900  0.553700  1.0  0.1084
  H  H231  1  0.722400  0.460200  0.571600  1.0  0.0932
  H  H232  1  0.570900  0.459700  0.531000  1.0  0.1109
  H  H233  1  0.726600  0.804200  0.650900  1.0  0.0985
  H  H234  1  0.073100  0.960400  0.779600  1.0  0.1054
  H  H235  1  0.168100  0.024800  0.736700  1.0  0.1002
  H  H236  1  0.000100  0.157000  0.811800  1.0  0.1029
  H  H237  1  0.357300  0.007200  0.726300  1.0  0.1033
  H  H238  1  0.304800  0.301700  0.779500  1.0  0.1005
  H  H239  1  0.285600  0.162200  0.784200  1.0  0.1431
  H  H240  1  0.827100  0.475100  0.535600  1.0  0.1165
  C  C241  1  0.955500  0.552700  0.623700  1.0  0.0829
  C  C242  1  0.113600  0.847500  0.564300  1.0  -0.0716
  C  C243  1  0.047700  0.437000  0.625500  1.0  0.0378
  C  C244  1  0.022000  0.569800  0.623500  1.0  0.0759
  C  C245  1  0.376900  0.553900  0.597800  1.0  0.6831
  C  C246  1  0.981200  0.419500  0.625200  1.0  0.0843
  C  C247  1  0.250200  0.747200  0.577400  1.0  0.1051
  C  C248  1  0.232000  0.890400  0.576400  1.0  -0.1181
  C  C249  1  0.934600  0.477300  0.625200  1.0  -0.14
  C  C250  1  0.052100  0.862100  0.552900  1.0  -0.103
  C  C251  1  0.538200  0.561100  0.649000  1.0  -1e-04
  C  C252  1  0.475600  0.578900  0.636000  1.0  -0.0004
  C  C253  1  0.472900  0.461100  0.605100  1.0  -0.0216
  C  C254  1  0.632500  0.467300  0.655400  1.0  0.6759
  C  C255  1  0.639800  0.475500  0.806000  1.0  0.0631
  C  C256  1  0.568000  0.492000  0.639900  1.0  -0.0664
  C  C257  1  0.526800  0.444300  0.792800  1.0  -0.1063
  C  C258  1  0.594000  0.355600  0.823800  1.0  -0.178
  C  C259  1  0.068700  0.512100  0.624400  1.0  -0.1294
  C  C260  1  0.035500  0.934800  0.540100  1.0  -0.1089
  C  C261  1  0.442300  0.530700  0.614000  1.0  -0.0405
  C  C262  1  0.144300  0.978600  0.551600  1.0  0.0619
  C  C263  1  0.208800  0.061000  0.488700  1.0  0.1238
  C  C264  1  0.162000  0.905000  0.563700  1.0  0.0267
  C  C265  1  0.695400  0.532300  0.801500  1.0  -0.0581
  C  C266  1  0.141400  0.531200  0.623900  1.0  0.678
  C  C267  1  0.534400  0.443700  0.618000  1.0  -0.0191
  C  C268  1  0.801000  0.518500  0.768500  1.0  -0.1694
  C  C269  1  0.227100  0.798300  0.626400  1.0  -0.1454
  C  C270  1  0.728200  0.239700  0.842900  1.0  0.1551
  C  C271  1  0.311500  0.041800  0.483400  1.0  0.0019
  C  C272  1  0.710500  0.383500  0.841500  1.0  -0.0787
  C  C273  1  0.193300  0.044700  0.551600  1.0  -0.0843
  C  C274  1  0.082000  0.991800  0.539600  1.0  -0.0898
  C  C275  1  0.232200  0.722300  0.630300  1.0  0.0092
  C  C276  1  0.647500  0.406900  0.822300  1.0  0.0822
  C  C277  1  0.578500  0.492900  0.791100  1.0  -0.094
  C  C278  1  0.712100  0.485100  0.741400  1.0  0.1345
  C  C279  1  0.535500  0.376300  0.809800  1.0  -0.0916
  C  C280  1  0.815600  0.494700  0.735600  1.0  -0.0128
  C  C281  1  0.861100  0.457600  0.626600  1.0  0.6983
  C  C282  1  0.782500  0.222400  0.797200  1.0  0.0139
  C  C283  1  0.772000  0.299700  0.799400  1.0  -0.131
  C  C284  1  0.297500  0.035200  0.517700  1.0  -0.1709
  C  C285  1  0.544500  0.052700  0.376300  1.0  0.0833
  C  C286  1  0.386400  0.347500  0.435700  1.0  -0.0706
  C  C287  1  0.452300  0.937000  0.374500  1.0  0.0361
  C  C288  1  0.478000  0.069800  0.376500  1.0  0.0763
  C  C289  1  0.123100  0.053900  0.402200  1.0  0.6839
  C  C290  1  0.518800  0.919500  0.374800  1.0  0.0845
  C  C291  1  0.249800  0.247200  0.422600  1.0  0.1049
  C  C292  1  0.268000  0.390400  0.423600  1.0  -0.1181
  C  C293  1  0.565400  0.977300  0.374800  1.0  -0.1403
  C  C294  1  0.447900  0.362100  0.447100  1.0  -0.1048
  C  C295  1  0.961800  0.061100  0.351000  1.0  0.0009
  C  C296  1  0.024400  0.078900  0.364000  1.0  0.0006
  C  C297  1  0.027100  0.961100  0.394900  1.0  -0.0214
  C  C298  1  0.867500  0.967300  0.344600  1.0  0.6744
  C  C299  1  0.860200  0.975500  0.194000  1.0  0.0634
  C  C300  1  0.932000  0.992000  0.360100  1.0  -0.0656
  C  C301  1  0.973200  0.944300  0.207200  1.0  -0.1054
  C  C302  1  0.906000  0.855600  0.176200  1.0  -0.1789
  C  C303  1  0.431300  0.012100  0.375600  1.0  -0.1299
  C  C304  1  0.464500  0.434800  0.459900  1.0  -0.1085
  C  C305  1  0.057700  0.030700  0.386000  1.0  -0.0409
  C  C306  1  0.355700  0.478600  0.448400  1.0  0.0626
  C  C307  1  0.291200  0.561000  0.511300  1.0  0.1244
  C  C308  1  0.338000  0.405000  0.436300  1.0  0.0281
  C  C309  1  0.804600  0.032300  0.198500  1.0  -0.0564
  C  C310  1  0.358600  0.031200  0.376100  1.0  0.6793
  C  C311  1  0.965600  0.943700  0.382000  1.0  -0.019
  C  C312  1  0.699000  0.018500  0.231500  1.0  -0.1708
  C  C313  1  0.272900  0.298300  0.373600  1.0  -0.1468
  C  C314  1  0.771800  0.739700  0.157100  1.0  0.1545
  C  C315  1  0.188500  0.541800  0.516600  1.0  0.0029
  C  C316  1  0.789500  0.883500  0.158500  1.0  -0.0777
  C  C317  1  0.306700  0.544700  0.448400  1.0  -0.0835
  C  C318  1  0.418000  0.491800  0.460400  1.0  -0.0903
  C  C319  1  0.267800  0.222300  0.369700  1.0  0.0082
  C  C320  1  0.852500  0.906900  0.177700  1.0  0.0816
  C  C321  1  0.921500  0.992900  0.208900  1.0  -0.0945
  C  C322  1  0.787900  0.985100  0.258600  1.0  0.1359
  C  C323  1  0.964500  0.876300  0.190200  1.0  -0.0911
  C  C324  1  0.684400  0.994700  0.264400  1.0  -0.014
  C  C325  1  0.638900  0.957600  0.373400  1.0  0.6972
  C  C326  1  0.717500  0.722400  0.202800  1.0  0.0146
  C  C327  1  0.728000  0.799700  0.200600  1.0  -0.1315
  C  C328  1  0.202500  0.535200  0.482300  1.0  -0.171
  C  C329  1  0.544500  0.947300  0.876300  1.0  0.0834
  C  C330  1  0.386400  0.652500  0.935700  1.0  -0.0691
  C  C331  1  0.452300  0.063000  0.874500  1.0  0.0366
  C  C332  1  0.478000  0.930200  0.876500  1.0  0.0756
  C  C333  1  0.123100  0.946100  0.902200  1.0  0.6843
  C  C334  1  0.518800  0.080500  0.874800  1.0  0.0839
  C  C335  1  0.249800  0.752800  0.922600  1.0  0.1033
  C  C336  1  0.268000  0.609600  0.923600  1.0  -0.118
  C  C337  1  0.565400  0.022700  0.874800  1.0  -0.1402
  C  C338  1  0.447900  0.637900  0.947100  1.0  -0.102
  C  C339  1  0.961800  0.938900  0.851000  1.0  -0.0002
  C  C340  1  0.024400  0.921100  0.864000  1.0  -0.0039
  C  C341  1  0.027100  0.038900  0.894900  1.0  -0.0211
  C  C342  1  0.867500  0.032700  0.844600  1.0  0.674
  C  C343  1  0.860200  0.024500  0.694000  1.0  0.0632
  C  C344  1  0.932000  0.008000  0.860100  1.0  -0.0656
  C  C345  1  0.973200  0.055700  0.707200  1.0  -0.1057
  C  C346  1  0.906000  0.144400  0.676200  1.0  -0.177
  C  C347  1  0.431300  0.987900  0.875600  1.0  -0.1297
  C  C348  1  0.464500  0.565200  0.959900  1.0  -0.108
  C  C349  1  0.057700  0.969300  0.886000  1.0  -0.041
  C  C350  1  0.355700  0.521400  0.948400  1.0  0.0622
  C  C351  1  0.291200  0.439000  0.011300  1.0  0.1248
  C  C352  1  0.338000  0.595000  0.936300  1.0  0.0279
  C  C353  1  0.804600  0.967700  0.698500  1.0  -0.0546
  C  C354  1  0.358600  0.968800  0.876100  1.0  0.679
  C  C355  1  0.965600  0.056300  0.882000  1.0  -0.0188
  C  C356  1  0.699000  0.981500  0.731500  1.0  -0.1712
  C  C357  1  0.272900  0.701700  0.873600  1.0  -0.1477
  C  C358  1  0.771800  0.260300  0.657100  1.0  0.1547
  C  C359  1  0.188500  0.458200  0.016600  1.0  0.0028
  C  C360  1  0.789500  0.116500  0.658500  1.0  -0.0758
  C  C361  1  0.306700  0.455300  0.948400  1.0  -0.0829
  C  C362  1  0.418000  0.508200  0.960400  1.0  -0.0902
  C  C363  1  0.267800  0.777700  0.869700  1.0  0.0083
  C  C364  1  0.852500  0.093100  0.677700  1.0  0.0813
  C  C365  1  0.921500  0.007100  0.708900  1.0  -0.0951
  C  C366  1  0.787900  0.014900  0.758600  1.0  0.1358
  C  C367  1  0.964500  0.123700  0.690200  1.0  -0.0883
  C  C368  1  0.684400  0.005300  0.764400  1.0  -0.0134
  C  C369  1  0.638900  0.042400  0.873400  1.0  0.6974
  C  C370  1  0.717500  0.277600  0.702800  1.0  0.0149
  C  C371  1  0.728000  0.200300  0.700600  1.0  -0.133
  C  C372  1  0.202500  0.464800  0.982300  1.0  -0.171
  C  C373  1  0.955500  0.447300  0.123700  1.0  0.0825
  C  C374  1  0.113600  0.152500  0.064300  1.0  -0.0689
  C  C375  1  0.047700  0.563000  0.125500  1.0  0.0365
  C  C376  1  0.022000  0.430200  0.123500  1.0  0.0747
  C  C377  1  0.376900  0.446100  0.097800  1.0  0.6834
  C  C378  1  0.981200  0.580500  0.125200  1.0  0.084
  C  C379  1  0.250200  0.252800  0.077400  1.0  0.1049
  C  C380  1  0.232000  0.109600  0.076400  1.0  -0.1172
  C  C381  1  0.934600  0.522700  0.125200  1.0  -0.1399
  C  C382  1  0.052100  0.137900  0.052900  1.0  -0.1021
  C  C383  1  0.538200  0.438900  0.149000  1.0  1e-04
  C  C384  1  0.475600  0.421100  0.136000  1.0  -0.0051
  C  C385  1  0.472900  0.538900  0.105100  1.0  -0.0194
  C  C386  1  0.632500  0.532700  0.155400  1.0  0.6757
  C  C387  1  0.639800  0.524500  0.306000  1.0  0.0629
  C  C388  1  0.568000  0.508000  0.139900  1.0  -0.0663
  C  C389  1  0.526800  0.555700  0.292800  1.0  -0.1066
  C  C390  1  0.594000  0.644400  0.323800  1.0  -0.1759
  C  C391  1  0.068700  0.487900  0.124400  1.0  -0.1292
  C  C392  1  0.035500  0.065200  0.040100  1.0  -0.109
  C  C393  1  0.442300  0.469300  0.114000  1.0  -0.0408
  C  C394  1  0.144300  0.021400  0.051600  1.0  0.0616
  C  C395  1  0.208800  0.939000  0.988700  1.0  0.1229
  C  C396  1  0.162000  0.095000  0.063700  1.0  0.0268
  C  C397  1  0.695400  0.467700  0.301500  1.0  -0.0565
  C  C398  1  0.141400  0.468800  0.123900  1.0  0.6779
  C  C399  1  0.534400  0.556300  0.118000  1.0  -0.0181
  C  C400  1  0.801000  0.481500  0.268500  1.0  -0.17
  C  C401  1  0.227100  0.201700  0.126400  1.0  -0.1461
  C  C402  1  0.728200  0.760300  0.342900  1.0  0.1539
  C  C403  1  0.311500  0.958200  0.983400  1.0  0.0022
  C  C404  1  0.710500  0.616500  0.341500  1.0  -0.0781
  C  C405  1  0.193300  0.955300  0.051600  1.0  -0.084
  C  C406  1  0.082000  0.008200  0.039600  1.0  -0.0903
  C  C407  1  0.232200  0.277700  0.130300  1.0  0.0091
  C  C408  1  0.647500  0.593100  0.322300  1.0  0.0817
  C  C409  1  0.578500  0.507100  0.291100  1.0  -0.0941
  C  C410  1  0.712100  0.514900  0.241400  1.0  0.1342
  C  C411  1  0.535500  0.623700  0.309800  1.0  -0.0906
  C  C412  1  0.815600  0.505300  0.235600  1.0  -0.013
  C  C413  1  0.861100  0.542400  0.126600  1.0  0.6988
  C  C414  1  0.782500  0.777600  0.297200  1.0  0.0144
  C  C415  1  0.772000  0.700300  0.299400  1.0  -0.1316
  C  C416  1  0.297500  0.964800  0.017700  1.0  -0.1711
  C  C417  1  0.455500  0.052700  0.123700  1.0  0.0829
  C  C418  1  0.613600  0.347500  0.064300  1.0  -0.0716
  C  C419  1  0.547700  0.937000  0.125500  1.0  0.0378
  C  C420  1  0.522000  0.069800  0.123500  1.0  0.0759
  C  C421  1  0.876900  0.053900  0.097800  1.0  0.6831
  C  C422  1  0.481200  0.919500  0.125200  1.0  0.0843
  C  C423  1  0.750200  0.247200  0.077400  1.0  0.1051
  C  C424  1  0.732000  0.390400  0.076400  1.0  -0.1181
  C  C425  1  0.434600  0.977300  0.125200  1.0  -0.14
  C  C426  1  0.552100  0.362100  0.052900  1.0  -0.103
  C  C427  1  0.038200  0.061100  0.149000  1.0  -1e-04
  C  C428  1  0.975600  0.078900  0.136000  1.0  -0.0004
  C  C429  1  0.972900  0.961100  0.105100  1.0  -0.0216
  C  C430  1  0.132500  0.967300  0.155400  1.0  0.6759
  C  C431  1  0.139800  0.975500  0.306000  1.0  0.0631
  C  C432  1  0.068000  0.992000  0.139900  1.0  -0.0664
  C  C433  1  0.026800  0.944300  0.292800  1.0  -0.1063
  C  C434  1  0.094000  0.855600  0.323800  1.0  -0.178
  C  C435  1  0.568700  0.012100  0.124400  1.0  -0.1294
  C  C436  1  0.535500  0.434800  0.040100  1.0  -0.1089
  C  C437  1  0.942300  0.030700  0.114000  1.0  -0.0405
  C  C438  1  0.644300  0.478600  0.051600  1.0  0.0619
  C  C439  1  0.708800  0.561000  0.988700  1.0  0.1238
  C  C440  1  0.662000  0.405000  0.063700  1.0  0.0267
  C  C441  1  0.195400  0.032300  0.301500  1.0  -0.0581
  C  C442  1  0.641400  0.031200  0.123900  1.0  0.678
  C  C443  1  0.034400  0.943700  0.118000  1.0  -0.0191
  C  C444  1  0.301000  0.018500  0.268500  1.0  -0.1694
  C  C445  1  0.727100  0.298300  0.126400  1.0  -0.1454
  C  C446  1  0.228200  0.739700  0.342900  1.0  0.1551
  C  C447  1  0.811500  0.541800  0.983400  1.0  0.0019
  C  C448  1  0.210500  0.883500  0.341500  1.0  -0.0787
  C  C449  1  0.693300  0.544700  0.051600  1.0  -0.0843
  C  C450  1  0.582000  0.491800  0.039600  1.0  -0.0898
  C  C451  1  0.732200  0.222300  0.130300  1.0  0.0092
  C  C452  1  0.147500  0.906900  0.322300  1.0  0.0822
  C  C453  1  0.078500  0.992900  0.291100  1.0  -0.094
  C  C454  1  0.212100  0.985100  0.241400  1.0  0.1345
  C  C455  1  0.035500  0.876300  0.309800  1.0  -0.0916
  C  C456  1  0.315600  0.994700  0.235600  1.0  -0.0128
  C  C457  1  0.361100  0.957600  0.126600  1.0  0.6983
  C  C458  1  0.282500  0.722400  0.297200  1.0  0.0139
  C  C459  1  0.272000  0.799700  0.299400  1.0  -0.131
  C  C460  1  0.797500  0.535200  0.017700  1.0  -0.1709
  C  C461  1  0.044500  0.552700  0.876300  1.0  0.0833
  C  C462  1  0.886400  0.847500  0.935700  1.0  -0.0706
  C  C463  1  0.952300  0.437000  0.874500  1.0  0.0361
  C  C464  1  0.978000  0.569800  0.876500  1.0  0.0763
  C  C465  1  0.623100  0.553900  0.902200  1.0  0.6839
  C  C466  1  0.018800  0.419500  0.874800  1.0  0.0845
  C  C467  1  0.749800  0.747200  0.922600  1.0  0.1049
  C  C468  1  0.768000  0.890400  0.923600  1.0  -0.1181
  C  C469  1  0.065400  0.477300  0.874800  1.0  -0.1403
  C  C470  1  0.947900  0.862100  0.947100  1.0  -0.1048
  C  C471  1  0.461800  0.561100  0.851000  1.0  0.0009
  C  C472  1  0.524400  0.578900  0.864000  1.0  0.0006
  C  C473  1  0.527100  0.461100  0.894900  1.0  -0.0214
  C  C474  1  0.367500  0.467300  0.844600  1.0  0.6744
  C  C475  1  0.360200  0.475500  0.694000  1.0  0.0634
  C  C476  1  0.432000  0.492000  0.860100  1.0  -0.0656
  C  C477  1  0.473200  0.444300  0.707200  1.0  -0.1054
  C  C478  1  0.406000  0.355600  0.676200  1.0  -0.1789
  C  C479  1  0.931300  0.512100  0.875600  1.0  -0.1299
  C  C480  1  0.964500  0.934800  0.959900  1.0  -0.1085
  C  C481  1  0.557700  0.530700  0.886000  1.0  -0.0409
  C  C482  1  0.855700  0.978600  0.948400  1.0  0.0626
  C  C483  1  0.791200  0.061000  0.011300  1.0  0.1244
  C  C484  1  0.838000  0.905000  0.936300  1.0  0.0281
  C  C485  1  0.304600  0.532300  0.698500  1.0  -0.0564
  C  C486  1  0.858600  0.531200  0.876100  1.0  0.6793
  C  C487  1  0.465600  0.443700  0.882000  1.0  -0.019
  C  C488  1  0.199000  0.518500  0.731500  1.0  -0.1708
  C  C489  1  0.772900  0.798300  0.873600  1.0  -0.1468
  C  C490  1  0.271800  0.239700  0.657100  1.0  0.1545
  C  C491  1  0.688500  0.041800  0.016600  1.0  0.0029
  C  C492  1  0.289500  0.383500  0.658500  1.0  -0.0777
  C  C493  1  0.806700  0.044700  0.948400  1.0  -0.0835
  C  C494  1  0.918000  0.991800  0.960400  1.0  -0.0903
  C  C495  1  0.767800  0.722300  0.869700  1.0  0.0082
  C  C496  1  0.352500  0.406900  0.677700  1.0  0.0816
  C  C497  1  0.421500  0.492900  0.708900  1.0  -0.0945
  C  C498  1  0.287900  0.485100  0.758600  1.0  0.1359
  C  C499  1  0.464500  0.376300  0.690200  1.0  -0.0911
  C  C500  1  0.184400  0.494700  0.764400  1.0  -0.014
  C  C501  1  0.138900  0.457600  0.873400  1.0  0.6972
  C  C502  1  0.217500  0.222400  0.702800  1.0  0.0146
  C  C503  1  0.228000  0.299700  0.700600  1.0  -0.1315
  C  C504  1  0.702500  0.035200  0.982300  1.0  -0.171
  C  C505  1  0.044500  0.447300  0.376300  1.0  0.0834
  C  C506  1  0.886400  0.152500  0.435700  1.0  -0.0691
  C  C507  1  0.952300  0.563000  0.374500  1.0  0.0366
  C  C508  1  0.978000  0.430200  0.376500  1.0  0.0756
  C  C509  1  0.623100  0.446100  0.402200  1.0  0.6843
  C  C510  1  0.018800  0.580500  0.374800  1.0  0.0839
  C  C511  1  0.749800  0.252800  0.422600  1.0  0.1033
  C  C512  1  0.768000  0.109600  0.423600  1.0  -0.118
  C  C513  1  0.065400  0.522700  0.374800  1.0  -0.1402
  C  C514  1  0.947900  0.137900  0.447100  1.0  -0.102
  C  C515  1  0.461800  0.438900  0.351000  1.0  -0.0002
  C  C516  1  0.524400  0.421100  0.364000  1.0  -0.0039
  C  C517  1  0.527100  0.538900  0.394900  1.0  -0.0211
  C  C518  1  0.367500  0.532700  0.344600  1.0  0.674
  C  C519  1  0.360200  0.524500  0.194000  1.0  0.0632
  C  C520  1  0.432000  0.508000  0.360100  1.0  -0.0656
  C  C521  1  0.473200  0.555700  0.207200  1.0  -0.1057
  C  C522  1  0.406000  0.644400  0.176200  1.0  -0.177
  C  C523  1  0.931300  0.487900  0.375600  1.0  -0.1297
  C  C524  1  0.964500  0.065200  0.459900  1.0  -0.108
  C  C525  1  0.557700  0.469300  0.386000  1.0  -0.041
  C  C526  1  0.855700  0.021400  0.448400  1.0  0.0622
  C  C527  1  0.791200  0.939000  0.511300  1.0  0.1248
  C  C528  1  0.838000  0.095000  0.436300  1.0  0.0279
  C  C529  1  0.304600  0.467700  0.198500  1.0  -0.0546
  C  C530  1  0.858600  0.468800  0.376100  1.0  0.679
  C  C531  1  0.465600  0.556300  0.382000  1.0  -0.0188
  C  C532  1  0.199000  0.481500  0.231500  1.0  -0.1712
  C  C533  1  0.772900  0.201700  0.373600  1.0  -0.1477
  C  C534  1  0.271800  0.760300  0.157100  1.0  0.1547
  C  C535  1  0.688500  0.958200  0.516600  1.0  0.0028
  C  C536  1  0.289500  0.616500  0.158500  1.0  -0.0758
  C  C537  1  0.806700  0.955300  0.448400  1.0  -0.0829
  C  C538  1  0.918000  0.008200  0.460400  1.0  -0.0902
  C  C539  1  0.767800  0.277700  0.369700  1.0  0.0083
  C  C540  1  0.352500  0.593100  0.177700  1.0  0.0813
  C  C541  1  0.421500  0.507100  0.208900  1.0  -0.0951
  C  C542  1  0.287900  0.514900  0.258600  1.0  0.1358
  C  C543  1  0.464500  0.623700  0.190200  1.0  -0.0883
  C  C544  1  0.184400  0.505300  0.264400  1.0  -0.0134
  C  C545  1  0.138900  0.542400  0.373400  1.0  0.6974
  C  C546  1  0.217500  0.777600  0.202800  1.0  0.0149
  C  C547  1  0.228000  0.700300  0.200600  1.0  -0.133
  C  C548  1  0.702500  0.964800  0.482300  1.0  -0.171
  C  C549  1  0.455500  0.947300  0.623700  1.0  0.0825
  C  C550  1  0.613600  0.652500  0.564300  1.0  -0.0689
  C  C551  1  0.547700  0.063000  0.625500  1.0  0.0365
  C  C552  1  0.522000  0.930200  0.623500  1.0  0.0747
  C  C553  1  0.876900  0.946100  0.597800  1.0  0.6834
  C  C554  1  0.481200  0.080500  0.625200  1.0  0.084
  C  C555  1  0.750200  0.752800  0.577400  1.0  0.1049
  C  C556  1  0.732000  0.609600  0.576400  1.0  -0.1172
  C  C557  1  0.434600  0.022700  0.625200  1.0  -0.1399
  C  C558  1  0.552100  0.637900  0.552900  1.0  -0.1021
  C  C559  1  0.038200  0.938900  0.649000  1.0  1e-04
  C  C560  1  0.975600  0.921100  0.636000  1.0  -0.0051
  C  C561  1  0.972900  0.038900  0.605100  1.0  -0.0194
  C  C562  1  0.132500  0.032700  0.655400  1.0  0.6757
  C  C563  1  0.139800  0.024500  0.806000  1.0  0.0629
  C  C564  1  0.068000  0.008000  0.639900  1.0  -0.0663
  C  C565  1  0.026800  0.055700  0.792800  1.0  -0.1066
  C  C566  1  0.094000  0.144400  0.823800  1.0  -0.1759
  C  C567  1  0.568700  0.987900  0.624400  1.0  -0.1292
  C  C568  1  0.535500  0.565200  0.540100  1.0  -0.109
  C  C569  1  0.942300  0.969300  0.614000  1.0  -0.0408
  C  C570  1  0.644300  0.521400  0.551600  1.0  0.0616
  C  C571  1  0.708800  0.439000  0.488700  1.0  0.1229
  C  C572  1  0.662000  0.595000  0.563700  1.0  0.0268
  C  C573  1  0.195400  0.967700  0.801500  1.0  -0.0565
  C  C574  1  0.641400  0.968800  0.623900  1.0  0.6779
  C  C575  1  0.034400  0.056300  0.618000  1.0  -0.0181
  C  C576  1  0.301000  0.981500  0.768500  1.0  -0.17
  C  C577  1  0.727100  0.701700  0.626400  1.0  -0.1461
  C  C578  1  0.228200  0.260300  0.842900  1.0  0.1539
  C  C579  1  0.811500  0.458200  0.483400  1.0  0.0022
  C  C580  1  0.210500  0.116500  0.841500  1.0  -0.0781
  C  C581  1  0.693300  0.455300  0.551600  1.0  -0.084
  C  C582  1  0.582000  0.508200  0.539600  1.0  -0.0903
  C  C583  1  0.732200  0.777700  0.630300  1.0  0.0091
  C  C584  1  0.147500  0.093100  0.822300  1.0  0.0817
  C  C585  1  0.078500  0.007100  0.791100  1.0  -0.0941
  C  C586  1  0.212100  0.014900  0.741400  1.0  0.1342
  C  C587  1  0.035500  0.123700  0.809800  1.0  -0.0906
  C  C588  1  0.315600  0.005300  0.735600  1.0  -0.013
  C  C589  1  0.361100  0.042400  0.626600  1.0  0.6988
  C  C590  1  0.282500  0.277600  0.797200  1.0  0.0144
  C  C591  1  0.272000  0.200300  0.799400  1.0  -0.1316
  C  C592  1  0.797500  0.464800  0.517700  1.0  -0.1711
  Br  Br593  1  0.573160  0.346900  0.607090  1.0  -0.0833
  Br  Br594  1  0.432980  0.670640  0.649850  1.0  -0.1111
  Br  Br595  1  0.582350  0.626210  0.680450  1.0  -0.0499
  Br  Br596  1  0.952960  0.315620  0.623780  1.0  -0.0853
  Br  Br597  1  0.050930  0.673330  0.621290  1.0  -0.0503
  Br  Br598  1  0.111610  0.358490  0.627520  1.0  -0.0517
  Br  Br599  1  0.891410  0.630800  0.624410  1.0  -0.0544
  Br  Br600  1  0.425800  0.393260  0.575550  1.0  -0.063
  Br  Br601  1  0.926840  0.846900  0.392910  1.0  -0.0819
  Br  Br602  1  0.067020  0.170640  0.350150  1.0  -0.1099
  Br  Br603  1  0.917650  0.126210  0.319550  1.0  -0.0506
  Br  Br604  1  0.547040  0.815620  0.376220  1.0  -0.0844
  Br  Br605  1  0.449070  0.173330  0.378710  1.0  -0.0506
  Br  Br606  1  0.388390  0.858490  0.372480  1.0  -0.054
  Br  Br607  1  0.608590  0.130800  0.375590  1.0  -0.0535
  Br  Br608  1  0.074200  0.893260  0.424450  1.0  -0.0643
  Br  Br609  1  0.926840  0.153100  0.892910  1.0  -0.0789
  Br  Br610  1  0.067020  0.829360  0.850150  1.0  -0.1098
  Br  Br611  1  0.917650  0.873790  0.819550  1.0  -0.0499
  Br  Br612  1  0.547040  0.184380  0.876220  1.0  -0.0851
  Br  Br613  1  0.449070  0.826670  0.878710  1.0  -0.0499
  Br  Br614  1  0.388390  0.141510  0.872480  1.0  -0.0526
  Br  Br615  1  0.608590  0.869200  0.875590  1.0  -0.052
  Br  Br616  1  0.074200  0.106740  0.924450  1.0  -0.0617
  Br  Br617  1  0.573160  0.653100  0.107090  1.0  -0.0809
  Br  Br618  1  0.432980  0.329360  0.149850  1.0  -0.1116
  Br  Br619  1  0.582350  0.373790  0.180450  1.0  -0.0507
  Br  Br620  1  0.952960  0.684380  0.123780  1.0  -0.0857
  Br  Br621  1  0.050930  0.326670  0.121290  1.0  -0.0496
  Br  Br622  1  0.111610  0.641510  0.127520  1.0  -0.0511
  Br  Br623  1  0.891410  0.369200  0.124410  1.0  -0.0537
  Br  Br624  1  0.425800  0.606740  0.075550  1.0  -0.0641
  Br  Br625  1  0.073160  0.846900  0.107090  1.0  -0.0833
  Br  Br626  1  0.932980  0.170640  0.149850  1.0  -0.1111
  Br  Br627  1  0.082350  0.126210  0.180450  1.0  -0.0499
  Br  Br628  1  0.452960  0.815620  0.123780  1.0  -0.0853
  Br  Br629  1  0.550930  0.173330  0.121290  1.0  -0.0503
  Br  Br630  1  0.611610  0.858490  0.127520  1.0  -0.0517
  Br  Br631  1  0.391410  0.130800  0.124410  1.0  -0.0544
  Br  Br632  1  0.925800  0.893260  0.075550  1.0  -0.063
  Br  Br633  1  0.426840  0.346900  0.892910  1.0  -0.0819
  Br  Br634  1  0.567020  0.670640  0.850150  1.0  -0.1099
  Br  Br635  1  0.417650  0.626210  0.819550  1.0  -0.0506
  Br  Br636  1  0.047040  0.315620  0.876220  1.0  -0.0844
  Br  Br637  1  0.949070  0.673330  0.878710  1.0  -0.0506
  Br  Br638  1  0.888390  0.358490  0.872480  1.0  -0.054
  Br  Br639  1  0.108590  0.630800  0.875590  1.0  -0.0535
  Br  Br640  1  0.574200  0.393260  0.924450  1.0  -0.0643
  Br  Br641  1  0.426840  0.653100  0.392910  1.0  -0.0789
  Br  Br642  1  0.567020  0.329360  0.350150  1.0  -0.1098
  Br  Br643  1  0.417650  0.373790  0.319550  1.0  -0.0499
  Br  Br644  1  0.047040  0.684380  0.376220  1.0  -0.0851
  Br  Br645  1  0.949070  0.326670  0.378710  1.0  -0.0499
  Br  Br646  1  0.888390  0.641510  0.372480  1.0  -0.0526
  Br  Br647  1  0.108590  0.369200  0.375590  1.0  -0.052
  Br  Br648  1  0.574200  0.606740  0.424450  1.0  -0.0617
  Br  Br649  1  0.073160  0.153100  0.607090  1.0  -0.0809
  Br  Br650  1  0.932980  0.829360  0.649850  1.0  -0.1116
  Br  Br651  1  0.082350  0.873790  0.680450  1.0  -0.0507
  Br  Br652  1  0.452960  0.184380  0.623780  1.0  -0.0857
  Br  Br653  1  0.550930  0.826670  0.621290  1.0  -0.0496
  Br  Br654  1  0.611610  0.141510  0.627520  1.0  -0.0511
  Br  Br655  1  0.391410  0.869200  0.624410  1.0  -0.0537
  Br  Br656  1  0.925800  0.106740  0.575550  1.0  -0.0641
  N  N657  1  0.246900  0.689000  0.599100  1.0  -0.3756
  N  N658  1  0.755600  0.184700  0.825000  1.0  -0.3904
  N  N659  1  0.232500  0.046700  0.520300  1.0  0.0488
  N  N660  1  0.735400  0.511300  0.771300  1.0  0.0563
  N  N661  1  0.255700  0.059100  0.465200  1.0  -0.4018
  N  N662  1  0.239100  0.814900  0.593000  1.0  0.0629
  N  N663  1  0.736100  0.309400  0.829700  1.0  0.0188
  N  N664  1  0.759800  0.474600  0.719000  1.0  -0.3199
  N  N665  1  0.253100  0.189000  0.400900  1.0  -0.376
  N  N666  1  0.744400  0.684700  0.175000  1.0  -0.3903
  N  N667  1  0.267500  0.546700  0.479700  1.0  0.0479
  N  N668  1  0.764600  0.011300  0.228700  1.0  0.0558
  N  N669  1  0.244300  0.559100  0.534800  1.0  -0.4017
  N  N670  1  0.260900  0.314900  0.407000  1.0  0.0634
  N  N671  1  0.763900  0.809400  0.170300  1.0  0.018
  N  N672  1  0.740200  0.974600  0.281000  1.0  -0.3188
  N  N673  1  0.253100  0.811000  0.900900  1.0  -0.3752
  N  N674  1  0.744400  0.315300  0.675000  1.0  -0.3897
  N  N675  1  0.267500  0.453300  0.979700  1.0  0.0479
  N  N676  1  0.764600  0.988700  0.728700  1.0  0.0578
  N  N677  1  0.244300  0.440900  0.034800  1.0  -0.4014
  N  N678  1  0.260900  0.685100  0.907000  1.0  0.0631
  N  N679  1  0.763900  0.190600  0.670300  1.0  0.018
  N  N680  1  0.740200  0.025400  0.781000  1.0  -0.3188
  N  N681  1  0.246900  0.311000  0.099100  1.0  -0.375
  N  N682  1  0.755600  0.815300  0.325000  1.0  -0.3907
  N  N683  1  0.232500  0.953300  0.020300  1.0  0.0483
  N  N684  1  0.735400  0.488700  0.271300  1.0  0.0576
  N  N685  1  0.255700  0.940900  0.965200  1.0  -0.4023
  N  N686  1  0.239100  0.185100  0.093000  1.0  0.0621
  N  N687  1  0.736100  0.690600  0.329700  1.0  0.0182
  N  N688  1  0.759800  0.525400  0.219000  1.0  -0.3189
  N  N689  1  0.746900  0.189000  0.099100  1.0  -0.3756
  N  N690  1  0.255600  0.684700  0.325000  1.0  -0.3904
  N  N691  1  0.732500  0.546700  0.020300  1.0  0.0488
  N  N692  1  0.235400  0.011300  0.271300  1.0  0.0563
  N  N693  1  0.755700  0.559100  0.965200  1.0  -0.4018
  N  N694  1  0.739100  0.314900  0.093000  1.0  0.0629
  N  N695  1  0.236100  0.809400  0.329700  1.0  0.0188
  N  N696  1  0.259800  0.974600  0.219000  1.0  -0.3199
  N  N697  1  0.753100  0.689000  0.900900  1.0  -0.376
  N  N698  1  0.244400  0.184700  0.675000  1.0  -0.3903
  N  N699  1  0.767500  0.046700  0.979700  1.0  0.0479
  N  N700  1  0.264600  0.511300  0.728700  1.0  0.0558
  N  N701  1  0.744300  0.059100  0.034800  1.0  -0.4017
  N  N702  1  0.760900  0.814900  0.907000  1.0  0.0634
  N  N703  1  0.263900  0.309400  0.670300  1.0  0.018
  N  N704  1  0.240200  0.474600  0.781000  1.0  -0.3188
  N  N705  1  0.753100  0.311000  0.400900  1.0  -0.3752
  N  N706  1  0.244400  0.815300  0.175000  1.0  -0.3897
  N  N707  1  0.767500  0.953300  0.479700  1.0  0.0479
  N  N708  1  0.264600  0.488700  0.228700  1.0  0.0578
  N  N709  1  0.744300  0.940900  0.534800  1.0  -0.4014
  N  N710  1  0.760900  0.185100  0.407000  1.0  0.0631
  N  N711  1  0.263900  0.690600  0.170300  1.0  0.018
  N  N712  1  0.240200  0.525400  0.281000  1.0  -0.3188
  N  N713  1  0.746900  0.811000  0.599100  1.0  -0.375
  N  N714  1  0.255600  0.315300  0.825000  1.0  -0.3907
  N  N715  1  0.732500  0.453300  0.520300  1.0  0.0483
  N  N716  1  0.235400  0.988700  0.771300  1.0  0.0576
  N  N717  1  0.755700  0.440900  0.465200  1.0  -0.4023
  N  N718  1  0.739100  0.685100  0.593000  1.0  0.0621
  N  N719  1  0.236100  0.190600  0.829700  1.0  0.0182
  N  N720  1  0.259800  0.025400  0.719000  1.0  -0.3189
  O  O721  1  0.632600  0.429400  0.682080  1.0  -0.5995
  O  O722  1  0.165400  0.531600  0.594310  1.0  -0.5921
  O  O723  1  0.685200  0.487000  0.640230  1.0  -0.5896
  O  O724  1  0.325500  0.526300  0.612060  1.0  -0.5905
  O  O725  1  0.830900  0.447400  0.599800  1.0  -0.5239
  O  O726  1  0.376100  0.597000  0.573560  1.0  -0.6038
  O  O727  1  0.169800  0.547300  0.651400  1.0  -0.5448
  O  O728  1  0.840300  0.454900  0.656970  1.0  -0.604
  O  O729  1  0.867400  0.929400  0.317920  1.0  -0.5994
  O  O730  1  0.334600  0.031600  0.405690  1.0  -0.5912
  O  O731  1  0.814800  0.987000  0.359770  1.0  -0.5897
  O  O732  1  0.174500  0.026300  0.387940  1.0  -0.5912
  O  O733  1  0.669100  0.947400  0.400200  1.0  -0.522
  O  O734  1  0.123900  0.097000  0.426440  1.0  -0.604
  O  O735  1  0.330200  0.047300  0.348600  1.0  -0.5434
  O  O736  1  0.659700  0.954900  0.343030  1.0  -0.6053
  O  O737  1  0.867400  0.070600  0.817920  1.0  -0.5988
  O  O738  1  0.334600  0.968400  0.905690  1.0  -0.5908
  O  O739  1  0.814800  0.013000  0.859770  1.0  -0.5899
  O  O740  1  0.174500  0.973700  0.887940  1.0  -0.5907
  O  O741  1  0.669100  0.052600  0.900200  1.0  -0.5225
  O  O742  1  0.123900  0.903000  0.926440  1.0  -0.6026
  O  O743  1  0.330200  0.952700  0.848600  1.0  -0.5435
  O  O744  1  0.659700  0.045100  0.843030  1.0  -0.6054
  O  O745  1  0.632600  0.570600  0.182080  1.0  -0.5991
  O  O746  1  0.165400  0.468400  0.094310  1.0  -0.5928
  O  O747  1  0.685200  0.513000  0.140230  1.0  -0.5899
  O  O748  1  0.325500  0.473700  0.112060  1.0  -0.5904
  O  O749  1  0.830900  0.552600  0.099800  1.0  -0.5227
  O  O750  1  0.376100  0.403000  0.073560  1.0  -0.604
  O  O751  1  0.169800  0.452700  0.151400  1.0  -0.5439
  O  O752  1  0.840300  0.545100  0.156970  1.0  -0.6041
  O  O753  1  0.132600  0.929400  0.182080  1.0  -0.5995
  O  O754  1  0.665400  0.031600  0.094310  1.0  -0.5921
  O  O755  1  0.185200  0.987000  0.140230  1.0  -0.5896
  O  O756  1  0.825500  0.026300  0.112060  1.0  -0.5905
  O  O757  1  0.330900  0.947400  0.099800  1.0  -0.5239
  O  O758  1  0.876100  0.097000  0.073560  1.0  -0.6038
  O  O759  1  0.669800  0.047300  0.151400  1.0  -0.5448
  O  O760  1  0.340300  0.954900  0.156970  1.0  -0.604
  O  O761  1  0.367400  0.429400  0.817920  1.0  -0.5994
  O  O762  1  0.834600  0.531600  0.905690  1.0  -0.5912
  O  O763  1  0.314800  0.487000  0.859770  1.0  -0.5897
  O  O764  1  0.674500  0.526300  0.887940  1.0  -0.5912
  O  O765  1  0.169100  0.447400  0.900200  1.0  -0.522
  O  O766  1  0.623900  0.597000  0.926440  1.0  -0.604
  O  O767  1  0.830200  0.547300  0.848600  1.0  -0.5432
  O  O768  1  0.159700  0.454900  0.843030  1.0  -0.6053
  O  O769  1  0.367400  0.570600  0.317920  1.0  -0.5988
  O  O770  1  0.834600  0.468400  0.405690  1.0  -0.5908
  O  O771  1  0.314800  0.513000  0.359770  1.0  -0.5899
  O  O772  1  0.674500  0.473700  0.387940  1.0  -0.5907
  O  O773  1  0.169100  0.552600  0.400200  1.0  -0.5225
  O  O774  1  0.623900  0.403000  0.426440  1.0  -0.6026
  O  O775  1  0.830200  0.452700  0.348600  1.0  -0.5433
  O  O776  1  0.159700  0.545100  0.343030  1.0  -0.6054
  O  O777  1  0.132600  0.070600  0.682080  1.0  -0.5991
  O  O778  1  0.665400  0.968400  0.594310  1.0  -0.5928
  O  O779  1  0.185200  0.013000  0.640230  1.0  -0.5899
  O  O780  1  0.825500  0.973700  0.612060  1.0  -0.5904
  O  O781  1  0.330900  0.052600  0.599800  1.0  -0.5227
  O  O782  1  0.876100  0.903000  0.573560  1.0  -0.604
  O  O783  1  0.669800  0.952700  0.651400  1.0  -0.5438
  O  O784  1  0.340300  0.045100  0.656970  1.0  -0.6041
