# generated using pymatgen
data_Zn2Mo6H9C16N3O16
_symmetry_space_group_name_H-M   'P 1'
_cell_length_a   54.43800000
_cell_length_b   14.50030000
_cell_length_c   39.58170000
_cell_angle_alpha   90.00000000
_cell_angle_beta   128.01000000
_cell_angle_gamma   90.00000000
_symmetry_Int_Tables_number   1
_chemical_formula_structural   Zn2Mo6H9C16N3O16
_chemical_formula_sum   'Zn32 Mo96 H144 C256 N48 O256'
_cell_volume   24617.64500475
_cell_formula_units_Z   16
loop_
 _symmetry_equiv_pos_site_id
 _symmetry_equiv_pos_as_xyz
  1  'x, y, z'
loop_
 _atom_site_type_symbol
 _atom_site_label
 _atom_site_symmetry_multiplicity
 _atom_site_fract_x
 _atom_site_fract_y
 _atom_site_fract_z
 _atom_site_occupancy
 _atom_site_charge
  Zn  Zn1  1  0.129100  0.861060  0.485230  1.0  1.0363
  Zn  Zn2  1  0.225670  0.550990  0.593810  1.0  1.1419
  Zn  Zn3  1  0.099300  0.447100  0.456150  1.0  1.056
  Zn  Zn4  1  0.122910  0.657130  0.606300  1.0  1.1344
  Zn  Zn5  1  0.629100  0.361060  0.485230  1.0  1.0363
  Zn  Zn6  1  0.725670  0.050990  0.593810  1.0  1.1419
  Zn  Zn7  1  0.599300  0.947100  0.456150  1.0  1.056
  Zn  Zn8  1  0.622910  0.157130  0.606300  1.0  1.1344
  Zn  Zn9  1  0.129100  0.138940  0.985230  1.0  1.0365
  Zn  Zn10  1  0.225670  0.449010  0.093810  1.0  1.1427
  Zn  Zn11  1  0.099300  0.552900  0.956150  1.0  1.0587
  Zn  Zn12  1  0.122910  0.342870  0.106300  1.0  1.1323
  Zn  Zn13  1  0.629100  0.638940  0.985230  1.0  1.0365
  Zn  Zn14  1  0.725670  0.949010  0.093810  1.0  1.1427
  Zn  Zn15  1  0.599300  0.052900  0.956150  1.0  1.0587
  Zn  Zn16  1  0.622910  0.842870  0.106300  1.0  1.1323
  Zn  Zn17  1  0.870900  0.861060  0.014770  1.0  1.0361
  Zn  Zn18  1  0.774330  0.550990  0.906190  1.0  1.1406
  Zn  Zn19  1  0.900700  0.447100  0.043850  1.0  1.0575
  Zn  Zn20  1  0.877090  0.657130  0.893700  1.0  1.1351
  Zn  Zn21  1  0.370900  0.361060  0.014770  1.0  1.0361
  Zn  Zn22  1  0.274330  0.050990  0.906190  1.0  1.1406
  Zn  Zn23  1  0.400700  0.947100  0.043850  1.0  1.0575
  Zn  Zn24  1  0.377090  0.157130  0.893700  1.0  1.1351
  Zn  Zn25  1  0.870900  0.138940  0.514770  1.0  1.0363
  Zn  Zn26  1  0.774330  0.449010  0.406190  1.0  1.1415
  Zn  Zn27  1  0.900700  0.552900  0.543850  1.0  1.0601
  Zn  Zn28  1  0.877090  0.342870  0.393700  1.0  1.1326
  Zn  Zn29  1  0.370900  0.638940  0.514770  1.0  1.0363
  Zn  Zn30  1  0.274330  0.949010  0.406190  1.0  1.1415
  Zn  Zn31  1  0.400700  0.052900  0.543850  1.0  1.0601
  Zn  Zn32  1  0.377090  0.842870  0.393700  1.0  1.1326
  Mo  Mo33  1  0.173620  0.484420  0.487210  1.0  1.2898
  Mo  Mo34  1  0.193480  0.712860  0.507480  1.0  1.1148
  Mo  Mo35  1  0.152350  0.851320  0.590340  1.0  1.1186
  Mo  Mo36  1  0.072500  0.684450  0.429000  1.0  1.0782
  Mo  Mo37  1  0.082800  0.793620  0.513810  1.0  1.0944
  Mo  Mo38  1  0.168970  0.376410  0.552850  1.0  1.1789
  Mo  Mo39  1  0.117580  0.648480  0.424580  1.0  1.1263
  Mo  Mo40  1  0.206200  0.795940  0.575070  1.0  1.0298
  Mo  Mo41  1  0.187090  0.500480  0.638550  1.0  1.0702
  Mo  Mo42  1  0.202800  0.673970  0.651200  1.0  1.0954
  Mo  Mo43  1  0.067080  0.561880  0.503060  1.0  1.0516
  Mo  Mo44  1  0.108140  0.435150  0.552940  1.0  1.0624
  Mo  Mo45  1  0.673620  0.984420  0.487210  1.0  1.2898
  Mo  Mo46  1  0.693480  0.212860  0.507480  1.0  1.1148
  Mo  Mo47  1  0.652350  0.351320  0.590340  1.0  1.1186
  Mo  Mo48  1  0.572500  0.184450  0.429000  1.0  1.0782
  Mo  Mo49  1  0.582800  0.293620  0.513810  1.0  1.0944
  Mo  Mo50  1  0.668970  0.876410  0.552850  1.0  1.1789
  Mo  Mo51  1  0.617580  0.148480  0.424580  1.0  1.1263
  Mo  Mo52  1  0.706200  0.295940  0.575070  1.0  1.0298
  Mo  Mo53  1  0.687090  0.000480  0.638550  1.0  1.0702
  Mo  Mo54  1  0.702800  0.173970  0.651200  1.0  1.0954
  Mo  Mo55  1  0.567080  0.061880  0.503060  1.0  1.0516
  Mo  Mo56  1  0.608140  0.935150  0.552940  1.0  1.0624
  Mo  Mo57  1  0.173620  0.515580  0.987210  1.0  1.2902
  Mo  Mo58  1  0.193480  0.287140  0.007480  1.0  1.1156
  Mo  Mo59  1  0.152350  0.148680  0.090340  1.0  1.1189
  Mo  Mo60  1  0.072500  0.315550  0.929000  1.0  1.0782
  Mo  Mo61  1  0.082800  0.206380  0.013810  1.0  1.0948
  Mo  Mo62  1  0.168970  0.623590  0.052850  1.0  1.1788
  Mo  Mo63  1  0.117580  0.351520  0.924580  1.0  1.1271
  Mo  Mo64  1  0.206200  0.204060  0.075070  1.0  1.0299
  Mo  Mo65  1  0.187090  0.499520  0.138550  1.0  1.0706
  Mo  Mo66  1  0.202800  0.326030  0.151200  1.0  1.096
  Mo  Mo67  1  0.067080  0.438120  0.003060  1.0  1.0516
  Mo  Mo68  1  0.108140  0.564850  0.052940  1.0  1.0624
  Mo  Mo69  1  0.673620  0.015580  0.987210  1.0  1.2902
  Mo  Mo70  1  0.693480  0.787140  0.007480  1.0  1.1156
  Mo  Mo71  1  0.652350  0.648680  0.090340  1.0  1.1189
  Mo  Mo72  1  0.572500  0.815550  0.929000  1.0  1.0782
  Mo  Mo73  1  0.582800  0.706380  0.013810  1.0  1.0948
  Mo  Mo74  1  0.668970  0.123590  0.052850  1.0  1.1788
  Mo  Mo75  1  0.617580  0.851520  0.924580  1.0  1.1271
  Mo  Mo76  1  0.706200  0.704060  0.075070  1.0  1.0299
  Mo  Mo77  1  0.687090  0.999520  0.138550  1.0  1.0706
  Mo  Mo78  1  0.702800  0.826030  0.151200  1.0  1.096
  Mo  Mo79  1  0.567080  0.938120  0.003060  1.0  1.0516
  Mo  Mo80  1  0.608140  0.064850  0.052940  1.0  1.0624
  Mo  Mo81  1  0.826380  0.484420  0.012790  1.0  1.2893
  Mo  Mo82  1  0.806520  0.712860  0.992520  1.0  1.1109
  Mo  Mo83  1  0.847650  0.851320  0.909660  1.0  1.1224
  Mo  Mo84  1  0.927500  0.684450  0.071000  1.0  1.0773
  Mo  Mo85  1  0.917200  0.793620  0.986190  1.0  1.0961
  Mo  Mo86  1  0.831030  0.376410  0.947150  1.0  1.1788
  Mo  Mo87  1  0.882420  0.648480  0.075420  1.0  1.125
  Mo  Mo88  1  0.793800  0.795940  0.924930  1.0  1.0292
  Mo  Mo89  1  0.812910  0.500480  0.861450  1.0  1.0732
  Mo  Mo90  1  0.797200  0.673970  0.848800  1.0  1.097
  Mo  Mo91  1  0.932920  0.561880  0.996940  1.0  1.0529
  Mo  Mo92  1  0.891860  0.435150  0.947060  1.0  1.0661
  Mo  Mo93  1  0.326380  0.984420  0.012790  1.0  1.2893
  Mo  Mo94  1  0.306520  0.212860  0.992520  1.0  1.1109
  Mo  Mo95  1  0.347650  0.351320  0.909660  1.0  1.1224
  Mo  Mo96  1  0.427500  0.184450  0.071000  1.0  1.0773
  Mo  Mo97  1  0.417200  0.293620  0.986190  1.0  1.0961
  Mo  Mo98  1  0.331030  0.876410  0.947150  1.0  1.1788
  Mo  Mo99  1  0.382420  0.148480  0.075420  1.0  1.125
  Mo  Mo100  1  0.293800  0.295940  0.924930  1.0  1.0292
  Mo  Mo101  1  0.312910  0.000480  0.861450  1.0  1.0732
  Mo  Mo102  1  0.297200  0.173970  0.848800  1.0  1.097
  Mo  Mo103  1  0.432920  0.061880  0.996940  1.0  1.0529
  Mo  Mo104  1  0.391860  0.935150  0.947060  1.0  1.0661
  Mo  Mo105  1  0.826380  0.515580  0.512790  1.0  1.2888
  Mo  Mo106  1  0.806520  0.287140  0.492520  1.0  1.1125
  Mo  Mo107  1  0.847650  0.148680  0.409660  1.0  1.1228
  Mo  Mo108  1  0.927500  0.315550  0.571000  1.0  1.0768
  Mo  Mo109  1  0.917200  0.206380  0.486190  1.0  1.0968
  Mo  Mo110  1  0.831030  0.623590  0.447150  1.0  1.1789
  Mo  Mo111  1  0.882420  0.351520  0.575420  1.0  1.125
  Mo  Mo112  1  0.793800  0.204060  0.424930  1.0  1.0298
  Mo  Mo113  1  0.812910  0.499520  0.361450  1.0  1.0728
  Mo  Mo114  1  0.797200  0.326030  0.348800  1.0  1.0975
  Mo  Mo115  1  0.932920  0.438120  0.496940  1.0  1.0529
  Mo  Mo116  1  0.891860  0.564850  0.447060  1.0  1.0653
  Mo  Mo117  1  0.326380  0.015580  0.512790  1.0  1.2888
  Mo  Mo118  1  0.306520  0.787140  0.492520  1.0  1.1125
  Mo  Mo119  1  0.347650  0.648680  0.409660  1.0  1.1228
  Mo  Mo120  1  0.427500  0.815550  0.571000  1.0  1.0768
  Mo  Mo121  1  0.417200  0.706380  0.486190  1.0  1.0968
  Mo  Mo122  1  0.331030  0.123590  0.447150  1.0  1.1789
  Mo  Mo123  1  0.382420  0.851520  0.575420  1.0  1.125
  Mo  Mo124  1  0.293800  0.704060  0.424930  1.0  1.0298
  Mo  Mo125  1  0.312910  0.999520  0.361450  1.0  1.0728
  Mo  Mo126  1  0.297200  0.826030  0.348800  1.0  1.0975
  Mo  Mo127  1  0.432920  0.938120  0.496940  1.0  1.0529
  Mo  Mo128  1  0.391860  0.064850  0.447060  1.0  1.0653
  H  H129  1  0.122800  0.429700  0.384800  1.0  0.2873
  H  H130  1  0.139100  0.292500  0.433700  1.0  0.1231
  H  H131  1  0.109100  0.262900  0.254100  1.0  0.1152
  H  H132  1  0.554200  0.294400  0.887400  1.0  0.1073
  H  H133  1  0.480300  0.124600  0.832900  1.0  0.153
  H  H134  1  0.448100  0.248300  0.795800  1.0  0.1167
  H  H135  1  0.522100  0.423300  0.859300  1.0  0.1483
  H  H136  1  0.318700  0.430300  0.670300  1.0  0.1292
  H  H137  1  0.127100  0.547200  0.220000  1.0  0.1299
  H  H138  1  0.124500  0.537000  0.275600  1.0  0.1363
  H  H139  1  0.111300  0.275700  0.199200  1.0  0.1305
  H  H140  1  0.336600  0.694800  0.711700  1.0  0.1523
  H  H141  1  0.485200  0.538900  0.823600  1.0  0.3062
  H  H142  1  0.371900  0.406400  0.707200  1.0  0.1297
  H  H143  1  0.389600  0.657400  0.751800  1.0  0.1276
  H  H144  1  0.134500  0.169000  0.467800  1.0  0.1445
  H  H145  1  0.080200  0.167300  0.321200  1.0  0.0981
  H  H146  1  0.076700  0.045300  0.350800  1.0  0.1519
  H  H147  1  0.622800  0.929700  0.384800  1.0  0.2873
  H  H148  1  0.639100  0.792500  0.433700  1.0  0.1231
  H  H149  1  0.609100  0.762900  0.254100  1.0  0.1152
  H  H150  1  0.054200  0.794400  0.887400  1.0  0.1073
  H  H151  1  0.980300  0.624600  0.832900  1.0  0.153
  H  H152  1  0.948100  0.748300  0.795800  1.0  0.1167
  H  H153  1  0.022100  0.923300  0.859300  1.0  0.1483
  H  H154  1  0.818700  0.930300  0.670300  1.0  0.1292
  H  H155  1  0.627100  0.047200  0.220000  1.0  0.1299
  H  H156  1  0.624500  0.037000  0.275600  1.0  0.1363
  H  H157  1  0.611300  0.775700  0.199200  1.0  0.1305
  H  H158  1  0.836600  0.194800  0.711700  1.0  0.1523
  H  H159  1  0.985200  0.038900  0.823600  1.0  0.3062
  H  H160  1  0.871900  0.906400  0.707200  1.0  0.1297
  H  H161  1  0.889600  0.157400  0.751800  1.0  0.1276
  H  H162  1  0.634500  0.669000  0.467800  1.0  0.1445
  H  H163  1  0.580200  0.667300  0.321200  1.0  0.0981
  H  H164  1  0.576700  0.545300  0.350800  1.0  0.1519
  H  H165  1  0.122800  0.570300  0.884800  1.0  0.2883
  H  H166  1  0.139100  0.707500  0.933700  1.0  0.1233
  H  H167  1  0.109100  0.737100  0.754100  1.0  0.1154
  H  H168  1  0.554200  0.705600  0.387400  1.0  0.1074
  H  H169  1  0.480300  0.875400  0.332900  1.0  0.1533
  H  H170  1  0.448100  0.751700  0.295800  1.0  0.117
  H  H171  1  0.522100  0.576700  0.359300  1.0  0.1481
  H  H172  1  0.318700  0.569700  0.170300  1.0  0.1303
  H  H173  1  0.127100  0.452800  0.720000  1.0  0.1298
  H  H174  1  0.124500  0.463000  0.775600  1.0  0.1359
  H  H175  1  0.111300  0.724300  0.699200  1.0  0.1309
  H  H176  1  0.336600  0.305200  0.211700  1.0  0.1524
  H  H177  1  0.485200  0.461100  0.323600  1.0  0.3063
  H  H178  1  0.371900  0.593600  0.207200  1.0  0.1299
  H  H179  1  0.389600  0.342600  0.251800  1.0  0.1277
  H  H180  1  0.134500  0.831000  0.967800  1.0  0.1445
  H  H181  1  0.080200  0.832700  0.821200  1.0  0.0981
  H  H182  1  0.076700  0.954700  0.850800  1.0  0.1527
  H  H183  1  0.622800  0.070300  0.884800  1.0  0.2883
  H  H184  1  0.639100  0.207500  0.933700  1.0  0.1233
  H  H185  1  0.609100  0.237100  0.754100  1.0  0.1154
  H  H186  1  0.054200  0.205600  0.387400  1.0  0.1074
  H  H187  1  0.980300  0.375400  0.332900  1.0  0.1533
  H  H188  1  0.948100  0.251700  0.295800  1.0  0.117
  H  H189  1  0.022100  0.076700  0.359300  1.0  0.1481
  H  H190  1  0.818700  0.069700  0.170300  1.0  0.1303
  H  H191  1  0.627100  0.952800  0.720000  1.0  0.1298
  H  H192  1  0.624500  0.963000  0.775600  1.0  0.1359
  H  H193  1  0.611300  0.224300  0.699200  1.0  0.1309
  H  H194  1  0.836600  0.805200  0.211700  1.0  0.1524
  H  H195  1  0.985200  0.961100  0.323600  1.0  0.3063
  H  H196  1  0.871900  0.093600  0.207200  1.0  0.1299
  H  H197  1  0.889600  0.842600  0.251800  1.0  0.1277
  H  H198  1  0.634500  0.331000  0.967800  1.0  0.1445
  H  H199  1  0.580200  0.332700  0.821200  1.0  0.0981
  H  H200  1  0.576700  0.454700  0.850800  1.0  0.1527
  H  H201  1  0.877200  0.429700  0.115200  1.0  0.2877
  H  H202  1  0.860900  0.292500  0.066300  1.0  0.1236
  H  H203  1  0.890900  0.262900  0.245900  1.0  0.1158
  H  H204  1  0.445800  0.294400  0.612600  1.0  0.1061
  H  H205  1  0.519700  0.124600  0.667100  1.0  0.1534
  H  H206  1  0.551900  0.248300  0.704200  1.0  0.1174
  H  H207  1  0.477900  0.423300  0.640700  1.0  0.1493
  H  H208  1  0.681300  0.430300  0.829700  1.0  0.1295
  H  H209  1  0.872900  0.547200  0.280000  1.0  0.1294
  H  H210  1  0.875500  0.537000  0.224400  1.0  0.1365
  H  H211  1  0.888700  0.275700  0.300800  1.0  0.1312
  H  H212  1  0.663400  0.694800  0.788300  1.0  0.1525
  H  H213  1  0.514800  0.538900  0.676400  1.0  0.3051
  H  H214  1  0.628100  0.406400  0.792800  1.0  0.1297
  H  H215  1  0.610400  0.657400  0.748200  1.0  0.1285
  H  H216  1  0.865500  0.169000  0.032200  1.0  0.1448
  H  H217  1  0.919800  0.167300  0.178800  1.0  0.098
  H  H218  1  0.923300  0.045300  0.149200  1.0  0.1518
  H  H219  1  0.377200  0.929700  0.115200  1.0  0.2877
  H  H220  1  0.360900  0.792500  0.066300  1.0  0.1236
  H  H221  1  0.390900  0.762900  0.245900  1.0  0.1158
  H  H222  1  0.945800  0.794400  0.612600  1.0  0.1061
  H  H223  1  0.019700  0.624600  0.667100  1.0  0.1534
  H  H224  1  0.051900  0.748300  0.704200  1.0  0.1174
  H  H225  1  0.977900  0.923300  0.640700  1.0  0.1493
  H  H226  1  0.181300  0.930300  0.829700  1.0  0.1295
  H  H227  1  0.372900  0.047200  0.280000  1.0  0.1294
  H  H228  1  0.375500  0.037000  0.224400  1.0  0.1365
  H  H229  1  0.388700  0.775700  0.300800  1.0  0.1312
  H  H230  1  0.163400  0.194800  0.788300  1.0  0.1525
  H  H231  1  0.014800  0.038900  0.676400  1.0  0.3051
  H  H232  1  0.128100  0.906400  0.792800  1.0  0.1297
  H  H233  1  0.110400  0.157400  0.748200  1.0  0.1285
  H  H234  1  0.365500  0.669000  0.032200  1.0  0.1448
  H  H235  1  0.419800  0.667300  0.178800  1.0  0.098
  H  H236  1  0.423300  0.545300  0.149200  1.0  0.1518
  H  H237  1  0.877200  0.570300  0.615200  1.0  0.2877
  H  H238  1  0.860900  0.707500  0.566300  1.0  0.1227
  H  H239  1  0.890900  0.737100  0.745900  1.0  0.1163
  H  H240  1  0.445800  0.705600  0.112600  1.0  0.1062
  H  H241  1  0.519700  0.875400  0.167100  1.0  0.1536
  H  H242  1  0.551900  0.751700  0.204200  1.0  0.1171
  H  H243  1  0.477900  0.576700  0.140700  1.0  0.1483
  H  H244  1  0.681300  0.569700  0.329700  1.0  0.13
  H  H245  1  0.872900  0.452800  0.780000  1.0  0.1298
  H  H246  1  0.875500  0.463000  0.724400  1.0  0.1358
  H  H247  1  0.888700  0.724300  0.800800  1.0  0.1308
  H  H248  1  0.663400  0.305200  0.288300  1.0  0.1525
  H  H249  1  0.514800  0.461100  0.176400  1.0  0.3056
  H  H250  1  0.628100  0.593600  0.292800  1.0  0.1298
  H  H251  1  0.610400  0.342600  0.248200  1.0  0.1274
  H  H252  1  0.865500  0.831000  0.532200  1.0  0.145
  H  H253  1  0.919800  0.832700  0.678800  1.0  0.0977
  H  H254  1  0.923300  0.954700  0.649200  1.0  0.152
  H  H255  1  0.377200  0.070300  0.615200  1.0  0.2877
  H  H256  1  0.360900  0.207500  0.566300  1.0  0.1227
  H  H257  1  0.390900  0.237100  0.745900  1.0  0.1163
  H  H258  1  0.945800  0.205600  0.112600  1.0  0.1062
  H  H259  1  0.019700  0.375400  0.167100  1.0  0.1536
  H  H260  1  0.051900  0.251700  0.204200  1.0  0.1171
  H  H261  1  0.977900  0.076700  0.140700  1.0  0.1483
  H  H262  1  0.181300  0.069700  0.329700  1.0  0.13
  H  H263  1  0.372900  0.952800  0.780000  1.0  0.1298
  H  H264  1  0.375500  0.963000  0.724400  1.0  0.1358
  H  H265  1  0.388700  0.224300  0.800800  1.0  0.1308
  H  H266  1  0.163400  0.805200  0.288300  1.0  0.1525
  H  H267  1  0.014800  0.961100  0.176400  1.0  0.3056
  H  H268  1  0.128100  0.093600  0.292800  1.0  0.1298
  H  H269  1  0.110400  0.842600  0.248200  1.0  0.1274
  H  H270  1  0.365500  0.331000  0.532200  1.0  0.145
  H  H271  1  0.419800  0.332700  0.678800  1.0  0.0977
  H  H272  1  0.423300  0.454700  0.649200  1.0  0.152
  C  C273  1  0.114800  0.386900  0.307100  1.0  0.4335
  C  C274  1  0.126200  0.242900  0.417600  1.0  -0.0802
  C  C275  1  0.115900  0.400600  0.272000  1.0  -0.0522
  C  C276  1  0.112400  0.320600  0.247200  1.0  -0.0816
  C  C277  1  0.112300  0.317900  0.351200  1.0  0.2773
  C  C278  1  0.109000  0.244100  0.372700  1.0  0.0406
  C  C279  1  0.459200  0.427200  0.801400  1.0  0.3059
  C  C280  1  0.481000  0.349800  0.822200  1.0  0.0254
  C  C281  1  0.532700  0.287100  0.870800  1.0  -0.0583
  C  C282  1  0.488300  0.183800  0.836900  1.0  -0.1072
  C  C283  1  0.469500  0.257900  0.815600  1.0  -0.0175
  C  C284  1  0.521000  0.201800  0.865600  1.0  -0.1086
  C  C285  1  0.541700  0.125000  0.889900  1.0  0.7536
  C  C286  1  0.513800  0.364200  0.852300  1.0  -0.122
  C  C287  1  0.418000  0.504500  0.765100  1.0  0.359
  C  C288  1  0.321300  0.567200  0.683500  1.0  -0.1128
  C  C289  1  0.332700  0.478500  0.685500  1.0  -0.0393
  C  C290  1  0.123300  0.490200  0.226700  1.0  -0.0442
  C  C291  1  0.121700  0.483900  0.260400  1.0  -0.0413
  C  C292  1  0.113900  0.328100  0.214700  1.0  -0.0552
  C  C293  1  0.106400  0.090500  0.412900  1.0  -0.0947
  C  C294  1  0.342900  0.636200  0.710400  1.0  -0.07
  C  C295  1  0.106300  0.008100  0.433900  1.0  0.7033
  C  C296  1  0.364600  0.461800  0.709800  1.0  -0.1302
  C  C297  1  0.374600  0.612100  0.735300  1.0  -0.0431
  C  C298  1  0.287300  0.582400  0.657300  1.0  0.7169
  C  C299  1  0.384000  0.525400  0.736200  1.0  -0.0122
  C  C300  1  0.124400  0.168000  0.438500  1.0  -0.1155
  C  C301  1  0.091500  0.167200  0.350800  1.0  -0.0609
  C  C302  1  0.119500  0.414700  0.203400  1.0  -0.071
  C  C303  1  0.122400  0.417800  0.170400  1.0  0.7263
  C  C304  1  0.089300  0.094000  0.367900  1.0  -0.0994
  C  C305  1  0.614800  0.886900  0.307100  1.0  0.4335
  C  C306  1  0.626200  0.742900  0.417600  1.0  -0.0802
  C  C307  1  0.615900  0.900600  0.272000  1.0  -0.0522
  C  C308  1  0.612400  0.820600  0.247200  1.0  -0.0816
  C  C309  1  0.612300  0.817900  0.351200  1.0  0.2773
  C  C310  1  0.609000  0.744100  0.372700  1.0  0.0406
  C  C311  1  0.959200  0.927200  0.801400  1.0  0.3059
  C  C312  1  0.981000  0.849800  0.822200  1.0  0.0254
  C  C313  1  0.032700  0.787100  0.870800  1.0  -0.0583
  C  C314  1  0.988300  0.683800  0.836900  1.0  -0.1072
  C  C315  1  0.969500  0.757900  0.815600  1.0  -0.0175
  C  C316  1  0.021000  0.701800  0.865600  1.0  -0.1086
  C  C317  1  0.041700  0.625000  0.889900  1.0  0.7536
  C  C318  1  0.013800  0.864200  0.852300  1.0  -0.122
  C  C319  1  0.918000  0.004500  0.765100  1.0  0.359
  C  C320  1  0.821300  0.067200  0.683500  1.0  -0.1128
  C  C321  1  0.832700  0.978500  0.685500  1.0  -0.0393
  C  C322  1  0.623300  0.990200  0.226700  1.0  -0.0442
  C  C323  1  0.621700  0.983900  0.260400  1.0  -0.0413
  C  C324  1  0.613900  0.828100  0.214700  1.0  -0.0552
  C  C325  1  0.606400  0.590500  0.412900  1.0  -0.0947
  C  C326  1  0.842900  0.136200  0.710400  1.0  -0.07
  C  C327  1  0.606300  0.508100  0.433900  1.0  0.7033
  C  C328  1  0.864600  0.961800  0.709800  1.0  -0.1302
  C  C329  1  0.874600  0.112100  0.735300  1.0  -0.0431
  C  C330  1  0.787300  0.082400  0.657300  1.0  0.7169
  C  C331  1  0.884000  0.025400  0.736200  1.0  -0.0122
  C  C332  1  0.624400  0.668000  0.438500  1.0  -0.1155
  C  C333  1  0.591500  0.667200  0.350800  1.0  -0.0609
  C  C334  1  0.619500  0.914700  0.203400  1.0  -0.071
  C  C335  1  0.622400  0.917800  0.170400  1.0  0.7263
  C  C336  1  0.589300  0.594000  0.367900  1.0  -0.0994
  C  C337  1  0.114800  0.613100  0.807100  1.0  0.4334
  C  C338  1  0.126200  0.757100  0.917600  1.0  -0.0811
  C  C339  1  0.115900  0.599400  0.772000  1.0  -0.0519
  C  C340  1  0.112400  0.679400  0.747200  1.0  -0.0799
  C  C341  1  0.112300  0.682100  0.851200  1.0  0.2767
  C  C342  1  0.109000  0.755900  0.872700  1.0  0.0399
  C  C343  1  0.459200  0.572800  0.301400  1.0  0.3047
  C  C344  1  0.481000  0.650200  0.322200  1.0  0.0245
  C  C345  1  0.532700  0.712900  0.370800  1.0  -0.0584
  C  C346  1  0.488300  0.816200  0.336900  1.0  -0.1092
  C  C347  1  0.469500  0.742100  0.315600  1.0  -0.0176
  C  C348  1  0.521000  0.798200  0.365600  1.0  -0.1088
  C  C349  1  0.541700  0.875000  0.389900  1.0  0.7532
  C  C350  1  0.513800  0.635800  0.352300  1.0  -0.1227
  C  C351  1  0.418000  0.495500  0.265100  1.0  0.3586
  C  C352  1  0.321300  0.432800  0.183500  1.0  -0.1133
  C  C353  1  0.332700  0.521500  0.185500  1.0  -0.0401
  C  C354  1  0.123300  0.509800  0.726700  1.0  -0.044
  C  C355  1  0.121700  0.516100  0.760400  1.0  -0.0425
  C  C356  1  0.113900  0.671900  0.714700  1.0  -0.0573
  C  C357  1  0.106400  0.909500  0.912900  1.0  -0.0945
  C  C358  1  0.342900  0.363800  0.210400  1.0  -0.0688
  C  C359  1  0.106300  0.991900  0.933900  1.0  0.7013
  C  C360  1  0.364600  0.538200  0.209800  1.0  -0.1325
  C  C361  1  0.374600  0.387900  0.235300  1.0  -0.0431
  C  C362  1  0.287300  0.417600  0.157300  1.0  0.7168
  C  C363  1  0.384000  0.474600  0.236200  1.0  -0.012
  C  C364  1  0.124400  0.832000  0.938500  1.0  -0.1153
  C  C365  1  0.091500  0.832800  0.850800  1.0  -0.0615
  C  C366  1  0.119500  0.585300  0.703400  1.0  -0.0706
  C  C367  1  0.122400  0.582200  0.670400  1.0  0.7261
  C  C368  1  0.089300  0.906000  0.867900  1.0  -0.0964
  C  C369  1  0.614800  0.113100  0.807100  1.0  0.4334
  C  C370  1  0.626200  0.257100  0.917600  1.0  -0.0811
  C  C371  1  0.615900  0.099400  0.772000  1.0  -0.0519
  C  C372  1  0.612400  0.179400  0.747200  1.0  -0.0799
  C  C373  1  0.612300  0.182100  0.851200  1.0  0.2767
  C  C374  1  0.609000  0.255900  0.872700  1.0  0.0399
  C  C375  1  0.959200  0.072800  0.301400  1.0  0.3047
  C  C376  1  0.981000  0.150200  0.322200  1.0  0.0245
  C  C377  1  0.032700  0.212900  0.370800  1.0  -0.0584
  C  C378  1  0.988300  0.316200  0.336900  1.0  -0.1092
  C  C379  1  0.969500  0.242100  0.315600  1.0  -0.0176
  C  C380  1  0.021000  0.298200  0.365600  1.0  -0.1088
  C  C381  1  0.041700  0.375000  0.389900  1.0  0.7532
  C  C382  1  0.013800  0.135800  0.352300  1.0  -0.1227
  C  C383  1  0.918000  0.995500  0.265100  1.0  0.3586
  C  C384  1  0.821300  0.932800  0.183500  1.0  -0.1133
  C  C385  1  0.832700  0.021500  0.185500  1.0  -0.0401
  C  C386  1  0.623300  0.009800  0.726700  1.0  -0.044
  C  C387  1  0.621700  0.016100  0.760400  1.0  -0.0425
  C  C388  1  0.613900  0.171900  0.714700  1.0  -0.0573
  C  C389  1  0.606400  0.409500  0.912900  1.0  -0.0945
  C  C390  1  0.842900  0.863800  0.210400  1.0  -0.0688
  C  C391  1  0.606300  0.491900  0.933900  1.0  0.7013
  C  C392  1  0.864600  0.038200  0.209800  1.0  -0.1325
  C  C393  1  0.874600  0.887900  0.235300  1.0  -0.0431
  C  C394  1  0.787300  0.917600  0.157300  1.0  0.7168
  C  C395  1  0.884000  0.974600  0.236200  1.0  -0.012
  C  C396  1  0.624400  0.332000  0.938500  1.0  -0.1153
  C  C397  1  0.591500  0.332800  0.850800  1.0  -0.0615
  C  C398  1  0.619500  0.085300  0.703400  1.0  -0.0706
  C  C399  1  0.622400  0.082200  0.670400  1.0  0.7261
  C  C400  1  0.589300  0.406000  0.867900  1.0  -0.0964
  C  C401  1  0.885200  0.386900  0.192900  1.0  0.4322
  C  C402  1  0.873800  0.242900  0.082400  1.0  -0.0837
  C  C403  1  0.884100  0.400600  0.228000  1.0  -0.0509
  C  C404  1  0.887600  0.320600  0.252800  1.0  -0.083
  C  C405  1  0.887700  0.317900  0.148800  1.0  0.276
  C  C406  1  0.891000  0.244100  0.127300  1.0  0.0404
  C  C407  1  0.540800  0.427200  0.698600  1.0  0.3061
  C  C408  1  0.519000  0.349800  0.677800  1.0  0.026
  C  C409  1  0.467300  0.287100  0.629200  1.0  -0.0587
  C  C410  1  0.511700  0.183800  0.663100  1.0  -0.1075
  C  C411  1  0.530500  0.257900  0.684400  1.0  -0.0179
  C  C412  1  0.479000  0.201800  0.634400  1.0  -0.1087
  C  C413  1  0.458300  0.125000  0.610100  1.0  0.7538
  C  C414  1  0.486200  0.364200  0.647700  1.0  -0.1225
  C  C415  1  0.582000  0.504500  0.734900  1.0  0.3592
  C  C416  1  0.678700  0.567200  0.816500  1.0  -0.1124
  C  C417  1  0.667300  0.478500  0.814500  1.0  -0.0386
  C  C418  1  0.876700  0.490200  0.273300  1.0  -0.0439
  C  C419  1  0.878300  0.483900  0.239600  1.0  -0.0434
  C  C420  1  0.886100  0.328100  0.285300  1.0  -0.0562
  C  C421  1  0.893600  0.090500  0.087100  1.0  -0.0942
  C  C422  1  0.657100  0.636200  0.789600  1.0  -0.0692
  C  C423  1  0.893700  0.008100  0.066100  1.0  0.7037
  C  C424  1  0.635400  0.461800  0.790200  1.0  -0.1306
  C  C425  1  0.625400  0.612100  0.764700  1.0  -0.0437
  C  C426  1  0.712700  0.582400  0.842700  1.0  0.717
  C  C427  1  0.616000  0.525400  0.763800  1.0  -0.0152
  C  C428  1  0.875600  0.168000  0.061500  1.0  -0.1172
  C  C429  1  0.908500  0.167200  0.149200  1.0  -0.0631
  C  C430  1  0.880500  0.414700  0.296600  1.0  -0.0714
  C  C431  1  0.877600  0.417800  0.329600  1.0  0.7244
  C  C432  1  0.910700  0.094000  0.132100  1.0  -0.0993
  C  C433  1  0.385200  0.886900  0.192900  1.0  0.4322
  C  C434  1  0.373800  0.742900  0.082400  1.0  -0.0837
  C  C435  1  0.384100  0.900600  0.228000  1.0  -0.0509
  C  C436  1  0.387600  0.820600  0.252800  1.0  -0.083
  C  C437  1  0.387700  0.817900  0.148800  1.0  0.276
  C  C438  1  0.391000  0.744100  0.127300  1.0  0.0404
  C  C439  1  0.040800  0.927200  0.698600  1.0  0.3061
  C  C440  1  0.019000  0.849800  0.677800  1.0  0.026
  C  C441  1  0.967300  0.787100  0.629200  1.0  -0.0587
  C  C442  1  0.011700  0.683800  0.663100  1.0  -0.1075
  C  C443  1  0.030500  0.757900  0.684400  1.0  -0.0179
  C  C444  1  0.979000  0.701800  0.634400  1.0  -0.1087
  C  C445  1  0.958300  0.625000  0.610100  1.0  0.7538
  C  C446  1  0.986200  0.864200  0.647700  1.0  -0.1225
  C  C447  1  0.082000  0.004500  0.734900  1.0  0.3592
  C  C448  1  0.178700  0.067200  0.816500  1.0  -0.1124
  C  C449  1  0.167300  0.978500  0.814500  1.0  -0.0386
  C  C450  1  0.376700  0.990200  0.273300  1.0  -0.0439
  C  C451  1  0.378300  0.983900  0.239600  1.0  -0.0434
  C  C452  1  0.386100  0.828100  0.285300  1.0  -0.0562
  C  C453  1  0.393600  0.590500  0.087100  1.0  -0.0942
  C  C454  1  0.157100  0.136200  0.789600  1.0  -0.0692
  C  C455  1  0.393700  0.508100  0.066100  1.0  0.7037
  C  C456  1  0.135400  0.961800  0.790200  1.0  -0.1306
  C  C457  1  0.125400  0.112100  0.764700  1.0  -0.0437
  C  C458  1  0.212700  0.082400  0.842700  1.0  0.717
  C  C459  1  0.116000  0.025400  0.763800  1.0  -0.0152
  C  C460  1  0.375600  0.668000  0.061500  1.0  -0.1172
  C  C461  1  0.408500  0.667200  0.149200  1.0  -0.0631
  C  C462  1  0.380500  0.914700  0.296600  1.0  -0.0714
  C  C463  1  0.377600  0.917800  0.329600  1.0  0.7244
  C  C464  1  0.410700  0.594000  0.132100  1.0  -0.0993
  C  C465  1  0.885200  0.613100  0.692900  1.0  0.4319
  C  C466  1  0.873800  0.757100  0.582400  1.0  -0.0831
  C  C467  1  0.884100  0.599400  0.728000  1.0  -0.051
  C  C468  1  0.887600  0.679400  0.752800  1.0  -0.0803
  C  C469  1  0.887700  0.682100  0.648800  1.0  0.2757
  C  C470  1  0.891000  0.755900  0.627300  1.0  0.0404
  C  C471  1  0.540800  0.572800  0.198600  1.0  0.3047
  C  C472  1  0.519000  0.650200  0.177800  1.0  0.0251
  C  C473  1  0.467300  0.712900  0.129200  1.0  -0.0585
  C  C474  1  0.511700  0.816200  0.163100  1.0  -0.1086
  C  C475  1  0.530500  0.742100  0.184400  1.0  -0.0178
  C  C476  1  0.479000  0.798200  0.134400  1.0  -0.1092
  C  C477  1  0.458300  0.875000  0.110100  1.0  0.7528
  C  C478  1  0.486200  0.635800  0.147700  1.0  -0.1229
  C  C479  1  0.582000  0.495500  0.234900  1.0  0.3602
  C  C480  1  0.678700  0.432800  0.316500  1.0  -0.1125
  C  C481  1  0.667300  0.521500  0.314500  1.0  -0.0404
  C  C482  1  0.876700  0.509800  0.773300  1.0  -0.0443
  C  C483  1  0.878300  0.516100  0.739600  1.0  -0.0422
  C  C484  1  0.886100  0.671900  0.785300  1.0  -0.0576
  C  C485  1  0.893600  0.909500  0.587100  1.0  -0.093
  C  C486  1  0.657100  0.363800  0.289600  1.0  -0.0689
  C  C487  1  0.893700  0.991900  0.566100  1.0  0.7033
  C  C488  1  0.635400  0.538200  0.290200  1.0  -0.1332
  C  C489  1  0.625400  0.387900  0.264700  1.0  -0.0424
  C  C490  1  0.712700  0.417600  0.342700  1.0  0.7171
  C  C491  1  0.616000  0.474600  0.263800  1.0  -0.0152
  C  C492  1  0.875600  0.832000  0.561500  1.0  -0.1169
  C  C493  1  0.908500  0.832800  0.649200  1.0  -0.0641
  C  C494  1  0.880500  0.585300  0.796600  1.0  -0.0715
  C  C495  1  0.877600  0.582200  0.829600  1.0  0.724
  C  C496  1  0.910700  0.906000  0.632100  1.0  -0.0965
  C  C497  1  0.385200  0.113100  0.692900  1.0  0.4319
  C  C498  1  0.373800  0.257100  0.582400  1.0  -0.0831
  C  C499  1  0.384100  0.099400  0.728000  1.0  -0.051
  C  C500  1  0.387600  0.179400  0.752800  1.0  -0.0803
  C  C501  1  0.387700  0.182100  0.648800  1.0  0.2757
  C  C502  1  0.391000  0.255900  0.627300  1.0  0.0404
  C  C503  1  0.040800  0.072800  0.198600  1.0  0.3047
  C  C504  1  0.019000  0.150200  0.177800  1.0  0.0251
  C  C505  1  0.967300  0.212900  0.129200  1.0  -0.0585
  C  C506  1  0.011700  0.316200  0.163100  1.0  -0.1086
  C  C507  1  0.030500  0.242100  0.184400  1.0  -0.0178
  C  C508  1  0.979000  0.298200  0.134400  1.0  -0.1092
  C  C509  1  0.958300  0.375000  0.110100  1.0  0.7528
  C  C510  1  0.986200  0.135800  0.147700  1.0  -0.1229
  C  C511  1  0.082000  0.995500  0.234900  1.0  0.3602
  C  C512  1  0.178700  0.932800  0.316500  1.0  -0.1125
  C  C513  1  0.167300  0.021500  0.314500  1.0  -0.0404
  C  C514  1  0.376700  0.009800  0.773300  1.0  -0.0443
  C  C515  1  0.378300  0.016100  0.739600  1.0  -0.0422
  C  C516  1  0.386100  0.171900  0.785300  1.0  -0.0576
  C  C517  1  0.393600  0.409500  0.587100  1.0  -0.093
  C  C518  1  0.157100  0.863800  0.289600  1.0  -0.0689
  C  C519  1  0.393700  0.491900  0.566100  1.0  0.7033
  C  C520  1  0.135400  0.038200  0.290200  1.0  -0.1332
  C  C521  1  0.125400  0.887900  0.264700  1.0  -0.0424
  C  C522  1  0.212700  0.917600  0.342700  1.0  0.7171
  C  C523  1  0.116000  0.974600  0.263800  1.0  -0.0152
  C  C524  1  0.375600  0.332000  0.561500  1.0  -0.1169
  C  C525  1  0.408500  0.332800  0.649200  1.0  -0.0641
  C  C526  1  0.380500  0.085300  0.796600  1.0  -0.0715
  C  C527  1  0.377600  0.082200  0.829600  1.0  0.724
  C  C528  1  0.410700  0.406000  0.632100  1.0  -0.0965
  N  N529  1  0.120000  0.405500  0.362800  1.0  -0.0454
  N  N530  1  0.110300  0.306300  0.316900  1.0  -0.2906
  N  N531  1  0.123000  0.451700  0.336200  1.0  -0.3634
  N  N532  1  0.428500  0.418600  0.772200  1.0  -0.3775
  N  N533  1  0.466500  0.517300  0.807800  1.0  -0.084
  N  N534  1  0.440300  0.569200  0.785800  1.0  -0.3675
  N  N535  1  0.620000  0.905500  0.362800  1.0  -0.0454
  N  N536  1  0.610300  0.806300  0.316900  1.0  -0.2906
  N  N537  1  0.623000  0.951700  0.336200  1.0  -0.3634
  N  N538  1  0.928500  0.918600  0.772200  1.0  -0.3775
  N  N539  1  0.966500  0.017300  0.807800  1.0  -0.084
  N  N540  1  0.940300  0.069200  0.785800  1.0  -0.3675
  N  N541  1  0.120000  0.594500  0.862800  1.0  -0.046
  N  N542  1  0.110300  0.693700  0.816900  1.0  -0.2921
  N  N543  1  0.123000  0.548300  0.836200  1.0  -0.3623
  N  N544  1  0.428500  0.581400  0.272200  1.0  -0.3761
  N  N545  1  0.466500  0.482700  0.307800  1.0  -0.0866
  N  N546  1  0.440300  0.430800  0.285800  1.0  -0.3655
  N  N547  1  0.620000  0.094500  0.862800  1.0  -0.046
  N  N548  1  0.610300  0.193700  0.816900  1.0  -0.2921
  N  N549  1  0.623000  0.048300  0.836200  1.0  -0.3623
  N  N550  1  0.928500  0.081400  0.272200  1.0  -0.3761
  N  N551  1  0.966500  0.982700  0.307800  1.0  -0.0866
  N  N552  1  0.940300  0.930800  0.285800  1.0  -0.3655
  N  N553  1  0.880000  0.405500  0.137200  1.0  -0.0469
  N  N554  1  0.889700  0.306300  0.183100  1.0  -0.2903
  N  N555  1  0.877000  0.451700  0.163800  1.0  -0.3648
  N  N556  1  0.571500  0.418600  0.727800  1.0  -0.3773
  N  N557  1  0.533500  0.517300  0.692200  1.0  -0.0856
  N  N558  1  0.559700  0.569200  0.714200  1.0  -0.3674
  N  N559  1  0.380000  0.905500  0.137200  1.0  -0.0469
  N  N560  1  0.389700  0.806300  0.183100  1.0  -0.2903
  N  N561  1  0.377000  0.951700  0.163800  1.0  -0.3648
  N  N562  1  0.071500  0.918600  0.727800  1.0  -0.3773
  N  N563  1  0.033500  0.017300  0.692200  1.0  -0.0856
  N  N564  1  0.059700  0.069200  0.714200  1.0  -0.3674
  N  N565  1  0.880000  0.594500  0.637200  1.0  -0.0474
  N  N566  1  0.889700  0.693700  0.683100  1.0  -0.2922
  N  N567  1  0.877000  0.548300  0.663800  1.0  -0.3633
  N  N568  1  0.571500  0.581400  0.227800  1.0  -0.377
  N  N569  1  0.533500  0.482700  0.192200  1.0  -0.0871
  N  N570  1  0.559700  0.430800  0.214200  1.0  -0.364
  N  N571  1  0.380000  0.094500  0.637200  1.0  -0.0474
  N  N572  1  0.389700  0.193700  0.683100  1.0  -0.2922
  N  N573  1  0.377000  0.048300  0.663800  1.0  -0.3633
  N  N574  1  0.071500  0.081400  0.227800  1.0  -0.377
  N  N575  1  0.033500  0.982700  0.192200  1.0  -0.0871
  N  N576  1  0.059700  0.930800  0.214200  1.0  -0.364
  O  O577  1  0.214000  0.570100  0.631500  1.0  -0.8036
  O  O578  1  0.217400  0.674800  0.567400  1.0  -0.7802
  O  O579  1  0.143900  0.416600  0.492800  1.0  -0.7818
  O  O580  1  0.090800  0.570100  0.429600  1.0  -0.841
  O  O581  1  0.196500  0.462400  0.549600  1.0  -0.8277
  O  O582  1  0.120000  0.852800  0.526900  1.0  -0.8047
  O  O583  1  0.172200  0.811700  0.514000  1.0  -0.7607
  O  O584  1  0.108500  0.754900  0.445000  1.0  -0.8421
  O  O585  1  0.178700  0.789400  0.640700  1.0  -0.6524
  O  O586  1  0.086200  0.463600  0.492500  1.0  -0.8499
  O  O587  1  0.193000  0.398500  0.609800  1.0  -0.6962
  O  O588  1  0.158700  0.705300  0.448700  1.0  -0.6191
  O  O589  1  0.200100  0.576800  0.499100  1.0  -0.6489
  O  O590  1  0.269200  0.523000  0.627600  1.0  -0.5558
  O  O591  1  0.166400  0.611500  0.637600  1.0  -0.7905
  O  O592  1  0.047500  0.601400  0.440500  1.0  -0.6356
  O  O593  1  0.132900  0.350900  0.544700  1.0  -0.6832
  O  O594  1  0.066700  0.785100  0.458900  1.0  -0.6814
  O  O595  1  0.117600  0.772300  0.576500  1.0  -0.764
  O  O596  1  0.179900  0.882500  0.582200  1.0  -0.6523
  O  O597  1  0.227400  0.750900  0.636800  1.0  -0.6316
  O  O598  1  0.099600  0.555400  0.565100  1.0  -0.7862
  O  O599  1  0.570000  0.138900  0.912200  1.0  -0.5506
  O  O600  1  0.062200  0.690600  0.513800  1.0  -0.5993
  O  O601  1  0.140300  0.528500  0.435300  1.0  -0.7062
  O  O602  1  0.146900  0.437900  0.617700  1.0  -0.6683
  O  O603  1  0.114600  0.344900  0.146400  1.0  -0.5567
  O  O604  1  0.278200  0.657000  0.660500  1.0  -0.4362
  O  O605  1  0.131000  0.984100  0.469900  1.0  -0.572
  O  O606  1  0.531300  0.048800  0.889900  1.0  -0.4243
  O  O607  1  0.083600  0.956400  0.417000  1.0  -0.5211
  O  O608  1  0.129800  0.492000  0.162400  1.0  -0.4387
  O  O609  1  0.714000  0.070100  0.631500  1.0  -0.8036
  O  O610  1  0.717400  0.174800  0.567400  1.0  -0.7802
  O  O611  1  0.643900  0.916600  0.492800  1.0  -0.7818
  O  O612  1  0.590800  0.070100  0.429600  1.0  -0.841
  O  O613  1  0.696500  0.962400  0.549600  1.0  -0.8277
  O  O614  1  0.620000  0.352800  0.526900  1.0  -0.8047
  O  O615  1  0.672200  0.311700  0.514000  1.0  -0.7607
  O  O616  1  0.608500  0.254900  0.445000  1.0  -0.8421
  O  O617  1  0.678700  0.289400  0.640700  1.0  -0.6524
  O  O618  1  0.586200  0.963600  0.492500  1.0  -0.8499
  O  O619  1  0.693000  0.898500  0.609800  1.0  -0.6962
  O  O620  1  0.658700  0.205300  0.448700  1.0  -0.6191
  O  O621  1  0.700100  0.076800  0.499100  1.0  -0.6489
  O  O622  1  0.769200  0.023000  0.627600  1.0  -0.5558
  O  O623  1  0.666400  0.111500  0.637600  1.0  -0.7905
  O  O624  1  0.547500  0.101400  0.440500  1.0  -0.6356
  O  O625  1  0.632900  0.850900  0.544700  1.0  -0.6832
  O  O626  1  0.566700  0.285100  0.458900  1.0  -0.6814
  O  O627  1  0.617600  0.272300  0.576500  1.0  -0.764
  O  O628  1  0.679900  0.382500  0.582200  1.0  -0.6523
  O  O629  1  0.727400  0.250900  0.636800  1.0  -0.6316
  O  O630  1  0.599600  0.055400  0.565100  1.0  -0.7862
  O  O631  1  0.070000  0.638900  0.912200  1.0  -0.5506
  O  O632  1  0.562200  0.190600  0.513800  1.0  -0.5993
  O  O633  1  0.640300  0.028500  0.435300  1.0  -0.7062
  O  O634  1  0.646900  0.937900  0.617700  1.0  -0.6683
  O  O635  1  0.614600  0.844900  0.146400  1.0  -0.5567
  O  O636  1  0.778200  0.157000  0.660500  1.0  -0.4362
  O  O637  1  0.631000  0.484100  0.469900  1.0  -0.572
  O  O638  1  0.031300  0.548800  0.889900  1.0  -0.4243
  O  O639  1  0.583600  0.456400  0.417000  1.0  -0.5211
  O  O640  1  0.629800  0.992000  0.162400  1.0  -0.4387
  O  O641  1  0.214000  0.429900  0.131500  1.0  -0.8036
  O  O642  1  0.217400  0.325200  0.067400  1.0  -0.7801
  O  O643  1  0.143900  0.583400  0.992800  1.0  -0.782
  O  O644  1  0.090800  0.429900  0.929600  1.0  -0.841
  O  O645  1  0.196500  0.537600  0.049600  1.0  -0.8278
  O  O646  1  0.120000  0.147200  0.026900  1.0  -0.8037
  O  O647  1  0.172200  0.188300  0.014000  1.0  -0.7623
  O  O648  1  0.108500  0.245100  0.945000  1.0  -0.8419
  O  O649  1  0.178700  0.210600  0.140700  1.0  -0.6553
  O  O650  1  0.086200  0.536400  0.992500  1.0  -0.8488
  O  O651  1  0.193000  0.601500  0.109800  1.0  -0.6952
  O  O652  1  0.158700  0.294700  0.948700  1.0  -0.6181
  O  O653  1  0.200100  0.423200  0.999100  1.0  -0.6485
  O  O654  1  0.269200  0.477000  0.127600  1.0  -0.5558
  O  O655  1  0.166400  0.388500  0.137600  1.0  -0.7906
  O  O656  1  0.047500  0.398600  0.940500  1.0  -0.636
  O  O657  1  0.132900  0.649100  0.044700  1.0  -0.6812
  O  O658  1  0.066700  0.214900  0.958900  1.0  -0.6812
  O  O659  1  0.117600  0.227700  0.076500  1.0  -0.7641
  O  O660  1  0.179900  0.117500  0.082200  1.0  -0.6529
  O  O661  1  0.227400  0.249100  0.136800  1.0  -0.6333
  O  O662  1  0.099600  0.444600  0.065100  1.0  -0.7864
  O  O663  1  0.570000  0.861100  0.412200  1.0  -0.5513
  O  O664  1  0.062200  0.309400  0.013800  1.0  -0.5995
  O  O665  1  0.140300  0.471500  0.935300  1.0  -0.7058
  O  O666  1  0.146900  0.562100  0.117700  1.0  -0.6669
  O  O667  1  0.114600  0.655100  0.646400  1.0  -0.5562
  O  O668  1  0.278200  0.343000  0.160500  1.0  -0.4369
  O  O669  1  0.131000  0.015900  0.969900  1.0  -0.5719
  O  O670  1  0.531300  0.951200  0.389900  1.0  -0.4239
  O  O671  1  0.083600  0.043600  0.917000  1.0  -0.5214
  O  O672  1  0.129800  0.508000  0.662400  1.0  -0.4367
  O  O673  1  0.714000  0.929900  0.131500  1.0  -0.8036
  O  O674  1  0.717400  0.825200  0.067400  1.0  -0.7801
  O  O675  1  0.643900  0.083400  0.992800  1.0  -0.782
  O  O676  1  0.590800  0.929900  0.929600  1.0  -0.841
  O  O677  1  0.696500  0.037600  0.049600  1.0  -0.8278
  O  O678  1  0.620000  0.647200  0.026900  1.0  -0.8037
  O  O679  1  0.672200  0.688300  0.014000  1.0  -0.7623
  O  O680  1  0.608500  0.745100  0.945000  1.0  -0.8419
  O  O681  1  0.678700  0.710600  0.140700  1.0  -0.6553
  O  O682  1  0.586200  0.036400  0.992500  1.0  -0.8488
  O  O683  1  0.693000  0.101500  0.109800  1.0  -0.6952
  O  O684  1  0.658700  0.794700  0.948700  1.0  -0.6181
  O  O685  1  0.700100  0.923200  0.999100  1.0  -0.6485
  O  O686  1  0.769200  0.977000  0.127600  1.0  -0.5558
  O  O687  1  0.666400  0.888500  0.137600  1.0  -0.7906
  O  O688  1  0.547500  0.898600  0.940500  1.0  -0.636
  O  O689  1  0.632900  0.149100  0.044700  1.0  -0.6812
  O  O690  1  0.566700  0.714900  0.958900  1.0  -0.6812
  O  O691  1  0.617600  0.727700  0.076500  1.0  -0.7641
  O  O692  1  0.679900  0.617500  0.082200  1.0  -0.6529
  O  O693  1  0.727400  0.749100  0.136800  1.0  -0.6333
  O  O694  1  0.599600  0.944600  0.065100  1.0  -0.7864
  O  O695  1  0.070000  0.361100  0.412200  1.0  -0.5513
  O  O696  1  0.562200  0.809400  0.013800  1.0  -0.5995
  O  O697  1  0.640300  0.971500  0.935300  1.0  -0.7058
  O  O698  1  0.646900  0.062100  0.117700  1.0  -0.6669
  O  O699  1  0.614600  0.155100  0.646400  1.0  -0.5562
  O  O700  1  0.778200  0.843000  0.160500  1.0  -0.4369
  O  O701  1  0.631000  0.515900  0.969900  1.0  -0.5719
  O  O702  1  0.031300  0.451200  0.389900  1.0  -0.4239
  O  O703  1  0.583600  0.543600  0.917000  1.0  -0.5214
  O  O704  1  0.629800  0.008000  0.662400  1.0  -0.4367
  O  O705  1  0.786000  0.570100  0.868500  1.0  -0.8049
  O  O706  1  0.782600  0.674800  0.932600  1.0  -0.7792
  O  O707  1  0.856100  0.416600  0.007200  1.0  -0.7817
  O  O708  1  0.909200  0.570100  0.070400  1.0  -0.8398
  O  O709  1  0.803500  0.462400  0.950400  1.0  -0.8278
  O  O710  1  0.880000  0.852800  0.973100  1.0  -0.8043
  O  O711  1  0.827800  0.811700  0.986000  1.0  -0.761
  O  O712  1  0.891500  0.754900  0.055000  1.0  -0.8421
  O  O713  1  0.821300  0.789400  0.859300  1.0  -0.6515
  O  O714  1  0.913800  0.463600  0.007500  1.0  -0.8503
  O  O715  1  0.807000  0.398500  0.890200  1.0  -0.6961
  O  O716  1  0.841300  0.705300  0.051300  1.0  -0.6172
  O  O717  1  0.799900  0.576800  0.000900  1.0  -0.6462
  O  O718  1  0.730800  0.523000  0.872400  1.0  -0.5548
  O  O719  1  0.833600  0.611500  0.862400  1.0  -0.7926
  O  O720  1  0.952500  0.601400  0.059500  1.0  -0.6345
  O  O721  1  0.867100  0.350900  0.955300  1.0  -0.6825
  O  O722  1  0.933300  0.785100  0.041100  1.0  -0.6804
  O  O723  1  0.882400  0.772300  0.923500  1.0  -0.7638
  O  O724  1  0.820100  0.882500  0.917800  1.0  -0.655
  O  O725  1  0.772600  0.750900  0.863200  1.0  -0.6334
  O  O726  1  0.900400  0.555400  0.934900  1.0  -0.7861
  O  O727  1  0.430000  0.138900  0.587800  1.0  -0.5495
  O  O728  1  0.937800  0.690600  0.986200  1.0  -0.5986
  O  O729  1  0.859700  0.528500  0.064700  1.0  -0.705
  O  O730  1  0.853100  0.437900  0.882300  1.0  -0.6686
  O  O731  1  0.885400  0.344900  0.353600  1.0  -0.5564
  O  O732  1  0.721800  0.657000  0.839500  1.0  -0.436
  O  O733  1  0.869000  0.984100  0.030100  1.0  -0.5725
  O  O734  1  0.468700  0.048800  0.610100  1.0  -0.4245
  O  O735  1  0.916400  0.956400  0.083000  1.0  -0.5211
  O  O736  1  0.870200  0.492000  0.337600  1.0  -0.4376
  O  O737  1  0.286000  0.070100  0.868500  1.0  -0.8049
  O  O738  1  0.282600  0.174800  0.932600  1.0  -0.7792
  O  O739  1  0.356100  0.916600  0.007200  1.0  -0.7817
  O  O740  1  0.409200  0.070100  0.070400  1.0  -0.8398
  O  O741  1  0.303500  0.962400  0.950400  1.0  -0.8278
  O  O742  1  0.380000  0.352800  0.973100  1.0  -0.8043
  O  O743  1  0.327800  0.311700  0.986000  1.0  -0.761
  O  O744  1  0.391500  0.254900  0.055000  1.0  -0.8421
  O  O745  1  0.321300  0.289400  0.859300  1.0  -0.6515
  O  O746  1  0.413800  0.963600  0.007500  1.0  -0.8503
  O  O747  1  0.307000  0.898500  0.890200  1.0  -0.6961
  O  O748  1  0.341300  0.205300  0.051300  1.0  -0.6172
  O  O749  1  0.299900  0.076800  0.000900  1.0  -0.6462
  O  O750  1  0.230800  0.023000  0.872400  1.0  -0.5548
  O  O751  1  0.333600  0.111500  0.862400  1.0  -0.7926
  O  O752  1  0.452500  0.101400  0.059500  1.0  -0.6345
  O  O753  1  0.367100  0.850900  0.955300  1.0  -0.6825
  O  O754  1  0.433300  0.285100  0.041100  1.0  -0.6804
  O  O755  1  0.382400  0.272300  0.923500  1.0  -0.7638
  O  O756  1  0.320100  0.382500  0.917800  1.0  -0.655
  O  O757  1  0.272600  0.250900  0.863200  1.0  -0.6334
  O  O758  1  0.400400  0.055400  0.934900  1.0  -0.7861
  O  O759  1  0.930000  0.638900  0.587800  1.0  -0.5495
  O  O760  1  0.437800  0.190600  0.986200  1.0  -0.5986
  O  O761  1  0.359700  0.028500  0.064700  1.0  -0.705
  O  O762  1  0.353100  0.937900  0.882300  1.0  -0.6686
  O  O763  1  0.385400  0.844900  0.353600  1.0  -0.5564
  O  O764  1  0.221800  0.157000  0.839500  1.0  -0.436
  O  O765  1  0.369000  0.484100  0.030100  1.0  -0.5725
  O  O766  1  0.968700  0.548800  0.610100  1.0  -0.4245
  O  O767  1  0.416400  0.456400  0.083000  1.0  -0.5211
  O  O768  1  0.370200  0.992000  0.337600  1.0  -0.4376
  O  O769  1  0.786000  0.429900  0.368500  1.0  -0.8048
  O  O770  1  0.782600  0.325200  0.432600  1.0  -0.7794
  O  O771  1  0.856100  0.583400  0.507200  1.0  -0.7818
  O  O772  1  0.909200  0.429900  0.570400  1.0  -0.8402
  O  O773  1  0.803500  0.537600  0.450400  1.0  -0.828
  O  O774  1  0.880000  0.147200  0.473100  1.0  -0.8038
  O  O775  1  0.827800  0.188300  0.486000  1.0  -0.763
  O  O776  1  0.891500  0.245100  0.555000  1.0  -0.8412
  O  O777  1  0.821300  0.210600  0.359300  1.0  -0.651
  O  O778  1  0.913800  0.536400  0.507500  1.0  -0.8495
  O  O779  1  0.807000  0.601500  0.390200  1.0  -0.6957
  O  O780  1  0.841300  0.294700  0.551300  1.0  -0.6176
  O  O781  1  0.799900  0.423200  0.500900  1.0  -0.6463
  O  O782  1  0.730800  0.477000  0.372400  1.0  -0.5554
  O  O783  1  0.833600  0.388500  0.362400  1.0  -0.7927
  O  O784  1  0.952500  0.398600  0.559500  1.0  -0.6345
  O  O785  1  0.867100  0.649100  0.455300  1.0  -0.6817
  O  O786  1  0.933300  0.214900  0.541100  1.0  -0.6814
  O  O787  1  0.882400  0.227700  0.423500  1.0  -0.7635
  O  O788  1  0.820100  0.117500  0.417800  1.0  -0.6554
  O  O789  1  0.772600  0.249100  0.363200  1.0  -0.6341
  O  O790  1  0.900400  0.444600  0.434900  1.0  -0.7862
  O  O791  1  0.430000  0.861100  0.087800  1.0  -0.5499
  O  O792  1  0.937800  0.309400  0.486200  1.0  -0.599
  O  O793  1  0.859700  0.471500  0.564700  1.0  -0.704
  O  O794  1  0.853100  0.562100  0.382300  1.0  -0.6678
  O  O795  1  0.885400  0.655100  0.853600  1.0  -0.555
  O  O796  1  0.721800  0.343000  0.339500  1.0  -0.4363
  O  O797  1  0.869000  0.015900  0.530100  1.0  -0.5723
  O  O798  1  0.468700  0.951200  0.110100  1.0  -0.4218
  O  O799  1  0.916400  0.043600  0.583000  1.0  -0.522
  O  O800  1  0.870200  0.508000  0.837600  1.0  -0.4347
  O  O801  1  0.286000  0.929900  0.368500  1.0  -0.8048
  O  O802  1  0.282600  0.825200  0.432600  1.0  -0.7794
  O  O803  1  0.356100  0.083400  0.507200  1.0  -0.7818
  O  O804  1  0.409200  0.929900  0.570400  1.0  -0.8402
  O  O805  1  0.303500  0.037600  0.450400  1.0  -0.828
  O  O806  1  0.380000  0.647200  0.473100  1.0  -0.8038
  O  O807  1  0.327800  0.688300  0.486000  1.0  -0.763
  O  O808  1  0.391500  0.745100  0.555000  1.0  -0.8412
  O  O809  1  0.321300  0.710600  0.359300  1.0  -0.651
  O  O810  1  0.413800  0.036400  0.507500  1.0  -0.8495
  O  O811  1  0.307000  0.101500  0.390200  1.0  -0.6957
  O  O812  1  0.341300  0.794700  0.551300  1.0  -0.6176
  O  O813  1  0.299900  0.923200  0.500900  1.0  -0.6463
  O  O814  1  0.230800  0.977000  0.372400  1.0  -0.5554
  O  O815  1  0.333600  0.888500  0.362400  1.0  -0.7927
  O  O816  1  0.452500  0.898600  0.559500  1.0  -0.6345
  O  O817  1  0.367100  0.149100  0.455300  1.0  -0.6817
  O  O818  1  0.433300  0.714900  0.541100  1.0  -0.6814
  O  O819  1  0.382400  0.727700  0.423500  1.0  -0.7635
  O  O820  1  0.320100  0.617500  0.417800  1.0  -0.6554
  O  O821  1  0.272600  0.749100  0.363200  1.0  -0.6341
  O  O822  1  0.400400  0.944600  0.434900  1.0  -0.7862
  O  O823  1  0.930000  0.361100  0.087800  1.0  -0.5499
  O  O824  1  0.437800  0.809400  0.486200  1.0  -0.599
  O  O825  1  0.359700  0.971500  0.564700  1.0  -0.704
  O  O826  1  0.353100  0.062100  0.382300  1.0  -0.6678
  O  O827  1  0.385400  0.155100  0.853600  1.0  -0.555
  O  O828  1  0.221800  0.843000  0.339500  1.0  -0.4363
  O  O829  1  0.369000  0.515900  0.530100  1.0  -0.5723
  O  O830  1  0.968700  0.451200  0.110100  1.0  -0.4218
  O  O831  1  0.416400  0.543600  0.583000  1.0  -0.522
  O  O832  1  0.370200  0.008000  0.837600  1.0  -0.4347
