# generated using pymatgen
data_Cr51H72(C18O13)17
_symmetry_space_group_name_H-M   'P 1'
_cell_length_a   51.55210000
_cell_length_b   51.55210000
_cell_length_c   51.55210000
_cell_angle_alpha   60.00000000
_cell_angle_beta   60.00000000
_cell_angle_gamma   60.00000000
_symmetry_Int_Tables_number   1
_chemical_formula_structural   Cr51H72(C18O13)17
_chemical_formula_sum   'Cr204 H288 C1224 O884'
_cell_volume   96877.75936957
_cell_formula_units_Z   4
loop_
 _symmetry_equiv_pos_site_id
 _symmetry_equiv_pos_as_xyz
  1  'x, y, z'
loop_
 _atom_site_type_symbol
 _atom_site_label
 _atom_site_symmetry_multiplicity
 _atom_site_fract_x
 _atom_site_fract_y
 _atom_site_fract_z
 _atom_site_occupancy
 _atom_site_charge
  Cr  Cr1  1  0.746340  0.890550  0.955000  1.0  1.4662
  Cr  Cr2  1  0.585310  0.139280  0.929890  1.0  1.5214
  Cr  Cr3  1  0.890550  0.746340  0.408110  1.0  1.4648
  Cr  Cr4  1  0.139280  0.585310  0.345520  1.0  1.5194
  Cr  Cr5  1  0.955000  0.408110  0.746340  1.0  1.467
  Cr  Cr6  1  0.929890  0.345520  0.585310  1.0  1.5099
  Cr  Cr7  1  0.408110  0.955000  0.890550  1.0  1.4677
  Cr  Cr8  1  0.345520  0.929890  0.139280  1.0  1.5113
  Cr  Cr9  1  0.955000  0.746340  0.890550  1.0  1.4724
  Cr  Cr10  1  0.929890  0.585310  0.139280  1.0  1.5196
  Cr  Cr11  1  0.408110  0.890550  0.746340  1.0  1.4689
  Cr  Cr12  1  0.345520  0.139280  0.585310  1.0  1.5156
  Cr  Cr13  1  0.746340  0.955000  0.408110  1.0  1.4721
  Cr  Cr14  1  0.585310  0.929890  0.345520  1.0  1.5211
  Cr  Cr15  1  0.890550  0.408110  0.955000  1.0  1.4698
  Cr  Cr16  1  0.139280  0.345520  0.929890  1.0  1.5161
  Cr  Cr17  1  0.890550  0.955000  0.746340  1.0  1.4686
  Cr  Cr18  1  0.139280  0.929890  0.585310  1.0  1.5084
  Cr  Cr19  1  0.746340  0.408110  0.890550  1.0  1.4648
  Cr  Cr20  1  0.585310  0.345520  0.139280  1.0  1.521
  Cr  Cr21  1  0.408110  0.746340  0.955000  1.0  1.4673
  Cr  Cr22  1  0.345520  0.585310  0.929890  1.0  1.5186
  Cr  Cr23  1  0.955000  0.890550  0.408110  1.0  1.468
  Cr  Cr24  1  0.929890  0.139280  0.345520  1.0  1.5103
  Cr  Cr25  1  0.503660  0.359450  0.841890  1.0  1.4681
  Cr  Cr26  1  0.664690  0.110720  0.904480  1.0  1.5166
  Cr  Cr27  1  0.359450  0.503660  0.295000  1.0  1.4645
  Cr  Cr28  1  0.110720  0.664690  0.320110  1.0  1.5189
  Cr  Cr29  1  0.295000  0.841890  0.359450  1.0  1.4666
  Cr  Cr30  1  0.320110  0.904480  0.110720  1.0  1.5111
  Cr  Cr31  1  0.841890  0.295000  0.503660  1.0  1.4669
  Cr  Cr32  1  0.904480  0.320110  0.664690  1.0  1.5125
  Cr  Cr33  1  0.295000  0.503660  0.841890  1.0  1.4685
  Cr  Cr34  1  0.320110  0.664690  0.904480  1.0  1.519
  Cr  Cr35  1  0.841890  0.359450  0.295000  1.0  1.4713
  Cr  Cr36  1  0.904480  0.110720  0.320110  1.0  1.5171
  Cr  Cr37  1  0.503660  0.295000  0.359450  1.0  1.4712
  Cr  Cr38  1  0.664690  0.320110  0.110720  1.0  1.5178
  Cr  Cr39  1  0.359450  0.841890  0.503660  1.0  1.4722
  Cr  Cr40  1  0.110720  0.904480  0.664690  1.0  1.5182
  Cr  Cr41  1  0.359450  0.295000  0.841890  1.0  1.4677
  Cr  Cr42  1  0.110720  0.320110  0.904480  1.0  1.5106
  Cr  Cr43  1  0.503660  0.841890  0.295000  1.0  1.4649
  Cr  Cr44  1  0.664690  0.904480  0.320110  1.0  1.5168
  Cr  Cr45  1  0.841890  0.503660  0.359450  1.0  1.4678
  Cr  Cr46  1  0.904480  0.664690  0.110720  1.0  1.5207
  Cr  Cr47  1  0.295000  0.359450  0.503660  1.0  1.4684
  Cr  Cr48  1  0.320110  0.110720  0.664690  1.0  1.5114
  Cr  Cr49  1  0.503660  0.359450  0.295000  1.0  1.4649
  Cr  Cr50  1  0.664690  0.110720  0.320110  1.0  1.5167
  Cr  Cr51  1  0.359450  0.503660  0.841890  1.0  1.4677
  Cr  Cr52  1  0.110720  0.664690  0.904480  1.0  1.5196
  Cr  Cr53  1  0.295000  0.841890  0.503660  1.0  1.4667
  Cr  Cr54  1  0.320110  0.904480  0.664690  1.0  1.513
  Cr  Cr55  1  0.841890  0.295000  0.359450  1.0  1.4669
  Cr  Cr56  1  0.904480  0.320110  0.110720  1.0  1.5115
  Cr  Cr57  1  0.295000  0.503660  0.359450  1.0  1.4689
  Cr  Cr58  1  0.320110  0.664690  0.110720  1.0  1.5193
  Cr  Cr59  1  0.841890  0.359450  0.503660  1.0  1.4711
  Cr  Cr60  1  0.904480  0.110720  0.664690  1.0  1.5165
  Cr  Cr61  1  0.503660  0.295000  0.841890  1.0  1.4711
  Cr  Cr62  1  0.664690  0.320110  0.904480  1.0  1.5175
  Cr  Cr63  1  0.359450  0.841890  0.295000  1.0  1.4725
  Cr  Cr64  1  0.110720  0.904480  0.320110  1.0  1.5186
  Cr  Cr65  1  0.359450  0.295000  0.503660  1.0  1.4687
  Cr  Cr66  1  0.110720  0.320110  0.664690  1.0  1.5108
  Cr  Cr67  1  0.503660  0.841890  0.359450  1.0  1.4683
  Cr  Cr68  1  0.664690  0.904480  0.110720  1.0  1.5165
  Cr  Cr69  1  0.841890  0.503660  0.295000  1.0  1.4649
  Cr  Cr70  1  0.904480  0.664690  0.320110  1.0  1.5207
  Cr  Cr71  1  0.295000  0.359450  0.841890  1.0  1.4672
  Cr  Cr72  1  0.320110  0.110720  0.904480  1.0  1.5101
  Cr  Cr73  1  0.746340  0.890550  0.408110  1.0  1.4642
  Cr  Cr74  1  0.585310  0.139280  0.345520  1.0  1.5207
  Cr  Cr75  1  0.890550  0.746340  0.955000  1.0  1.4669
  Cr  Cr76  1  0.139280  0.585310  0.929890  1.0  1.5193
  Cr  Cr77  1  0.955000  0.408110  0.890550  1.0  1.4663
  Cr  Cr78  1  0.929890  0.345520  0.139280  1.0  1.512
  Cr  Cr79  1  0.408110  0.955000  0.746340  1.0  1.4681
  Cr  Cr80  1  0.345520  0.929890  0.585310  1.0  1.5081
  Cr  Cr81  1  0.955000  0.746340  0.408110  1.0  1.4724
  Cr  Cr82  1  0.929890  0.585310  0.345520  1.0  1.5203
  Cr  Cr83  1  0.408110  0.890550  0.955000  1.0  1.4693
  Cr  Cr84  1  0.345520  0.139280  0.929890  1.0  1.5143
  Cr  Cr85  1  0.746340  0.955000  0.890550  1.0  1.4721
  Cr  Cr86  1  0.585310  0.929890  0.139280  1.0  1.5208
  Cr  Cr87  1  0.890550  0.408110  0.746340  1.0  1.4693
  Cr  Cr88  1  0.139280  0.345520  0.585310  1.0  1.5173
  Cr  Cr89  1  0.890550  0.955000  0.408110  1.0  1.47
  Cr  Cr90  1  0.139280  0.929890  0.345520  1.0  1.5103
  Cr  Cr91  1  0.746340  0.408110  0.955000  1.0  1.4674
  Cr  Cr92  1  0.585310  0.345520  0.929890  1.0  1.5212
  Cr  Cr93  1  0.408110  0.746340  0.890550  1.0  1.4648
  Cr  Cr94  1  0.345520  0.585310  0.139280  1.0  1.5185
  Cr  Cr95  1  0.955000  0.890550  0.746340  1.0  1.4672
  Cr  Cr96  1  0.929890  0.139280  0.585310  1.0  1.509
  Cr  Cr97  1  0.752670  0.817440  0.817440  1.0  1.5079
  Cr  Cr98  1  0.705390  0.910250  0.910250  1.0  1.5268
  Cr  Cr99  1  0.817440  0.752670  0.612450  1.0  1.5074
  Cr  Cr100  1  0.910250  0.705390  0.474110  1.0  1.5285
  Cr  Cr101  1  0.817440  0.612450  0.752670  1.0  1.5009
  Cr  Cr102  1  0.910250  0.474110  0.705390  1.0  1.5333
  Cr  Cr103  1  0.612450  0.817440  0.817440  1.0  1.5018
  Cr  Cr104  1  0.474110  0.910250  0.910250  1.0  1.5318
  Cr  Cr105  1  0.817440  0.752670  0.817440  1.0  1.5075
  Cr  Cr106  1  0.910250  0.705390  0.910250  1.0  1.5274
  Cr  Cr107  1  0.612450  0.817440  0.752670  1.0  1.5011
  Cr  Cr108  1  0.474110  0.910250  0.705390  1.0  1.5319
  Cr  Cr109  1  0.752670  0.817440  0.612450  1.0  1.5079
  Cr  Cr110  1  0.705390  0.910250  0.474110  1.0  1.5278
  Cr  Cr111  1  0.817440  0.612450  0.817440  1.0  1.5022
  Cr  Cr112  1  0.910250  0.474110  0.910250  1.0  1.5328
  Cr  Cr113  1  0.817440  0.817440  0.752670  1.0  1.5006
  Cr  Cr114  1  0.910250  0.910250  0.705390  1.0  1.5236
  Cr  Cr115  1  0.752670  0.612450  0.817440  1.0  1.5053
  Cr  Cr116  1  0.705390  0.474110  0.910250  1.0  1.5347
  Cr  Cr117  1  0.612450  0.752670  0.817440  1.0  1.5083
  Cr  Cr118  1  0.474110  0.705390  0.910250  1.0  1.5315
  Cr  Cr119  1  0.817440  0.817440  0.612450  1.0  1.5007
  Cr  Cr120  1  0.910250  0.910250  0.474110  1.0  1.5245
  Cr  Cr121  1  0.497330  0.432560  0.637550  1.0  1.5069
  Cr  Cr122  1  0.544610  0.339750  0.775890  1.0  1.5242
  Cr  Cr123  1  0.432560  0.497330  0.432560  1.0  1.5053
  Cr  Cr124  1  0.339750  0.544610  0.339750  1.0  1.5292
  Cr  Cr125  1  0.432560  0.637550  0.432560  1.0  1.5017
  Cr  Cr126  1  0.339750  0.775890  0.339750  1.0  1.5321
  Cr  Cr127  1  0.637550  0.432560  0.497330  1.0  1.5028
  Cr  Cr128  1  0.775890  0.339750  0.544610  1.0  1.5338
  Cr  Cr129  1  0.432560  0.497330  0.637550  1.0  1.5054
  Cr  Cr130  1  0.339750  0.544610  0.775890  1.0  1.5273
  Cr  Cr131  1  0.637550  0.432560  0.432560  1.0  1.5031
  Cr  Cr132  1  0.775890  0.339750  0.339750  1.0  1.534
  Cr  Cr133  1  0.497330  0.432560  0.432560  1.0  1.5066
  Cr  Cr134  1  0.544610  0.339750  0.339750  1.0  1.5267
  Cr  Cr135  1  0.432560  0.637550  0.497330  1.0  1.501
  Cr  Cr136  1  0.339750  0.775890  0.544610  1.0  1.532
  Cr  Cr137  1  0.432560  0.432560  0.637550  1.0  1.5018
  Cr  Cr138  1  0.339750  0.339750  0.775890  1.0  1.5215
  Cr  Cr139  1  0.497330  0.637550  0.432560  1.0  1.5058
  Cr  Cr140  1  0.544610  0.775890  0.339750  1.0  1.5326
  Cr  Cr141  1  0.637550  0.497330  0.432560  1.0  1.5053
  Cr  Cr142  1  0.775890  0.544610  0.339750  1.0  1.5346
  Cr  Cr143  1  0.432560  0.432560  0.497330  1.0  1.5012
  Cr  Cr144  1  0.339750  0.339750  0.544610  1.0  1.5236
  Cr  Cr145  1  0.530610  0.969390  0.969390  1.0  1.5282
  Cr  Cr146  1  0.969390  0.530610  0.530610  1.0  1.5274
  Cr  Cr147  1  0.969390  0.530610  0.969390  1.0  1.5293
  Cr  Cr148  1  0.530610  0.969390  0.530610  1.0  1.5292
  Cr  Cr149  1  0.969390  0.969390  0.530610  1.0  1.5345
  Cr  Cr150  1  0.530610  0.530610  0.969390  1.0  1.5343
  Cr  Cr151  1  0.719390  0.280610  0.719390  1.0  1.5293
  Cr  Cr152  1  0.280610  0.719390  0.280610  1.0  1.5292
  Cr  Cr153  1  0.280610  0.719390  0.719390  1.0  1.5282
  Cr  Cr154  1  0.719390  0.280610  0.280610  1.0  1.5274
  Cr  Cr155  1  0.280610  0.280610  0.719390  1.0  1.5343
  Cr  Cr156  1  0.719390  0.719390  0.280610  1.0  1.5345
  Cr  Cr157  1  0.490800  0.041430  0.976960  1.0  1.484
  Cr  Cr158  1  0.041430  0.490800  0.490800  1.0  1.4854
  Cr  Cr159  1  0.976960  0.490800  0.490800  1.0  1.4809
  Cr  Cr160  1  0.490800  0.976960  0.041430  1.0  1.481
  Cr  Cr161  1  0.976960  0.490800  0.041430  1.0  1.4806
  Cr  Cr162  1  0.490800  0.041430  0.490800  1.0  1.4861
  Cr  Cr163  1  0.490800  0.976960  0.490800  1.0  1.4814
  Cr  Cr164  1  0.041430  0.490800  0.976960  1.0  1.483
  Cr  Cr165  1  0.041430  0.976960  0.490800  1.0  1.4837
  Cr  Cr166  1  0.490800  0.490800  0.041430  1.0  1.4829
  Cr  Cr167  1  0.490800  0.490800  0.976960  1.0  1.4805
  Cr  Cr168  1  0.976960  0.041430  0.490800  1.0  1.4839
  Cr  Cr169  1  0.759200  0.208570  0.759200  1.0  1.4865
  Cr  Cr170  1  0.208570  0.759200  0.273040  1.0  1.4792
  Cr  Cr171  1  0.273040  0.759200  0.208570  1.0  1.476
  Cr  Cr172  1  0.759200  0.273040  0.759200  1.0  1.4832
  Cr  Cr173  1  0.273040  0.759200  0.759200  1.0  1.4835
  Cr  Cr174  1  0.759200  0.208570  0.273040  1.0  1.484
  Cr  Cr175  1  0.759200  0.273040  0.208570  1.0  1.4753
  Cr  Cr176  1  0.208570  0.759200  0.759200  1.0  1.482
  Cr  Cr177  1  0.208570  0.273040  0.759200  1.0  1.48
  Cr  Cr178  1  0.759200  0.759200  0.273040  1.0  1.4833
  Cr  Cr179  1  0.759200  0.759200  0.208570  1.0  1.4781
  Cr  Cr180  1  0.273040  0.208570  0.759200  1.0  1.4843
  Cr  Cr181  1  0.276930  0.973070  0.125000  1.0  1.3815
  Cr  Cr182  1  0.973070  0.276930  0.625000  1.0  1.3811
  Cr  Cr183  1  0.125000  0.625000  0.276930  1.0  1.3724
  Cr  Cr184  1  0.625000  0.125000  0.973070  1.0  1.372
  Cr  Cr185  1  0.125000  0.276930  0.973070  1.0  1.3802
  Cr  Cr186  1  0.625000  0.973070  0.276930  1.0  1.3796
  Cr  Cr187  1  0.276930  0.125000  0.625000  1.0  1.3741
  Cr  Cr188  1  0.973070  0.625000  0.125000  1.0  1.3799
  Cr  Cr189  1  0.973070  0.125000  0.276930  1.0  1.3794
  Cr  Cr190  1  0.276930  0.625000  0.973070  1.0  1.3739
  Cr  Cr191  1  0.625000  0.276930  0.125000  1.0  1.3801
  Cr  Cr192  1  0.125000  0.973070  0.625000  1.0  1.3809
  Cr  Cr193  1  0.973070  0.276930  0.125000  1.0  1.3811
  Cr  Cr194  1  0.276930  0.973070  0.625000  1.0  1.3815
  Cr  Cr195  1  0.125000  0.625000  0.973070  1.0  1.372
  Cr  Cr196  1  0.625000  0.125000  0.276930  1.0  1.3724
  Cr  Cr197  1  0.125000  0.973070  0.276930  1.0  1.3796
  Cr  Cr198  1  0.625000  0.276930  0.973070  1.0  1.3802
  Cr  Cr199  1  0.973070  0.125000  0.625000  1.0  1.3799
  Cr  Cr200  1  0.276930  0.625000  0.125000  1.0  1.3741
  Cr  Cr201  1  0.276930  0.125000  0.973070  1.0  1.3739
  Cr  Cr202  1  0.973070  0.625000  0.276930  1.0  1.3794
  Cr  Cr203  1  0.625000  0.973070  0.125000  1.0  1.3809
  Cr  Cr204  1  0.125000  0.276930  0.625000  1.0  1.3801
  H  H205  1  0.391260  0.080040  0.996490  1.0  0.1093
  H  H206  1  0.743970  0.827190  0.895470  1.0  0.1184
  H  H207  1  0.671610  0.036850  0.888910  1.0  0.1234
  H  H208  1  0.569570  0.071940  0.926150  1.0  0.1145
  H  H209  1  0.618110  0.979730  0.915440  1.0  0.117
  H  H210  1  0.713390  0.019070  0.935920  1.0  0.1134
  H  H211  1  0.080040  0.391260  0.532210  1.0  0.108
  H  H212  1  0.827190  0.743970  0.533370  1.0  0.1192
  H  H213  1  0.036850  0.671610  0.402630  1.0  0.1237
  H  H214  1  0.071940  0.569570  0.432340  1.0  0.1149
  H  H215  1  0.979730  0.618110  0.486720  1.0  0.1149
  H  H216  1  0.019070  0.713390  0.331620  1.0  0.1136
  H  H217  1  0.996490  0.532210  0.391260  1.0  0.109
  H  H218  1  0.895470  0.533370  0.743970  1.0  0.118
  H  H219  1  0.888910  0.402630  0.671610  1.0  0.1229
  H  H220  1  0.926150  0.432340  0.569570  1.0  0.1136
  H  H221  1  0.915440  0.486720  0.618110  1.0  0.1157
  H  H222  1  0.935920  0.331620  0.713390  1.0  0.1143
  H  H223  1  0.532210  0.996490  0.080040  1.0  0.109
  H  H224  1  0.533370  0.895470  0.827190  1.0  0.1182
  H  H225  1  0.402630  0.888910  0.036850  1.0  0.1233
  H  H226  1  0.432340  0.926150  0.071940  1.0  0.1142
  H  H227  1  0.486720  0.915440  0.979730  1.0  0.1143
  H  H228  1  0.331620  0.935920  0.019070  1.0  0.1144
  H  H229  1  0.996490  0.391260  0.080040  1.0  0.1108
  H  H230  1  0.895470  0.743970  0.827190  1.0  0.1199
  H  H231  1  0.888910  0.671610  0.036850  1.0  0.1232
  H  H232  1  0.926150  0.569570  0.071940  1.0  0.1144
  H  H233  1  0.915440  0.618110  0.979730  1.0  0.113
  H  H234  1  0.935920  0.713390  0.019070  1.0  0.1148
  H  H235  1  0.532210  0.080040  0.391260  1.0  0.1085
  H  H236  1  0.533370  0.827190  0.743970  1.0  0.1197
  H  H237  1  0.402630  0.036850  0.671610  1.0  0.125
  H  H238  1  0.432340  0.071940  0.569570  1.0  0.1138
  H  H239  1  0.486720  0.979730  0.618110  1.0  0.1144
  H  H240  1  0.331620  0.019070  0.713390  1.0  0.1138
  H  H241  1  0.391260  0.996490  0.532210  1.0  0.1113
  H  H242  1  0.743970  0.895470  0.533370  1.0  0.1173
  H  H243  1  0.671610  0.888910  0.402630  1.0  0.1242
  H  H244  1  0.569570  0.926150  0.432340  1.0  0.1132
  H  H245  1  0.618110  0.915440  0.486720  1.0  0.1141
  H  H246  1  0.713390  0.935920  0.331620  1.0  0.1149
  H  H247  1  0.080040  0.532210  0.996490  1.0  0.1087
  H  H248  1  0.827190  0.533370  0.895470  1.0  0.1205
  H  H249  1  0.036850  0.402630  0.888910  1.0  0.1237
  H  H250  1  0.071940  0.432340  0.926150  1.0  0.1128
  H  H251  1  0.979730  0.486720  0.915440  1.0  0.1182
  H  H252  1  0.019070  0.331620  0.935920  1.0  0.115
  H  H253  1  0.080040  0.996490  0.391260  1.0  0.109
  H  H254  1  0.827190  0.895470  0.743970  1.0  0.119
  H  H255  1  0.036850  0.888910  0.671610  1.0  0.1247
  H  H256  1  0.071940  0.926150  0.569570  1.0  0.1143
  H  H257  1  0.979730  0.915440  0.618110  1.0  0.1142
  H  H258  1  0.019070  0.935920  0.713390  1.0  0.1165
  H  H259  1  0.391260  0.532210  0.080040  1.0  0.1097
  H  H260  1  0.743970  0.533370  0.827190  1.0  0.1173
  H  H261  1  0.671610  0.402630  0.036850  1.0  0.1236
  H  H262  1  0.569570  0.432340  0.071940  1.0  0.1135
  H  H263  1  0.618110  0.486720  0.979730  1.0  0.1168
  H  H264  1  0.713390  0.331620  0.019070  1.0  0.1139
  H  H265  1  0.532210  0.391260  0.996490  1.0  0.1096
  H  H266  1  0.533370  0.743970  0.895470  1.0  0.1192
  H  H267  1  0.402630  0.671610  0.888910  1.0  0.1245
  H  H268  1  0.432340  0.569570  0.926150  1.0  0.1163
  H  H269  1  0.486720  0.618110  0.915440  1.0  0.1139
  H  H270  1  0.331620  0.713390  0.935920  1.0  0.1143
  H  H271  1  0.996490  0.080040  0.532210  1.0  0.1107
  H  H272  1  0.895470  0.827190  0.533370  1.0  0.1189
  H  H273  1  0.888910  0.036850  0.402630  1.0  0.1231
  H  H274  1  0.926150  0.071940  0.432340  1.0  0.1154
  H  H275  1  0.915440  0.979730  0.486720  1.0  0.1153
  H  H276  1  0.935920  0.019070  0.331620  1.0  0.1151
  H  H277  1  0.858740  0.169960  0.717790  1.0  0.1092
  H  H278  1  0.506030  0.422810  0.716630  1.0  0.1189
  H  H279  1  0.578390  0.213150  0.847370  1.0  0.1236
  H  H280  1  0.680430  0.178060  0.817660  1.0  0.1151
  H  H281  1  0.631890  0.270270  0.763280  1.0  0.1174
  H  H282  1  0.536610  0.230930  0.918380  1.0  0.1133
  H  H283  1  0.169960  0.858740  0.253510  1.0  0.1078
  H  H284  1  0.422810  0.506030  0.354530  1.0  0.1193
  H  H285  1  0.213150  0.578390  0.361090  1.0  0.1237
  H  H286  1  0.178060  0.680430  0.323850  1.0  0.1143
  H  H287  1  0.270270  0.631890  0.334560  1.0  0.1151
  H  H288  1  0.230930  0.536610  0.314080  1.0  0.1144
  H  H289  1  0.253510  0.717790  0.169960  1.0  0.1091
  H  H290  1  0.354530  0.716630  0.422810  1.0  0.1182
  H  H291  1  0.361090  0.847370  0.213150  1.0  0.1225
  H  H292  1  0.323850  0.817660  0.178060  1.0  0.1133
  H  H293  1  0.334560  0.763280  0.270270  1.0  0.1151
  H  H294  1  0.314080  0.918380  0.230930  1.0  0.1141
  H  H295  1  0.717790  0.253510  0.858740  1.0  0.1088
  H  H296  1  0.716630  0.354530  0.506030  1.0  0.1189
  H  H297  1  0.847370  0.361090  0.578390  1.0  0.1242
  H  H298  1  0.817660  0.323850  0.680430  1.0  0.114
  H  H299  1  0.763280  0.334560  0.631890  1.0  0.113
  H  H300  1  0.918380  0.314080  0.536610  1.0  0.1151
  H  H301  1  0.253510  0.858740  0.717790  1.0  0.1109
  H  H302  1  0.354530  0.506030  0.716630  1.0  0.1208
  H  H303  1  0.361090  0.578390  0.847370  1.0  0.1225
  H  H304  1  0.323850  0.680430  0.817660  1.0  0.1144
  H  H305  1  0.334560  0.631890  0.763280  1.0  0.1135
  H  H306  1  0.314080  0.536610  0.918380  1.0  0.1157
  H  H307  1  0.717790  0.169960  0.253510  1.0  0.1091
  H  H308  1  0.716630  0.422810  0.354530  1.0  0.1194
  H  H309  1  0.847370  0.213150  0.361090  1.0  0.1256
  H  H310  1  0.817660  0.178060  0.323850  1.0  0.1139
  H  H311  1  0.763280  0.270270  0.334560  1.0  0.1143
  H  H312  1  0.918380  0.230930  0.314080  1.0  0.115
  H  H313  1  0.858740  0.253510  0.169960  1.0  0.1114
  H  H314  1  0.506030  0.354530  0.422810  1.0  0.1178
  H  H315  1  0.578390  0.361090  0.213150  1.0  0.124
  H  H316  1  0.680430  0.323850  0.178060  1.0  0.1135
  H  H317  1  0.631890  0.334560  0.270270  1.0  0.1136
  H  H318  1  0.536610  0.314080  0.230930  1.0  0.1149
  H  H319  1  0.169960  0.717790  0.858740  1.0  0.1084
  H  H320  1  0.422810  0.716630  0.506030  1.0  0.1202
  H  H321  1  0.213150  0.847370  0.578390  1.0  0.1229
  H  H322  1  0.178060  0.817660  0.680430  1.0  0.112
  H  H323  1  0.270270  0.763280  0.631890  1.0  0.1169
  H  H324  1  0.230930  0.918380  0.536610  1.0  0.1149
  H  H325  1  0.169960  0.253510  0.717790  1.0  0.1089
  H  H326  1  0.422810  0.354530  0.716630  1.0  0.1198
  H  H327  1  0.213150  0.361090  0.847370  1.0  0.1244
  H  H328  1  0.178060  0.323850  0.817660  1.0  0.1136
  H  H329  1  0.270270  0.334560  0.763280  1.0  0.1144
  H  H330  1  0.230930  0.314080  0.918380  1.0  0.1168
  H  H331  1  0.858740  0.717790  0.253510  1.0  0.1099
  H  H332  1  0.506030  0.716630  0.354530  1.0  0.1179
  H  H333  1  0.578390  0.847370  0.361090  1.0  0.1236
  H  H334  1  0.680430  0.817660  0.323850  1.0  0.1135
  H  H335  1  0.631890  0.763280  0.334560  1.0  0.1158
  H  H336  1  0.536610  0.918380  0.314080  1.0  0.1145
  H  H337  1  0.717790  0.858740  0.169960  1.0  0.1095
  H  H338  1  0.716630  0.506030  0.422810  1.0  0.1195
  H  H339  1  0.847370  0.578390  0.213150  1.0  0.1241
  H  H340  1  0.817660  0.680430  0.178060  1.0  0.1162
  H  H341  1  0.763280  0.631890  0.270270  1.0  0.1131
  H  H342  1  0.918380  0.536610  0.230930  1.0  0.1153
  H  H343  1  0.253510  0.169960  0.858740  1.0  0.1104
  H  H344  1  0.354530  0.422810  0.506030  1.0  0.1195
  H  H345  1  0.361090  0.213150  0.578390  1.0  0.1226
  H  H346  1  0.323850  0.178060  0.680430  1.0  0.1159
  H  H347  1  0.334560  0.270270  0.631890  1.0  0.1147
  H  H348  1  0.314080  0.230930  0.536610  1.0  0.1153
  H  H349  1  0.858740  0.169960  0.253510  1.0  0.1089
  H  H350  1  0.506030  0.422810  0.354530  1.0  0.1183
  H  H351  1  0.578390  0.213150  0.361090  1.0  0.1228
  H  H352  1  0.680430  0.178060  0.323850  1.0  0.1156
  H  H353  1  0.631890  0.270270  0.334560  1.0  0.1167
  H  H354  1  0.536610  0.230930  0.314080  1.0  0.1141
  H  H355  1  0.169960  0.858740  0.717790  1.0  0.108
  H  H356  1  0.422810  0.506030  0.716630  1.0  0.12
  H  H357  1  0.213150  0.578390  0.847370  1.0  0.1244
  H  H358  1  0.178060  0.680430  0.817660  1.0  0.1144
  H  H359  1  0.270270  0.631890  0.763280  1.0  0.1162
  H  H360  1  0.230930  0.536610  0.918380  1.0  0.1136
  H  H361  1  0.253510  0.717790  0.858740  1.0  0.109
  H  H362  1  0.354530  0.716630  0.506030  1.0  0.1185
  H  H363  1  0.361090  0.847370  0.578390  1.0  0.1232
  H  H364  1  0.323850  0.817660  0.680430  1.0  0.1134
  H  H365  1  0.334560  0.763280  0.631890  1.0  0.1153
  H  H366  1  0.314080  0.918380  0.536610  1.0  0.1142
  H  H367  1  0.717790  0.253510  0.169960  1.0  0.1091
  H  H368  1  0.716630  0.354530  0.422810  1.0  0.1188
  H  H369  1  0.847370  0.361090  0.213150  1.0  0.1237
  H  H370  1  0.817660  0.323850  0.178060  1.0  0.1139
  H  H371  1  0.763280  0.334560  0.270270  1.0  0.1123
  H  H372  1  0.918380  0.314080  0.230930  1.0  0.1147
  H  H373  1  0.253510  0.858740  0.169960  1.0  0.1107
  H  H374  1  0.354530  0.506030  0.422810  1.0  0.1205
  H  H375  1  0.361090  0.578390  0.213150  1.0  0.123
  H  H376  1  0.323850  0.680430  0.178060  1.0  0.1144
  H  H377  1  0.334560  0.631890  0.270270  1.0  0.1125
  H  H378  1  0.314080  0.536610  0.230930  1.0  0.1157
  H  H379  1  0.717790  0.169960  0.858740  1.0  0.1093
  H  H380  1  0.716630  0.422810  0.506030  1.0  0.1195
  H  H381  1  0.847370  0.213150  0.578390  1.0  0.1244
  H  H382  1  0.817660  0.178060  0.680430  1.0  0.114
  H  H383  1  0.763280  0.270270  0.631890  1.0  0.1142
  H  H384  1  0.918380  0.230930  0.536610  1.0  0.1145
  H  H385  1  0.858740  0.253510  0.717790  1.0  0.1112
  H  H386  1  0.506030  0.354530  0.716630  1.0  0.118
  H  H387  1  0.578390  0.361090  0.847370  1.0  0.1235
  H  H388  1  0.680430  0.323850  0.817660  1.0  0.1138
  H  H389  1  0.631890  0.334560  0.763280  1.0  0.1141
  H  H390  1  0.536610  0.314080  0.918380  1.0  0.115
  H  H391  1  0.169960  0.717790  0.253510  1.0  0.1081
  H  H392  1  0.422810  0.716630  0.354530  1.0  0.1197
  H  H393  1  0.213150  0.847370  0.361090  1.0  0.124
  H  H394  1  0.178060  0.817660  0.323850  1.0  0.1123
  H  H395  1  0.270270  0.763280  0.334560  1.0  0.1175
  H  H396  1  0.230930  0.918380  0.314080  1.0  0.115
  H  H397  1  0.169960  0.253510  0.858740  1.0  0.1093
  H  H398  1  0.422810  0.354530  0.506030  1.0  0.1207
  H  H399  1  0.213150  0.361090  0.578390  1.0  0.1242
  H  H400  1  0.178060  0.323850  0.680430  1.0  0.1135
  H  H401  1  0.270270  0.334560  0.631890  1.0  0.1138
  H  H402  1  0.230930  0.314080  0.536610  1.0  0.1173
  H  H403  1  0.858740  0.717790  0.169960  1.0  0.1102
  H  H404  1  0.506030  0.716630  0.422810  1.0  0.1178
  H  H405  1  0.578390  0.847370  0.213150  1.0  0.1236
  H  H406  1  0.680430  0.817660  0.178060  1.0  0.1139
  H  H407  1  0.631890  0.763280  0.270270  1.0  0.116
  H  H408  1  0.536610  0.918380  0.230930  1.0  0.1142
  H  H409  1  0.717790  0.858740  0.253510  1.0  0.1092
  H  H410  1  0.716630  0.506030  0.354530  1.0  0.1193
  H  H411  1  0.847370  0.578390  0.361090  1.0  0.1243
  H  H412  1  0.817660  0.680430  0.323850  1.0  0.116
  H  H413  1  0.763280  0.631890  0.334560  1.0  0.1132
  H  H414  1  0.918380  0.536610  0.314080  1.0  0.1154
  H  H415  1  0.253510  0.169960  0.717790  1.0  0.1101
  H  H416  1  0.354530  0.422810  0.716630  1.0  0.1188
  H  H417  1  0.361090  0.213150  0.847370  1.0  0.1229
  H  H418  1  0.323850  0.178060  0.817660  1.0  0.1158
  H  H419  1  0.334560  0.270270  0.763280  1.0  0.1154
  H  H420  1  0.314080  0.230930  0.918380  1.0  0.1148
  H  H421  1  0.391260  0.080040  0.532210  1.0  0.109
  H  H422  1  0.743970  0.827190  0.533370  1.0  0.1178
  H  H423  1  0.671610  0.036850  0.402630  1.0  0.1227
  H  H424  1  0.569570  0.071940  0.432340  1.0  0.1145
  H  H425  1  0.618110  0.979730  0.486720  1.0  0.1164
  H  H426  1  0.713390  0.019070  0.331620  1.0  0.1131
  H  H427  1  0.080040  0.391260  0.996490  1.0  0.1085
  H  H428  1  0.827190  0.743970  0.895470  1.0  0.1194
  H  H429  1  0.036850  0.671610  0.888910  1.0  0.1246
  H  H430  1  0.071940  0.569570  0.926150  1.0  0.1143
  H  H431  1  0.979730  0.618110  0.915440  1.0  0.116
  H  H432  1  0.019070  0.713390  0.935920  1.0  0.1136
  H  H433  1  0.996490  0.532210  0.080040  1.0  0.1088
  H  H434  1  0.895470  0.533370  0.827190  1.0  0.1177
  H  H435  1  0.888910  0.402630  0.036850  1.0  0.1229
  H  H436  1  0.926150  0.432340  0.071940  1.0  0.1139
  H  H437  1  0.915440  0.486720  0.979730  1.0  0.1158
  H  H438  1  0.935920  0.331620  0.019070  1.0  0.1146
  H  H439  1  0.532210  0.996490  0.391260  1.0  0.1091
  H  H440  1  0.533370  0.895470  0.743970  1.0  0.1182
  H  H441  1  0.402630  0.888910  0.671610  1.0  0.1234
  H  H442  1  0.432340  0.926150  0.569570  1.0  0.1141
  H  H443  1  0.486720  0.915440  0.618110  1.0  0.1136
  H  H444  1  0.331620  0.935920  0.713390  1.0  0.1142
  H  H445  1  0.996490  0.391260  0.532210  1.0  0.1109
  H  H446  1  0.895470  0.743970  0.533370  1.0  0.1198
  H  H447  1  0.888910  0.671610  0.402630  1.0  0.1236
  H  H448  1  0.926150  0.569570  0.432340  1.0  0.1136
  H  H449  1  0.915440  0.618110  0.486720  1.0  0.1127
  H  H450  1  0.935920  0.713390  0.331620  1.0  0.1144
  H  H451  1  0.532210  0.080040  0.996490  1.0  0.1084
  H  H452  1  0.533370  0.827190  0.895470  1.0  0.1197
  H  H453  1  0.402630  0.036850  0.888910  1.0  0.1245
  H  H454  1  0.432340  0.071940  0.926150  1.0  0.1132
  H  H455  1  0.486720  0.979730  0.915440  1.0  0.1137
  H  H456  1  0.331620  0.019070  0.935920  1.0  0.1137
  H  H457  1  0.391260  0.996490  0.080040  1.0  0.1116
  H  H458  1  0.743970  0.895470  0.827190  1.0  0.1179
  H  H459  1  0.671610  0.888910  0.036850  1.0  0.1244
  H  H460  1  0.569570  0.926150  0.071940  1.0  0.1139
  H  H461  1  0.618110  0.915440  0.979730  1.0  0.1147
  H  H462  1  0.713390  0.935920  0.019070  1.0  0.1148
  H  H463  1  0.080040  0.532210  0.391260  1.0  0.1084
  H  H464  1  0.827190  0.533370  0.743970  1.0  0.1202
  H  H465  1  0.036850  0.402630  0.671610  1.0  0.1244
  H  H466  1  0.071940  0.432340  0.569570  1.0  0.1133
  H  H467  1  0.979730  0.486720  0.618110  1.0  0.1185
  H  H468  1  0.019070  0.331620  0.713390  1.0  0.1149
  H  H469  1  0.080040  0.996490  0.532210  1.0  0.1094
  H  H470  1  0.827190  0.895470  0.533370  1.0  0.12
  H  H471  1  0.036850  0.888910  0.402630  1.0  0.1243
  H  H472  1  0.071940  0.926150  0.432340  1.0  0.114
  H  H473  1  0.979730  0.915440  0.486720  1.0  0.1142
  H  H474  1  0.019070  0.935920  0.331620  1.0  0.117
  H  H475  1  0.391260  0.532210  0.996490  1.0  0.1096
  H  H476  1  0.743970  0.533370  0.895470  1.0  0.1177
  H  H477  1  0.671610  0.402630  0.888910  1.0  0.1239
  H  H478  1  0.569570  0.432340  0.926150  1.0  0.1136
  H  H479  1  0.618110  0.486720  0.915440  1.0  0.117
  H  H480  1  0.713390  0.331620  0.935920  1.0  0.1142
  H  H481  1  0.532210  0.391260  0.080040  1.0  0.1093
  H  H482  1  0.533370  0.743970  0.827190  1.0  0.1194
  H  H483  1  0.402630  0.671610  0.036850  1.0  0.1244
  H  H484  1  0.432340  0.569570  0.071940  1.0  0.1163
  H  H485  1  0.486720  0.618110  0.979730  1.0  0.1138
  H  H486  1  0.331620  0.713390  0.019070  1.0  0.1146
  H  H487  1  0.996490  0.080040  0.391260  1.0  0.1103
  H  H488  1  0.895470  0.827190  0.743970  1.0  0.1186
  H  H489  1  0.888910  0.036850  0.671610  1.0  0.1234
  H  H490  1  0.926150  0.071940  0.569570  1.0  0.1155
  H  H491  1  0.915440  0.979730  0.618110  1.0  0.1149
  H  H492  1  0.935920  0.019070  0.713390  1.0  0.1142
  C  C493  1  0.378640  0.064750  0.017490  1.0  -0.0297
  C  C494  1  0.346220  0.071250  0.022580  1.0  -0.0485
  C  C495  1  0.330570  0.097810  0.997190  1.0  0.6936
  C  C496  1  0.763490  0.810420  0.904510  1.0  -0.0617
  C  C497  1  0.769010  0.816510  0.924820  1.0  -0.0949
  C  C498  1  0.750530  0.847500  0.930600  1.0  0.6913
  C  C499  1  0.648470  0.005750  0.900250  1.0  -0.089
  C  C500  1  0.648990  0.034140  0.896940  1.0  -0.0259
  C  C501  1  0.620940  0.057930  0.906470  1.0  -0.0998
  C  C502  1  0.591300  0.054010  0.917850  1.0  -0.0569
  C  C503  1  0.589590  0.026080  0.920830  1.0  -0.1436
  C  C504  1  0.618640  0.002080  0.911770  1.0  -0.0429
  C  C505  1  0.558330  0.019760  0.937950  1.0  0.714
  C  C506  1  0.623010  0.084600  0.908530  1.0  0.7186
  C  C507  1  0.678910  0.978440  0.896950  1.0  0.7433
  C  C508  1  0.688530  0.028600  0.980470  1.0  -0.0624
  C  C509  1  0.707290  0.008460  0.961480  1.0  -0.0602
  C  C510  1  0.575340  0.185780  0.953600  1.0  0.6873
  C  C511  1  0.064750  0.378640  0.539120  1.0  -0.0297
  C  C512  1  0.071250  0.346220  0.559950  1.0  -0.0519
  C  C513  1  0.097810  0.330570  0.574430  1.0  0.692
  C  C514  1  0.810420  0.763490  0.521580  1.0  -0.0666
  C  C515  1  0.816510  0.769010  0.489660  1.0  -0.0975
  C  C516  1  0.847500  0.750530  0.471370  1.0  0.6921
  C  C517  1  0.005750  0.648470  0.445530  1.0  -0.0882
  C  C518  1  0.034140  0.648990  0.419930  1.0  -0.0286
  C  C519  1  0.057930  0.620940  0.414660  1.0  -0.1006
  C  C520  1  0.054010  0.591300  0.436840  1.0  -0.0561
  C  C521  1  0.026080  0.589590  0.463500  1.0  -0.1414
  C  C522  1  0.002080  0.618640  0.467510  1.0  -0.0419
  C  C523  1  0.019760  0.558330  0.483960  1.0  0.7155
  C  C524  1  0.084600  0.623010  0.383860  1.0  0.7177
  C  C525  1  0.978440  0.678910  0.445700  1.0  0.7426
  C  C526  1  0.028600  0.688530  0.302400  1.0  -0.0623
  C  C527  1  0.008460  0.707290  0.322770  1.0  -0.0592
  C  C528  1  0.185780  0.575340  0.285280  1.0  0.6884
  C  C529  1  0.017490  0.539120  0.378640  1.0  -0.0309
  C  C530  1  0.022580  0.559950  0.346220  1.0  -0.051
  C  C531  1  0.997190  0.574430  0.330570  1.0  0.6949
  C  C532  1  0.904510  0.521580  0.763490  1.0  -0.0603
  C  C533  1  0.924820  0.489660  0.769010  1.0  -0.0955
  C  C534  1  0.930600  0.471370  0.750530  1.0  0.6934
  C  C535  1  0.900250  0.445530  0.648470  1.0  -0.0905
  C  C536  1  0.896940  0.419930  0.648990  1.0  -0.0277
  C  C537  1  0.906470  0.414660  0.620940  1.0  -0.1031
  C  C538  1  0.917850  0.436840  0.591300  1.0  -0.0543
  C  C539  1  0.920830  0.463500  0.589590  1.0  -0.1435
  C  C540  1  0.911770  0.467510  0.618640  1.0  -0.0424
  C  C541  1  0.937950  0.483960  0.558330  1.0  0.7157
  C  C542  1  0.908530  0.383860  0.623010  1.0  0.7185
  C  C543  1  0.896950  0.445700  0.678910  1.0  0.7416
  C  C544  1  0.980470  0.302400  0.688530  1.0  -0.0671
  C  C545  1  0.961480  0.322770  0.707290  1.0  -0.0619
  C  C546  1  0.953600  0.285280  0.575340  1.0  0.6879
  C  C547  1  0.539120  0.017490  0.064750  1.0  -0.0305
  C  C548  1  0.559950  0.022580  0.071250  1.0  -0.0508
  C  C549  1  0.574430  0.997190  0.097810  1.0  0.6938
  C  C550  1  0.521580  0.904510  0.810420  1.0  -0.0616
  C  C551  1  0.489660  0.924820  0.816510  1.0  -0.0974
  C  C552  1  0.471370  0.930600  0.847500  1.0  0.6933
  C  C553  1  0.445530  0.900250  0.005750  1.0  -0.0912
  C  C554  1  0.419930  0.896940  0.034140  1.0  -0.0283
  C  C555  1  0.414660  0.906470  0.057930  1.0  -0.1027
  C  C556  1  0.436840  0.917850  0.054010  1.0  -0.0544
  C  C557  1  0.463500  0.920830  0.026080  1.0  -0.1433
  C  C558  1  0.467510  0.911770  0.002080  1.0  -0.0414
  C  C559  1  0.483960  0.937950  0.019760  1.0  0.7122
  C  C560  1  0.383860  0.908530  0.084600  1.0  0.7162
  C  C561  1  0.445700  0.896950  0.978440  1.0  0.7411
  C  C562  1  0.302400  0.980470  0.028600  1.0  -0.0637
  C  C563  1  0.322770  0.961480  0.008460  1.0  -0.0605
  C  C564  1  0.285280  0.953600  0.185780  1.0  0.6884
  C  C565  1  0.017490  0.378640  0.064750  1.0  -0.0305
  C  C566  1  0.022580  0.346220  0.071250  1.0  -0.0511
  C  C567  1  0.997190  0.330570  0.097810  1.0  0.6927
  C  C568  1  0.904510  0.763490  0.810420  1.0  -0.065
  C  C569  1  0.924820  0.769010  0.816510  1.0  -0.095
  C  C570  1  0.930600  0.750530  0.847500  1.0  0.6938
  C  C571  1  0.900250  0.648470  0.005750  1.0  -0.09
  C  C572  1  0.896940  0.648990  0.034140  1.0  -0.0259
  C  C573  1  0.906470  0.620940  0.057930  1.0  -0.1022
  C  C574  1  0.917850  0.591300  0.054010  1.0  -0.0551
  C  C575  1  0.920830  0.589590  0.026080  1.0  -0.1423
  C  C576  1  0.911770  0.618640  0.002080  1.0  -0.0399
  C  C577  1  0.937950  0.558330  0.019760  1.0  0.7162
  C  C578  1  0.908530  0.623010  0.084600  1.0  0.7191
  C  C579  1  0.896950  0.678910  0.978440  1.0  0.7422
  C  C580  1  0.980470  0.688530  0.028600  1.0  -0.0623
  C  C581  1  0.961480  0.707290  0.008460  1.0  -0.0603
  C  C582  1  0.953600  0.575340  0.185780  1.0  0.689
  C  C583  1  0.539120  0.064750  0.378640  1.0  -0.03
  C  C584  1  0.559950  0.071250  0.346220  1.0  -0.0495
  C  C585  1  0.574430  0.097810  0.330570  1.0  0.6949
  C  C586  1  0.521580  0.810420  0.763490  1.0  -0.0656
  C  C587  1  0.489660  0.816510  0.769010  1.0  -0.0974
  C  C588  1  0.471370  0.847500  0.750530  1.0  0.6926
  C  C589  1  0.445530  0.005750  0.648470  1.0  -0.0884
  C  C590  1  0.419930  0.034140  0.648990  1.0  -0.0282
  C  C591  1  0.414660  0.057930  0.620940  1.0  -0.101
  C  C592  1  0.436840  0.054010  0.591300  1.0  -0.0543
  C  C593  1  0.463500  0.026080  0.589590  1.0  -0.1419
  C  C594  1  0.467510  0.002080  0.618640  1.0  -0.0413
  C  C595  1  0.483960  0.019760  0.558330  1.0  0.716
  C  C596  1  0.383860  0.084600  0.623010  1.0  0.7196
  C  C597  1  0.445700  0.978440  0.678910  1.0  0.7428
  C  C598  1  0.302400  0.028600  0.688530  1.0  -0.0643
  C  C599  1  0.322770  0.008460  0.707290  1.0  -0.0617
  C  C600  1  0.285280  0.185780  0.575340  1.0  0.6855
  C  C601  1  0.378640  0.017490  0.539120  1.0  -0.0305
  C  C602  1  0.346220  0.022580  0.559950  1.0  -0.0478
  C  C603  1  0.330570  0.997190  0.574430  1.0  0.6931
  C  C604  1  0.763490  0.904510  0.521580  1.0  -0.0621
  C  C605  1  0.769010  0.924820  0.489660  1.0  -0.0968
  C  C606  1  0.750530  0.930600  0.471370  1.0  0.6953
  C  C607  1  0.648470  0.900250  0.445530  1.0  -0.0911
  C  C608  1  0.648990  0.896940  0.419930  1.0  -0.0285
  C  C609  1  0.620940  0.906470  0.414660  1.0  -0.1026
  C  C610  1  0.591300  0.917850  0.436840  1.0  -0.0541
  C  C611  1  0.589590  0.920830  0.463500  1.0  -0.1436
  C  C612  1  0.618640  0.911770  0.467510  1.0  -0.0418
  C  C613  1  0.558330  0.937950  0.483960  1.0  0.7122
  C  C614  1  0.623010  0.908530  0.383860  1.0  0.7178
  C  C615  1  0.678910  0.896950  0.445700  1.0  0.7401
  C  C616  1  0.688530  0.980470  0.302400  1.0  -0.0638
  C  C617  1  0.707290  0.961480  0.322770  1.0  -0.0585
  C  C618  1  0.575340  0.953600  0.285280  1.0  0.6869
  C  C619  1  0.064750  0.539120  0.017490  1.0  -0.0296
  C  C620  1  0.071250  0.559950  0.022580  1.0  -0.051
  C  C621  1  0.097810  0.574430  0.997190  1.0  0.6953
  C  C622  1  0.810420  0.521580  0.904510  1.0  -0.0625
  C  C623  1  0.816510  0.489660  0.924820  1.0  -0.0942
  C  C624  1  0.847500  0.471370  0.930600  1.0  0.6941
  C  C625  1  0.005750  0.445530  0.900250  1.0  -0.0895
  C  C626  1  0.034140  0.419930  0.896940  1.0  -0.0287
  C  C627  1  0.057930  0.414660  0.906470  1.0  -0.102
  C  C628  1  0.054010  0.436840  0.917850  1.0  -0.0528
  C  C629  1  0.026080  0.463500  0.920830  1.0  -0.1421
  C  C630  1  0.002080  0.467510  0.911770  1.0  -0.0435
  C  C631  1  0.019760  0.483960  0.937950  1.0  0.7165
  C  C632  1  0.084600  0.383860  0.908530  1.0  0.7174
  C  C633  1  0.978440  0.445700  0.896950  1.0  0.7423
  C  C634  1  0.028600  0.302400  0.980470  1.0  -0.0662
  C  C635  1  0.008460  0.322770  0.961480  1.0  -0.0602
  C  C636  1  0.185780  0.285280  0.953600  1.0  0.6858
  C  C637  1  0.064750  0.017490  0.378640  1.0  -0.0302
  C  C638  1  0.071250  0.022580  0.346220  1.0  -0.0503
  C  C639  1  0.097810  0.997190  0.330570  1.0  0.6949
  C  C640  1  0.810420  0.904510  0.763490  1.0  -0.0624
  C  C641  1  0.816510  0.924820  0.769010  1.0  -0.0969
  C  C642  1  0.847500  0.930600  0.750530  1.0  0.693
  C  C643  1  0.005750  0.900250  0.648470  1.0  -0.0905
  C  C644  1  0.034140  0.896940  0.648990  1.0  -0.0277
  C  C645  1  0.057930  0.906470  0.620940  1.0  -0.1021
  C  C646  1  0.054010  0.917850  0.591300  1.0  -0.0547
  C  C647  1  0.026080  0.920830  0.589590  1.0  -0.1417
  C  C648  1  0.002080  0.911770  0.618640  1.0  -0.0423
  C  C649  1  0.019760  0.937950  0.558330  1.0  0.7131
  C  C650  1  0.084600  0.908530  0.623010  1.0  0.717
  C  C651  1  0.978440  0.896950  0.678910  1.0  0.7394
  C  C652  1  0.028600  0.980470  0.688530  1.0  -0.0635
  C  C653  1  0.008460  0.961480  0.707290  1.0  -0.0615
  C  C654  1  0.185780  0.953600  0.575340  1.0  0.6865
  C  C655  1  0.378640  0.539120  0.064750  1.0  -0.0316
  C  C656  1  0.346220  0.559950  0.071250  1.0  -0.0487
  C  C657  1  0.330570  0.574430  0.097810  1.0  0.6948
  C  C658  1  0.763490  0.521580  0.810420  1.0  -0.0656
  C  C659  1  0.769010  0.489660  0.816510  1.0  -0.0994
  C  C660  1  0.750530  0.471370  0.847500  1.0  0.6914
  C  C661  1  0.648470  0.445530  0.005750  1.0  -0.0893
  C  C662  1  0.648990  0.419930  0.034140  1.0  -0.0288
  C  C663  1  0.620940  0.414660  0.057930  1.0  -0.0997
  C  C664  1  0.591300  0.436840  0.054010  1.0  -0.0552
  C  C665  1  0.589590  0.463500  0.026080  1.0  -0.1411
  C  C666  1  0.618640  0.467510  0.002080  1.0  -0.0416
  C  C667  1  0.558330  0.483960  0.019760  1.0  0.7145
  C  C668  1  0.623010  0.383860  0.084600  1.0  0.7172
  C  C669  1  0.678910  0.445700  0.978440  1.0  0.7423
  C  C670  1  0.688530  0.302400  0.028600  1.0  -0.0675
  C  C671  1  0.707290  0.322770  0.008460  1.0  -0.0608
  C  C672  1  0.575340  0.285280  0.185780  1.0  0.6872
  C  C673  1  0.539120  0.378640  0.017490  1.0  -0.0292
  C  C674  1  0.559950  0.346220  0.022580  1.0  -0.0514
  C  C675  1  0.574430  0.330570  0.997190  1.0  0.6936
  C  C676  1  0.521580  0.763490  0.904510  1.0  -0.0631
  C  C677  1  0.489660  0.769010  0.924820  1.0  -0.0931
  C  C678  1  0.471370  0.750530  0.930600  1.0  0.6924
  C  C679  1  0.445530  0.648470  0.900250  1.0  -0.0896
  C  C680  1  0.419930  0.648990  0.896940  1.0  -0.0288
  C  C681  1  0.414660  0.620940  0.906470  1.0  -0.1016
  C  C682  1  0.436840  0.591300  0.917850  1.0  -0.0562
  C  C683  1  0.463500  0.589590  0.920830  1.0  -0.1412
  C  C684  1  0.467510  0.618640  0.911770  1.0  -0.0415
  C  C685  1  0.483960  0.558330  0.937950  1.0  0.7141
  C  C686  1  0.383860  0.623010  0.908530  1.0  0.7171
  C  C687  1  0.445700  0.678910  0.896950  1.0  0.7434
  C  C688  1  0.302400  0.688530  0.980470  1.0  -0.0625
  C  C689  1  0.322770  0.707290  0.961480  1.0  -0.0609
  C  C690  1  0.285280  0.575340  0.953600  1.0  0.6889
  C  C691  1  0.017490  0.064750  0.539120  1.0  -0.0315
  C  C692  1  0.022580  0.071250  0.559950  1.0  -0.0508
  C  C693  1  0.997190  0.097810  0.574430  1.0  0.6931
  C  C694  1  0.904510  0.810420  0.521580  1.0  -0.0627
  C  C695  1  0.924820  0.816510  0.489660  1.0  -0.0951
  C  C696  1  0.930600  0.847500  0.471370  1.0  0.6923
  C  C697  1  0.900250  0.005750  0.445530  1.0  -0.0911
  C  C698  1  0.896940  0.034140  0.419930  1.0  -0.0251
  C  C699  1  0.906470  0.057930  0.414660  1.0  -0.1026
  C  C700  1  0.917850  0.054010  0.436840  1.0  -0.0574
  C  C701  1  0.920830  0.026080  0.463500  1.0  -0.1422
  C  C702  1  0.911770  0.002080  0.467510  1.0  -0.0421
  C  C703  1  0.937950  0.019760  0.483960  1.0  0.7157
  C  C704  1  0.908530  0.084600  0.383860  1.0  0.7199
  C  C705  1  0.896950  0.978440  0.445700  1.0  0.7436
  C  C706  1  0.980470  0.028600  0.302400  1.0  -0.0656
  C  C707  1  0.961480  0.008460  0.322770  1.0  -0.0635
  C  C708  1  0.953600  0.185780  0.285280  1.0  0.6863
  C  C709  1  0.871360  0.185250  0.710880  1.0  -0.0307
  C  C710  1  0.903780  0.178750  0.690050  1.0  -0.0498
  C  C711  1  0.919430  0.152190  0.675570  1.0  0.6943
  C  C712  1  0.486510  0.439580  0.728420  1.0  -0.065
  C  C713  1  0.480990  0.433490  0.760340  1.0  -0.0976
  C  C714  1  0.499470  0.402500  0.778630  1.0  0.693
  C  C715  1  0.601530  0.244250  0.804470  1.0  -0.0887
  C  C716  1  0.601010  0.215860  0.830070  1.0  -0.0267
  C  C717  1  0.629060  0.192070  0.835340  1.0  -0.1
  C  C718  1  0.658700  0.195990  0.813160  1.0  -0.0568
  C  C719  1  0.660410  0.223920  0.786500  1.0  -0.1438
  C  C720  1  0.631360  0.247920  0.782490  1.0  -0.0429
  C  C721  1  0.691670  0.230240  0.766040  1.0  0.7142
  C  C722  1  0.626990  0.165400  0.866140  1.0  0.7186
  C  C723  1  0.571090  0.271560  0.804300  1.0  0.7421
  C  C724  1  0.561470  0.221400  0.947600  1.0  -0.0616
  C  C725  1  0.542710  0.241540  0.927230  1.0  -0.0606
  C  C726  1  0.674660  0.064220  0.964720  1.0  0.6889
  C  C727  1  0.185250  0.871360  0.232510  1.0  -0.0306
  C  C728  1  0.178750  0.903780  0.227420  1.0  -0.0503
  C  C729  1  0.152190  0.919430  0.252810  1.0  0.6927
  C  C730  1  0.439580  0.486510  0.345490  1.0  -0.065
  C  C731  1  0.433490  0.480990  0.325180  1.0  -0.0973
  C  C732  1  0.402500  0.499470  0.319400  1.0  0.6919
  C  C733  1  0.244250  0.601530  0.349750  1.0  -0.0891
  C  C734  1  0.215860  0.601010  0.353060  1.0  -0.0301
  C  C735  1  0.192070  0.629060  0.343530  1.0  -0.1004
  C  C736  1  0.195990  0.658700  0.332150  1.0  -0.0565
  C  C737  1  0.223920  0.660410  0.329170  1.0  -0.1429
  C  C738  1  0.247920  0.631360  0.338230  1.0  -0.0411
  C  C739  1  0.230240  0.691670  0.312050  1.0  0.7153
  C  C740  1  0.165400  0.626990  0.341470  1.0  0.7187
  C  C741  1  0.271560  0.571090  0.353050  1.0  0.7422
  C  C742  1  0.221400  0.561470  0.269530  1.0  -0.0636
  C  C743  1  0.241540  0.542710  0.288520  1.0  -0.0604
  C  C744  1  0.064220  0.674660  0.296400  1.0  0.6885
  C  C745  1  0.232510  0.710880  0.185250  1.0  -0.0293
  C  C746  1  0.227420  0.690050  0.178750  1.0  -0.0506
  C  C747  1  0.252810  0.675570  0.152190  1.0  0.6953
  C  C748  1  0.345490  0.728420  0.439580  1.0  -0.0616
  C  C749  1  0.325180  0.760340  0.433490  1.0  -0.0992
  C  C750  1  0.319400  0.778630  0.402500  1.0  0.6938
  C  C751  1  0.349750  0.804470  0.244250  1.0  -0.0906
  C  C752  1  0.353060  0.830070  0.215860  1.0  -0.0268
  C  C753  1  0.343530  0.835340  0.192070  1.0  -0.1024
  C  C754  1  0.332150  0.813160  0.195990  1.0  -0.0539
  C  C755  1  0.329170  0.786500  0.223920  1.0  -0.1424
  C  C756  1  0.338230  0.782490  0.247920  1.0  -0.0443
  C  C757  1  0.312050  0.766040  0.230240  1.0  0.7126
  C  C758  1  0.341470  0.866140  0.165400  1.0  0.7184
  C  C759  1  0.353050  0.804300  0.271560  1.0  0.7414
  C  C760  1  0.269530  0.947600  0.221400  1.0  -0.0648
  C  C761  1  0.288520  0.927230  0.241540  1.0  -0.059
  C  C762  1  0.296400  0.964720  0.064220  1.0  0.6872
  C  C763  1  0.710880  0.232510  0.871360  1.0  -0.0286
  C  C764  1  0.690050  0.227420  0.903780  1.0  -0.0513
  C  C765  1  0.675570  0.252810  0.919430  1.0  0.6946
  C  C766  1  0.728420  0.345490  0.486510  1.0  -0.0625
  C  C767  1  0.760340  0.325180  0.480990  1.0  -0.1
  C  C768  1  0.778630  0.319400  0.499470  1.0  0.6919
  C  C769  1  0.804470  0.349750  0.601530  1.0  -0.0902
  C  C770  1  0.830070  0.353060  0.601010  1.0  -0.0286
  C  C771  1  0.835340  0.343530  0.629060  1.0  -0.1026
  C  C772  1  0.813160  0.332150  0.658700  1.0  -0.0549
  C  C773  1  0.786500  0.329170  0.660410  1.0  -0.1437
  C  C774  1  0.782490  0.338230  0.631360  1.0  -0.0406
  C  C775  1  0.766040  0.312050  0.691670  1.0  0.7121
  C  C776  1  0.866140  0.341470  0.626990  1.0  0.7178
  C  C777  1  0.804300  0.353050  0.571090  1.0  0.7414
  C  C778  1  0.947600  0.269530  0.561470  1.0  -0.0632
  C  C779  1  0.927230  0.288520  0.542710  1.0  -0.0586
  C  C780  1  0.964720  0.296400  0.674660  1.0  0.6879
  C  C781  1  0.232510  0.871360  0.710880  1.0  -0.0305
  C  C782  1  0.227420  0.903780  0.690050  1.0  -0.0502
  C  C783  1  0.252810  0.919430  0.675570  1.0  0.6958
  C  C784  1  0.345490  0.486510  0.728420  1.0  -0.0644
  C  C785  1  0.325180  0.480990  0.760340  1.0  -0.0978
  C  C786  1  0.319400  0.499470  0.778630  1.0  0.6936
  C  C787  1  0.349750  0.601530  0.804470  1.0  -0.0887
  C  C788  1  0.353060  0.601010  0.830070  1.0  -0.0259
  C  C789  1  0.343530  0.629060  0.835340  1.0  -0.1007
  C  C790  1  0.332150  0.658700  0.813160  1.0  -0.0541
  C  C791  1  0.329170  0.660410  0.786500  1.0  -0.1404
  C  C792  1  0.338230  0.631360  0.782490  1.0  -0.0403
  C  C793  1  0.312050  0.691670  0.766040  1.0  0.7144
  C  C794  1  0.341470  0.626990  0.866140  1.0  0.719
  C  C795  1  0.353050  0.571090  0.804300  1.0  0.7415
  C  C796  1  0.269530  0.561470  0.947600  1.0  -0.0638
  C  C797  1  0.288520  0.542710  0.927230  1.0  -0.06
  C  C798  1  0.296400  0.674660  0.964720  1.0  0.6878
  C  C799  1  0.710880  0.185250  0.232510  1.0  -0.0292
  C  C800  1  0.690050  0.178750  0.227420  1.0  -0.0514
  C  C801  1  0.675570  0.152190  0.252810  1.0  0.6949
  C  C802  1  0.728420  0.439580  0.345490  1.0  -0.0626
  C  C803  1  0.760340  0.433490  0.325180  1.0  -0.0975
  C  C804  1  0.778630  0.402500  0.319400  1.0  0.6936
  C  C805  1  0.804470  0.244250  0.349750  1.0  -0.0893
  C  C806  1  0.830070  0.215860  0.353060  1.0  -0.0276
  C  C807  1  0.835340  0.192070  0.343530  1.0  -0.1017
  C  C808  1  0.813160  0.195990  0.332150  1.0  -0.056
  C  C809  1  0.786500  0.223920  0.329170  1.0  -0.1439
  C  C810  1  0.782490  0.247920  0.338230  1.0  -0.0409
  C  C811  1  0.766040  0.230240  0.312050  1.0  0.7151
  C  C812  1  0.866140  0.165400  0.341470  1.0  0.7194
  C  C813  1  0.804300  0.271560  0.353050  1.0  0.7422
  C  C814  1  0.947600  0.221400  0.269530  1.0  -0.0634
  C  C815  1  0.927230  0.241540  0.288520  1.0  -0.0604
  C  C816  1  0.964720  0.064220  0.296400  1.0  0.6853
  C  C817  1  0.871360  0.232510  0.185250  1.0  -0.0295
  C  C818  1  0.903780  0.227420  0.178750  1.0  -0.0486
  C  C819  1  0.919430  0.252810  0.152190  1.0  0.6929
  C  C820  1  0.486510  0.345490  0.439580  1.0  -0.0614
  C  C821  1  0.480990  0.325180  0.433490  1.0  -0.101
  C  C822  1  0.499470  0.319400  0.402500  1.0  0.6943
  C  C823  1  0.601530  0.349750  0.244250  1.0  -0.0905
  C  C824  1  0.601010  0.353060  0.215860  1.0  -0.0283
  C  C825  1  0.629060  0.343530  0.192070  1.0  -0.1024
  C  C826  1  0.658700  0.332150  0.195990  1.0  -0.0532
  C  C827  1  0.660410  0.329170  0.223920  1.0  -0.1416
  C  C828  1  0.631360  0.338230  0.247920  1.0  -0.041
  C  C829  1  0.691670  0.312050  0.230240  1.0  0.7131
  C  C830  1  0.626990  0.341470  0.165400  1.0  0.7175
  C  C831  1  0.571090  0.353050  0.271560  1.0  0.7408
  C  C832  1  0.561470  0.269530  0.221400  1.0  -0.0637
  C  C833  1  0.542710  0.288520  0.241540  1.0  -0.059
  C  C834  1  0.674660  0.296400  0.064220  1.0  0.688
  C  C835  1  0.185250  0.710880  0.871360  1.0  -0.0292
  C  C836  1  0.178750  0.690050  0.903780  1.0  -0.0507
  C  C837  1  0.152190  0.675570  0.919430  1.0  0.6945
  C  C838  1  0.439580  0.728420  0.486510  1.0  -0.0655
  C  C839  1  0.433490  0.760340  0.480990  1.0  -0.0984
  C  C840  1  0.402500  0.778630  0.499470  1.0  0.6933
  C  C841  1  0.244250  0.804470  0.601530  1.0  -0.0917
  C  C842  1  0.215860  0.830070  0.601010  1.0  -0.0285
  C  C843  1  0.192070  0.835340  0.629060  1.0  -0.1023
  C  C844  1  0.195990  0.813160  0.658700  1.0  -0.053
  C  C845  1  0.223920  0.786500  0.660410  1.0  -0.1442
  C  C846  1  0.247920  0.782490  0.631360  1.0  -0.044
  C  C847  1  0.230240  0.766040  0.691670  1.0  0.7158
  C  C848  1  0.165400  0.866140  0.626990  1.0  0.7181
  C  C849  1  0.271560  0.804300  0.571090  1.0  0.7415
  C  C850  1  0.221400  0.947600  0.561470  1.0  -0.0648
  C  C851  1  0.241540  0.927230  0.542710  1.0  -0.0588
  C  C852  1  0.064220  0.964720  0.674660  1.0  0.6869
  C  C853  1  0.185250  0.232510  0.710880  1.0  -0.0301
  C  C854  1  0.178750  0.227420  0.690050  1.0  -0.0503
  C  C855  1  0.152190  0.252810  0.675570  1.0  0.6933
  C  C856  1  0.439580  0.345490  0.728420  1.0  -0.0633
  C  C857  1  0.433490  0.325180  0.760340  1.0  -0.1012
  C  C858  1  0.402500  0.319400  0.778630  1.0  0.6923
  C  C859  1  0.244250  0.349750  0.804470  1.0  -0.0898
  C  C860  1  0.215860  0.353060  0.830070  1.0  -0.0275
  C  C861  1  0.192070  0.343530  0.835340  1.0  -0.1016
  C  C862  1  0.195990  0.332150  0.813160  1.0  -0.0546
  C  C863  1  0.223920  0.329170  0.786500  1.0  -0.1415
  C  C864  1  0.247920  0.338230  0.782490  1.0  -0.0406
  C  C865  1  0.230240  0.312050  0.766040  1.0  0.7139
  C  C866  1  0.165400  0.341470  0.866140  1.0  0.715
  C  C867  1  0.271560  0.353050  0.804300  1.0  0.74
  C  C868  1  0.221400  0.269530  0.947600  1.0  -0.0634
  C  C869  1  0.241540  0.288520  0.927230  1.0  -0.0609
  C  C870  1  0.064220  0.296400  0.964720  1.0  0.6864
  C  C871  1  0.871360  0.710880  0.232510  1.0  -0.0314
  C  C872  1  0.903780  0.690050  0.227420  1.0  -0.0488
  C  C873  1  0.919430  0.675570  0.252810  1.0  0.6951
  C  C874  1  0.486510  0.728420  0.345490  1.0  -0.0622
  C  C875  1  0.480990  0.760340  0.325180  1.0  -0.0987
  C  C876  1  0.499470  0.778630  0.319400  1.0  0.6916
  C  C877  1  0.601530  0.804470  0.349750  1.0  -0.0897
  C  C878  1  0.601010  0.830070  0.353060  1.0  -0.0292
  C  C879  1  0.629060  0.835340  0.343530  1.0  -0.0991
  C  C880  1  0.658700  0.813160  0.332150  1.0  -0.0544
  C  C881  1  0.660410  0.786500  0.329170  1.0  -0.1412
  C  C882  1  0.631360  0.782490  0.338230  1.0  -0.0436
  C  C883  1  0.691670  0.766040  0.312050  1.0  0.7129
  C  C884  1  0.626990  0.866140  0.341470  1.0  0.7175
  C  C885  1  0.571090  0.804300  0.353050  1.0  0.7411
  C  C886  1  0.561470  0.947600  0.269530  1.0  -0.0639
  C  C887  1  0.542710  0.927230  0.288520  1.0  -0.0618
  C  C888  1  0.674660  0.964720  0.296400  1.0  0.6878
  C  C889  1  0.710880  0.871360  0.185250  1.0  -0.0288
  C  C890  1  0.690050  0.903780  0.178750  1.0  -0.051
  C  C891  1  0.675570  0.919430  0.152190  1.0  0.6945
  C  C892  1  0.728420  0.486510  0.439580  1.0  -0.0666
  C  C893  1  0.760340  0.480990  0.433490  1.0  -0.0966
  C  C894  1  0.778630  0.499470  0.402500  1.0  0.6922
  C  C895  1  0.804470  0.601530  0.244250  1.0  -0.0911
  C  C896  1  0.830070  0.601010  0.215860  1.0  -0.0287
  C  C897  1  0.835340  0.629060  0.192070  1.0  -0.1016
  C  C898  1  0.813160  0.658700  0.195990  1.0  -0.0555
  C  C899  1  0.786500  0.660410  0.223920  1.0  -0.1431
  C  C900  1  0.782490  0.631360  0.247920  1.0  -0.0408
  C  C901  1  0.766040  0.691670  0.230240  1.0  0.7143
  C  C902  1  0.866140  0.626990  0.165400  1.0  0.7178
  C  C903  1  0.804300  0.571090  0.271560  1.0  0.7425
  C  C904  1  0.947600  0.561470  0.221400  1.0  -0.0626
  C  C905  1  0.927230  0.542710  0.241540  1.0  -0.061
  C  C906  1  0.964720  0.674660  0.064220  1.0  0.6892
  C  C907  1  0.232510  0.185250  0.871360  1.0  -0.0318
  C  C908  1  0.227420  0.178750  0.903780  1.0  -0.051
  C  C909  1  0.252810  0.152190  0.919430  1.0  0.6938
  C  C910  1  0.345490  0.439580  0.486510  1.0  -0.0626
  C  C911  1  0.325180  0.433490  0.480990  1.0  -0.0973
  C  C912  1  0.319400  0.402500  0.499470  1.0  0.6926
  C  C913  1  0.349750  0.244250  0.601530  1.0  -0.09
  C  C914  1  0.353060  0.215860  0.601010  1.0  -0.0248
  C  C915  1  0.343530  0.192070  0.629060  1.0  -0.1026
  C  C916  1  0.332150  0.195990  0.658700  1.0  -0.0564
  C  C917  1  0.329170  0.223920  0.660410  1.0  -0.1415
  C  C918  1  0.338230  0.247920  0.631360  1.0  -0.0412
  C  C919  1  0.312050  0.230240  0.691670  1.0  0.7152
  C  C920  1  0.341470  0.165400  0.626990  1.0  0.7192
  C  C921  1  0.353050  0.271560  0.571090  1.0  0.7431
  C  C922  1  0.269530  0.221400  0.561470  1.0  -0.0655
  C  C923  1  0.288520  0.241540  0.542710  1.0  -0.062
  C  C924  1  0.296400  0.064220  0.674660  1.0  0.6856
  C  C925  1  0.871360  0.185250  0.232510  1.0  -0.0315
  C  C926  1  0.903780  0.178750  0.227420  1.0  -0.0501
  C  C927  1  0.919430  0.152190  0.252810  1.0  0.6928
  C  C928  1  0.486510  0.439580  0.345490  1.0  -0.0614
  C  C929  1  0.480990  0.433490  0.325180  1.0  -0.0972
  C  C930  1  0.499470  0.402500  0.319400  1.0  0.6936
  C  C931  1  0.601530  0.244250  0.349750  1.0  -0.088
  C  C932  1  0.601010  0.215860  0.353060  1.0  -0.0285
  C  C933  1  0.629060  0.192070  0.343530  1.0  -0.0996
  C  C934  1  0.658700  0.195990  0.332150  1.0  -0.0565
  C  C935  1  0.660410  0.223920  0.329170  1.0  -0.1422
  C  C936  1  0.631360  0.247920  0.338230  1.0  -0.0418
  C  C937  1  0.691670  0.230240  0.312050  1.0  0.7136
  C  C938  1  0.626990  0.165400  0.341470  1.0  0.7182
  C  C939  1  0.571090  0.271560  0.353050  1.0  0.742
  C  C940  1  0.561470  0.221400  0.269530  1.0  -0.0628
  C  C941  1  0.542710  0.241540  0.288520  1.0  -0.0594
  C  C942  1  0.674660  0.064220  0.296400  1.0  0.6884
  C  C943  1  0.185250  0.871360  0.710880  1.0  -0.0301
  C  C944  1  0.178750  0.903780  0.690050  1.0  -0.0502
  C  C945  1  0.152190  0.919430  0.675570  1.0  0.6942
  C  C946  1  0.439580  0.486510  0.728420  1.0  -0.0678
  C  C947  1  0.433490  0.480990  0.760340  1.0  -0.0984
  C  C948  1  0.402500  0.499470  0.778630  1.0  0.6913
  C  C949  1  0.244250  0.601530  0.804470  1.0  -0.0895
  C  C950  1  0.215860  0.601010  0.830070  1.0  -0.0284
  C  C951  1  0.192070  0.629060  0.835340  1.0  -0.1013
  C  C952  1  0.195990  0.658700  0.813160  1.0  -0.0564
  C  C953  1  0.223920  0.660410  0.786500  1.0  -0.1442
  C  C954  1  0.247920  0.631360  0.782490  1.0  -0.0417
  C  C955  1  0.230240  0.691670  0.766040  1.0  0.7156
  C  C956  1  0.165400  0.626990  0.866140  1.0  0.719
  C  C957  1  0.271560  0.571090  0.804300  1.0  0.7421
  C  C958  1  0.221400  0.561470  0.947600  1.0  -0.0635
  C  C959  1  0.241540  0.542710  0.927230  1.0  -0.0617
  C  C960  1  0.064220  0.674660  0.964720  1.0  0.6893
  C  C961  1  0.232510  0.710880  0.871360  1.0  -0.0288
  C  C962  1  0.227420  0.690050  0.903780  1.0  -0.0506
  C  C963  1  0.252810  0.675570  0.919430  1.0  0.6957
  C  C964  1  0.345490  0.728420  0.486510  1.0  -0.0621
  C  C965  1  0.325180  0.760340  0.480990  1.0  -0.0997
  C  C966  1  0.319400  0.778630  0.499470  1.0  0.6922
  C  C967  1  0.349750  0.804470  0.601530  1.0  -0.0907
  C  C968  1  0.353060  0.830070  0.601010  1.0  -0.0269
  C  C969  1  0.343530  0.835340  0.629060  1.0  -0.1027
  C  C970  1  0.332150  0.813160  0.658700  1.0  -0.0546
  C  C971  1  0.329170  0.786500  0.660410  1.0  -0.1431
  C  C972  1  0.338230  0.782490  0.631360  1.0  -0.0446
  C  C973  1  0.312050  0.766040  0.691670  1.0  0.7132
  C  C974  1  0.341470  0.866140  0.626990  1.0  0.7182
  C  C975  1  0.353050  0.804300  0.571090  1.0  0.7422
  C  C976  1  0.269530  0.947600  0.561470  1.0  -0.0649
  C  C977  1  0.288520  0.927230  0.542710  1.0  -0.0593
  C  C978  1  0.296400  0.964720  0.674660  1.0  0.6869
  C  C979  1  0.710880  0.232510  0.185250  1.0  -0.0296
  C  C980  1  0.690050  0.227420  0.178750  1.0  -0.0509
  C  C981  1  0.675570  0.252810  0.152190  1.0  0.6943
  C  C982  1  0.728420  0.345490  0.439580  1.0  -0.0622
  C  C983  1  0.760340  0.325180  0.433490  1.0  -0.1003
  C  C984  1  0.778630  0.319400  0.402500  1.0  0.6929
  C  C985  1  0.804470  0.349750  0.244250  1.0  -0.0902
  C  C986  1  0.830070  0.353060  0.215860  1.0  -0.0286
  C  C987  1  0.835340  0.343530  0.192070  1.0  -0.1024
  C  C988  1  0.813160  0.332150  0.195990  1.0  -0.0541
  C  C989  1  0.786500  0.329170  0.223920  1.0  -0.1436
  C  C990  1  0.782490  0.338230  0.247920  1.0  -0.0404
  C  C991  1  0.766040  0.312050  0.230240  1.0  0.712
  C  C992  1  0.866140  0.341470  0.165400  1.0  0.7179
  C  C993  1  0.804300  0.353050  0.271560  1.0  0.7402
  C  C994  1  0.947600  0.269530  0.221400  1.0  -0.0635
  C  C995  1  0.927230  0.288520  0.241540  1.0  -0.0583
  C  C996  1  0.964720  0.296400  0.064220  1.0  0.6887
  C  C997  1  0.232510  0.871360  0.185250  1.0  -0.031
  C  C998  1  0.227420  0.903780  0.178750  1.0  -0.0496
  C  C999  1  0.252810  0.919430  0.152190  1.0  0.6945
  C  C1000  1  0.345490  0.486510  0.439580  1.0  -0.0642
  C  C1001  1  0.325180  0.480990  0.433490  1.0  -0.0972
  C  C1002  1  0.319400  0.499470  0.402500  1.0  0.6949
  C  C1003  1  0.349750  0.601530  0.244250  1.0  -0.0892
  C  C1004  1  0.353060  0.601010  0.215860  1.0  -0.0263
  C  C1005  1  0.343530  0.629060  0.192070  1.0  -0.0999
  C  C1006  1  0.332150  0.658700  0.195990  1.0  -0.0543
  C  C1007  1  0.329170  0.660410  0.223920  1.0  -0.1407
  C  C1008  1  0.338230  0.631360  0.247920  1.0  -0.0405
  C  C1009  1  0.312050  0.691670  0.230240  1.0  0.7145
  C  C1010  1  0.341470  0.626990  0.165400  1.0  0.7183
  C  C1011  1  0.353050  0.571090  0.271560  1.0  0.7419
  C  C1012  1  0.269530  0.561470  0.221400  1.0  -0.0646
  C  C1013  1  0.288520  0.542710  0.241540  1.0  -0.0607
  C  C1014  1  0.296400  0.674660  0.064220  1.0  0.6875
  C  C1015  1  0.710880  0.185250  0.871360  1.0  -0.0289
  C  C1016  1  0.690050  0.178750  0.903780  1.0  -0.0513
  C  C1017  1  0.675570  0.152190  0.919430  1.0  0.6965
  C  C1018  1  0.728420  0.439580  0.486510  1.0  -0.0659
  C  C1019  1  0.760340  0.433490  0.480990  1.0  -0.0972
  C  C1020  1  0.778630  0.402500  0.499470  1.0  0.6941
  C  C1021  1  0.804470  0.244250  0.601530  1.0  -0.0908
  C  C1022  1  0.830070  0.215860  0.601010  1.0  -0.0281
  C  C1023  1  0.835340  0.192070  0.629060  1.0  -0.1025
  C  C1024  1  0.813160  0.195990  0.658700  1.0  -0.0546
  C  C1025  1  0.786500  0.223920  0.660410  1.0  -0.1429
  C  C1026  1  0.782490  0.247920  0.631360  1.0  -0.0414
  C  C1027  1  0.766040  0.230240  0.691670  1.0  0.7149
  C  C1028  1  0.866140  0.165400  0.626990  1.0  0.719
  C  C1029  1  0.804300  0.271560  0.571090  1.0  0.7419
  C  C1030  1  0.947600  0.221400  0.561470  1.0  -0.0632
  C  C1031  1  0.927230  0.241540  0.542710  1.0  -0.0595
  C  C1032  1  0.964720  0.064220  0.674660  1.0  0.6859
  C  C1033  1  0.871360  0.232510  0.710880  1.0  -0.0293
  C  C1034  1  0.903780  0.227420  0.690050  1.0  -0.0483
  C  C1035  1  0.919430  0.252810  0.675570  1.0  0.6937
  C  C1036  1  0.486510  0.345490  0.728420  1.0  -0.0612
  C  C1037  1  0.480990  0.325180  0.760340  1.0  -0.1018
  C  C1038  1  0.499470  0.319400  0.778630  1.0  0.6931
  C  C1039  1  0.601530  0.349750  0.804470  1.0  -0.0903
  C  C1040  1  0.601010  0.353060  0.830070  1.0  -0.0283
  C  C1041  1  0.629060  0.343530  0.835340  1.0  -0.1027
  C  C1042  1  0.658700  0.332150  0.813160  1.0  -0.0531
  C  C1043  1  0.660410  0.329170  0.786500  1.0  -0.1416
  C  C1044  1  0.631360  0.338230  0.782490  1.0  -0.0406
  C  C1045  1  0.691670  0.312050  0.766040  1.0  0.7135
  C  C1046  1  0.626990  0.341470  0.866140  1.0  0.7177
  C  C1047  1  0.571090  0.353050  0.804300  1.0  0.7408
  C  C1048  1  0.561470  0.269530  0.947600  1.0  -0.0629
  C  C1049  1  0.542710  0.288520  0.927230  1.0  -0.0585
  C  C1050  1  0.674660  0.296400  0.964720  1.0  0.6879
  C  C1051  1  0.185250  0.710880  0.232510  1.0  -0.0299
  C  C1052  1  0.178750  0.690050  0.227420  1.0  -0.05
  C  C1053  1  0.152190  0.675570  0.252810  1.0  0.6934
  C  C1054  1  0.439580  0.728420  0.345490  1.0  -0.063
  C  C1055  1  0.433490  0.760340  0.325180  1.0  -0.0987
  C  C1056  1  0.402500  0.778630  0.319400  1.0  0.6927
  C  C1057  1  0.244250  0.804470  0.349750  1.0  -0.0904
  C  C1058  1  0.215860  0.830070  0.353060  1.0  -0.0286
  C  C1059  1  0.192070  0.835340  0.343530  1.0  -0.1015
  C  C1060  1  0.195990  0.813160  0.332150  1.0  -0.0538
  C  C1061  1  0.223920  0.786500  0.329170  1.0  -0.145
  C  C1062  1  0.247920  0.782490  0.338230  1.0  -0.0435
  C  C1063  1  0.230240  0.766040  0.312050  1.0  0.7158
  C  C1064  1  0.165400  0.866140  0.341470  1.0  0.718
  C  C1065  1  0.271560  0.804300  0.353050  1.0  0.742
  C  C1066  1  0.221400  0.947600  0.269530  1.0  -0.0654
  C  C1067  1  0.241540  0.927230  0.288520  1.0  -0.0606
  C  C1068  1  0.064220  0.964720  0.296400  1.0  0.6863
  C  C1069  1  0.185250  0.232510  0.871360  1.0  -0.0305
  C  C1070  1  0.178750  0.227420  0.903780  1.0  -0.0502
  C  C1071  1  0.152190  0.252810  0.919430  1.0  0.6932
  C  C1072  1  0.439580  0.345490  0.486510  1.0  -0.0635
  C  C1073  1  0.433490  0.325180  0.480990  1.0  -0.1017
  C  C1074  1  0.402500  0.319400  0.499470  1.0  0.6922
  C  C1075  1  0.244250  0.349750  0.601530  1.0  -0.09
  C  C1076  1  0.215860  0.353060  0.601010  1.0  -0.0274
  C  C1077  1  0.192070  0.343530  0.629060  1.0  -0.1015
  C  C1078  1  0.195990  0.332150  0.658700  1.0  -0.0549
  C  C1079  1  0.223920  0.329170  0.660410  1.0  -0.1406
  C  C1080  1  0.247920  0.338230  0.631360  1.0  -0.0413
  C  C1081  1  0.230240  0.312050  0.691670  1.0  0.7138
  C  C1082  1  0.165400  0.341470  0.626990  1.0  0.7158
  C  C1083  1  0.271560  0.353050  0.571090  1.0  0.7415
  C  C1084  1  0.221400  0.269530  0.561470  1.0  -0.0657
  C  C1085  1  0.241540  0.288520  0.542710  1.0  -0.0606
  C  C1086  1  0.064220  0.296400  0.674660  1.0  0.6864
  C  C1087  1  0.871360  0.710880  0.185250  1.0  -0.0306
  C  C1088  1  0.903780  0.690050  0.178750  1.0  -0.0485
  C  C1089  1  0.919430  0.675570  0.152190  1.0  0.696
  C  C1090  1  0.486510  0.728420  0.439580  1.0  -0.0641
  C  C1091  1  0.480990  0.760340  0.433490  1.0  -0.0989
  C  C1092  1  0.499470  0.778630  0.402500  1.0  0.6931
  C  C1093  1  0.601530  0.804470  0.244250  1.0  -0.0912
  C  C1094  1  0.601010  0.830070  0.215860  1.0  -0.0285
  C  C1095  1  0.629060  0.835340  0.192070  1.0  -0.1003
  C  C1096  1  0.658700  0.813160  0.195990  1.0  -0.0538
  C  C1097  1  0.660410  0.786500  0.223920  1.0  -0.1419
  C  C1098  1  0.631360  0.782490  0.247920  1.0  -0.0447
  C  C1099  1  0.691670  0.766040  0.230240  1.0  0.7133
  C  C1100  1  0.626990  0.866140  0.165400  1.0  0.7172
  C  C1101  1  0.571090  0.804300  0.271560  1.0  0.7419
  C  C1102  1  0.561470  0.947600  0.221400  1.0  -0.0639
  C  C1103  1  0.542710  0.927230  0.241540  1.0  -0.0601
  C  C1104  1  0.674660  0.964720  0.064220  1.0  0.6888
  C  C1105  1  0.710880  0.871360  0.232510  1.0  -0.0296
  C  C1106  1  0.690050  0.903780  0.227420  1.0  -0.0507
  C  C1107  1  0.675570  0.919430  0.252810  1.0  0.6939
  C  C1108  1  0.728420  0.486510  0.345490  1.0  -0.0653
  C  C1109  1  0.760340  0.480990  0.325180  1.0  -0.0976
  C  C1110  1  0.778630  0.499470  0.319400  1.0  0.6908
  C  C1111  1  0.804470  0.601530  0.349750  1.0  -0.0898
  C  C1112  1  0.830070  0.601010  0.353060  1.0  -0.0292
  C  C1113  1  0.835340  0.629060  0.343530  1.0  -0.1005
  C  C1114  1  0.813160  0.658700  0.332150  1.0  -0.0569
  C  C1115  1  0.786500  0.660410  0.329170  1.0  -0.1422
  C  C1116  1  0.782490  0.631360  0.338230  1.0  -0.0401
  C  C1117  1  0.766040  0.691670  0.312050  1.0  0.7141
  C  C1118  1  0.866140  0.626990  0.341470  1.0  0.7182
  C  C1119  1  0.804300  0.571090  0.353050  1.0  0.7425
  C  C1120  1  0.947600  0.561470  0.269530  1.0  -0.063
  C  C1121  1  0.927230  0.542710  0.288520  1.0  -0.0619
  C  C1122  1  0.964720  0.674660  0.296400  1.0  0.6883
  C  C1123  1  0.232510  0.185250  0.710880  1.0  -0.0313
  C  C1124  1  0.227420  0.178750  0.690050  1.0  -0.0508
  C  C1125  1  0.252810  0.152190  0.675570  1.0  0.694
  C  C1126  1  0.345490  0.439580  0.728420  1.0  -0.0617
  C  C1127  1  0.325180  0.433490  0.760340  1.0  -0.0977
  C  C1128  1  0.319400  0.402500  0.778630  1.0  0.693
  C  C1129  1  0.349750  0.244250  0.804470  1.0  -0.0896
  C  C1130  1  0.353060  0.215860  0.830070  1.0  -0.0246
  C  C1131  1  0.343530  0.192070  0.835340  1.0  -0.1024
  C  C1132  1  0.332150  0.195990  0.813160  1.0  -0.0566
  C  C1133  1  0.329170  0.223920  0.786500  1.0  -0.1421
  C  C1134  1  0.338230  0.247920  0.782490  1.0  -0.041
  C  C1135  1  0.312050  0.230240  0.766040  1.0  0.7149
  C  C1136  1  0.341470  0.165400  0.866140  1.0  0.7182
  C  C1137  1  0.353050  0.271560  0.804300  1.0  0.7421
  C  C1138  1  0.269530  0.221400  0.947600  1.0  -0.0641
  C  C1139  1  0.288520  0.241540  0.927230  1.0  -0.0617
  C  C1140  1  0.296400  0.064220  0.964720  1.0  0.6856
  C  C1141  1  0.378640  0.064750  0.539120  1.0  -0.0303
  C  C1142  1  0.346220  0.071250  0.559950  1.0  -0.0482
  C  C1143  1  0.330570  0.097810  0.574430  1.0  0.6924
  C  C1144  1  0.763490  0.810420  0.521580  1.0  -0.0645
  C  C1145  1  0.769010  0.816510  0.489660  1.0  -0.0975
  C  C1146  1  0.750530  0.847500  0.471370  1.0  0.6919
  C  C1147  1  0.648470  0.005750  0.445530  1.0  -0.0885
  C  C1148  1  0.648990  0.034140  0.419930  1.0  -0.0274
  C  C1149  1  0.620940  0.057930  0.414660  1.0  -0.0991
  C  C1150  1  0.591300  0.054010  0.436840  1.0  -0.0568
  C  C1151  1  0.589590  0.026080  0.463500  1.0  -0.1417
  C  C1152  1  0.618640  0.002080  0.467510  1.0  -0.043
  C  C1153  1  0.558330  0.019760  0.483960  1.0  0.7137
  C  C1154  1  0.623010  0.084600  0.383860  1.0  0.7186
  C  C1155  1  0.678910  0.978440  0.445700  1.0  0.7434
  C  C1156  1  0.688530  0.028600  0.302400  1.0  -0.0637
  C  C1157  1  0.707290  0.008460  0.322770  1.0  -0.0594
  C  C1158  1  0.575340  0.185780  0.285280  1.0  0.6875
  C  C1159  1  0.064750  0.378640  0.017490  1.0  -0.0293
  C  C1160  1  0.071250  0.346220  0.022580  1.0  -0.0506
  C  C1161  1  0.097810  0.330570  0.997190  1.0  0.6934
  C  C1162  1  0.810420  0.763490  0.904510  1.0  -0.0636
  C  C1163  1  0.816510  0.769010  0.924820  1.0  -0.0952
  C  C1164  1  0.847500  0.750530  0.930600  1.0  0.692
  C  C1165  1  0.005750  0.648470  0.900250  1.0  -0.0884
  C  C1166  1  0.034140  0.648990  0.896940  1.0  -0.0274
  C  C1167  1  0.057930  0.620940  0.906470  1.0  -0.1012
  C  C1168  1  0.054010  0.591300  0.917850  1.0  -0.0556
  C  C1169  1  0.026080  0.589590  0.920830  1.0  -0.1436
  C  C1170  1  0.002080  0.618640  0.911770  1.0  -0.0421
  C  C1171  1  0.019760  0.558330  0.937950  1.0  0.716
  C  C1172  1  0.084600  0.623010  0.908530  1.0  0.7182
  C  C1173  1  0.978440  0.678910  0.896950  1.0  0.7427
  C  C1174  1  0.028600  0.688530  0.980470  1.0  -0.0625
  C  C1175  1  0.008460  0.707290  0.961480  1.0  -0.0595
  C  C1176  1  0.185780  0.575340  0.953600  1.0  0.6885
  C  C1177  1  0.017490  0.539120  0.064750  1.0  -0.0304
  C  C1178  1  0.022580  0.559950  0.071250  1.0  -0.051
  C  C1179  1  0.997190  0.574430  0.097810  1.0  0.6951
  C  C1180  1  0.904510  0.521580  0.810420  1.0  -0.0615
  C  C1181  1  0.924820  0.489660  0.816510  1.0  -0.0962
  C  C1182  1  0.930600  0.471370  0.847500  1.0  0.6931
  C  C1183  1  0.900250  0.445530  0.005750  1.0  -0.0906
  C  C1184  1  0.896940  0.419930  0.034140  1.0  -0.0277
  C  C1185  1  0.906470  0.414660  0.057930  1.0  -0.1027
  C  C1186  1  0.917850  0.436840  0.054010  1.0  -0.0552
  C  C1187  1  0.920830  0.463500  0.026080  1.0  -0.1437
  C  C1188  1  0.911770  0.467510  0.002080  1.0  -0.0423
  C  C1189  1  0.937950  0.483960  0.019760  1.0  0.7155
  C  C1190  1  0.908530  0.383860  0.084600  1.0  0.7184
  C  C1191  1  0.896950  0.445700  0.978440  1.0  0.7426
  C  C1192  1  0.980470  0.302400  0.028600  1.0  -0.0678
  C  C1193  1  0.961480  0.322770  0.008460  1.0  -0.0615
  C  C1194  1  0.953600  0.285280  0.185780  1.0  0.6871
  C  C1195  1  0.539120  0.017490  0.378640  1.0  -0.0311
  C  C1196  1  0.559950  0.022580  0.346220  1.0  -0.0492
  C  C1197  1  0.574430  0.997190  0.330570  1.0  0.6937
  C  C1198  1  0.521580  0.904510  0.763490  1.0  -0.0607
  C  C1199  1  0.489660  0.924820  0.769010  1.0  -0.0978
  C  C1200  1  0.471370  0.930600  0.750530  1.0  0.6947
  C  C1201  1  0.445530  0.900250  0.648470  1.0  -0.0912
  C  C1202  1  0.419930  0.896940  0.648990  1.0  -0.0282
  C  C1203  1  0.414660  0.906470  0.620940  1.0  -0.1027
  C  C1204  1  0.436840  0.917850  0.591300  1.0  -0.0544
  C  C1205  1  0.463500  0.920830  0.589590  1.0  -0.1426
  C  C1206  1  0.467510  0.911770  0.618640  1.0  -0.0411
  C  C1207  1  0.483960  0.937950  0.558330  1.0  0.712
  C  C1208  1  0.383860  0.908530  0.623010  1.0  0.7163
  C  C1209  1  0.445700  0.896950  0.678910  1.0  0.7406
  C  C1210  1  0.302400  0.980470  0.688530  1.0  -0.0643
  C  C1211  1  0.322770  0.961480  0.707290  1.0  -0.0606
  C  C1212  1  0.285280  0.953600  0.575340  1.0  0.688
  C  C1213  1  0.017490  0.378640  0.539120  1.0  -0.0313
  C  C1214  1  0.022580  0.346220  0.559950  1.0  -0.0509
  C  C1215  1  0.997190  0.330570  0.574430  1.0  0.6916
  C  C1216  1  0.904510  0.763490  0.521580  1.0  -0.0646
  C  C1217  1  0.924820  0.769010  0.489660  1.0  -0.0951
  C  C1218  1  0.930600  0.750530  0.471370  1.0  0.6949
  C  C1219  1  0.900250  0.648470  0.445530  1.0  -0.0897
  C  C1220  1  0.896940  0.648990  0.419930  1.0  -0.0258
  C  C1221  1  0.906470  0.620940  0.414660  1.0  -0.1023
  C  C1222  1  0.917850  0.591300  0.436840  1.0  -0.0552
  C  C1223  1  0.920830  0.589590  0.463500  1.0  -0.1423
  C  C1224  1  0.911770  0.618640  0.467510  1.0  -0.0406
  C  C1225  1  0.937950  0.558330  0.483960  1.0  0.7159
  C  C1226  1  0.908530  0.623010  0.383860  1.0  0.7191
  C  C1227  1  0.896950  0.678910  0.445700  1.0  0.742
  C  C1228  1  0.980470  0.688530  0.302400  1.0  -0.0637
  C  C1229  1  0.961480  0.707290  0.322770  1.0  -0.0605
  C  C1230  1  0.953600  0.575340  0.285280  1.0  0.6893
  C  C1231  1  0.539120  0.064750  0.017490  1.0  -0.0294
  C  C1232  1  0.559950  0.071250  0.022580  1.0  -0.051
  C  C1233  1  0.574430  0.097810  0.997190  1.0  0.6958
  C  C1234  1  0.521580  0.810420  0.904510  1.0  -0.0623
  C  C1235  1  0.489660  0.816510  0.924820  1.0  -0.0941
  C  C1236  1  0.471370  0.847500  0.930600  1.0  0.6934
  C  C1237  1  0.445530  0.005750  0.900250  1.0  -0.0892
  C  C1238  1  0.419930  0.034140  0.896940  1.0  -0.0285
  C  C1239  1  0.414660  0.057930  0.906470  1.0  -0.1016
  C  C1240  1  0.436840  0.054010  0.917850  1.0  -0.0541
  C  C1241  1  0.463500  0.026080  0.920830  1.0  -0.1413
  C  C1242  1  0.467510  0.002080  0.911770  1.0  -0.0414
  C  C1243  1  0.483960  0.019760  0.937950  1.0  0.7162
  C  C1244  1  0.383860  0.084600  0.908530  1.0  0.719
  C  C1245  1  0.445700  0.978440  0.896950  1.0  0.7427
  C  C1246  1  0.302400  0.028600  0.980470  1.0  -0.0646
  C  C1247  1  0.322770  0.008460  0.961480  1.0  -0.0612
  C  C1248  1  0.285280  0.185780  0.953600  1.0  0.6848
  C  C1249  1  0.378640  0.017490  0.064750  1.0  -0.0302
  C  C1250  1  0.346220  0.022580  0.071250  1.0  -0.0479
  C  C1251  1  0.330570  0.997190  0.097810  1.0  0.6943
  C  C1252  1  0.763490  0.904510  0.810420  1.0  -0.0621
  C  C1253  1  0.769010  0.924820  0.816510  1.0  -0.0981
  C  C1254  1  0.750530  0.930600  0.847500  1.0  0.6941
  C  C1255  1  0.648470  0.900250  0.005750  1.0  -0.0911
  C  C1256  1  0.648990  0.896940  0.034140  1.0  -0.0282
  C  C1257  1  0.620940  0.906470  0.057930  1.0  -0.1024
  C  C1258  1  0.591300  0.917850  0.054010  1.0  -0.0541
  C  C1259  1  0.589590  0.920830  0.026080  1.0  -0.1437
  C  C1260  1  0.618640  0.911770  0.002080  1.0  -0.042
  C  C1261  1  0.558330  0.937950  0.019760  1.0  0.7124
  C  C1262  1  0.623010  0.908530  0.084600  1.0  0.7182
  C  C1263  1  0.678910  0.896950  0.978440  1.0  0.74
  C  C1264  1  0.688530  0.980470  0.028600  1.0  -0.0638
  C  C1265  1  0.707290  0.961480  0.008460  1.0  -0.0583
  C  C1266  1  0.575340  0.953600  0.185780  1.0  0.6874
  C  C1267  1  0.064750  0.539120  0.378640  1.0  -0.0305
  C  C1268  1  0.071250  0.559950  0.346220  1.0  -0.0504
  C  C1269  1  0.097810  0.574430  0.330570  1.0  0.6941
  C  C1270  1  0.810420  0.521580  0.763490  1.0  -0.0651
  C  C1271  1  0.816510  0.489660  0.769010  1.0  -0.0991
  C  C1272  1  0.847500  0.471370  0.750530  1.0  0.6929
  C  C1273  1  0.005750  0.445530  0.648470  1.0  -0.0893
  C  C1274  1  0.034140  0.419930  0.648990  1.0  -0.0285
  C  C1275  1  0.057930  0.414660  0.620940  1.0  -0.1015
  C  C1276  1  0.054010  0.436840  0.591300  1.0  -0.0535
  C  C1277  1  0.026080  0.463500  0.589590  1.0  -0.1425
  C  C1278  1  0.002080  0.467510  0.618640  1.0  -0.0431
  C  C1279  1  0.019760  0.483960  0.558330  1.0  0.7163
  C  C1280  1  0.084600  0.383860  0.623010  1.0  0.7177
  C  C1281  1  0.978440  0.445700  0.678910  1.0  0.7426
  C  C1282  1  0.028600  0.302400  0.688530  1.0  -0.0672
  C  C1283  1  0.008460  0.322770  0.707290  1.0  -0.0609
  C  C1284  1  0.185780  0.285280  0.575340  1.0  0.6857
  C  C1285  1  0.064750  0.017490  0.539120  1.0  -0.031
  C  C1286  1  0.071250  0.022580  0.559950  1.0  -0.05
  C  C1287  1  0.097810  0.997190  0.574430  1.0  0.6947
  C  C1288  1  0.810420  0.904510  0.521580  1.0  -0.0628
  C  C1289  1  0.816510  0.924820  0.489660  1.0  -0.0974
  C  C1290  1  0.847500  0.930600  0.471370  1.0  0.6928
  C  C1291  1  0.005750  0.900250  0.445530  1.0  -0.0906
  C  C1292  1  0.034140  0.896940  0.419930  1.0  -0.028
  C  C1293  1  0.057930  0.906470  0.414660  1.0  -0.1022
  C  C1294  1  0.054010  0.917850  0.436840  1.0  -0.0545
  C  C1295  1  0.026080  0.920830  0.463500  1.0  -0.1408
  C  C1296  1  0.002080  0.911770  0.467510  1.0  -0.0424
  C  C1297  1  0.019760  0.937950  0.483960  1.0  0.7132
  C  C1298  1  0.084600  0.908530  0.383860  1.0  0.7176
  C  C1299  1  0.978440  0.896950  0.445700  1.0  0.7402
  C  C1300  1  0.028600  0.980470  0.302400  1.0  -0.0665
  C  C1301  1  0.008460  0.961480  0.322770  1.0  -0.0614
  C  C1302  1  0.185780  0.953600  0.285280  1.0  0.6866
  C  C1303  1  0.378640  0.539120  0.017490  1.0  -0.0318
  C  C1304  1  0.346220  0.559950  0.022580  1.0  -0.0486
  C  C1305  1  0.330570  0.574430  0.997190  1.0  0.6954
  C  C1306  1  0.763490  0.521580  0.904510  1.0  -0.061
  C  C1307  1  0.769010  0.489660  0.924820  1.0  -0.0946
  C  C1308  1  0.750530  0.471370  0.930600  1.0  0.6924
  C  C1309  1  0.648470  0.445530  0.900250  1.0  -0.0905
  C  C1310  1  0.648990  0.419930  0.896940  1.0  -0.0286
  C  C1311  1  0.620940  0.414660  0.906470  1.0  -0.1012
  C  C1312  1  0.591300  0.436840  0.917850  1.0  -0.054
  C  C1313  1  0.589590  0.463500  0.920830  1.0  -0.1421
  C  C1314  1  0.618640  0.467510  0.911770  1.0  -0.043
  C  C1315  1  0.558330  0.483960  0.937950  1.0  0.7147
  C  C1316  1  0.623010  0.383860  0.908530  1.0  0.7171
  C  C1317  1  0.678910  0.445700  0.896950  1.0  0.7421
  C  C1318  1  0.688530  0.302400  0.980470  1.0  -0.0678
  C  C1319  1  0.707290  0.322770  0.961480  1.0  -0.0603
  C  C1320  1  0.575340  0.285280  0.953600  1.0  0.6879
  C  C1321  1  0.539120  0.378640  0.064750  1.0  -0.0303
  C  C1322  1  0.559950  0.346220  0.071250  1.0  -0.0509
  C  C1323  1  0.574430  0.330570  0.097810  1.0  0.6927
  C  C1324  1  0.521580  0.763490  0.810420  1.0  -0.0672
  C  C1325  1  0.489660  0.769010  0.816510  1.0  -0.0977
  C  C1326  1  0.471370  0.750530  0.847500  1.0  0.6913
  C  C1327  1  0.445530  0.648470  0.005750  1.0  -0.0887
  C  C1328  1  0.419930  0.648990  0.034140  1.0  -0.0296
  C  C1329  1  0.414660  0.620940  0.057930  1.0  -0.1002
  C  C1330  1  0.436840  0.591300  0.054010  1.0  -0.0575
  C  C1331  1  0.463500  0.589590  0.026080  1.0  -0.1403
  C  C1332  1  0.467510  0.618640  0.002080  1.0  -0.0404
  C  C1333  1  0.483960  0.558330  0.019760  1.0  0.7139
  C  C1334  1  0.383860  0.623010  0.084600  1.0  0.7174
  C  C1335  1  0.445700  0.678910  0.978440  1.0  0.7432
  C  C1336  1  0.302400  0.688530  0.028600  1.0  -0.0633
  C  C1337  1  0.322770  0.707290  0.008460  1.0  -0.0623
  C  C1338  1  0.285280  0.575340  0.185780  1.0  0.6885
  C  C1339  1  0.017490  0.064750  0.378640  1.0  -0.0312
  C  C1340  1  0.022580  0.071250  0.346220  1.0  -0.0507
  C  C1341  1  0.997190  0.097810  0.330570  1.0  0.693
  C  C1342  1  0.904510  0.810420  0.763490  1.0  -0.0622
  C  C1343  1  0.924820  0.816510  0.769010  1.0  -0.0955
  C  C1344  1  0.930600  0.847500  0.750530  1.0  0.6925
  C  C1345  1  0.900250  0.005750  0.648470  1.0  -0.0909
  C  C1346  1  0.896940  0.034140  0.648990  1.0  -0.0255
  C  C1347  1  0.906470  0.057930  0.620940  1.0  -0.1026
  C  C1348  1  0.917850  0.054010  0.591300  1.0  -0.0566
  C  C1349  1  0.920830  0.026080  0.589590  1.0  -0.1437
  C  C1350  1  0.911770  0.002080  0.618640  1.0  -0.0411
  C  C1351  1  0.937950  0.019760  0.558330  1.0  0.7162
  C  C1352  1  0.908530  0.084600  0.623010  1.0  0.7193
  C  C1353  1  0.896950  0.978440  0.678910  1.0  0.7425
  C  C1354  1  0.980470  0.028600  0.688530  1.0  -0.0645
  C  C1355  1  0.961480  0.008460  0.707290  1.0  -0.0636
  C  C1356  1  0.953600  0.185780  0.575340  1.0  0.6864
  C  C1357  1  0.679050  0.014020  0.014020  1.0  -0.0084
  C  C1358  1  0.716390  0.974890  0.974890  1.0  -0.1219
  C  C1359  1  0.731240  0.954280  0.954280  1.0  0.692
  C  C1360  1  0.014020  0.679050  0.292910  1.0  -0.0104
  C  C1361  1  0.974890  0.716390  0.333830  1.0  -0.1226
  C  C1362  1  0.954280  0.731240  0.360200  1.0  0.6924
  C  C1363  1  0.014020  0.292910  0.679050  1.0  -0.0102
  C  C1364  1  0.974890  0.333830  0.716390  1.0  -0.1249
  C  C1365  1  0.954280  0.360200  0.731240  1.0  0.6911
  C  C1366  1  0.292910  0.014020  0.014020  1.0  -0.0105
  C  C1367  1  0.333830  0.974890  0.974890  1.0  -0.1259
  C  C1368  1  0.360200  0.954280  0.954280  1.0  0.6916
  C  C1369  1  0.014020  0.679050  0.014020  1.0  -0.0076
  C  C1370  1  0.974890  0.716390  0.974890  1.0  -0.1223
  C  C1371  1  0.954280  0.731240  0.954280  1.0  0.6921
  C  C1372  1  0.292910  0.014020  0.679050  1.0  -0.0115
  C  C1373  1  0.333830  0.974890  0.716390  1.0  -0.1246
  C  C1374  1  0.360200  0.954280  0.731240  1.0  0.6921
  C  C1375  1  0.679050  0.014020  0.292910  1.0  -0.0117
  C  C1376  1  0.716390  0.974890  0.333830  1.0  -0.1221
  C  C1377  1  0.731240  0.954280  0.360200  1.0  0.6928
  C  C1378  1  0.014020  0.292910  0.014020  1.0  -0.0094
  C  C1379  1  0.974890  0.333830  0.974890  1.0  -0.1259
  C  C1380  1  0.954280  0.360200  0.954280  1.0  0.6904
  C  C1381  1  0.014020  0.014020  0.679050  1.0  -0.0063
  C  C1382  1  0.974890  0.974890  0.716390  1.0  -0.1242
  C  C1383  1  0.954280  0.954280  0.731240  1.0  0.6867
  C  C1384  1  0.679050  0.292910  0.014020  1.0  -0.012
  C  C1385  1  0.716390  0.333830  0.974890  1.0  -0.1232
  C  C1386  1  0.731240  0.360200  0.954280  1.0  0.6898
  C  C1387  1  0.292910  0.679050  0.014020  1.0  -0.0109
  C  C1388  1  0.333830  0.716390  0.974890  1.0  -0.1241
  C  C1389  1  0.360200  0.731240  0.954280  1.0  0.6917
  C  C1390  1  0.014020  0.014020  0.292910  1.0  -0.0085
  C  C1391  1  0.974890  0.974890  0.333830  1.0  -0.1253
  C  C1392  1  0.954280  0.954280  0.360200  1.0  0.688
  C  C1393  1  0.570950  0.235980  0.957090  1.0  -0.0175
  C  C1394  1  0.533610  0.275110  0.916170  1.0  -0.1243
  C  C1395  1  0.518760  0.295720  0.889800  1.0  0.6925
  C  C1396  1  0.235980  0.570950  0.235980  1.0  -0.0115
  C  C1397  1  0.275110  0.533610  0.275110  1.0  -0.1256
  C  C1398  1  0.295720  0.518760  0.295720  1.0  0.6904
  C  C1399  1  0.235980  0.957090  0.235980  1.0  -0.0146
  C  C1400  1  0.275110  0.916170  0.275110  1.0  -0.1237
  C  C1401  1  0.295720  0.889800  0.295720  1.0  0.6925
  C  C1402  1  0.957090  0.235980  0.570950  1.0  -0.0192
  C  C1403  1  0.916170  0.275110  0.533610  1.0  -0.1234
  C  C1404  1  0.889800  0.295720  0.518760  1.0  0.6934
  C  C1405  1  0.235980  0.570950  0.957090  1.0  -0.0186
  C  C1406  1  0.275110  0.533610  0.916170  1.0  -0.1249
  C  C1407  1  0.295720  0.518760  0.889800  1.0  0.6898
  C  C1408  1  0.957090  0.235980  0.235980  1.0  -0.0182
  C  C1409  1  0.916170  0.275110  0.275110  1.0  -0.1225
  C  C1410  1  0.889800  0.295720  0.295720  1.0  0.6943
  C  C1411  1  0.570950  0.235980  0.235980  1.0  -0.0104
  C  C1412  1  0.533610  0.275110  0.275110  1.0  -0.1241
  C  C1413  1  0.518760  0.295720  0.295720  1.0  0.6924
  C  C1414  1  0.235980  0.957090  0.570950  1.0  -0.0163
  C  C1415  1  0.275110  0.916170  0.533610  1.0  -0.1246
  C  C1416  1  0.295720  0.889800  0.518760  1.0  0.6921
  C  C1417  1  0.235980  0.235980  0.957090  1.0  -0.0188
  C  C1418  1  0.275110  0.275110  0.916170  1.0  -0.1239
  C  C1419  1  0.295720  0.295720  0.889800  1.0  0.6886
  C  C1420  1  0.570950  0.957090  0.235980  1.0  -0.0158
  C  C1421  1  0.533610  0.916170  0.275110  1.0  -0.1231
  C  C1422  1  0.518760  0.889800  0.295720  1.0  0.6912
  C  C1423  1  0.957090  0.570950  0.235980  1.0  -0.0174
  C  C1424  1  0.916170  0.533610  0.275110  1.0  -0.1236
  C  C1425  1  0.889800  0.518760  0.295720  1.0  0.6904
  C  C1426  1  0.235980  0.235980  0.570950  1.0  -0.0123
  C  C1427  1  0.275110  0.275110  0.533610  1.0  -0.125
  C  C1428  1  0.295720  0.295720  0.518760  1.0  0.6891
  C  C1429  1  0.395660  0.037970  0.037970  1.0  -0.1477
  C  C1430  1  0.330870  0.049510  0.049510  1.0  -0.0065
  C  C1431  1  0.432010  0.029140  0.029140  1.0  0.6751
  C  C1432  1  0.037970  0.395660  0.528400  1.0  -0.1479
  C  C1433  1  0.049510  0.330870  0.570110  1.0  -0.0075
  C  C1434  1  0.029140  0.432010  0.509710  1.0  0.6769
  C  C1435  1  0.037970  0.528400  0.395660  1.0  -0.1488
  C  C1436  1  0.049510  0.570110  0.330870  1.0  -0.0041
  C  C1437  1  0.029140  0.509710  0.432010  1.0  0.6763
  C  C1438  1  0.528400  0.037970  0.037970  1.0  -0.1467
  C  C1439  1  0.570110  0.049510  0.049510  1.0  -0.0029
  C  C1440  1  0.509710  0.029140  0.029140  1.0  0.6776
  C  C1441  1  0.037970  0.395660  0.037970  1.0  -0.1473
  C  C1442  1  0.049510  0.330870  0.049510  1.0  -0.0074
  C  C1443  1  0.029140  0.432010  0.029140  1.0  0.6767
  C  C1444  1  0.528400  0.037970  0.395660  1.0  -0.1465
  C  C1445  1  0.570110  0.049510  0.330870  1.0  -0.0031
  C  C1446  1  0.509710  0.029140  0.432010  1.0  0.6771
  C  C1447  1  0.395660  0.037970  0.528400  1.0  -0.1487
  C  C1448  1  0.330870  0.049510  0.570110  1.0  -0.0066
  C  C1449  1  0.432010  0.029140  0.509710  1.0  0.6756
  C  C1450  1  0.037970  0.528400  0.037970  1.0  -0.1486
  C  C1451  1  0.049510  0.570110  0.049510  1.0  -0.0046
  C  C1452  1  0.029140  0.509710  0.029140  1.0  0.6755
  C  C1453  1  0.037970  0.037970  0.395660  1.0  -0.1468
  C  C1454  1  0.049510  0.049510  0.330870  1.0  -0.0065
  C  C1455  1  0.029140  0.029140  0.432010  1.0  0.677
  C  C1456  1  0.395660  0.528400  0.037970  1.0  -0.1483
  C  C1457  1  0.330870  0.570110  0.049510  1.0  -0.0046
  C  C1458  1  0.432010  0.509710  0.029140  1.0  0.6747
  C  C1459  1  0.528400  0.395660  0.037970  1.0  -0.1464
  C  C1460  1  0.570110  0.330870  0.049510  1.0  -0.0062
  C  C1461  1  0.509710  0.432010  0.029140  1.0  0.6762
  C  C1462  1  0.037970  0.037970  0.528400  1.0  -0.147
  C  C1463  1  0.049510  0.049510  0.570110  1.0  -0.0056
  C  C1464  1  0.029140  0.029140  0.509710  1.0  0.6769
  C  C1465  1  0.854340  0.212030  0.721600  1.0  -0.1491
  C  C1466  1  0.919130  0.200490  0.679890  1.0  -0.0087
  C  C1467  1  0.817990  0.220860  0.740290  1.0  0.6738
  C  C1468  1  0.212030  0.854340  0.212030  1.0  -0.1491
  C  C1469  1  0.200490  0.919130  0.200490  1.0  -0.0073
  C  C1470  1  0.220860  0.817990  0.220860  1.0  0.6763
  C  C1471  1  0.212030  0.721600  0.212030  1.0  -0.148
  C  C1472  1  0.200490  0.679890  0.200490  1.0  -0.0043
  C  C1473  1  0.220860  0.740290  0.220860  1.0  0.6772
  C  C1474  1  0.721600  0.212030  0.854340  1.0  -0.1479
  C  C1475  1  0.679890  0.200490  0.919130  1.0  -0.004
  C  C1476  1  0.740290  0.220860  0.817990  1.0  0.6774
  C  C1477  1  0.212030  0.854340  0.721600  1.0  -0.1479
  C  C1478  1  0.200490  0.919130  0.679890  1.0  -0.0059
  C  C1479  1  0.220860  0.817990  0.740290  1.0  0.6755
  C  C1480  1  0.721600  0.212030  0.212030  1.0  -0.1481
  C  C1481  1  0.679890  0.200490  0.200490  1.0  -0.0037
  C  C1482  1  0.740290  0.220860  0.220860  1.0  0.6782
  C  C1483  1  0.854340  0.212030  0.212030  1.0  -0.1499
  C  C1484  1  0.919130  0.200490  0.200490  1.0  -0.0094
  C  C1485  1  0.817990  0.220860  0.220860  1.0  0.6742
  C  C1486  1  0.212030  0.721600  0.854340  1.0  -0.1483
  C  C1487  1  0.200490  0.679890  0.919130  1.0  -0.0051
  C  C1488  1  0.220860  0.740290  0.817990  1.0  0.6771
  C  C1489  1  0.212030  0.212030  0.721600  1.0  -0.1486
  C  C1490  1  0.200490  0.200490  0.679890  1.0  -0.0081
  C  C1491  1  0.220860  0.220860  0.740290  1.0  0.6761
  C  C1492  1  0.854340  0.721600  0.212030  1.0  -0.147
  C  C1493  1  0.919130  0.679890  0.200490  1.0  -0.0041
  C  C1494  1  0.817990  0.740290  0.220860  1.0  0.6742
  C  C1495  1  0.721600  0.854340  0.212030  1.0  -0.146
  C  C1496  1  0.679890  0.919130  0.200490  1.0  -0.0055
  C  C1497  1  0.740290  0.817990  0.220860  1.0  0.6762
  C  C1498  1  0.212030  0.212030  0.854340  1.0  -0.1488
  C  C1499  1  0.200490  0.200490  0.919130  1.0  -0.0077
  C  C1500  1  0.220860  0.220860  0.817990  1.0  0.6761
  C  C1501  1  0.703520  0.750420  0.842550  1.0  0.0206
  C  C1502  1  0.750420  0.703520  0.703520  1.0  0.0152
  C  C1503  1  0.842550  0.703520  0.703520  1.0  0.0111
  C  C1504  1  0.703520  0.842550  0.750420  1.0  0.0202
  C  C1505  1  0.842550  0.703520  0.750420  1.0  0.0174
  C  C1506  1  0.703520  0.750420  0.703520  1.0  0.0174
  C  C1507  1  0.703520  0.842550  0.703520  1.0  0.0146
  C  C1508  1  0.750420  0.703520  0.842550  1.0  0.0195
  C  C1509  1  0.750420  0.842550  0.703520  1.0  0.0198
  C  C1510  1  0.703520  0.703520  0.750420  1.0  0.018
  C  C1511  1  0.703520  0.703520  0.842550  1.0  0.0132
  C  C1512  1  0.842550  0.750420  0.703520  1.0  0.0194
  C  C1513  1  0.546480  0.499580  0.546480  1.0  0.0168
  C  C1514  1  0.499580  0.546480  0.407450  1.0  0.0176
  C  C1515  1  0.407450  0.546480  0.499580  1.0  0.0151
  C  C1516  1  0.546480  0.407450  0.546480  1.0  0.0121
  C  C1517  1  0.407450  0.546480  0.546480  1.0  0.0126
  C  C1518  1  0.546480  0.499580  0.407450  1.0  0.0155
  C  C1519  1  0.546480  0.407450  0.499580  1.0  0.0157
  C  C1520  1  0.499580  0.546480  0.546480  1.0  0.0201
  C  C1521  1  0.499580  0.407450  0.546480  1.0  0.0168
  C  C1522  1  0.546480  0.546480  0.407450  1.0  0.0141
  C  C1523  1  0.546480  0.546480  0.499580  1.0  0.0169
  C  C1524  1  0.407450  0.499580  0.546480  1.0  0.0166
  C  C1525  1  0.888230  0.888230  0.839920  1.0  -0.0455
  C  C1526  1  0.903400  0.903400  0.804430  1.0  0.6712
  C  C1527  1  0.784560  0.784560  0.893360  1.0  -0.1163
  C  C1528  1  0.795760  0.795760  0.934520  1.0  0.0276
  C  C1529  1  0.782900  0.782900  0.866110  1.0  0.7232
  C  C1530  1  0.888230  0.888230  0.383620  1.0  -0.047
  C  C1531  1  0.903400  0.903400  0.388770  1.0  0.6714
  C  C1532  1  0.784560  0.784560  0.537520  1.0  -0.1192
  C  C1533  1  0.795760  0.795760  0.473960  1.0  0.0229
  C  C1534  1  0.782900  0.782900  0.568090  1.0  0.7228
  C  C1535  1  0.839920  0.383620  0.888230  1.0  -0.0474
  C  C1536  1  0.804430  0.388770  0.903400  1.0  0.6677
  C  C1537  1  0.893360  0.537520  0.784560  1.0  -0.114
  C  C1538  1  0.934520  0.473960  0.795760  1.0  0.026
  C  C1539  1  0.866110  0.568090  0.782900  1.0  0.7247
  C  C1540  1  0.383620  0.839920  0.888230  1.0  -0.0464
  C  C1541  1  0.388770  0.804430  0.903400  1.0  0.6723
  C  C1542  1  0.537520  0.893360  0.784560  1.0  -0.115
  C  C1543  1  0.473960  0.934520  0.795760  1.0  0.0308
  C  C1544  1  0.568090  0.866110  0.782900  1.0  0.7245
  C  C1545  1  0.839920  0.888230  0.888230  1.0  -0.0458
  C  C1546  1  0.804430  0.903400  0.903400  1.0  0.6711
  C  C1547  1  0.893360  0.784560  0.784560  1.0  -0.1169
  C  C1548  1  0.934520  0.795760  0.795760  1.0  0.0305
  C  C1549  1  0.866110  0.782900  0.782900  1.0  0.7236
  C  C1550  1  0.383620  0.888230  0.888230  1.0  -0.0457
  C  C1551  1  0.388770  0.903400  0.903400  1.0  0.6725
  C  C1552  1  0.537520  0.784560  0.784560  1.0  -0.1191
  C  C1553  1  0.473960  0.795760  0.795760  1.0  0.0271
  C  C1554  1  0.568090  0.782900  0.782900  1.0  0.7231
  C  C1555  1  0.888230  0.839920  0.383620  1.0  -0.0474
  C  C1556  1  0.903400  0.804430  0.388770  1.0  0.6714
  C  C1557  1  0.784560  0.893360  0.537520  1.0  -0.1165
  C  C1558  1  0.795760  0.934520  0.473960  1.0  0.0294
  C  C1559  1  0.782900  0.866110  0.568090  1.0  0.7246
  C  C1560  1  0.888230  0.383620  0.839920  1.0  -0.0475
  C  C1561  1  0.903400  0.388770  0.804430  1.0  0.6692
  C  C1562  1  0.784560  0.537520  0.893360  1.0  -0.1153
  C  C1563  1  0.795760  0.473960  0.934520  1.0  0.0254
  C  C1564  1  0.782900  0.568090  0.866110  1.0  0.7245
  C  C1565  1  0.888230  0.839920  0.888230  1.0  -0.0455
  C  C1566  1  0.903400  0.804430  0.903400  1.0  0.6717
  C  C1567  1  0.784560  0.893360  0.784560  1.0  -0.1165
  C  C1568  1  0.795760  0.934520  0.795760  1.0  0.0294
  C  C1569  1  0.782900  0.866110  0.782900  1.0  0.7247
  C  C1570  1  0.888230  0.383620  0.888230  1.0  -0.0476
  C  C1571  1  0.903400  0.388770  0.903400  1.0  0.6695
  C  C1572  1  0.784560  0.537520  0.784560  1.0  -0.1184
  C  C1573  1  0.795760  0.473960  0.795760  1.0  0.0229
  C  C1574  1  0.782900  0.568090  0.782900  1.0  0.7251
  C  C1575  1  0.383620  0.888230  0.839920  1.0  -0.0463
  C  C1576  1  0.388770  0.903400  0.804430  1.0  0.6729
  C  C1577  1  0.537520  0.784560  0.893360  1.0  -0.1165
  C  C1578  1  0.473960  0.795760  0.934520  1.0  0.0293
  C  C1579  1  0.568090  0.782900  0.866110  1.0  0.7226
  C  C1580  1  0.839920  0.888230  0.383620  1.0  -0.0475
  C  C1581  1  0.804430  0.903400  0.388770  1.0  0.6708
  C  C1582  1  0.893360  0.784560  0.537520  1.0  -0.1167
  C  C1583  1  0.934520  0.795760  0.473960  1.0  0.0298
  C  C1584  1  0.866110  0.782900  0.568090  1.0  0.724
  C  C1585  1  0.361770  0.361770  0.866380  1.0  -0.0465
  C  C1586  1  0.346600  0.346600  0.861230  1.0  0.67
  C  C1587  1  0.465440  0.465440  0.712480  1.0  -0.1179
  C  C1588  1  0.454240  0.454240  0.776040  1.0  0.0253
  C  C1589  1  0.467100  0.467100  0.681910  1.0  0.7241
  C  C1590  1  0.361770  0.361770  0.410080  1.0  -0.0476
  C  C1591  1  0.346600  0.346600  0.445570  1.0  0.6715
  C  C1592  1  0.465440  0.465440  0.356640  1.0  -0.1173
  C  C1593  1  0.454240  0.454240  0.315480  1.0  0.0209
  C  C1594  1  0.467100  0.467100  0.383890  1.0  0.7243
  C  C1595  1  0.410080  0.866380  0.361770  1.0  -0.0473
  C  C1596  1  0.445570  0.861230  0.346600  1.0  0.6701
  C  C1597  1  0.356640  0.712480  0.465440  1.0  -0.1178
  C  C1598  1  0.315480  0.776040  0.454240  1.0  0.0259
  C  C1599  1  0.383890  0.681910  0.467100  1.0  0.7243
  C  C1600  1  0.866380  0.410080  0.361770  1.0  -0.046
  C  C1601  1  0.861230  0.445570  0.346600  1.0  0.6718
  C  C1602  1  0.712480  0.356640  0.465440  1.0  -0.1172
  C  C1603  1  0.776040  0.315480  0.454240  1.0  0.0277
  C  C1604  1  0.681910  0.383890  0.467100  1.0  0.7239
  C  C1605  1  0.410080  0.361770  0.866380  1.0  -0.0466
  C  C1606  1  0.445570  0.346600  0.861230  1.0  0.673
  C  C1607  1  0.356640  0.465440  0.712480  1.0  -0.1192
  C  C1608  1  0.315480  0.454240  0.776040  1.0  0.027
  C  C1609  1  0.383890  0.467100  0.681910  1.0  0.7243
  C  C1610  1  0.866380  0.361770  0.410080  1.0  -0.0462
  C  C1611  1  0.861230  0.346600  0.445570  1.0  0.6727
  C  C1612  1  0.712480  0.465440  0.356640  1.0  -0.1183
  C  C1613  1  0.776040  0.454240  0.315480  1.0  0.026
  C  C1614  1  0.681910  0.467100  0.383890  1.0  0.7228
  C  C1615  1  0.361770  0.410080  0.361770  1.0  -0.0474
  C  C1616  1  0.346600  0.445570  0.346600  1.0  0.6714
  C  C1617  1  0.465440  0.356640  0.465440  1.0  -0.1194
  C  C1618  1  0.454240  0.315480  0.454240  1.0  0.0262
  C  C1619  1  0.467100  0.383890  0.467100  1.0  0.7246
  C  C1620  1  0.361770  0.866380  0.361770  1.0  -0.0474
  C  C1621  1  0.346600  0.861230  0.346600  1.0  0.6701
  C  C1622  1  0.465440  0.712480  0.465440  1.0  -0.1179
  C  C1623  1  0.454240  0.776040  0.454240  1.0  0.0262
  C  C1624  1  0.467100  0.681910  0.467100  1.0  0.7241
  C  C1625  1  0.361770  0.410080  0.866380  1.0  -0.0464
  C  C1626  1  0.346600  0.445570  0.861230  1.0  0.6714
  C  C1627  1  0.465440  0.356640  0.712480  1.0  -0.1189
  C  C1628  1  0.454240  0.315480  0.776040  1.0  0.0265
  C  C1629  1  0.467100  0.383890  0.681910  1.0  0.7239
  C  C1630  1  0.361770  0.866380  0.410080  1.0  -0.0472
  C  C1631  1  0.346600  0.861230  0.445570  1.0  0.6701
  C  C1632  1  0.465440  0.712480  0.356640  1.0  -0.1165
  C  C1633  1  0.454240  0.776040  0.315480  1.0  0.0239
  C  C1634  1  0.467100  0.681910  0.383890  1.0  0.7252
  C  C1635  1  0.866380  0.361770  0.361770  1.0  -0.0464
  C  C1636  1  0.861230  0.346600  0.346600  1.0  0.6722
  C  C1637  1  0.712480  0.465440  0.465440  1.0  -0.1189
  C  C1638  1  0.776040  0.454240  0.454240  1.0  0.0284
  C  C1639  1  0.681910  0.467100  0.467100  1.0  0.7223
  C  C1640  1  0.410080  0.361770  0.361770  1.0  -0.0476
  C  C1641  1  0.445570  0.346600  0.346600  1.0  0.6724
  C  C1642  1  0.356640  0.465440  0.465440  1.0  -0.1194
  C  C1643  1  0.315480  0.454240  0.454240  1.0  0.0278
  C  C1644  1  0.383890  0.467100  0.467100  1.0  0.7248
  C  C1645  1  0.734910  0.734910  0.842810  1.0  -0.0727
  C  C1646  1  0.753400  0.753400  0.836390  1.0  0.6935
  C  C1647  1  0.734910  0.734910  0.687370  1.0  -0.0788
  C  C1648  1  0.753400  0.753400  0.656810  1.0  0.6935
  C  C1649  1  0.842810  0.687370  0.734910  1.0  -0.08
  C  C1650  1  0.836390  0.656810  0.753400  1.0  0.6903
  C  C1651  1  0.687370  0.842810  0.734910  1.0  -0.0815
  C  C1652  1  0.656810  0.836390  0.753400  1.0  0.6883
  C  C1653  1  0.842810  0.734910  0.734910  1.0  -0.0737
  C  C1654  1  0.836390  0.753400  0.753400  1.0  0.6924
  C  C1655  1  0.687370  0.734910  0.734910  1.0  -0.08
  C  C1656  1  0.656810  0.753400  0.753400  1.0  0.691
  C  C1657  1  0.734910  0.842810  0.687370  1.0  -0.0825
  C  C1658  1  0.753400  0.836390  0.656810  1.0  0.6906
  C  C1659  1  0.734910  0.687370  0.842810  1.0  -0.0798
  C  C1660  1  0.753400  0.656810  0.836390  1.0  0.6908
  C  C1661  1  0.734910  0.842810  0.734910  1.0  -0.0757
  C  C1662  1  0.753400  0.836390  0.753400  1.0  0.6918
  C  C1663  1  0.734910  0.687370  0.734910  1.0  -0.0799
  C  C1664  1  0.753400  0.656810  0.753400  1.0  0.6929
  C  C1665  1  0.687370  0.734910  0.842810  1.0  -0.0788
  C  C1666  1  0.656810  0.753400  0.836390  1.0  0.6893
  C  C1667  1  0.842810  0.734910  0.687370  1.0  -0.0795
  C  C1668  1  0.836390  0.753400  0.656810  1.0  0.6908
  C  C1669  1  0.515090  0.515090  0.562630  1.0  -0.079
  C  C1670  1  0.496600  0.496600  0.593190  1.0  0.6933
  C  C1671  1  0.515090  0.515090  0.407190  1.0  -0.0815
  C  C1672  1  0.496600  0.496600  0.413610  1.0  0.6935
  C  C1673  1  0.407190  0.562630  0.515090  1.0  -0.085
  C  C1674  1  0.413610  0.593190  0.496600  1.0  0.6915
  C  C1675  1  0.562630  0.407190  0.515090  1.0  -0.0847
  C  C1676  1  0.593190  0.413610  0.496600  1.0  0.6893
  C  C1677  1  0.407190  0.515090  0.562630  1.0  -0.0832
  C  C1678  1  0.413610  0.496600  0.593190  1.0  0.692
  C  C1679  1  0.562630  0.515090  0.407190  1.0  -0.0846
  C  C1680  1  0.593190  0.496600  0.413610  1.0  0.6916
  C  C1681  1  0.515090  0.407190  0.515090  1.0  -0.0846
  C  C1682  1  0.496600  0.413610  0.496600  1.0  0.6908
  C  C1683  1  0.515090  0.562630  0.515090  1.0  -0.0804
  C  C1684  1  0.496600  0.593190  0.496600  1.0  0.6928
  C  C1685  1  0.515090  0.407190  0.562630  1.0  -0.0848
  C  C1686  1  0.496600  0.413610  0.593190  1.0  0.6892
  C  C1687  1  0.515090  0.562630  0.407190  1.0  -0.085
  C  C1688  1  0.496600  0.593190  0.413610  1.0  0.6922
  C  C1689  1  0.562630  0.515090  0.515090  1.0  -0.0804
  C  C1690  1  0.593190  0.496600  0.496600  1.0  0.6928
  C  C1691  1  0.407190  0.515090  0.515090  1.0  -0.0825
  C  C1692  1  0.413610  0.496600  0.496600  1.0  0.6944
  C  C1693  1  0.856320  0.903460  0.856320  1.0  0.0242
  C  C1694  1  0.903460  0.856320  0.383900  1.0  0.0236
  C  C1695  1  0.856320  0.383900  0.856320  1.0  0.0219
  C  C1696  1  0.383900  0.856320  0.903460  1.0  0.0219
  C  C1697  1  0.856320  0.856320  0.903460  1.0  0.025
  C  C1698  1  0.383900  0.903460  0.856320  1.0  0.0247
  C  C1699  1  0.856320  0.856320  0.383900  1.0  0.0239
  C  C1700  1  0.903460  0.383900  0.856320  1.0  0.0214
  C  C1701  1  0.903460  0.856320  0.856320  1.0  0.0242
  C  C1702  1  0.856320  0.383900  0.903460  1.0  0.0216
  C  C1703  1  0.383900  0.856320  0.856320  1.0  0.0215
  C  C1704  1  0.856320  0.903460  0.383900  1.0  0.0232
  C  C1705  1  0.393680  0.346540  0.866100  1.0  0.0214
  C  C1706  1  0.346540  0.393680  0.393680  1.0  0.0237
  C  C1707  1  0.393680  0.866100  0.346540  1.0  0.0226
  C  C1708  1  0.866100  0.393680  0.393680  1.0  0.0217
  C  C1709  1  0.393680  0.393680  0.866100  1.0  0.0257
  C  C1710  1  0.866100  0.346540  0.393680  1.0  0.0216
  C  C1711  1  0.393680  0.393680  0.346540  1.0  0.0253
  C  C1712  1  0.346540  0.866100  0.393680  1.0  0.0246
  C  C1713  1  0.346540  0.393680  0.866100  1.0  0.024
  C  C1714  1  0.393680  0.866100  0.393680  1.0  0.023
  C  C1715  1  0.866100  0.393680  0.346540  1.0  0.0215
  C  C1716  1  0.393680  0.346540  0.393680  1.0  0.0214
  O  O1717  1  0.761180  0.804450  0.854400  1.0  -0.6059
  O  O1718  1  0.739510  0.782830  0.832710  1.0  -0.5996
  O  O1719  1  0.558890  0.992710  0.943080  1.0  -0.6077
  O  O1720  1  0.446980  0.046740  0.003570  1.0  -0.6376
  O  O1721  1  0.532760  0.040730  0.948180  1.0  -0.6079
  O  O1722  1  0.729930  0.867350  0.917030  1.0  -0.5881
  O  O1723  1  0.677640  0.952140  0.902690  1.0  -0.607
  O  O1724  1  0.757230  0.853690  0.947070  1.0  -0.6107
  O  O1725  1  0.887550  0.930860  0.789780  1.0  -0.6209
  O  O1726  1  0.736540  0.924410  0.967550  1.0  -0.6169
  O  O1727  1  0.704530  0.982010  0.890500  1.0  -0.6299
  O  O1728  1  0.594730  0.167270  0.969160  1.0  -0.632
  O  O1729  1  0.301930  0.103000  0.000970  1.0  -0.6385
  O  O1730  1  0.568320  0.175640  0.940870  1.0  -0.6207
  O  O1731  1  0.347480  0.113420  0.971680  1.0  -0.6065
  O  O1732  1  0.597250  0.105590  0.917400  1.0  -0.598
  O  O1733  1  0.650130  0.084660  0.902730  1.0  -0.6071
  O  O1734  1  0.804450  0.761180  0.579970  1.0  -0.605
  O  O1735  1  0.782830  0.739510  0.644950  1.0  -0.5956
  O  O1736  1  0.992710  0.558890  0.505320  1.0  -0.6064
  O  O1737  1  0.046740  0.446980  0.502710  1.0  -0.6381
  O  O1738  1  0.040730  0.532760  0.478330  1.0  -0.6084
  O  O1739  1  0.867350  0.729930  0.485690  1.0  -0.5896
  O  O1740  1  0.952140  0.677640  0.467530  1.0  -0.6084
  O  O1741  1  0.853690  0.757230  0.442010  1.0  -0.6141
  O  O1742  1  0.930860  0.887550  0.391810  1.0  -0.6199
  O  O1743  1  0.924410  0.736540  0.371500  1.0  -0.6185
  O  O1744  1  0.982010  0.704530  0.422960  1.0  -0.628
  O  O1745  1  0.167270  0.594730  0.268840  1.0  -0.631
  O  O1746  1  0.103000  0.301930  0.594100  1.0  -0.6363
  O  O1747  1  0.175640  0.568320  0.315170  1.0  -0.6234
  O  O1748  1  0.113420  0.347480  0.567420  1.0  -0.6068
  O  O1749  1  0.105590  0.597250  0.379760  1.0  -0.5973
  O  O1750  1  0.084660  0.650130  0.362480  1.0  -0.6074
  O  O1751  1  0.854400  0.579970  0.761180  1.0  -0.6018
  O  O1752  1  0.832710  0.644950  0.739510  1.0  -0.5982
  O  O1753  1  0.943080  0.505320  0.558890  1.0  -0.6075
  O  O1754  1  0.003570  0.502710  0.446980  1.0  -0.636
  O  O1755  1  0.948180  0.478330  0.532760  1.0  -0.6067
  O  O1756  1  0.917030  0.485690  0.729930  1.0  -0.5864
  O  O1757  1  0.902690  0.467530  0.677640  1.0  -0.6061
  O  O1758  1  0.947070  0.442010  0.757230  1.0  -0.6162
  O  O1759  1  0.789780  0.391810  0.887550  1.0  -0.6191
  O  O1760  1  0.967550  0.371500  0.736540  1.0  -0.6165
  O  O1761  1  0.890500  0.422960  0.704530  1.0  -0.6293
  O  O1762  1  0.969160  0.268840  0.594730  1.0  -0.6314
  O  O1763  1  0.000970  0.594100  0.301930  1.0  -0.6377
  O  O1764  1  0.940870  0.315170  0.568320  1.0  -0.619
  O  O1765  1  0.971680  0.567420  0.347480  1.0  -0.6057
  O  O1766  1  0.917400  0.379760  0.597250  1.0  -0.5947
  O  O1767  1  0.902730  0.362480  0.650130  1.0  -0.6097
  O  O1768  1  0.579970  0.854400  0.804450  1.0  -0.6022
  O  O1769  1  0.644950  0.832710  0.782830  1.0  -0.5973
  O  O1770  1  0.505320  0.943080  0.992710  1.0  -0.6042
  O  O1771  1  0.502710  0.003570  0.046740  1.0  -0.6386
  O  O1772  1  0.478330  0.948180  0.040730  1.0  -0.6082
  O  O1773  1  0.485690  0.917030  0.867350  1.0  -0.588
  O  O1774  1  0.467530  0.902690  0.952140  1.0  -0.6065
  O  O1775  1  0.442010  0.947070  0.853690  1.0  -0.6104
  O  O1776  1  0.391810  0.789780  0.930860  1.0  -0.6203
  O  O1777  1  0.371500  0.967550  0.924410  1.0  -0.617
  O  O1778  1  0.422960  0.890500  0.982010  1.0  -0.629
  O  O1779  1  0.268840  0.969160  0.167270  1.0  -0.6306
  O  O1780  1  0.594100  0.000970  0.103000  1.0  -0.6413
  O  O1781  1  0.315170  0.940870  0.175640  1.0  -0.6195
  O  O1782  1  0.567420  0.971680  0.113420  1.0  -0.6072
  O  O1783  1  0.379760  0.917400  0.105590  1.0  -0.5951
  O  O1784  1  0.362480  0.902730  0.084660  1.0  -0.6081
  O  O1785  1  0.854400  0.761180  0.804450  1.0  -0.6052
  O  O1786  1  0.832710  0.739510  0.782830  1.0  -0.5964
  O  O1787  1  0.943080  0.558890  0.992710  1.0  -0.6039
  O  O1788  1  0.003570  0.446980  0.046740  1.0  -0.6376
  O  O1789  1  0.948180  0.532760  0.040730  1.0  -0.6093
  O  O1790  1  0.917030  0.729930  0.867350  1.0  -0.5884
  O  O1791  1  0.902690  0.677640  0.952140  1.0  -0.6055
  O  O1792  1  0.947070  0.757230  0.853690  1.0  -0.6138
  O  O1793  1  0.789780  0.887550  0.930860  1.0  -0.6206
  O  O1794  1  0.967550  0.736540  0.924410  1.0  -0.616
  O  O1795  1  0.890500  0.704530  0.982010  1.0  -0.6315
  O  O1796  1  0.969160  0.594730  0.167270  1.0  -0.6289
  O  O1797  1  0.000970  0.301930  0.103000  1.0  -0.6391
  O  O1798  1  0.940870  0.568320  0.175640  1.0  -0.6215
  O  O1799  1  0.971680  0.347480  0.113420  1.0  -0.6066
  O  O1800  1  0.917400  0.597250  0.105590  1.0  -0.5987
  O  O1801  1  0.902730  0.650130  0.084660  1.0  -0.6094
  O  O1802  1  0.579970  0.804450  0.761180  1.0  -0.6074
  O  O1803  1  0.644950  0.782830  0.739510  1.0  -0.5977
  O  O1804  1  0.505320  0.992710  0.558890  1.0  -0.6058
  O  O1805  1  0.502710  0.046740  0.446980  1.0  -0.6374
  O  O1806  1  0.478330  0.040730  0.532760  1.0  -0.6079
  O  O1807  1  0.485690  0.867350  0.729930  1.0  -0.5895
  O  O1808  1  0.467530  0.952140  0.677640  1.0  -0.6056
  O  O1809  1  0.442010  0.853690  0.757230  1.0  -0.6158
  O  O1810  1  0.391810  0.930860  0.887550  1.0  -0.621
  O  O1811  1  0.371500  0.924410  0.736540  1.0  -0.619
  O  O1812  1  0.422960  0.982010  0.704530  1.0  -0.6297
  O  O1813  1  0.268840  0.167270  0.594730  1.0  -0.6296
  O  O1814  1  0.594100  0.103000  0.301930  1.0  -0.641
  O  O1815  1  0.315170  0.175640  0.568320  1.0  -0.6203
  O  O1816  1  0.567420  0.113420  0.347480  1.0  -0.6059
  O  O1817  1  0.379760  0.105590  0.597250  1.0  -0.5961
  O  O1818  1  0.362480  0.084660  0.650130  1.0  -0.6089
  O  O1819  1  0.761180  0.854400  0.579970  1.0  -0.6072
  O  O1820  1  0.739510  0.832710  0.644950  1.0  -0.6001
  O  O1821  1  0.558890  0.943080  0.505320  1.0  -0.6031
  O  O1822  1  0.446980  0.003570  0.502710  1.0  -0.6382
  O  O1823  1  0.532760  0.948180  0.478330  1.0  -0.6078
  O  O1824  1  0.729930  0.917030  0.485690  1.0  -0.5879
  O  O1825  1  0.677640  0.902690  0.467530  1.0  -0.6057
  O  O1826  1  0.757230  0.947070  0.442010  1.0  -0.615
  O  O1827  1  0.887550  0.789780  0.391810  1.0  -0.619
  O  O1828  1  0.736540  0.967550  0.371500  1.0  -0.6173
  O  O1829  1  0.704530  0.890500  0.422960  1.0  -0.6306
  O  O1830  1  0.594730  0.969160  0.268840  1.0  -0.6301
  O  O1831  1  0.301930  0.000970  0.594100  1.0  -0.641
  O  O1832  1  0.568320  0.940870  0.315170  1.0  -0.6218
  O  O1833  1  0.347480  0.971680  0.567420  1.0  -0.6056
  O  O1834  1  0.597250  0.917400  0.379760  1.0  -0.5988
  O  O1835  1  0.650130  0.902730  0.362480  1.0  -0.6072
  O  O1836  1  0.804450  0.579970  0.854400  1.0  -0.605
  O  O1837  1  0.782830  0.644950  0.832710  1.0  -0.5971
  O  O1838  1  0.992710  0.505320  0.943080  1.0  -0.6063
  O  O1839  1  0.046740  0.502710  0.003570  1.0  -0.6363
  O  O1840  1  0.040730  0.478330  0.948180  1.0  -0.6103
  O  O1841  1  0.867350  0.485690  0.917030  1.0  -0.5877
  O  O1842  1  0.952140  0.467530  0.902690  1.0  -0.607
  O  O1843  1  0.853690  0.442010  0.947070  1.0  -0.6176
  O  O1844  1  0.930860  0.391810  0.789780  1.0  -0.6209
  O  O1845  1  0.924410  0.371500  0.967550  1.0  -0.618
  O  O1846  1  0.982010  0.422960  0.890500  1.0  -0.6288
  O  O1847  1  0.167270  0.268840  0.969160  1.0  -0.6307
  O  O1848  1  0.103000  0.594100  0.000970  1.0  -0.6376
  O  O1849  1  0.175640  0.315170  0.940870  1.0  -0.6199
  O  O1850  1  0.113420  0.567420  0.971680  1.0  -0.6042
  O  O1851  1  0.105590  0.379760  0.917400  1.0  -0.5959
  O  O1852  1  0.084660  0.362480  0.902730  1.0  -0.609
  O  O1853  1  0.804450  0.854400  0.761180  1.0  -0.606
  O  O1854  1  0.782830  0.832710  0.739510  1.0  -0.5963
  O  O1855  1  0.992710  0.943080  0.558890  1.0  -0.6056
  O  O1856  1  0.046740  0.003570  0.446980  1.0  -0.6384
  O  O1857  1  0.040730  0.948180  0.532760  1.0  -0.6106
  O  O1858  1  0.867350  0.917030  0.729930  1.0  -0.585
  O  O1859  1  0.952140  0.902690  0.677640  1.0  -0.6074
  O  O1860  1  0.853690  0.947070  0.757230  1.0  -0.6144
  O  O1861  1  0.930860  0.789780  0.887550  1.0  -0.6193
  O  O1862  1  0.924410  0.967550  0.736540  1.0  -0.6174
  O  O1863  1  0.982010  0.890500  0.704530  1.0  -0.6283
  O  O1864  1  0.167270  0.969160  0.594730  1.0  -0.6318
  O  O1865  1  0.103000  0.000970  0.301930  1.0  -0.6395
  O  O1866  1  0.175640  0.940870  0.568320  1.0  -0.6171
  O  O1867  1  0.113420  0.971680  0.347480  1.0  -0.6055
  O  O1868  1  0.105590  0.917400  0.597250  1.0  -0.5968
  O  O1869  1  0.084660  0.902730  0.650130  1.0  -0.608
  O  O1870  1  0.761180  0.579970  0.804450  1.0  -0.6051
  O  O1871  1  0.739510  0.644950  0.782830  1.0  -0.5995
  O  O1872  1  0.558890  0.505320  0.992710  1.0  -0.6068
  O  O1873  1  0.446980  0.502710  0.046740  1.0  -0.6365
  O  O1874  1  0.532760  0.478330  0.040730  1.0  -0.6103
  O  O1875  1  0.729930  0.485690  0.867350  1.0  -0.5884
  O  O1876  1  0.677640  0.467530  0.952140  1.0  -0.6054
  O  O1877  1  0.757230  0.442010  0.853690  1.0  -0.6139
  O  O1878  1  0.887550  0.391810  0.930860  1.0  -0.6224
  O  O1879  1  0.736540  0.371500  0.924410  1.0  -0.6138
  O  O1880  1  0.704530  0.422960  0.982010  1.0  -0.6288
  O  O1881  1  0.594730  0.268840  0.167270  1.0  -0.6313
  O  O1882  1  0.301930  0.594100  0.103000  1.0  -0.6367
  O  O1883  1  0.568320  0.315170  0.175640  1.0  -0.6237
  O  O1884  1  0.347480  0.567420  0.113420  1.0  -0.6055
  O  O1885  1  0.597250  0.379760  0.105590  1.0  -0.5973
  O  O1886  1  0.650130  0.362480  0.084660  1.0  -0.6086
  O  O1887  1  0.579970  0.761180  0.854400  1.0  -0.6049
  O  O1888  1  0.644950  0.739510  0.832710  1.0  -0.6001
  O  O1889  1  0.505320  0.558890  0.943080  1.0  -0.6077
  O  O1890  1  0.502710  0.446980  0.003570  1.0  -0.6347
  O  O1891  1  0.478330  0.532760  0.948180  1.0  -0.61
  O  O1892  1  0.485690  0.729930  0.917030  1.0  -0.589
  O  O1893  1  0.467530  0.677640  0.902690  1.0  -0.608
  O  O1894  1  0.442010  0.757230  0.947070  1.0  -0.6125
  O  O1895  1  0.391810  0.887550  0.789780  1.0  -0.6208
  O  O1896  1  0.371500  0.736540  0.967550  1.0  -0.6144
  O  O1897  1  0.422960  0.704530  0.890500  1.0  -0.6282
  O  O1898  1  0.268840  0.594730  0.969160  1.0  -0.6294
  O  O1899  1  0.594100  0.301930  0.000970  1.0  -0.641
  O  O1900  1  0.315170  0.568320  0.940870  1.0  -0.6228
  O  O1901  1  0.567420  0.347480  0.971680  1.0  -0.6047
  O  O1902  1  0.379760  0.597250  0.917400  1.0  -0.5966
  O  O1903  1  0.362480  0.650130  0.902730  1.0  -0.6088
  O  O1904  1  0.854400  0.804450  0.579970  1.0  -0.6054
  O  O1905  1  0.832710  0.782830  0.644950  1.0  -0.5993
  O  O1906  1  0.943080  0.992710  0.505320  1.0  -0.6083
  O  O1907  1  0.003570  0.046740  0.502710  1.0  -0.6372
  O  O1908  1  0.948180  0.040730  0.478330  1.0  -0.6084
  O  O1909  1  0.917030  0.867350  0.485690  1.0  -0.5875
  O  O1910  1  0.902690  0.952140  0.467530  1.0  -0.6073
  O  O1911  1  0.947070  0.853690  0.442010  1.0  -0.6118
  O  O1912  1  0.789780  0.930860  0.391810  1.0  -0.6222
  O  O1913  1  0.967550  0.924410  0.371500  1.0  -0.617
  O  O1914  1  0.890500  0.982010  0.422960  1.0  -0.6318
  O  O1915  1  0.969160  0.167270  0.268840  1.0  -0.6278
  O  O1916  1  0.000970  0.103000  0.594100  1.0  -0.6388
  O  O1917  1  0.940870  0.175640  0.315170  1.0  -0.618
  O  O1918  1  0.971680  0.113420  0.567420  1.0  -0.6058
  O  O1919  1  0.917400  0.105590  0.379760  1.0  -0.5972
  O  O1920  1  0.902730  0.084660  0.362480  1.0  -0.6085
  O  O1921  1  0.488820  0.445550  0.670030  1.0  -0.6054
  O  O1922  1  0.510490  0.467170  0.605050  1.0  -0.5976
  O  O1923  1  0.691110  0.257290  0.744680  1.0  -0.6072
  O  O1924  1  0.803020  0.203260  0.747290  1.0  -0.6369
  O  O1925  1  0.717240  0.209270  0.771670  1.0  -0.6074
  O  O1926  1  0.520070  0.382650  0.764310  1.0  -0.5888
  O  O1927  1  0.572360  0.297860  0.782470  1.0  -0.6071
  O  O1928  1  0.492770  0.396310  0.807990  1.0  -0.6106
  O  O1929  1  0.362450  0.319140  0.858190  1.0  -0.6215
  O  O1930  1  0.513460  0.325590  0.878500  1.0  -0.6168
  O  O1931  1  0.545470  0.267990  0.827040  1.0  -0.6303
  O  O1932  1  0.655270  0.082730  0.981160  1.0  -0.6319
  O  O1933  1  0.948070  0.147000  0.655900  1.0  -0.6373
  O  O1934  1  0.681680  0.074360  0.934830  1.0  -0.6193
  O  O1935  1  0.902520  0.136580  0.682580  1.0  -0.6063
  O  O1936  1  0.652750  0.144410  0.870240  1.0  -0.5988
  O  O1937  1  0.599870  0.165340  0.887520  1.0  -0.607
  O  O1938  1  0.445550  0.488820  0.395600  1.0  -0.6044
  O  O1939  1  0.467170  0.510490  0.417290  1.0  -0.5978
  O  O1940  1  0.257290  0.691110  0.306920  1.0  -0.6079
  O  O1941  1  0.203260  0.803020  0.246430  1.0  -0.6378
  O  O1942  1  0.209270  0.717240  0.301820  1.0  -0.6109
  O  O1943  1  0.382650  0.520070  0.332970  1.0  -0.5886
  O  O1944  1  0.297860  0.572360  0.347310  1.0  -0.6079
  O  O1945  1  0.396310  0.492770  0.302930  1.0  -0.6132
  O  O1946  1  0.319140  0.362450  0.460220  1.0  -0.6207
  O  O1947  1  0.325590  0.513460  0.282450  1.0  -0.6174
  O  O1948  1  0.267990  0.545470  0.359500  1.0  -0.6288
  O  O1949  1  0.082730  0.655270  0.280840  1.0  -0.6319
  O  O1950  1  0.147000  0.948070  0.249030  1.0  -0.6385
  O  O1951  1  0.074360  0.681680  0.309130  1.0  -0.6213
  O  O1952  1  0.136580  0.902520  0.278320  1.0  -0.6083
  O  O1953  1  0.144410  0.652750  0.332600  1.0  -0.5966
  O  O1954  1  0.165340  0.599870  0.347270  1.0  -0.6078
  O  O1955  1  0.395600  0.670030  0.445550  1.0  -0.6028
  O  O1956  1  0.417290  0.605050  0.467170  1.0  -0.5974
  O  O1957  1  0.306920  0.744680  0.257290  1.0  -0.6071
  O  O1958  1  0.246430  0.747290  0.203260  1.0  -0.6372
  O  O1959  1  0.301820  0.771670  0.209270  1.0  -0.6058
  O  O1960  1  0.332970  0.764310  0.382650  1.0  -0.5878
  O  O1961  1  0.347310  0.782470  0.297860  1.0  -0.6068
  O  O1962  1  0.302930  0.807990  0.396310  1.0  -0.6167
  O  O1963  1  0.460220  0.858190  0.319140  1.0  -0.6215
  O  O1964  1  0.282450  0.878500  0.325590  1.0  -0.6167
  O  O1965  1  0.359500  0.827040  0.267990  1.0  -0.6297
  O  O1966  1  0.280840  0.981160  0.082730  1.0  -0.6314
  O  O1967  1  0.249030  0.655900  0.147000  1.0  -0.639
  O  O1968  1  0.309130  0.934830  0.074360  1.0  -0.6208
  O  O1969  1  0.278320  0.682580  0.136580  1.0  -0.6055
  O  O1970  1  0.332600  0.870240  0.144410  1.0  -0.5949
  O  O1971  1  0.347270  0.887520  0.165340  1.0  -0.6102
  O  O1972  1  0.670030  0.395600  0.488820  1.0  -0.6029
  O  O1973  1  0.605050  0.417290  0.510490  1.0  -0.6011
  O  O1974  1  0.744680  0.306920  0.691110  1.0  -0.6048
  O  O1975  1  0.747290  0.246430  0.803020  1.0  -0.6385
  O  O1976  1  0.771670  0.301820  0.717240  1.0  -0.6087
  O  O1977  1  0.764310  0.332970  0.520070  1.0  -0.5884
  O  O1978  1  0.782470  0.347310  0.572360  1.0  -0.6065
  O  O1979  1  0.807990  0.302930  0.492770  1.0  -0.6092
  O  O1980  1  0.858190  0.460220  0.362450  1.0  -0.6213
  O  O1981  1  0.878500  0.282450  0.513460  1.0  -0.6165
  O  O1982  1  0.827040  0.359500  0.545470  1.0  -0.6295
  O  O1983  1  0.981160  0.280840  0.655270  1.0  -0.631
  O  O1984  1  0.655900  0.249030  0.948070  1.0  -0.6413
  O  O1985  1  0.934830  0.309130  0.681680  1.0  -0.6191
  O  O1986  1  0.682580  0.278320  0.902520  1.0  -0.6053
  O  O1987  1  0.870240  0.332600  0.652750  1.0  -0.5974
  O  O1988  1  0.887520  0.347270  0.599870  1.0  -0.609
  O  O1989  1  0.395600  0.488820  0.670030  1.0  -0.6039
  O  O1990  1  0.417290  0.510490  0.605050  1.0  -0.6004
  O  O1991  1  0.306920  0.691110  0.744680  1.0  -0.6035
  O  O1992  1  0.246430  0.803020  0.747290  1.0  -0.6367
  O  O1993  1  0.301820  0.717240  0.771670  1.0  -0.6097
  O  O1994  1  0.332970  0.520070  0.764310  1.0  -0.587
  O  O1995  1  0.347310  0.572360  0.782470  1.0  -0.6058
  O  O1996  1  0.302930  0.492770  0.807990  1.0  -0.6174
  O  O1997  1  0.460220  0.362450  0.858190  1.0  -0.6219
  O  O1998  1  0.282450  0.513460  0.878500  1.0  -0.6158
  O  O1999  1  0.359500  0.545470  0.827040  1.0  -0.6302
  O  O2000  1  0.280840  0.655270  0.981160  1.0  -0.629
  O  O2001  1  0.249030  0.948070  0.655900  1.0  -0.6404
  O  O2002  1  0.309130  0.681680  0.934830  1.0  -0.6204
  O  O2003  1  0.278320  0.902520  0.682580  1.0  -0.6072
  O  O2004  1  0.332600  0.652750  0.870240  1.0  -0.5978
  O  O2005  1  0.347270  0.599870  0.887520  1.0  -0.6095
  O  O2006  1  0.670030  0.445550  0.395600  1.0  -0.6072
  O  O2007  1  0.605050  0.467170  0.417290  1.0  -0.5969
  O  O2008  1  0.744680  0.257290  0.306920  1.0  -0.6061
  O  O2009  1  0.747290  0.203260  0.246430  1.0  -0.6375
  O  O2010  1  0.771670  0.209270  0.301820  1.0  -0.6082
  O  O2011  1  0.764310  0.382650  0.332970  1.0  -0.59
  O  O2012  1  0.782470  0.297860  0.347310  1.0  -0.6077
  O  O2013  1  0.807990  0.396310  0.302930  1.0  -0.6139
  O  O2014  1  0.858190  0.319140  0.460220  1.0  -0.6204
  O  O2015  1  0.878500  0.325590  0.282450  1.0  -0.6185
  O  O2016  1  0.827040  0.267990  0.359500  1.0  -0.6303
  O  O2017  1  0.981160  0.082730  0.280840  1.0  -0.6287
  O  O2018  1  0.655900  0.147000  0.249030  1.0  -0.6399
  O  O2019  1  0.934830  0.074360  0.309130  1.0  -0.6199
  O  O2020  1  0.682580  0.136580  0.278320  1.0  -0.6047
  O  O2021  1  0.870240  0.144410  0.332600  1.0  -0.6001
  O  O2022  1  0.887520  0.165340  0.347270  1.0  -0.61
  O  O2023  1  0.488820  0.395600  0.445550  1.0  -0.6065
  O  O2024  1  0.510490  0.417290  0.467170  1.0  -0.5965
  O  O2025  1  0.691110  0.306920  0.257290  1.0  -0.6034
  O  O2026  1  0.803020  0.246430  0.203260  1.0  -0.6384
  O  O2027  1  0.717240  0.301820  0.209270  1.0  -0.609
  O  O2028  1  0.520070  0.332970  0.382650  1.0  -0.5877
  O  O2029  1  0.572360  0.347310  0.297860  1.0  -0.6061
  O  O2030  1  0.492770  0.302930  0.396310  1.0  -0.6152
  O  O2031  1  0.362450  0.460220  0.319140  1.0  -0.6193
  O  O2032  1  0.513460  0.282450  0.325590  1.0  -0.6177
  O  O2033  1  0.545470  0.359500  0.267990  1.0  -0.6304
  O  O2034  1  0.655270  0.280840  0.082730  1.0  -0.6298
  O  O2035  1  0.948070  0.249030  0.147000  1.0  -0.642
  O  O2036  1  0.681680  0.309130  0.074360  1.0  -0.6213
  O  O2037  1  0.902520  0.278320  0.136580  1.0  -0.606
  O  O2038  1  0.652750  0.332600  0.144410  1.0  -0.5972
  O  O2039  1  0.599870  0.347270  0.165340  1.0  -0.6079
  O  O2040  1  0.445550  0.670030  0.488820  1.0  -0.6059
  O  O2041  1  0.467170  0.605050  0.510490  1.0  -0.5977
  O  O2042  1  0.257290  0.744680  0.691110  1.0  -0.6063
  O  O2043  1  0.203260  0.747290  0.803020  1.0  -0.6379
  O  O2044  1  0.209270  0.771670  0.717240  1.0  -0.6095
  O  O2045  1  0.382650  0.764310  0.520070  1.0  -0.5884
  O  O2046  1  0.297860  0.782470  0.572360  1.0  -0.6066
  O  O2047  1  0.396310  0.807990  0.492770  1.0  -0.6151
  O  O2048  1  0.319140  0.858190  0.362450  1.0  -0.6224
  O  O2049  1  0.325590  0.878500  0.513460  1.0  -0.6174
  O  O2050  1  0.267990  0.827040  0.545470  1.0  -0.632
  O  O2051  1  0.082730  0.981160  0.655270  1.0  -0.6302
  O  O2052  1  0.147000  0.655900  0.948070  1.0  -0.6385
  O  O2053  1  0.074360  0.934830  0.681680  1.0  -0.6215
  O  O2054  1  0.136580  0.682580  0.902520  1.0  -0.6056
  O  O2055  1  0.144410  0.870240  0.652750  1.0  -0.598
  O  O2056  1  0.165340  0.887520  0.599870  1.0  -0.6081
  O  O2057  1  0.445550  0.395600  0.670030  1.0  -0.6059
  O  O2058  1  0.467170  0.417290  0.605050  1.0  -0.595
  O  O2059  1  0.257290  0.306920  0.744680  1.0  -0.6067
  O  O2060  1  0.203260  0.246430  0.747290  1.0  -0.6396
  O  O2061  1  0.209270  0.301820  0.771670  1.0  -0.6112
  O  O2062  1  0.382650  0.332970  0.764310  1.0  -0.5859
  O  O2063  1  0.297860  0.347310  0.782470  1.0  -0.6076
  O  O2064  1  0.396310  0.302930  0.807990  1.0  -0.6135
  O  O2065  1  0.319140  0.460220  0.858190  1.0  -0.6206
  O  O2066  1  0.325590  0.282450  0.878500  1.0  -0.6178
  O  O2067  1  0.267990  0.359500  0.827040  1.0  -0.6286
  O  O2068  1  0.082730  0.280840  0.981160  1.0  -0.6322
  O  O2069  1  0.147000  0.249030  0.655900  1.0  -0.6393
  O  O2070  1  0.074360  0.309130  0.934830  1.0  -0.6176
  O  O2071  1  0.136580  0.278320  0.682580  1.0  -0.6056
  O  O2072  1  0.144410  0.332600  0.870240  1.0  -0.5969
  O  O2073  1  0.165340  0.347270  0.887520  1.0  -0.6081
  O  O2074  1  0.488820  0.670030  0.395600  1.0  -0.6058
  O  O2075  1  0.510490  0.605050  0.417290  1.0  -0.601
  O  O2076  1  0.691110  0.744680  0.306920  1.0  -0.6073
  O  O2077  1  0.803020  0.747290  0.246430  1.0  -0.6368
  O  O2078  1  0.717240  0.771670  0.301820  1.0  -0.6105
  O  O2079  1  0.520070  0.764310  0.332970  1.0  -0.5902
  O  O2080  1  0.572360  0.782470  0.347310  1.0  -0.6058
  O  O2081  1  0.492770  0.807990  0.302930  1.0  -0.6136
  O  O2082  1  0.362450  0.858190  0.460220  1.0  -0.6219
  O  O2083  1  0.513460  0.878500  0.282450  1.0  -0.6149
  O  O2084  1  0.545470  0.827040  0.359500  1.0  -0.6295
  O  O2085  1  0.655270  0.981160  0.280840  1.0  -0.6322
  O  O2086  1  0.948070  0.655900  0.249030  1.0  -0.6368
  O  O2087  1  0.681680  0.934830  0.309130  1.0  -0.6236
  O  O2088  1  0.902520  0.682580  0.278320  1.0  -0.6047
  O  O2089  1  0.652750  0.870240  0.332600  1.0  -0.5974
  O  O2090  1  0.599870  0.887520  0.347270  1.0  -0.6071
  O  O2091  1  0.670030  0.488820  0.445550  1.0  -0.6048
  O  O2092  1  0.605050  0.510490  0.467170  1.0  -0.5975
  O  O2093  1  0.744680  0.691110  0.257290  1.0  -0.6075
  O  O2094  1  0.747290  0.803020  0.203260  1.0  -0.6333
  O  O2095  1  0.771670  0.717240  0.209270  1.0  -0.6101
  O  O2096  1  0.764310  0.520070  0.382650  1.0  -0.5896
  O  O2097  1  0.782470  0.572360  0.297860  1.0  -0.6069
  O  O2098  1  0.807990  0.492770  0.396310  1.0  -0.612
  O  O2099  1  0.858190  0.362450  0.319140  1.0  -0.6202
  O  O2100  1  0.878500  0.513460  0.325590  1.0  -0.615
  O  O2101  1  0.827040  0.545470  0.267990  1.0  -0.6294
  O  O2102  1  0.981160  0.655270  0.082730  1.0  -0.6287
  O  O2103  1  0.655900  0.948070  0.147000  1.0  -0.6403
  O  O2104  1  0.934830  0.681680  0.074360  1.0  -0.6212
  O  O2105  1  0.682580  0.902520  0.136580  1.0  -0.6035
  O  O2106  1  0.870240  0.652750  0.144410  1.0  -0.5971
  O  O2107  1  0.887520  0.599870  0.165340  1.0  -0.6089
  O  O2108  1  0.395600  0.445550  0.488820  1.0  -0.6047
  O  O2109  1  0.417290  0.467170  0.510490  1.0  -0.5996
  O  O2110  1  0.306920  0.257290  0.691110  1.0  -0.6069
  O  O2111  1  0.246430  0.203260  0.803020  1.0  -0.638
  O  O2112  1  0.301820  0.209270  0.717240  1.0  -0.6094
  O  O2113  1  0.332970  0.382650  0.520070  1.0  -0.5882
  O  O2114  1  0.347310  0.297860  0.572360  1.0  -0.6065
  O  O2115  1  0.302930  0.396310  0.492770  1.0  -0.613
  O  O2116  1  0.460220  0.319140  0.362450  1.0  -0.6228
  O  O2117  1  0.282450  0.325590  0.513460  1.0  -0.6169
  O  O2118  1  0.359500  0.267990  0.545470  1.0  -0.6295
  O  O2119  1  0.280840  0.082730  0.655270  1.0  -0.6285
  O  O2120  1  0.249030  0.147000  0.948070  1.0  -0.6382
  O  O2121  1  0.309130  0.074360  0.681680  1.0  -0.6206
  O  O2122  1  0.278320  0.136580  0.902520  1.0  -0.608
  O  O2123  1  0.332600  0.144410  0.652750  1.0  -0.5977
  O  O2124  1  0.347270  0.165340  0.599870  1.0  -0.6081
  O  O2125  1  0.488820  0.445550  0.395600  1.0  -0.607
  O  O2126  1  0.510490  0.467170  0.417290  1.0  -0.5977
  O  O2127  1  0.691110  0.257290  0.306920  1.0  -0.6081
  O  O2128  1  0.803020  0.203260  0.246430  1.0  -0.638
  O  O2129  1  0.717240  0.209270  0.301820  1.0  -0.6072
  O  O2130  1  0.520070  0.382650  0.332970  1.0  -0.5895
  O  O2131  1  0.572360  0.297860  0.347310  1.0  -0.6075
  O  O2132  1  0.492770  0.396310  0.302930  1.0  -0.6103
  O  O2133  1  0.362450  0.319140  0.460220  1.0  -0.6202
  O  O2134  1  0.513460  0.325590  0.282450  1.0  -0.6175
  O  O2135  1  0.545470  0.267990  0.359500  1.0  -0.6299
  O  O2136  1  0.655270  0.082730  0.280840  1.0  -0.6327
  O  O2137  1  0.948070  0.147000  0.249030  1.0  -0.6371
  O  O2138  1  0.681680  0.074360  0.309130  1.0  -0.6207
  O  O2139  1  0.902520  0.136580  0.278320  1.0  -0.6084
  O  O2140  1  0.652750  0.144410  0.332600  1.0  -0.5981
  O  O2141  1  0.599870  0.165340  0.347270  1.0  -0.607
  O  O2142  1  0.445550  0.488820  0.670030  1.0  -0.6037
  O  O2143  1  0.467170  0.510490  0.605050  1.0  -0.597
  O  O2144  1  0.257290  0.691110  0.744680  1.0  -0.6074
  O  O2145  1  0.203260  0.803020  0.747290  1.0  -0.6379
  O  O2146  1  0.209270  0.717240  0.771670  1.0  -0.6098
  O  O2147  1  0.382650  0.520070  0.764310  1.0  -0.5876
  O  O2148  1  0.297860  0.572360  0.782470  1.0  -0.608
  O  O2149  1  0.396310  0.492770  0.807990  1.0  -0.6135
  O  O2150  1  0.319140  0.362450  0.858190  1.0  -0.6212
  O  O2151  1  0.325590  0.513460  0.878500  1.0  -0.6173
  O  O2152  1  0.267990  0.545470  0.827040  1.0  -0.6284
  O  O2153  1  0.082730  0.655270  0.981160  1.0  -0.6305
  O  O2154  1  0.147000  0.948070  0.655900  1.0  -0.6367
  O  O2155  1  0.074360  0.681680  0.934830  1.0  -0.6208
  O  O2156  1  0.136580  0.902520  0.682580  1.0  -0.6057
  O  O2157  1  0.144410  0.652750  0.870240  1.0  -0.5968
  O  O2158  1  0.165340  0.599870  0.887520  1.0  -0.6077
  O  O2159  1  0.395600  0.670030  0.488820  1.0  -0.6014
  O  O2160  1  0.417290  0.605050  0.510490  1.0  -0.5997
  O  O2161  1  0.306920  0.744680  0.691110  1.0  -0.6063
  O  O2162  1  0.246430  0.747290  0.803020  1.0  -0.6365
  O  O2163  1  0.301820  0.771670  0.717240  1.0  -0.6079
  O  O2164  1  0.332970  0.764310  0.520070  1.0  -0.5896
  O  O2165  1  0.347310  0.782470  0.572360  1.0  -0.6065
  O  O2166  1  0.302930  0.807990  0.492770  1.0  -0.616
  O  O2167  1  0.460220  0.858190  0.362450  1.0  -0.6226
  O  O2168  1  0.282450  0.878500  0.513460  1.0  -0.6171
  O  O2169  1  0.359500  0.827040  0.545470  1.0  -0.6287
  O  O2170  1  0.280840  0.981160  0.655270  1.0  -0.6314
  O  O2171  1  0.249030  0.655900  0.948070  1.0  -0.6401
  O  O2172  1  0.309130  0.934830  0.681680  1.0  -0.6214
  O  O2173  1  0.278320  0.682580  0.902520  1.0  -0.6056
  O  O2174  1  0.332600  0.870240  0.652750  1.0  -0.5957
  O  O2175  1  0.347270  0.887520  0.599870  1.0  -0.6086
  O  O2176  1  0.670030  0.395600  0.445550  1.0  -0.6027
  O  O2177  1  0.605050  0.417290  0.467170  1.0  -0.5957
  O  O2178  1  0.744680  0.306920  0.257290  1.0  -0.6051
  O  O2179  1  0.747290  0.246430  0.203260  1.0  -0.6386
  O  O2180  1  0.771670  0.301820  0.209270  1.0  -0.608
  O  O2181  1  0.764310  0.332970  0.382650  1.0  -0.5869
  O  O2182  1  0.782470  0.347310  0.297860  1.0  -0.6066
  O  O2183  1  0.807990  0.302930  0.396310  1.0  -0.611
  O  O2184  1  0.858190  0.460220  0.319140  1.0  -0.6196
  O  O2185  1  0.878500  0.282450  0.325590  1.0  -0.6171
  O  O2186  1  0.827040  0.359500  0.267990  1.0  -0.6299
  O  O2187  1  0.981160  0.280840  0.082730  1.0  -0.6318
  O  O2188  1  0.655900  0.249030  0.147000  1.0  -0.6398
  O  O2189  1  0.934830  0.309130  0.074360  1.0  -0.6184
  O  O2190  1  0.682580  0.278320  0.136580  1.0  -0.6054
  O  O2191  1  0.870240  0.332600  0.144410  1.0  -0.5965
  O  O2192  1  0.887520  0.347270  0.165340  1.0  -0.6089
  O  O2193  1  0.395600  0.488820  0.445550  1.0  -0.6047
  O  O2194  1  0.417290  0.510490  0.467170  1.0  -0.5973
  O  O2195  1  0.306920  0.691110  0.257290  1.0  -0.6037
  O  O2196  1  0.246430  0.803020  0.203260  1.0  -0.6377
  O  O2197  1  0.301820  0.717240  0.209270  1.0  -0.6083
  O  O2198  1  0.332970  0.520070  0.382650  1.0  -0.5885
  O  O2199  1  0.347310  0.572360  0.297860  1.0  -0.6061
  O  O2200  1  0.302930  0.492770  0.396310  1.0  -0.617
  O  O2201  1  0.460220  0.362450  0.319140  1.0  -0.6214
  O  O2202  1  0.282450  0.513460  0.325590  1.0  -0.6166
  O  O2203  1  0.359500  0.545470  0.267990  1.0  -0.6296
  O  O2204  1  0.280840  0.655270  0.082730  1.0  -0.6294
  O  O2205  1  0.249030  0.948070  0.147000  1.0  -0.6409
  O  O2206  1  0.309130  0.681680  0.074360  1.0  -0.622
  O  O2207  1  0.278320  0.902520  0.136580  1.0  -0.6076
  O  O2208  1  0.332600  0.652750  0.144410  1.0  -0.5972
  O  O2209  1  0.347270  0.599870  0.165340  1.0  -0.6082
  O  O2210  1  0.670030  0.445550  0.488820  1.0  -0.6059
  O  O2211  1  0.605050  0.467170  0.510490  1.0  -0.5981
  O  O2212  1  0.744680  0.257290  0.691110  1.0  -0.6071
  O  O2213  1  0.747290  0.203260  0.803020  1.0  -0.6363
  O  O2214  1  0.771670  0.209270  0.717240  1.0  -0.6089
  O  O2215  1  0.764310  0.382650  0.520070  1.0  -0.5899
  O  O2216  1  0.782470  0.297860  0.572360  1.0  -0.6073
  O  O2217  1  0.807990  0.396310  0.492770  1.0  -0.6134
  O  O2218  1  0.858190  0.319140  0.362450  1.0  -0.6233
  O  O2219  1  0.878500  0.325590  0.513460  1.0  -0.618
  O  O2220  1  0.827040  0.267990  0.545470  1.0  -0.6302
  O  O2221  1  0.981160  0.082730  0.655270  1.0  -0.6292
  O  O2222  1  0.655900  0.147000  0.948070  1.0  -0.6381
  O  O2223  1  0.934830  0.074360  0.681680  1.0  -0.6195
  O  O2224  1  0.682580  0.136580  0.902520  1.0  -0.6039
  O  O2225  1  0.870240  0.144410  0.652750  1.0  -0.5998
  O  O2226  1  0.887520  0.165340  0.599870  1.0  -0.6087
  O  O2227  1  0.488820  0.395600  0.670030  1.0  -0.6068
  O  O2228  1  0.510490  0.417290  0.605050  1.0  -0.601
  O  O2229  1  0.691110  0.306920  0.744680  1.0  -0.6049
  O  O2230  1  0.803020  0.246430  0.747290  1.0  -0.6371
  O  O2231  1  0.717240  0.301820  0.771670  1.0  -0.6103
  O  O2232  1  0.520070  0.332970  0.764310  1.0  -0.5874
  O  O2233  1  0.572360  0.347310  0.782470  1.0  -0.606
  O  O2234  1  0.492770  0.302930  0.807990  1.0  -0.6156
  O  O2235  1  0.362450  0.460220  0.858190  1.0  -0.6208
  O  O2236  1  0.513460  0.282450  0.878500  1.0  -0.6173
  O  O2237  1  0.545470  0.359500  0.827040  1.0  -0.6301
  O  O2238  1  0.655270  0.280840  0.981160  1.0  -0.6309
  O  O2239  1  0.948070  0.249030  0.655900  1.0  -0.6412
  O  O2240  1  0.681680  0.309130  0.934830  1.0  -0.6193
  O  O2241  1  0.902520  0.278320  0.682580  1.0  -0.606
  O  O2242  1  0.652750  0.332600  0.870240  1.0  -0.5974
  O  O2243  1  0.599870  0.347270  0.887520  1.0  -0.609
  O  O2244  1  0.445550  0.670030  0.395600  1.0  -0.6069
  O  O2245  1  0.467170  0.605050  0.417290  1.0  -0.5971
  O  O2246  1  0.257290  0.744680  0.306920  1.0  -0.6052
  O  O2247  1  0.203260  0.747290  0.246430  1.0  -0.6382
  O  O2248  1  0.209270  0.771670  0.301820  1.0  -0.6094
  O  O2249  1  0.382650  0.764310  0.332970  1.0  -0.5891
  O  O2250  1  0.297860  0.782470  0.347310  1.0  -0.6063
  O  O2251  1  0.396310  0.807990  0.302930  1.0  -0.6148
  O  O2252  1  0.319140  0.858190  0.460220  1.0  -0.6199
  O  O2253  1  0.325590  0.878500  0.282450  1.0  -0.6178
  O  O2254  1  0.267990  0.827040  0.359500  1.0  -0.6322
  O  O2255  1  0.082730  0.981160  0.280840  1.0  -0.6307
  O  O2256  1  0.147000  0.655900  0.249030  1.0  -0.6421
  O  O2257  1  0.074360  0.934830  0.309130  1.0  -0.6218
  O  O2258  1  0.136580  0.682580  0.278320  1.0  -0.6058
  O  O2259  1  0.144410  0.870240  0.332600  1.0  -0.5978
  O  O2260  1  0.165340  0.887520  0.347270  1.0  -0.6084
  O  O2261  1  0.445550  0.395600  0.488820  1.0  -0.605
  O  O2262  1  0.467170  0.417290  0.510490  1.0  -0.5973
  O  O2263  1  0.257290  0.306920  0.691110  1.0  -0.6071
  O  O2264  1  0.203260  0.246430  0.803020  1.0  -0.6406
  O  O2265  1  0.209270  0.301820  0.717240  1.0  -0.6107
  O  O2266  1  0.382650  0.332970  0.520070  1.0  -0.5869
  O  O2267  1  0.297860  0.347310  0.572360  1.0  -0.6069
  O  O2268  1  0.396310  0.302930  0.492770  1.0  -0.6128
  O  O2269  1  0.319140  0.460220  0.362450  1.0  -0.6211
  O  O2270  1  0.325590  0.282450  0.513460  1.0  -0.6174
  O  O2271  1  0.267990  0.359500  0.545470  1.0  -0.6291
  O  O2272  1  0.082730  0.280840  0.655270  1.0  -0.6311
  O  O2273  1  0.147000  0.249030  0.948070  1.0  -0.6413
  O  O2274  1  0.074360  0.309130  0.681680  1.0  -0.6201
  O  O2275  1  0.136580  0.278320  0.902520  1.0  -0.6058
  O  O2276  1  0.144410  0.332600  0.652750  1.0  -0.5971
  O  O2277  1  0.165340  0.347270  0.599870  1.0  -0.608
  O  O2278  1  0.488820  0.670030  0.445550  1.0  -0.605
  O  O2279  1  0.510490  0.605050  0.467170  1.0  -0.5972
  O  O2280  1  0.691110  0.744680  0.257290  1.0  -0.6085
  O  O2281  1  0.803020  0.747290  0.203260  1.0  -0.6356
  O  O2282  1  0.717240  0.771670  0.209270  1.0  -0.6108
  O  O2283  1  0.520070  0.764310  0.382650  1.0  -0.5886
  O  O2284  1  0.572360  0.782470  0.297860  1.0  -0.6065
  O  O2285  1  0.492770  0.807990  0.396310  1.0  -0.6124
  O  O2286  1  0.362450  0.858190  0.319140  1.0  -0.6204
  O  O2287  1  0.513460  0.878500  0.325590  1.0  -0.615
  O  O2288  1  0.545470  0.827040  0.267990  1.0  -0.6298
  O  O2289  1  0.655270  0.981160  0.082730  1.0  -0.6323
  O  O2290  1  0.948070  0.655900  0.147000  1.0  -0.6393
  O  O2291  1  0.681680  0.934830  0.074360  1.0  -0.623
  O  O2292  1  0.902520  0.682580  0.136580  1.0  -0.6031
  O  O2293  1  0.652750  0.870240  0.144410  1.0  -0.597
  O  O2294  1  0.599870  0.887520  0.165340  1.0  -0.6078
  O  O2295  1  0.670030  0.488820  0.395600  1.0  -0.6049
  O  O2296  1  0.605050  0.510490  0.417290  1.0  -0.6009
  O  O2297  1  0.744680  0.691110  0.306920  1.0  -0.6066
  O  O2298  1  0.747290  0.803020  0.246430  1.0  -0.6349
  O  O2299  1  0.771670  0.717240  0.301820  1.0  -0.6103
  O  O2300  1  0.764310  0.520070  0.332970  1.0  -0.5899
  O  O2301  1  0.782470  0.572360  0.347310  1.0  -0.6067
  O  O2302  1  0.807990  0.492770  0.302930  1.0  -0.6119
  O  O2303  1  0.858190  0.362450  0.460220  1.0  -0.6214
  O  O2304  1  0.878500  0.513460  0.282450  1.0  -0.6134
  O  O2305  1  0.827040  0.545470  0.359500  1.0  -0.6286
  O  O2306  1  0.981160  0.655270  0.280840  1.0  -0.6279
  O  O2307  1  0.655900  0.948070  0.249030  1.0  -0.6389
  O  O2308  1  0.934830  0.681680  0.309130  1.0  -0.6214
  O  O2309  1  0.682580  0.902520  0.278320  1.0  -0.6049
  O  O2310  1  0.870240  0.652750  0.332600  1.0  -0.5977
  O  O2311  1  0.887520  0.599870  0.347270  1.0  -0.6082
  O  O2312  1  0.395600  0.445550  0.670030  1.0  -0.607
  O  O2313  1  0.417290  0.467170  0.605050  1.0  -0.5993
  O  O2314  1  0.306920  0.257290  0.744680  1.0  -0.6061
  O  O2315  1  0.246430  0.203260  0.747290  1.0  -0.6377
  O  O2316  1  0.301820  0.209270  0.771670  1.0  -0.6091
  O  O2317  1  0.332970  0.382650  0.764310  1.0  -0.5863
  O  O2318  1  0.347310  0.297860  0.782470  1.0  -0.6066
  O  O2319  1  0.302930  0.396310  0.807990  1.0  -0.6133
  O  O2320  1  0.460220  0.319140  0.858190  1.0  -0.622
  O  O2321  1  0.282450  0.325590  0.878500  1.0  -0.6177
  O  O2322  1  0.359500  0.267990  0.827040  1.0  -0.6291
  O  O2323  1  0.280840  0.082730  0.981160  1.0  -0.6287
  O  O2324  1  0.249030  0.147000  0.655900  1.0  -0.6375
  O  O2325  1  0.309130  0.074360  0.934830  1.0  -0.6174
  O  O2326  1  0.278320  0.136580  0.682580  1.0  -0.6073
  O  O2327  1  0.332600  0.144410  0.870240  1.0  -0.5974
  O  O2328  1  0.347270  0.165340  0.887520  1.0  -0.61
  O  O2329  1  0.761180  0.804450  0.579970  1.0  -0.6063
  O  O2330  1  0.739510  0.782830  0.644950  1.0  -0.6001
  O  O2331  1  0.558890  0.992710  0.505320  1.0  -0.6075
  O  O2332  1  0.446980  0.046740  0.502710  1.0  -0.6382
  O  O2333  1  0.532760  0.040730  0.478330  1.0  -0.6083
  O  O2334  1  0.729930  0.867350  0.485690  1.0  -0.588
  O  O2335  1  0.677640  0.952140  0.467530  1.0  -0.6084
  O  O2336  1  0.757230  0.853690  0.442010  1.0  -0.6097
  O  O2337  1  0.887550  0.930860  0.391810  1.0  -0.6206
  O  O2338  1  0.736540  0.924410  0.371500  1.0  -0.6172
  O  O2339  1  0.704530  0.982010  0.422960  1.0  -0.6303
  O  O2340  1  0.594730  0.167270  0.268840  1.0  -0.6322
  O  O2341  1  0.301930  0.103000  0.594100  1.0  -0.6376
  O  O2342  1  0.568320  0.175640  0.315170  1.0  -0.6212
  O  O2343  1  0.347480  0.113420  0.567420  1.0  -0.6071
  O  O2344  1  0.597250  0.105590  0.379760  1.0  -0.5976
  O  O2345  1  0.650130  0.084660  0.362480  1.0  -0.6074
  O  O2346  1  0.804450  0.761180  0.854400  1.0  -0.6046
  O  O2347  1  0.782830  0.739510  0.832710  1.0  -0.596
  O  O2348  1  0.992710  0.558890  0.943080  1.0  -0.606
  O  O2349  1  0.046740  0.446980  0.003570  1.0  -0.6374
  O  O2350  1  0.040730  0.532760  0.948180  1.0  -0.6084
  O  O2351  1  0.867350  0.729930  0.917030  1.0  -0.5895
  O  O2352  1  0.952140  0.677640  0.902690  1.0  -0.6081
  O  O2353  1  0.853690  0.757230  0.947070  1.0  -0.6135
  O  O2354  1  0.930860  0.887550  0.789780  1.0  -0.62
  O  O2355  1  0.924410  0.736540  0.967550  1.0  -0.6181
  O  O2356  1  0.982010  0.704530  0.890500  1.0  -0.6282
  O  O2357  1  0.167270  0.594730  0.969160  1.0  -0.6298
  O  O2358  1  0.103000  0.301930  0.000970  1.0  -0.6385
  O  O2359  1  0.175640  0.568320  0.940870  1.0  -0.6224
  O  O2360  1  0.113420  0.347480  0.971680  1.0  -0.6062
  O  O2361  1  0.105590  0.597250  0.917400  1.0  -0.5982
  O  O2362  1  0.084660  0.650130  0.902730  1.0  -0.6077
  O  O2363  1  0.854400  0.579970  0.804450  1.0  -0.6015
  O  O2364  1  0.832710  0.644950  0.782830  1.0  -0.5982
  O  O2365  1  0.943080  0.505320  0.992710  1.0  -0.6071
  O  O2366  1  0.003570  0.502710  0.046740  1.0  -0.6368
  O  O2367  1  0.948180  0.478330  0.040730  1.0  -0.6078
  O  O2368  1  0.917030  0.485690  0.867350  1.0  -0.5883
  O  O2369  1  0.902690  0.467530  0.952140  1.0  -0.6061
  O  O2370  1  0.947070  0.442010  0.853690  1.0  -0.6153
  O  O2371  1  0.789780  0.391810  0.930860  1.0  -0.6209
  O  O2372  1  0.967550  0.371500  0.924410  1.0  -0.616
  O  O2373  1  0.890500  0.422960  0.982010  1.0  -0.6283
  O  O2374  1  0.969160  0.268840  0.167270  1.0  -0.6305
  O  O2375  1  0.000970  0.594100  0.103000  1.0  -0.6382
  O  O2376  1  0.940870  0.315170  0.175640  1.0  -0.6197
  O  O2377  1  0.971680  0.567420  0.113420  1.0  -0.6056
  O  O2378  1  0.917400  0.379760  0.105590  1.0  -0.5948
  O  O2379  1  0.902730  0.362480  0.084660  1.0  -0.6101
  O  O2380  1  0.579970  0.854400  0.761180  1.0  -0.6032
  O  O2381  1  0.644950  0.832710  0.739510  1.0  -0.5989
  O  O2382  1  0.505320  0.943080  0.558890  1.0  -0.6044
  O  O2383  1  0.502710  0.003570  0.446980  1.0  -0.6393
  O  O2384  1  0.478330  0.948180  0.532760  1.0  -0.6062
  O  O2385  1  0.485690  0.917030  0.729930  1.0  -0.5858
  O  O2386  1  0.467530  0.902690  0.677640  1.0  -0.607
  O  O2387  1  0.442010  0.947070  0.757230  1.0  -0.6124
  O  O2388  1  0.391810  0.789780  0.887550  1.0  -0.6193
  O  O2389  1  0.371500  0.967550  0.736540  1.0  -0.6164
  O  O2390  1  0.422960  0.890500  0.704530  1.0  -0.6301
  O  O2391  1  0.268840  0.969160  0.594730  1.0  -0.6307
  O  O2392  1  0.594100  0.000970  0.301930  1.0  -0.6411
  O  O2393  1  0.315170  0.940870  0.568320  1.0  -0.6197
  O  O2394  1  0.567420  0.971680  0.347480  1.0  -0.6069
  O  O2395  1  0.379760  0.917400  0.597250  1.0  -0.5942
  O  O2396  1  0.362480  0.902730  0.650130  1.0  -0.6085
  O  O2397  1  0.854400  0.761180  0.579970  1.0  -0.6048
  O  O2398  1  0.832710  0.739510  0.644950  1.0  -0.5973
  O  O2399  1  0.943080  0.558890  0.505320  1.0  -0.603
  O  O2400  1  0.003570  0.446980  0.502710  1.0  -0.6372
  O  O2401  1  0.948180  0.532760  0.478330  1.0  -0.6097
  O  O2402  1  0.917030  0.729930  0.485690  1.0  -0.5877
  O  O2403  1  0.902690  0.677640  0.467530  1.0  -0.6063
  O  O2404  1  0.947070  0.757230  0.442010  1.0  -0.613
  O  O2405  1  0.789780  0.887550  0.391810  1.0  -0.6193
  O  O2406  1  0.967550  0.736540  0.371500  1.0  -0.6168
  O  O2407  1  0.890500  0.704530  0.422960  1.0  -0.6313
  O  O2408  1  0.969160  0.594730  0.268840  1.0  -0.6279
  O  O2409  1  0.000970  0.301930  0.594100  1.0  -0.64
  O  O2410  1  0.940870  0.568320  0.315170  1.0  -0.6232
  O  O2411  1  0.971680  0.347480  0.567420  1.0  -0.6064
  O  O2412  1  0.917400  0.597250  0.379760  1.0  -0.5981
  O  O2413  1  0.902730  0.650130  0.362480  1.0  -0.6082
  O  O2414  1  0.579970  0.804450  0.854400  1.0  -0.6068
  O  O2415  1  0.644950  0.782830  0.832710  1.0  -0.5967
  O  O2416  1  0.505320  0.992710  0.943080  1.0  -0.6068
  O  O2417  1  0.502710  0.046740  0.003570  1.0  -0.6359
  O  O2418  1  0.478330  0.040730  0.948180  1.0  -0.6088
  O  O2419  1  0.485690  0.867350  0.917030  1.0  -0.5889
  O  O2420  1  0.467530  0.952140  0.902690  1.0  -0.6061
  O  O2421  1  0.442010  0.853690  0.947070  1.0  -0.6155
  O  O2422  1  0.391810  0.930860  0.789780  1.0  -0.6225
  O  O2423  1  0.371500  0.924410  0.967550  1.0  -0.6182
  O  O2424  1  0.422960  0.982010  0.890500  1.0  -0.6301
  O  O2425  1  0.268840  0.167270  0.969160  1.0  -0.6294
  O  O2426  1  0.594100  0.103000  0.000970  1.0  -0.6395
  O  O2427  1  0.315170  0.175640  0.940870  1.0  -0.6187
  O  O2428  1  0.567420  0.113420  0.971680  1.0  -0.6058
  O  O2429  1  0.379760  0.105590  0.917400  1.0  -0.5959
  O  O2430  1  0.362480  0.084660  0.902730  1.0  -0.6092
  O  O2431  1  0.761180  0.854400  0.804450  1.0  -0.6064
  O  O2432  1  0.739510  0.832710  0.782830  1.0  -0.5988
  O  O2433  1  0.558890  0.943080  0.992710  1.0  -0.6037
  O  O2434  1  0.446980  0.003570  0.046740  1.0  -0.639
  O  O2435  1  0.532760  0.948180  0.040730  1.0  -0.609
  O  O2436  1  0.729930  0.917030  0.867350  1.0  -0.5877
  O  O2437  1  0.677640  0.902690  0.952140  1.0  -0.605
  O  O2438  1  0.757230  0.947070  0.853690  1.0  -0.6155
  O  O2439  1  0.887550  0.789780  0.930860  1.0  -0.6205
  O  O2440  1  0.736540  0.967550  0.924410  1.0  -0.6159
  O  O2441  1  0.704530  0.890500  0.982010  1.0  -0.6308
  O  O2442  1  0.594730  0.969160  0.167270  1.0  -0.6297
  O  O2443  1  0.301930  0.000970  0.103000  1.0  -0.6404
  O  O2444  1  0.568320  0.940870  0.175640  1.0  -0.6204
  O  O2445  1  0.347480  0.971680  0.113420  1.0  -0.6059
  O  O2446  1  0.597250  0.917400  0.105590  1.0  -0.5992
  O  O2447  1  0.650130  0.902730  0.084660  1.0  -0.6081
  O  O2448  1  0.804450  0.579970  0.761180  1.0  -0.6063
  O  O2449  1  0.782830  0.644950  0.739510  1.0  -0.597
  O  O2450  1  0.992710  0.505320  0.558890  1.0  -0.6055
  O  O2451  1  0.046740  0.502710  0.446980  1.0  -0.6385
  O  O2452  1  0.040730  0.478330  0.532760  1.0  -0.6098
  O  O2453  1  0.867350  0.485690  0.729930  1.0  -0.5884
  O  O2454  1  0.952140  0.467530  0.677640  1.0  -0.6073
  O  O2455  1  0.853690  0.442010  0.757230  1.0  -0.6186
  O  O2456  1  0.930860  0.391810  0.887550  1.0  -0.6184
  O  O2457  1  0.924410  0.371500  0.736540  1.0  -0.6187
  O  O2458  1  0.982010  0.422960  0.704530  1.0  -0.6289
  O  O2459  1  0.167270  0.268840  0.594730  1.0  -0.6294
  O  O2460  1  0.103000  0.594100  0.301930  1.0  -0.6408
  O  O2461  1  0.175640  0.315170  0.568320  1.0  -0.6202
  O  O2462  1  0.113420  0.567420  0.347480  1.0  -0.6045
  O  O2463  1  0.105590  0.379760  0.597250  1.0  -0.5963
  O  O2464  1  0.084660  0.362480  0.650130  1.0  -0.6094
  O  O2465  1  0.804450  0.854400  0.579970  1.0  -0.6047
  O  O2466  1  0.782830  0.832710  0.644950  1.0  -0.5968
  O  O2467  1  0.992710  0.943080  0.505320  1.0  -0.606
  O  O2468  1  0.046740  0.003570  0.502710  1.0  -0.6374
  O  O2469  1  0.040730  0.948180  0.478330  1.0  -0.6106
  O  O2470  1  0.867350  0.917030  0.485690  1.0  -0.5881
  O  O2471  1  0.952140  0.902690  0.467530  1.0  -0.6073
  O  O2472  1  0.853690  0.947070  0.442010  1.0  -0.6133
  O  O2473  1  0.930860  0.789780  0.391810  1.0  -0.6198
  O  O2474  1  0.924410  0.967550  0.371500  1.0  -0.6168
  O  O2475  1  0.982010  0.890500  0.422960  1.0  -0.6285
  O  O2476  1  0.167270  0.969160  0.268840  1.0  -0.6314
  O  O2477  1  0.103000  0.000970  0.594100  1.0  -0.6401
  O  O2478  1  0.175640  0.940870  0.315170  1.0  -0.6187
  O  O2479  1  0.113420  0.971680  0.567420  1.0  -0.6063
  O  O2480  1  0.105590  0.917400  0.379760  1.0  -0.597
  O  O2481  1  0.084660  0.902730  0.362480  1.0  -0.6077
  O  O2482  1  0.761180  0.579970  0.854400  1.0  -0.6052
  O  O2483  1  0.739510  0.644950  0.832710  1.0  -0.6016
  O  O2484  1  0.558890  0.505320  0.943080  1.0  -0.6089
  O  O2485  1  0.446980  0.502710  0.003570  1.0  -0.6353
  O  O2486  1  0.532760  0.478330  0.948180  1.0  -0.6101
  O  O2487  1  0.729930  0.485690  0.917030  1.0  -0.5881
  O  O2488  1  0.677640  0.467530  0.902690  1.0  -0.6055
  O  O2489  1  0.757230  0.442010  0.947070  1.0  -0.613
  O  O2490  1  0.887550  0.391810  0.789780  1.0  -0.6212
  O  O2491  1  0.736540  0.371500  0.967550  1.0  -0.6147
  O  O2492  1  0.704530  0.422960  0.890500  1.0  -0.6294
  O  O2493  1  0.594730  0.268840  0.969160  1.0  -0.6315
  O  O2494  1  0.301930  0.594100  0.000970  1.0  -0.6375
  O  O2495  1  0.568320  0.315170  0.940870  1.0  -0.6234
  O  O2496  1  0.347480  0.567420  0.971680  1.0  -0.6041
  O  O2497  1  0.597250  0.379760  0.917400  1.0  -0.5965
  O  O2498  1  0.650130  0.362480  0.902730  1.0  -0.6086
  O  O2499  1  0.579970  0.761180  0.804450  1.0  -0.6057
  O  O2500  1  0.644950  0.739510  0.782830  1.0  -0.5977
  O  O2501  1  0.505320  0.558890  0.992710  1.0  -0.6064
  O  O2502  1  0.502710  0.446980  0.046740  1.0  -0.635
  O  O2503  1  0.478330  0.532760  0.040730  1.0  -0.6097
  O  O2504  1  0.485690  0.729930  0.867350  1.0  -0.5903
  O  O2505  1  0.467530  0.677640  0.952140  1.0  -0.6068
  O  O2506  1  0.442010  0.757230  0.853690  1.0  -0.6132
  O  O2507  1  0.391810  0.887550  0.930860  1.0  -0.6215
  O  O2508  1  0.371500  0.736540  0.924410  1.0  -0.6139
  O  O2509  1  0.422960  0.704530  0.982010  1.0  -0.628
  O  O2510  1  0.268840  0.594730  0.167270  1.0  -0.6293
  O  O2511  1  0.594100  0.301930  0.103000  1.0  -0.6383
  O  O2512  1  0.315170  0.568320  0.175640  1.0  -0.6231
  O  O2513  1  0.567420  0.347480  0.113420  1.0  -0.6057
  O  O2514  1  0.379760  0.597250  0.105590  1.0  -0.5971
  O  O2515  1  0.362480  0.650130  0.084660  1.0  -0.6079
  O  O2516  1  0.854400  0.804450  0.761180  1.0  -0.6061
  O  O2517  1  0.832710  0.782830  0.739510  1.0  -0.5974
  O  O2518  1  0.943080  0.992710  0.558890  1.0  -0.6084
  O  O2519  1  0.003570  0.046740  0.446980  1.0  -0.6376
  O  O2520  1  0.948180  0.040730  0.532760  1.0  -0.6086
  O  O2521  1  0.917030  0.867350  0.729930  1.0  -0.586
  O  O2522  1  0.902690  0.952140  0.677640  1.0  -0.6067
  O  O2523  1  0.947070  0.853690  0.757230  1.0  -0.6115
  O  O2524  1  0.789780  0.930860  0.887550  1.0  -0.6215
  O  O2525  1  0.967550  0.924410  0.736540  1.0  -0.6175
  O  O2526  1  0.890500  0.982010  0.704530  1.0  -0.6312
  O  O2527  1  0.969160  0.167270  0.594730  1.0  -0.6292
  O  O2528  1  0.000970  0.103000  0.301930  1.0  -0.6374
  O  O2529  1  0.940870  0.175640  0.568320  1.0  -0.6168
  O  O2530  1  0.971680  0.113420  0.347480  1.0  -0.6061
  O  O2531  1  0.917400  0.105590  0.597250  1.0  -0.5959
  O  O2532  1  0.902730  0.084660  0.650130  1.0  -0.6082
  O  O2533  1  0.430100  0.918600  0.918600  1.0  -1.0589
  O  O2534  1  0.918600  0.430100  0.732700  1.0  -1.0583
  O  O2535  1  0.918600  0.732700  0.430100  1.0  -1.0588
  O  O2536  1  0.732700  0.918600  0.918600  1.0  -1.057
  O  O2537  1  0.918600  0.430100  0.918600  1.0  -1.0588
  O  O2538  1  0.732700  0.918600  0.430100  1.0  -1.0576
  O  O2539  1  0.430100  0.918600  0.732700  1.0  -1.0584
  O  O2540  1  0.918600  0.732700  0.918600  1.0  -1.0582
  O  O2541  1  0.918600  0.918600  0.430100  1.0  -1.0589
  O  O2542  1  0.430100  0.732700  0.918600  1.0  -1.0594
  O  O2543  1  0.732700  0.430100  0.918600  1.0  -1.058
  O  O2544  1  0.918600  0.918600  0.732700  1.0  -1.0583
  O  O2545  1  0.819900  0.331400  0.517300  1.0  -1.0585
  O  O2546  1  0.331400  0.819900  0.331400  1.0  -1.0585
  O  O2547  1  0.331400  0.517300  0.331400  1.0  -1.0586
  O  O2548  1  0.517300  0.331400  0.819900  1.0  -1.0579
  O  O2549  1  0.331400  0.819900  0.517300  1.0  -1.0589
  O  O2550  1  0.517300  0.331400  0.331400  1.0  -1.0586
  O  O2551  1  0.819900  0.331400  0.331400  1.0  -1.058
  O  O2552  1  0.331400  0.517300  0.819900  1.0  -1.058
  O  O2553  1  0.331400  0.331400  0.517300  1.0  -1.0587
  O  O2554  1  0.819900  0.517300  0.331400  1.0  -1.0592
  O  O2555  1  0.517300  0.819900  0.331400  1.0  -1.0593
  O  O2556  1  0.331400  0.331400  0.819900  1.0  -1.0581
  O  O2557  1  0.504080  0.995920  0.995920  1.0  -1.0506
  O  O2558  1  0.995920  0.504080  0.504080  1.0  -1.0526
  O  O2559  1  0.995920  0.504080  0.995920  1.0  -1.0502
  O  O2560  1  0.504080  0.995920  0.504080  1.0  -1.053
  O  O2561  1  0.995920  0.995920  0.504080  1.0  -1.0509
  O  O2562  1  0.504080  0.504080  0.995920  1.0  -1.0533
  O  O2563  1  0.745920  0.254080  0.745920  1.0  -1.0521
  O  O2564  1  0.254080  0.745920  0.254080  1.0  -1.0512
  O  O2565  1  0.254080  0.745920  0.745920  1.0  -1.0524
  O  O2566  1  0.745920  0.254080  0.254080  1.0  -1.0508
  O  O2567  1  0.254080  0.254080  0.745920  1.0  -1.0518
  O  O2568  1  0.745920  0.745920  0.254080  1.0  -1.0531
  O  O2569  1  0.314210  0.935790  0.125000  1.0  -1.0528
  O  O2570  1  0.935790  0.314210  0.625000  1.0  -1.052
  O  O2571  1  0.125000  0.625000  0.314210  1.0  -1.0519
  O  O2572  1  0.625000  0.125000  0.935790  1.0  -1.0515
  O  O2573  1  0.125000  0.314210  0.935790  1.0  -1.0511
  O  O2574  1  0.625000  0.935790  0.314210  1.0  -1.0522
  O  O2575  1  0.314210  0.125000  0.625000  1.0  -1.0514
  O  O2576  1  0.935790  0.625000  0.125000  1.0  -1.051
  O  O2577  1  0.935790  0.125000  0.314210  1.0  -1.0516
  O  O2578  1  0.314210  0.625000  0.935790  1.0  -1.0509
  O  O2579  1  0.625000  0.314210  0.125000  1.0  -1.0516
  O  O2580  1  0.125000  0.935790  0.625000  1.0  -1.0518
  O  O2581  1  0.935790  0.314210  0.125000  1.0  -1.052
  O  O2582  1  0.314210  0.935790  0.625000  1.0  -1.0528
  O  O2583  1  0.125000  0.625000  0.935790  1.0  -1.0515
  O  O2584  1  0.625000  0.125000  0.314210  1.0  -1.0519
  O  O2585  1  0.125000  0.935790  0.314210  1.0  -1.0522
  O  O2586  1  0.625000  0.314210  0.935790  1.0  -1.0511
  O  O2587  1  0.935790  0.125000  0.625000  1.0  -1.051
  O  O2588  1  0.314210  0.625000  0.125000  1.0  -1.0514
  O  O2589  1  0.314210  0.125000  0.935790  1.0  -1.0509
  O  O2590  1  0.935790  0.625000  0.314210  1.0  -1.0516
  O  O2591  1  0.625000  0.935790  0.125000  1.0  -1.0518
  O  O2592  1  0.125000  0.314210  0.625000  1.0  -1.0516
  O  O2593  1  0.795850  0.795850  0.795850  1.0  -1.0502
  O  O2594  1  0.795850  0.795850  0.612450  1.0  -1.0495
  O  O2595  1  0.795850  0.612450  0.795850  1.0  -1.0492
  O  O2596  1  0.612450  0.795850  0.795850  1.0  -1.049
  O  O2597  1  0.454150  0.454150  0.637550  1.0  -1.0502
  O  O2598  1  0.454150  0.454150  0.454150  1.0  -1.0497
  O  O2599  1  0.454150  0.637550  0.454150  1.0  -1.0504
  O  O2600  1  0.637550  0.454150  0.454150  1.0  -1.0497
