# generated using pymatgen
data_Nd7H40C42(NO30)2
_symmetry_space_group_name_H-M   'P 1'
_cell_length_a   12.78190000
_cell_length_b   12.78190000
_cell_length_c   85.29400000
_cell_angle_alpha   90.00000000
_cell_angle_beta   90.00000000
_cell_angle_gamma   120.00000000
_symmetry_Int_Tables_number   1
_chemical_formula_structural   Nd7H40C42(NO30)2
_chemical_formula_sum   'Nd42 H240 C252 N12 O360'
_cell_volume   12068.12901888
_cell_formula_units_Z   6
loop_
 _symmetry_equiv_pos_site_id
 _symmetry_equiv_pos_as_xyz
  1  'x, y, z'
loop_
 _atom_site_type_symbol
 _atom_site_label
 _atom_site_symmetry_multiplicity
 _atom_site_fract_x
 _atom_site_fract_y
 _atom_site_fract_z
 _atom_site_occupancy
 _atom_site_charge
  Nd  Nd1  1  0.528520  0.986840  0.004720  1.0  2.3289
  Nd  Nd2  1  0.386760  0.795480  0.046330  1.0  2.3193
  Nd  Nd3  1  0.693870  0.034890  0.959430  1.0  2.3072
  Nd  Nd4  1  0.458320  0.471480  0.671390  1.0  2.3292
  Nd  Nd5  1  0.408720  0.613240  0.712990  1.0  2.3214
  Nd  Nd6  1  0.341020  0.306130  0.626100  1.0  2.3057
  Nd  Nd7  1  0.013160  0.541680  0.338060  1.0  2.3292
  Nd  Nd8  1  0.204520  0.591280  0.379660  1.0  2.3197
  Nd  Nd9  1  0.965110  0.658980  0.292760  1.0  2.3072
  Nd  Nd10  1  0.471480  0.013160  0.504720  1.0  2.3287
  Nd  Nd11  1  0.613240  0.204520  0.546330  1.0  2.3195
  Nd  Nd12  1  0.306130  0.965110  0.459430  1.0  2.3058
  Nd  Nd13  1  0.541680  0.528520  0.171390  1.0  2.3284
  Nd  Nd14  1  0.591280  0.386760  0.212990  1.0  2.3211
  Nd  Nd15  1  0.658980  0.693870  0.126100  1.0  2.3067
  Nd  Nd16  1  0.986840  0.458320  0.838060  1.0  2.3299
  Nd  Nd17  1  0.795480  0.408720  0.879660  1.0  2.3204
  Nd  Nd18  1  0.034890  0.341020  0.792760  1.0  2.3067
  Nd  Nd19  1  0.541680  0.013160  0.661940  1.0  2.3281
  Nd  Nd20  1  0.591280  0.204520  0.620340  1.0  2.3174
  Nd  Nd21  1  0.658980  0.965110  0.707240  1.0  2.3068
  Nd  Nd22  1  0.986840  0.528520  0.995280  1.0  2.3287
  Nd  Nd23  1  0.795480  0.386760  0.953670  1.0  2.3185
  Nd  Nd24  1  0.034890  0.693870  0.040570  1.0  2.3067
  Nd  Nd25  1  0.471480  0.458320  0.328610  1.0  2.3309
  Nd  Nd26  1  0.613240  0.408720  0.287010  1.0  2.3215
  Nd  Nd27  1  0.306130  0.341020  0.373900  1.0  2.3081
  Nd  Nd28  1  0.458320  0.986840  0.161940  1.0  2.3289
  Nd  Nd29  1  0.408720  0.795480  0.120340  1.0  2.3189
  Nd  Nd30  1  0.341020  0.034890  0.207240  1.0  2.3075
  Nd  Nd31  1  0.013160  0.471480  0.495280  1.0  2.3291
  Nd  Nd32  1  0.204520  0.613240  0.453670  1.0  2.3181
  Nd  Nd33  1  0.965110  0.306130  0.540570  1.0  2.307
  Nd  Nd34  1  0.528520  0.541680  0.828610  1.0  2.3294
  Nd  Nd35  1  0.386760  0.591280  0.787010  1.0  2.3201
  Nd  Nd36  1  0.693870  0.658980  0.873900  1.0  2.3071
  Nd  Nd37  1  0.524840  0.049680  0.083330  1.0  2.311
  Nd  Nd38  1  0.524840  0.475160  0.750000  1.0  2.3125
  Nd  Nd39  1  0.950320  0.475160  0.416670  1.0  2.3121
  Nd  Nd40  1  0.475160  0.950320  0.583330  1.0  2.3116
  Nd  Nd41  1  0.475160  0.524840  0.250000  1.0  2.3123
  Nd  Nd42  1  0.049680  0.524840  0.916670  1.0  2.3111
  H  H43  1  0.821500  0.237200  0.038500  1.0  0.1679
  H  H44  1  0.794000  0.326200  0.047900  1.0  0.1638
  H  H45  1  0.632800  0.367400  0.031000  1.0  0.1608
  H  H46  1  0.577700  0.294900  0.046600  1.0  0.1558
  H  H47  1  0.509700  0.245200  0.030600  1.0  0.1644
  H  H48  1  0.095000  0.823600  0.092200  1.0  0.1667
  H  H49  1  0.151000  0.942300  0.102200  1.0  0.1628
  H  H50  1  0.135700  0.065700  0.080300  1.0  0.1599
  H  H51  1  0.064600  0.942900  0.071200  1.0  0.1674
  H  H52  1  0.177700  0.052300  0.063500  1.0  0.1678
  H  H53  1  0.931700  0.039200  0.997200  1.0  0.1675
  H  H54  1  0.959000  0.164600  0.003700  1.0  0.1718
  H  H55  1  0.110000  0.140300  0.978300  1.0  0.1614
  H  H56  1  0.137800  0.260700  0.986700  1.0  0.1552
  H  H57  1  0.125000  0.250300  0.968400  1.0  0.1544
  H  H58  1  0.457400  0.577000  0.011500  1.0  0.1563
  H  H59  1  0.347700  0.558100  0.001200  1.0  0.1492
  H  H60  1  0.323400  0.390500  0.027300  1.0  0.1589
  H  H61  1  0.224200  0.373300  0.015100  1.0  0.153
  H  H62  1  0.197600  0.368300  0.033100  1.0  0.1696
  H  H63  1  0.415700  0.178500  0.705170  1.0  0.1656
  H  H64  1  0.532200  0.206000  0.714570  1.0  0.1644
  H  H65  1  0.734600  0.367200  0.697670  1.0  0.1619
  H  H66  1  0.717200  0.422300  0.713270  1.0  0.1551
  H  H67  1  0.735500  0.490300  0.697270  1.0  0.1668
  H  H68  1  0.728600  0.905000  0.758870  1.0  0.1677
  H  H69  1  0.791300  0.849000  0.768870  1.0  0.1617
  H  H70  1  0.930000  0.864300  0.746970  1.0  0.161
  H  H71  1  0.878300  0.935400  0.737870  1.0  0.1685
  H  H72  1  0.874600  0.822300  0.730170  1.0  0.1688
  H  H73  1  0.107500  0.068300  0.663870  1.0  0.1687
  H  H74  1  0.205600  0.041000  0.670370  1.0  0.1727
  H  H75  1  0.030300  0.890000  0.644970  1.0  0.1619
  H  H76  1  0.122900  0.862200  0.653370  1.0  0.1544
  H  H77  1  0.125300  0.875000  0.635070  1.0  0.1527
  H  H78  1  0.119600  0.542600  0.678170  1.0  0.1554
  H  H79  1  0.210400  0.652300  0.667870  1.0  0.1485
  H  H80  1  0.067100  0.676600  0.693970  1.0  0.158
  H  H81  1  0.149100  0.775800  0.681770  1.0  0.153
  H  H82  1  0.170700  0.802400  0.699770  1.0  0.1691
  H  H83  1  0.762800  0.584300  0.371830  1.0  0.1676
  H  H84  1  0.673800  0.467800  0.381230  1.0  0.1636
  H  H85  1  0.632600  0.265400  0.364330  1.0  0.1598
  H  H86  1  0.705100  0.282800  0.379930  1.0  0.1556
  H  H87  1  0.754800  0.264500  0.363930  1.0  0.1665
  H  H88  1  0.176400  0.271400  0.425530  1.0  0.1714
  H  H89  1  0.057700  0.208700  0.435530  1.0  0.1622
  H  H90  1  0.934300  0.070000  0.413630  1.0  0.1605
  H  H91  1  0.057100  0.121700  0.404530  1.0  0.1683
  H  H92  1  0.947700  0.125400  0.396830  1.0  0.1672
  H  H93  1  0.960800  0.892500  0.330530  1.0  0.1671
  H  H94  1  0.835400  0.794400  0.337030  1.0  0.1725
  H  H95  1  0.859700  0.969700  0.311630  1.0  0.1616
  H  H96  1  0.739300  0.877100  0.320030  1.0  0.1545
  H  H97  1  0.749700  0.874700  0.301730  1.0  0.1523
  H  H98  1  0.423000  0.880400  0.344830  1.0  0.1576
  H  H99  1  0.441900  0.789600  0.334530  1.0  0.1498
  H  H100  1  0.609500  0.932900  0.360630  1.0  0.1572
  H  H101  1  0.626700  0.850900  0.348430  1.0  0.1531
  H  H102  1  0.631700  0.829300  0.366430  1.0  0.169
  H  H103  1  0.178500  0.762800  0.538500  1.0  0.1681
  H  H104  1  0.206000  0.673800  0.547900  1.0  0.1642
  H  H105  1  0.367200  0.632600  0.531000  1.0  0.1607
  H  H106  1  0.422300  0.705100  0.546600  1.0  0.1546
  H  H107  1  0.490300  0.754800  0.530600  1.0  0.1651
  H  H108  1  0.905000  0.176400  0.592200  1.0  0.1649
  H  H109  1  0.849000  0.057700  0.602200  1.0  0.1628
  H  H110  1  0.864300  0.934300  0.580300  1.0  0.1607
  H  H111  1  0.935400  0.057100  0.571200  1.0  0.1679
  H  H112  1  0.822300  0.947700  0.563500  1.0  0.1683
  H  H113  1  0.068300  0.960800  0.497200  1.0  0.1664
  H  H114  1  0.041000  0.835400  0.503700  1.0  0.1711
  H  H115  1  0.890000  0.859700  0.478300  1.0  0.1618
  H  H116  1  0.862200  0.739300  0.486700  1.0  0.1556
  H  H117  1  0.875000  0.749700  0.468400  1.0  0.154
  H  H118  1  0.542600  0.423000  0.511500  1.0  0.1576
  H  H119  1  0.652300  0.441900  0.501200  1.0  0.1486
  H  H120  1  0.676600  0.609500  0.527300  1.0  0.1597
  H  H121  1  0.775800  0.626700  0.515100  1.0  0.1524
  H  H122  1  0.802400  0.631700  0.533100  1.0  0.1688
  H  H123  1  0.584300  0.821500  0.205170  1.0  0.1638
  H  H124  1  0.467800  0.794000  0.214570  1.0  0.1641
  H  H125  1  0.265400  0.632800  0.197670  1.0  0.1621
  H  H126  1  0.282800  0.577700  0.213270  1.0  0.1566
  H  H127  1  0.264500  0.509700  0.197270  1.0  0.1656
  H  H128  1  0.271400  0.095000  0.258870  1.0  0.1669
  H  H129  1  0.208700  0.151000  0.268870  1.0  0.1621
  H  H130  1  0.070000  0.135700  0.246970  1.0  0.159
  H  H131  1  0.121700  0.064600  0.237870  1.0  0.1689
  H  H132  1  0.125400  0.177700  0.230170  1.0  0.1689
  H  H133  1  0.892500  0.931700  0.163870  1.0  0.1736
  H  H134  1  0.794400  0.959000  0.170370  1.0  0.1735
  H  H135  1  0.969700  0.110000  0.144970  1.0  0.1568
  H  H136  1  0.877100  0.137800  0.153370  1.0  0.1548
  H  H137  1  0.874700  0.125000  0.135070  1.0  0.1523
  H  H138  1  0.880400  0.457400  0.178170  1.0  0.1549
  H  H139  1  0.789600  0.347700  0.167870  1.0  0.1479
  H  H140  1  0.932900  0.323400  0.193970  1.0  0.1573
  H  H141  1  0.850900  0.224200  0.181770  1.0  0.1523
  H  H142  1  0.829300  0.197600  0.199770  1.0  0.169
  H  H143  1  0.237200  0.415700  0.871830  1.0  0.1694
  H  H144  1  0.326200  0.532200  0.881230  1.0  0.1641
  H  H145  1  0.367400  0.734600  0.864330  1.0  0.1584
  H  H146  1  0.294900  0.717200  0.879930  1.0  0.1544
  H  H147  1  0.245200  0.735500  0.863930  1.0  0.1669
  H  H148  1  0.823600  0.728600  0.925530  1.0  0.1711
  H  H149  1  0.942300  0.791300  0.935530  1.0  0.1615
  H  H150  1  0.065700  0.930000  0.913630  1.0  0.1599
  H  H151  1  0.942900  0.878300  0.904530  1.0  0.1682
  H  H152  1  0.052300  0.874600  0.896830  1.0  0.1683
  H  H153  1  0.039200  0.107500  0.830530  1.0  0.1685
  H  H154  1  0.164600  0.205600  0.837030  1.0  0.173
  H  H155  1  0.140300  0.030300  0.811630  1.0  0.1605
  H  H156  1  0.260700  0.122900  0.820030  1.0  0.155
  H  H157  1  0.250300  0.125300  0.801730  1.0  0.1523
  H  H158  1  0.577000  0.119600  0.844830  1.0  0.1559
  H  H159  1  0.558100  0.210400  0.834530  1.0  0.1494
  H  H160  1  0.390500  0.067100  0.860630  1.0  0.1547
  H  H161  1  0.373300  0.149100  0.848430  1.0  0.1533
  H  H162  1  0.368300  0.170700  0.866430  1.0  0.169
  H  H163  1  0.584300  0.762800  0.628170  1.0  0.1675
  H  H164  1  0.467800  0.673800  0.618770  1.0  0.1641
  H  H165  1  0.265400  0.632600  0.635670  1.0  0.1597
  H  H166  1  0.282800  0.705100  0.620070  1.0  0.1552
  H  H167  1  0.264500  0.754800  0.636070  1.0  0.1635
  H  H168  1  0.271400  0.176400  0.574470  1.0  0.1657
  H  H169  1  0.208700  0.057700  0.564470  1.0  0.1613
  H  H170  1  0.070000  0.934300  0.586370  1.0  0.1594
  H  H171  1  0.121700  0.057100  0.595470  1.0  0.1672
  H  H172  1  0.125400  0.947700  0.603170  1.0  0.169
  H  H173  1  0.892500  0.960800  0.669470  1.0  0.1668
  H  H174  1  0.794400  0.835400  0.662970  1.0  0.1715
  H  H175  1  0.969700  0.859700  0.688370  1.0  0.1607
  H  H176  1  0.877100  0.739300  0.679970  1.0  0.155
  H  H177  1  0.874700  0.749700  0.698270  1.0  0.1547
  H  H178  1  0.880400  0.423000  0.655170  1.0  0.1564
  H  H179  1  0.789600  0.441900  0.665470  1.0  0.1487
  H  H180  1  0.932900  0.609500  0.639370  1.0  0.1589
  H  H181  1  0.850900  0.626700  0.651570  1.0  0.1528
  H  H182  1  0.829300  0.631700  0.633570  1.0  0.1674
  H  H183  1  0.237200  0.821500  0.961500  1.0  0.1651
  H  H184  1  0.326200  0.794000  0.952100  1.0  0.1649
  H  H185  1  0.367400  0.632800  0.969000  1.0  0.1624
  H  H186  1  0.294900  0.577700  0.953400  1.0  0.1552
  H  H187  1  0.245200  0.509700  0.969400  1.0  0.1671
  H  H188  1  0.823600  0.095000  0.907800  1.0  0.1678
  H  H189  1  0.942300  0.151000  0.897800  1.0  0.1602
  H  H190  1  0.065700  0.135700  0.919700  1.0  0.1602
  H  H191  1  0.942900  0.064600  0.928800  1.0  0.1675
  H  H192  1  0.052300  0.177700  0.936500  1.0  0.169
  H  H193  1  0.039200  0.931700  0.002800  1.0  0.1688
  H  H194  1  0.164600  0.959000  0.996300  1.0  0.1721
  H  H195  1  0.140300  0.110000  0.021700  1.0  0.1611
  H  H196  1  0.260700  0.137800  0.013300  1.0  0.1551
  H  H197  1  0.250300  0.125000  0.031600  1.0  0.1531
  H  H198  1  0.577000  0.457400  0.988500  1.0  0.1549
  H  H199  1  0.558100  0.347700  0.998800  1.0  0.1482
  H  H200  1  0.390500  0.323400  0.972700  1.0  0.1575
  H  H201  1  0.373300  0.224200  0.984900  1.0  0.1527
  H  H202  1  0.368300  0.197600  0.966900  1.0  0.1674
  H  H203  1  0.178500  0.415700  0.294830  1.0  0.1693
  H  H204  1  0.206000  0.532200  0.285430  1.0  0.164
  H  H205  1  0.367200  0.734600  0.302330  1.0  0.159
  H  H206  1  0.422300  0.717200  0.286730  1.0  0.1549
  H  H207  1  0.490300  0.735500  0.302730  1.0  0.1664
  H  H208  1  0.905000  0.728600  0.241130  1.0  0.1719
  H  H209  1  0.849000  0.791300  0.231130  1.0  0.1602
  H  H210  1  0.864300  0.930000  0.253030  1.0  0.1597
  H  H211  1  0.935400  0.878300  0.262130  1.0  0.1675
  H  H212  1  0.822300  0.874600  0.269830  1.0  0.1685
  H  H213  1  0.068300  0.107500  0.336130  1.0  0.1677
  H  H214  1  0.041000  0.205600  0.329630  1.0  0.1731
  H  H215  1  0.890000  0.030300  0.355030  1.0  0.1603
  H  H216  1  0.862200  0.122900  0.346630  1.0  0.1537
  H  H217  1  0.875000  0.125300  0.364930  1.0  0.1539
  H  H218  1  0.542600  0.119600  0.321830  1.0  0.1557
  H  H219  1  0.652300  0.210400  0.332130  1.0  0.1502
  H  H220  1  0.676600  0.067100  0.306030  1.0  0.1529
  H  H221  1  0.775800  0.149100  0.318230  1.0  0.1538
  H  H222  1  0.802400  0.170700  0.300230  1.0  0.1667
  H  H223  1  0.415700  0.237200  0.128170  1.0  0.1677
  H  H224  1  0.532200  0.326200  0.118770  1.0  0.1644
  H  H225  1  0.734600  0.367400  0.135670  1.0  0.1596
  H  H226  1  0.717200  0.294900  0.120070  1.0  0.1553
  H  H227  1  0.735500  0.245200  0.136070  1.0  0.1644
  H  H228  1  0.728600  0.823600  0.074470  1.0  0.1669
  H  H229  1  0.791300  0.942300  0.064470  1.0  0.1606
  H  H230  1  0.930000  0.065700  0.086370  1.0  0.1593
  H  H231  1  0.878300  0.942900  0.095470  1.0  0.1674
  H  H232  1  0.874600  0.052300  0.103170  1.0  0.1686
  H  H233  1  0.107500  0.039200  0.169470  1.0  0.1676
  H  H234  1  0.205600  0.164600  0.162970  1.0  0.1707
  H  H235  1  0.030300  0.140300  0.188370  1.0  0.1618
  H  H236  1  0.122900  0.260700  0.179970  1.0  0.1557
  H  H237  1  0.125300  0.250300  0.198270  1.0  0.1546
  H  H238  1  0.119600  0.577000  0.155170  1.0  0.1574
  H  H239  1  0.210400  0.558100  0.165470  1.0  0.1492
  H  H240  1  0.067100  0.390500  0.139370  1.0  0.1588
  H  H241  1  0.149100  0.373300  0.151570  1.0  0.1529
  H  H242  1  0.170700  0.368300  0.133570  1.0  0.1673
  H  H243  1  0.762800  0.178500  0.461500  1.0  0.164
  H  H244  1  0.673800  0.206000  0.452100  1.0  0.164
  H  H245  1  0.632600  0.367200  0.469000  1.0  0.1617
  H  H246  1  0.705100  0.422300  0.453400  1.0  0.1556
  H  H247  1  0.754800  0.490300  0.469400  1.0  0.1667
  H  H248  1  0.176400  0.905000  0.407800  1.0  0.1665
  H  H249  1  0.057700  0.849000  0.397800  1.0  0.1605
  H  H250  1  0.934300  0.864300  0.419700  1.0  0.1586
  H  H251  1  0.057100  0.935400  0.428800  1.0  0.1684
  H  H252  1  0.947700  0.822300  0.436500  1.0  0.1694
  H  H253  1  0.960800  0.068300  0.502800  1.0  0.1746
  H  H254  1  0.835400  0.041000  0.496300  1.0  0.1732
  H  H255  1  0.859700  0.890000  0.521700  1.0  0.1564
  H  H256  1  0.739300  0.862200  0.513300  1.0  0.1547
  H  H257  1  0.749700  0.875000  0.531600  1.0  0.1531
  H  H258  1  0.423000  0.542600  0.488500  1.0  0.1553
  H  H259  1  0.441900  0.652300  0.498800  1.0  0.1484
  H  H260  1  0.609500  0.676600  0.472700  1.0  0.1561
  H  H261  1  0.626700  0.775800  0.484900  1.0  0.1526
  H  H262  1  0.631700  0.802400  0.466900  1.0  0.1671
  H  H263  1  0.821500  0.584300  0.794830  1.0  0.1675
  H  H264  1  0.794000  0.467800  0.785430  1.0  0.1648
  H  H265  1  0.632800  0.265400  0.802330  1.0  0.1589
  H  H266  1  0.577700  0.282800  0.786730  1.0  0.1541
  H  H267  1  0.509700  0.264500  0.802730  1.0  0.1657
  H  H268  1  0.095000  0.271400  0.741130  1.0  0.171
  H  H269  1  0.151000  0.208700  0.731130  1.0  0.1605
  H  H270  1  0.135700  0.070000  0.753030  1.0  0.1596
  H  H271  1  0.064600  0.121700  0.762130  1.0  0.1677
  H  H272  1  0.177700  0.125400  0.769830  1.0  0.1682
  H  H273  1  0.931700  0.892500  0.836130  1.0  0.1686
  H  H274  1  0.959000  0.794400  0.829630  1.0  0.1721
  H  H275  1  0.110000  0.969700  0.855030  1.0  0.1614
  H  H276  1  0.137800  0.877100  0.846630  1.0  0.155
  H  H277  1  0.125000  0.874700  0.864930  1.0  0.1527
  H  H278  1  0.457400  0.880400  0.821830  1.0  0.1562
  H  H279  1  0.347700  0.789600  0.832130  1.0  0.1493
  H  H280  1  0.323400  0.932900  0.806030  1.0  0.1569
  H  H281  1  0.224200  0.850900  0.818230  1.0  0.153
  H  H282  1  0.197600  0.829300  0.800230  1.0  0.167
  C  C283  1  0.656800  0.218100  0.032870  1.0  0.308
  C  C284  1  0.594300  0.099600  0.042620  1.0  0.6819
  C  C285  1  0.788000  0.290400  0.037670  1.0  -0.2752
  C  C286  1  0.389900  0.860500  0.974270  1.0  0.7191
  C  C287  1  0.587600  0.288100  0.035530  1.0  -0.3259
  C  C288  1  0.222800  0.969700  0.080280  1.0  0.2903
  C  C289  1  0.252100  0.897400  0.068050  1.0  0.6845
  C  C290  1  0.170100  0.896000  0.094910  1.0  -0.3317
  C  C291  1  0.251500  0.859300  0.102980  1.0  0.7667
  C  C292  1  0.143100  0.011400  0.073180  1.0  -0.3403
  C  C293  1  0.963200  0.161900  0.979600  1.0  0.283
  C  C294  1  0.270900  0.939300  0.022910  1.0  0.6707
  C  C295  1  0.914400  0.104400  0.995770  1.0  -0.3557
  C  C296  1  0.783100  0.055300  0.998630  1.0  0.7761
  C  C297  1  0.095900  0.207400  0.978140  1.0  -0.3383
  C  C298  1  0.307500  0.543700  0.025190  1.0  0.3153
  C  C299  1  0.200800  0.566400  0.024350  1.0  0.681
  C  C300  1  0.393200  0.596200  0.010600  1.0  -0.311
  C  C301  1  0.446700  0.727800  0.009240  1.0  0.8078
  C  C302  1  0.258600  0.406000  0.025160  1.0  -0.3223
  C  C303  1  0.561300  0.343200  0.699540  1.0  0.3094
  C  C304  1  0.505300  0.405700  0.709290  1.0  0.6815
  C  C305  1  0.502400  0.212000  0.704340  1.0  -0.2748
  C  C306  1  0.470600  0.610100  0.640940  1.0  0.7234
  C  C307  1  0.700500  0.412400  0.702200  1.0  -0.3271
  C  C308  1  0.746900  0.777200  0.746950  1.0  0.2865
  C  C309  1  0.645300  0.747900  0.734720  1.0  0.6837
  C  C310  1  0.725900  0.829900  0.761580  1.0  -0.3295
  C  C311  1  0.607800  0.748500  0.769650  1.0  0.7666
  C  C312  1  0.868300  0.856900  0.739850  1.0  -0.3422
  C  C313  1  0.198700  0.036800  0.646270  1.0  0.2831
  C  C314  1  0.668400  0.729100  0.689580  1.0  0.6723
  C  C315  1  0.190000  0.085600  0.662440  1.0  -0.3587
  C  C316  1  0.272200  0.216900  0.665300  1.0  0.7795
  C  C317  1  0.111500  0.904100  0.644810  1.0  -0.3391
  C  C318  1  0.236200  0.692500  0.691860  1.0  0.3159
  C  C319  1  0.365600  0.799200  0.691020  1.0  0.6838
  C  C320  1  0.203000  0.606800  0.677270  1.0  -0.3127
  C  C321  1  0.281100  0.553300  0.675910  1.0  0.81
  C  C322  1  0.147400  0.741400  0.691830  1.0  -0.319
  C  C323  1  0.781900  0.438700  0.366200  1.0  0.3099
  C  C324  1  0.900400  0.494700  0.375950  1.0  0.6801
  C  C325  1  0.709600  0.497600  0.371000  1.0  -0.2753
  C  C326  1  0.139500  0.529400  0.307600  1.0  0.7197
  C  C327  1  0.711900  0.299500  0.368860  1.0  -0.3246
  C  C328  1  0.030300  0.253100  0.413610  1.0  0.2881
  C  C329  1  0.102600  0.354700  0.401380  1.0  0.6841
  C  C330  1  0.104000  0.274100  0.428240  1.0  -0.3289
  C  C331  1  0.140700  0.392200  0.436310  1.0  0.7682
  C  C332  1  0.988600  0.131700  0.406510  1.0  -0.3419
  C  C333  1  0.838100  0.801300  0.312930  1.0  0.2828
  C  C334  1  0.060700  0.331600  0.356240  1.0  0.6726
  C  C335  1  0.895600  0.810000  0.329100  1.0  -0.3569
  C  C336  1  0.944700  0.727800  0.331960  1.0  0.7763
  C  C337  1  0.792600  0.888500  0.311470  1.0  -0.3383
  C  C338  1  0.456300  0.763800  0.358520  1.0  0.3143
  C  C339  1  0.433600  0.634400  0.357680  1.0  0.6845
  C  C340  1  0.403800  0.797000  0.343930  1.0  -0.3123
  C  C341  1  0.272200  0.718900  0.342570  1.0  0.8092
  C  C342  1  0.594000  0.852600  0.358490  1.0  -0.3213
  C  C343  1  0.343200  0.781900  0.532870  1.0  0.3068
  C  C344  1  0.405700  0.900400  0.542620  1.0  0.6809
  C  C345  1  0.212000  0.709600  0.537670  1.0  -0.2754
  C  C346  1  0.610100  0.139500  0.474270  1.0  0.7219
  C  C347  1  0.412400  0.711900  0.535530  1.0  -0.326
  C  C348  1  0.777200  0.030300  0.580280  1.0  0.2899
  C  C349  1  0.747900  0.102600  0.568050  1.0  0.6837
  C  C350  1  0.829900  0.104000  0.594910  1.0  -0.331
  C  C351  1  0.748500  0.140700  0.602980  1.0  0.7654
  C  C352  1  0.856900  0.988600  0.573180  1.0  -0.3405
  C  C353  1  0.036800  0.838100  0.479600  1.0  0.2841
  C  C354  1  0.729100  0.060700  0.522910  1.0  0.6704
  C  C355  1  0.085600  0.895600  0.495770  1.0  -0.3558
  C  C356  1  0.216900  0.944700  0.498630  1.0  0.7768
  C  C357  1  0.904100  0.792600  0.478140  1.0  -0.3395
  C  C358  1  0.692500  0.456300  0.525190  1.0  0.314
  C  C359  1  0.799200  0.433600  0.524350  1.0  0.683
  C  C360  1  0.606800  0.403800  0.510600  1.0  -0.312
  C  C361  1  0.553300  0.272200  0.509240  1.0  0.8111
  C  C362  1  0.741400  0.594000  0.525160  1.0  -0.3219
  C  C363  1  0.438700  0.656800  0.199540  1.0  0.3095
  C  C364  1  0.494700  0.594300  0.209290  1.0  0.6825
  C  C365  1  0.497600  0.788000  0.204340  1.0  -0.2727
  C  C366  1  0.529400  0.389900  0.140940  1.0  0.7209
  C  C367  1  0.299500  0.587600  0.202200  1.0  -0.3264
  C  C368  1  0.253100  0.222800  0.246950  1.0  0.2877
  C  C369  1  0.354700  0.252100  0.234720  1.0  0.6836
  C  C370  1  0.274100  0.170100  0.261580  1.0  -0.332
  C  C371  1  0.392200  0.251500  0.269650  1.0  0.7659
  C  C372  1  0.131700  0.143100  0.239850  1.0  -0.3413
  C  C373  1  0.801300  0.963200  0.146270  1.0  0.2822
  C  C374  1  0.331600  0.270900  0.189580  1.0  0.6717
  C  C375  1  0.810000  0.914400  0.162440  1.0  -0.3567
  C  C376  1  0.727800  0.783100  0.165300  1.0  0.7772
  C  C377  1  0.888500  0.095900  0.144810  1.0  -0.3384
  C  C378  1  0.763800  0.307500  0.191860  1.0  0.3154
  C  C379  1  0.634400  0.200800  0.191020  1.0  0.6823
  C  C380  1  0.797000  0.393200  0.177270  1.0  -0.3113
  C  C381  1  0.718900  0.446700  0.175910  1.0  0.8102
  C  C382  1  0.852600  0.258600  0.191830  1.0  -0.3213
  C  C383  1  0.218100  0.561300  0.866200  1.0  0.309
  C  C384  1  0.099600  0.505300  0.875950  1.0  0.6814
  C  C385  1  0.290400  0.502400  0.871000  1.0  -0.2771
  C  C386  1  0.860500  0.470600  0.807600  1.0  0.7203
  C  C387  1  0.288100  0.700500  0.868860  1.0  -0.3257
  C  C388  1  0.969700  0.746900  0.913610  1.0  0.2899
  C  C389  1  0.897400  0.645300  0.901380  1.0  0.6839
  C  C390  1  0.896000  0.725900  0.928240  1.0  -0.3278
  C  C391  1  0.859300  0.607800  0.936310  1.0  0.7689
  C  C392  1  0.011400  0.868300  0.906510  1.0  -0.3416
  C  C393  1  0.161900  0.198700  0.812930  1.0  0.2837
  C  C394  1  0.939300  0.668400  0.856240  1.0  0.6747
  C  C395  1  0.104400  0.190000  0.829100  1.0  -0.3588
  C  C396  1  0.055300  0.272200  0.831960  1.0  0.7777
  C  C397  1  0.207400  0.111500  0.811470  1.0  -0.337
  C  C398  1  0.543700  0.236200  0.858520  1.0  0.3157
  C  C399  1  0.566400  0.365600  0.857680  1.0  0.6833
  C  C400  1  0.596200  0.203000  0.843930  1.0  -0.3136
  C  C401  1  0.727800  0.281100  0.842570  1.0  0.8077
  C  C402  1  0.406000  0.147400  0.858490  1.0  -0.3209
  C  C403  1  0.438700  0.781900  0.633800  1.0  0.3063
  C  C404  1  0.494700  0.900400  0.624050  1.0  0.6814
  C  C405  1  0.497600  0.709600  0.629000  1.0  -0.2731
  C  C406  1  0.529400  0.139500  0.692400  1.0  0.7216
  C  C407  1  0.299500  0.711900  0.631140  1.0  -0.3263
  C  C408  1  0.253100  0.030300  0.586390  1.0  0.2908
  C  C409  1  0.354700  0.102600  0.598620  1.0  0.6847
  C  C410  1  0.274100  0.104000  0.571760  1.0  -0.3306
  C  C411  1  0.392200  0.140700  0.563690  1.0  0.7682
  C  C412  1  0.131700  0.988600  0.593490  1.0  -0.3413
  C  C413  1  0.801300  0.838100  0.687070  1.0  0.2842
  C  C414  1  0.331600  0.060700  0.643760  1.0  0.6697
  C  C415  1  0.810000  0.895600  0.670900  1.0  -0.354
  C  C416  1  0.727800  0.944700  0.668040  1.0  0.7768
  C  C417  1  0.888500  0.792600  0.688530  1.0  -0.34
  C  C418  1  0.763800  0.456300  0.641480  1.0  0.316
  C  C419  1  0.634400  0.433600  0.642320  1.0  0.6804
  C  C420  1  0.797000  0.403800  0.656070  1.0  -0.3131
  C  C421  1  0.718900  0.272200  0.657430  1.0  0.8094
  C  C422  1  0.852600  0.594000  0.641510  1.0  -0.3209
  C  C423  1  0.218100  0.656800  0.967130  1.0  0.3085
  C  C424  1  0.099600  0.594300  0.957380  1.0  0.6817
  C  C425  1  0.290400  0.788000  0.962330  1.0  -0.2719
  C  C426  1  0.860500  0.389900  0.025730  1.0  0.7217
  C  C427  1  0.288100  0.587600  0.964470  1.0  -0.3276
  C  C428  1  0.969700  0.222800  0.919720  1.0  0.2879
  C  C429  1  0.897400  0.252100  0.931950  1.0  0.6828
  C  C430  1  0.896000  0.170100  0.905090  1.0  -0.3305
  C  C431  1  0.859300  0.251500  0.897020  1.0  0.7704
  C  C432  1  0.011400  0.143100  0.926820  1.0  -0.3426
  C  C433  1  0.161900  0.963200  0.020400  1.0  0.2839
  C  C434  1  0.939300  0.270900  0.977090  1.0  0.6714
  C  C435  1  0.104400  0.914400  0.004230  1.0  -0.3582
  C  C436  1  0.055300  0.783100  0.001370  1.0  0.7798
  C  C437  1  0.207400  0.095900  0.021860  1.0  -0.34
  C  C438  1  0.543700  0.307500  0.974810  1.0  0.3158
  C  C439  1  0.566400  0.200800  0.975650  1.0  0.6829
  C  C440  1  0.596200  0.393200  0.989400  1.0  -0.3152
  C  C441  1  0.727800  0.446700  0.990760  1.0  0.8107
  C  C442  1  0.406000  0.258600  0.974840  1.0  -0.3176
  C  C443  1  0.343200  0.561300  0.300460  1.0  0.3089
  C  C444  1  0.405700  0.505300  0.290710  1.0  0.6808
  C  C445  1  0.212000  0.502400  0.295660  1.0  -0.274
  C  C446  1  0.610100  0.470600  0.359060  1.0  0.7205
  C  C447  1  0.412400  0.700500  0.297800  1.0  -0.3261
  C  C448  1  0.777200  0.746900  0.253050  1.0  0.2889
  C  C449  1  0.747900  0.645300  0.265280  1.0  0.6843
  C  C450  1  0.829900  0.725900  0.238420  1.0  -0.3282
  C  C451  1  0.748500  0.607800  0.230350  1.0  0.7691
  C  C452  1  0.856900  0.868300  0.260150  1.0  -0.3419
  C  C453  1  0.036800  0.198700  0.353730  1.0  0.2837
  C  C454  1  0.729100  0.668400  0.310420  1.0  0.6732
  C  C455  1  0.085600  0.190000  0.337560  1.0  -0.3558
  C  C456  1  0.216900  0.272200  0.334700  1.0  0.7776
  C  C457  1  0.904100  0.111500  0.355190  1.0  -0.3387
  C  C458  1  0.692500  0.236200  0.308140  1.0  0.3148
  C  C459  1  0.799200  0.365600  0.308980  1.0  0.6829
  C  C460  1  0.606800  0.203000  0.322730  1.0  -0.3152
  C  C461  1  0.553300  0.281100  0.324090  1.0  0.8097
  C  C462  1  0.741400  0.147400  0.308170  1.0  -0.3198
  C  C463  1  0.561300  0.218100  0.133800  1.0  0.3072
  C  C464  1  0.505300  0.099600  0.124050  1.0  0.6816
  C  C465  1  0.502400  0.290400  0.129000  1.0  -0.2733
  C  C466  1  0.470600  0.860500  0.192400  1.0  0.7207
  C  C467  1  0.700500  0.288100  0.131140  1.0  -0.3275
  C  C468  1  0.746900  0.969700  0.086390  1.0  0.2905
  C  C469  1  0.645300  0.897400  0.098620  1.0  0.6836
  C  C470  1  0.725900  0.896000  0.071760  1.0  -0.3319
  C  C471  1  0.607800  0.859300  0.063690  1.0  0.7685
  C  C472  1  0.868300  0.011400  0.093490  1.0  -0.3411
  C  C473  1  0.198700  0.161900  0.187070  1.0  0.2846
  C  C474  1  0.668400  0.939300  0.143760  1.0  0.6697
  C  C475  1  0.190000  0.104400  0.170900  1.0  -0.3554
  C  C476  1  0.272200  0.055300  0.168040  1.0  0.7775
  C  C477  1  0.111500  0.207400  0.188530  1.0  -0.34
  C  C478  1  0.236200  0.543700  0.141480  1.0  0.315
  C  C479  1  0.365600  0.566400  0.142320  1.0  0.6817
  C  C480  1  0.203000  0.596200  0.156070  1.0  -0.314
  C  C481  1  0.281100  0.727800  0.157430  1.0  0.8122
  C  C482  1  0.147400  0.406000  0.141510  1.0  -0.3201
  C  C483  1  0.781900  0.343200  0.467130  1.0  0.3095
  C  C484  1  0.900400  0.405700  0.457380  1.0  0.6818
  C  C485  1  0.709600  0.212000  0.462330  1.0  -0.2721
  C  C486  1  0.139500  0.610100  0.525730  1.0  0.7235
  C  C487  1  0.711900  0.412400  0.464470  1.0  -0.3269
  C  C488  1  0.030300  0.777200  0.419720  1.0  0.2873
  C  C489  1  0.102600  0.747900  0.431950  1.0  0.6844
  C  C490  1  0.104000  0.829900  0.405090  1.0  -0.3299
  C  C491  1  0.140700  0.748500  0.397020  1.0  0.7688
  C  C492  1  0.988600  0.856900  0.426820  1.0  -0.342
  C  C493  1  0.838100  0.036800  0.520400  1.0  0.2829
  C  C494  1  0.060700  0.729100  0.477090  1.0  0.6723
  C  C495  1  0.895600  0.085600  0.504230  1.0  -0.3558
  C  C496  1  0.944700  0.216900  0.501370  1.0  0.778
  C  C497  1  0.792600  0.904100  0.521860  1.0  -0.3402
  C  C498  1  0.456300  0.692500  0.474810  1.0  0.3155
  C  C499  1  0.433600  0.799200  0.475650  1.0  0.6822
  C  C500  1  0.403800  0.606800  0.489400  1.0  -0.3125
  C  C501  1  0.272200  0.553300  0.490760  1.0  0.8106
  C  C502  1  0.594000  0.741400  0.474840  1.0  -0.3185
  C  C503  1  0.656800  0.438700  0.800460  1.0  0.3085
  C  C504  1  0.594300  0.494700  0.790710  1.0  0.68
  C  C505  1  0.788000  0.497600  0.795660  1.0  -0.2736
  C  C506  1  0.389900  0.529400  0.859060  1.0  0.7209
  C  C507  1  0.587600  0.299500  0.797800  1.0  -0.3252
  C  C508  1  0.222800  0.253100  0.753050  1.0  0.2902
  C  C509  1  0.252100  0.354700  0.765280  1.0  0.6832
  C  C510  1  0.170100  0.274100  0.738420  1.0  -0.3276
  C  C511  1  0.251500  0.392200  0.730350  1.0  0.7691
  C  C512  1  0.143100  0.131700  0.760150  1.0  -0.3423
  C  C513  1  0.963200  0.801300  0.853730  1.0  0.285
  C  C514  1  0.270900  0.331600  0.810420  1.0  0.6728
  C  C515  1  0.914400  0.810000  0.837560  1.0  -0.3581
  C  C516  1  0.783100  0.727800  0.834700  1.0  0.7786
  C  C517  1  0.095900  0.888500  0.855190  1.0  -0.3382
  C  C518  1  0.307500  0.763800  0.808140  1.0  0.316
  C  C519  1  0.200800  0.634400  0.808980  1.0  0.6826
  C  C520  1  0.393200  0.797000  0.822730  1.0  -0.3156
  C  C521  1  0.446700  0.718900  0.824090  1.0  0.8083
  C  C522  1  0.258600  0.852600  0.808170  1.0  -0.3188
  C  C523  1  0.270400  0.256900  0.105600  1.0  0.9021
  C  C524  1  0.986500  0.729600  0.772270  1.0  0.9036
  C  C525  1  0.743100  0.013500  0.438930  1.0  0.9029
  C  C526  1  0.729600  0.743100  0.605600  1.0  0.9039
  C  C527  1  0.013500  0.270400  0.272270  1.0  0.9035
  C  C528  1  0.256900  0.986500  0.938930  1.0  0.9016
  C  C529  1  0.013500  0.743100  0.561070  1.0  0.9024
  C  C530  1  0.256900  0.270400  0.894400  1.0  0.9027
  C  C531  1  0.729600  0.986500  0.227730  1.0  0.9016
  C  C532  1  0.986500  0.256900  0.061070  1.0  0.9029
  C  C533  1  0.743100  0.729600  0.394400  1.0  0.9022
  C  C534  1  0.270400  0.013500  0.727730  1.0  0.9038
  N  N535  1  0.662400  0.830200  0.938600  1.0  0.8938
  N  N536  1  0.167800  0.337600  0.605270  1.0  0.8953
  N  N537  1  0.169800  0.832200  0.271930  1.0  0.8939
  N  N538  1  0.337600  0.169800  0.438600  1.0  0.8936
  N  N539  1  0.832200  0.662400  0.105270  1.0  0.8942
  N  N540  1  0.830200  0.167800  0.771930  1.0  0.8965
  N  N541  1  0.832200  0.169800  0.728070  1.0  0.8935
  N  N542  1  0.830200  0.662400  0.061400  1.0  0.8943
  N  N543  1  0.337600  0.167800  0.394730  1.0  0.895
  N  N544  1  0.167800  0.830200  0.228070  1.0  0.8929
  N  N545  1  0.169800  0.337600  0.561400  1.0  0.8941
  N  N546  1  0.662400  0.832200  0.894730  1.0  0.8948
  O  O547  1  0.645500  0.185700  0.016540  1.0  -0.5826
  O  O548  1  0.540000  0.001500  0.035140  1.0  -0.6727
  O  O549  1  0.599700  0.114900  0.056840  1.0  -0.6177
  O  O550  1  0.350300  0.859900  0.988470  1.0  -0.6281
  O  O551  1  0.496800  0.926100  0.970990  1.0  -0.7154
  O  O552  1  0.341400  0.073300  0.083960  1.0  -0.6574
  O  O553  1  0.356200  0.933100  0.063840  1.0  -0.5789
  O  O554  1  0.799500  0.159000  0.937090  1.0  -0.6968
  O  O555  1  0.347400  0.872000  0.096620  1.0  -0.7988
  O  O556  1  0.587700  0.811000  0.050070  1.0  -0.6153
  O  O557  1  0.899400  0.076300  0.967300  1.0  -0.6262
  O  O558  1  0.360900  0.998500  0.014610  1.0  -0.6114
  O  O559  1  0.255700  0.862200  0.033270  1.0  -0.6885
  O  O560  1  0.717100  0.070800  0.988400  1.0  -0.7876
  O  O561  1  0.738100  0.009900  0.011310  1.0  -0.5994
  O  O562  1  0.376100  0.600900  0.039140  1.0  -0.6692
  O  O563  1  0.190000  0.629000  0.035260  1.0  -0.7322
  O  O564  1  0.523700  0.134300  0.987280  1.0  -0.636
  O  O565  1  0.423200  0.787500  0.018710  1.0  -0.6708
  O  O566  1  0.517600  0.782800  0.997840  1.0  -0.6536
  O  O567  1  0.710100  0.270200  0.086940  1.0  -0.6054
  O  O568  1  0.285500  0.654100  0.068360  1.0  -0.2469
  O  O569  1  0.548300  0.041600  0.938490  1.0  -0.1628
  O  O570  1  0.675700  0.848700  0.973100  1.0  -0.2024
  O  O571  1  0.573500  0.840600  0.941890  1.0  -0.569
  O  O572  1  0.761500  0.915300  0.941780  1.0  -0.6233
  O  O573  1  0.652900  0.746900  0.930000  1.0  -0.4322
  O  O574  1  0.540200  0.354500  0.683210  1.0  -0.5824
  O  O575  1  0.461500  0.460000  0.701810  1.0  -0.6725
  O  O576  1  0.515200  0.400300  0.723510  1.0  -0.6188
  O  O577  1  0.509600  0.649700  0.655140  1.0  -0.6283
  O  O578  1  0.429300  0.503200  0.637660  1.0  -0.7159
  O  O579  1  0.731900  0.658600  0.750630  1.0  -0.6535
  O  O580  1  0.576900  0.643800  0.730510  1.0  -0.581
  O  O581  1  0.359500  0.200500  0.603760  1.0  -0.6971
  O  O582  1  0.524600  0.652600  0.763290  1.0  -0.7985
  O  O583  1  0.223300  0.412300  0.716740  1.0  -0.6523
  O  O584  1  0.176900  0.100600  0.633970  1.0  -0.622
  O  O585  1  0.637600  0.639100  0.681280  1.0  -0.6112
  O  O586  1  0.606500  0.744300  0.699940  1.0  -0.6905
  O  O587  1  0.353700  0.282900  0.655070  1.0  -0.7915
  O  O588  1  0.271800  0.261900  0.677980  1.0  -0.5993
  O  O589  1  0.224800  0.623900  0.705810  1.0  -0.6697
  O  O590  1  0.439000  0.810000  0.701930  1.0  -0.7338
  O  O591  1  0.610600  0.476300  0.653950  1.0  -0.6351
  O  O592  1  0.364300  0.576800  0.685380  1.0  -0.6668
  O  O593  1  0.265200  0.482400  0.664510  1.0  -0.6554
  O  O594  1  0.560100  0.289900  0.753610  1.0  -0.6038
  O  O595  1  0.368600  0.714500  0.735030  1.0  -0.2483
  O  O596  1  0.493300  0.451700  0.605160  1.0  -0.1634
  O  O597  1  0.173000  0.324300  0.639770  1.0  -0.2036
  O  O598  1  0.267100  0.426500  0.608560  1.0  -0.5713
  O  O599  1  0.153800  0.238500  0.608450  1.0  -0.6235
  O  O600  1  0.094000  0.347100  0.596670  1.0  -0.4335
  O  O601  1  0.814300  0.459800  0.349870  1.0  -0.5821
  O  O602  1  0.998500  0.538500  0.368470  1.0  -0.6725
  O  O603  1  0.885100  0.484800  0.390170  1.0  -0.6189
  O  O604  1  0.140100  0.490400  0.321800  1.0  -0.6303
  O  O605  1  0.073900  0.570700  0.304320  1.0  -0.7144
  O  O606  1  0.926700  0.268100  0.417290  1.0  -0.6399
  O  O607  1  0.066900  0.423100  0.397170  1.0  -0.5811
  O  O608  1  0.841000  0.640500  0.270420  1.0  -0.6963
  O  O609  1  0.128000  0.475400  0.429950  1.0  -0.8012
  O  O610  1  0.189000  0.776700  0.383400  1.0  -0.6156
  O  O611  1  0.923700  0.823100  0.300630  1.0  -0.6246
  O  O612  1  0.001500  0.362400  0.347940  1.0  -0.6119
  O  O613  1  0.137800  0.393500  0.366600  1.0  -0.6908
  O  O614  1  0.929200  0.646300  0.321730  1.0  -0.7874
  O  O615  1  0.990100  0.728200  0.344640  1.0  -0.5981
  O  O616  1  0.399100  0.775200  0.372470  1.0  -0.6683
  O  O617  1  0.371000  0.561000  0.368590  1.0  -0.7337
  O  O618  1  0.865700  0.389400  0.320610  1.0  -0.6354
  O  O619  1  0.212500  0.635700  0.352040  1.0  -0.665
  O  O620  1  0.217200  0.734800  0.331170  1.0  -0.6544
  O  O621  1  0.729800  0.439900  0.420270  1.0  -0.606
  O  O622  1  0.345900  0.631400  0.401690  1.0  -0.2489
  O  O623  1  0.958400  0.506700  0.271820  1.0  -0.1634
  O  O624  1  0.151300  0.827000  0.306430  1.0  -0.2035
  O  O625  1  0.159400  0.732900  0.275220  1.0  -0.5682
  O  O626  1  0.084700  0.846200  0.275110  1.0  -0.6251
  O  O627  1  0.253100  0.906000  0.263330  1.0  -0.4354
  O  O628  1  0.354500  0.814300  0.516540  1.0  -0.5815
  O  O629  1  0.460000  0.998500  0.535140  1.0  -0.6727
  O  O630  1  0.400300  0.885100  0.556840  1.0  -0.6171
  O  O631  1  0.649700  0.140100  0.488470  1.0  -0.6283
  O  O632  1  0.503200  0.073900  0.470990  1.0  -0.7155
  O  O633  1  0.658600  0.926700  0.583960  1.0  -0.6579
  O  O634  1  0.643800  0.066900  0.563840  1.0  -0.5788
  O  O635  1  0.200500  0.841000  0.437090  1.0  -0.6962
  O  O636  1  0.652600  0.128000  0.596620  1.0  -0.799
  O  O637  1  0.412300  0.189000  0.550070  1.0  -0.6146
  O  O638  1  0.100600  0.923700  0.467300  1.0  -0.6266
  O  O639  1  0.639100  0.001500  0.514610  1.0  -0.6117
  O  O640  1  0.744300  0.137800  0.533270  1.0  -0.6892
  O  O641  1  0.282900  0.929200  0.488400  1.0  -0.7881
  O  O642  1  0.261900  0.990100  0.511310  1.0  -0.5999
  O  O643  1  0.623900  0.399100  0.539140  1.0  -0.6682
  O  O644  1  0.810000  0.371000  0.535260  1.0  -0.7318
  O  O645  1  0.476300  0.865700  0.487280  1.0  -0.6351
  O  O646  1  0.576800  0.212500  0.518710  1.0  -0.6689
  O  O647  1  0.482400  0.217200  0.497840  1.0  -0.6523
  O  O648  1  0.289900  0.729800  0.586940  1.0  -0.6039
  O  O649  1  0.714500  0.345900  0.568360  1.0  -0.2487
  O  O650  1  0.451700  0.958400  0.438490  1.0  -0.1631
  O  O651  1  0.324300  0.151300  0.473100  1.0  -0.2032
  O  O652  1  0.426500  0.159400  0.441890  1.0  -0.5704
  O  O653  1  0.238500  0.084700  0.441780  1.0  -0.6235
  O  O654  1  0.347100  0.253100  0.430000  1.0  -0.4335
  O  O655  1  0.459800  0.645500  0.183210  1.0  -0.5833
  O  O656  1  0.538500  0.540000  0.201810  1.0  -0.6711
  O  O657  1  0.484800  0.599700  0.223510  1.0  -0.6188
  O  O658  1  0.490400  0.350300  0.155140  1.0  -0.6286
  O  O659  1  0.570700  0.496800  0.137660  1.0  -0.7162
  O  O660  1  0.268100  0.341400  0.250630  1.0  -0.6558
  O  O661  1  0.423100  0.356200  0.230510  1.0  -0.5808
  O  O662  1  0.640500  0.799500  0.103760  1.0  -0.6974
  O  O663  1  0.475400  0.347400  0.263290  1.0  -0.7988
  O  O664  1  0.776700  0.587700  0.216740  1.0  -0.6532
  O  O665  1  0.823100  0.899400  0.133970  1.0  -0.6251
  O  O666  1  0.362400  0.360900  0.181280  1.0  -0.6106
  O  O667  1  0.393500  0.255700  0.199940  1.0  -0.69
  O  O668  1  0.646300  0.717100  0.155070  1.0  -0.7901
  O  O669  1  0.728200  0.738100  0.177980  1.0  -0.5994
  O  O670  1  0.775200  0.376100  0.205810  1.0  -0.6688
  O  O671  1  0.561000  0.190000  0.201930  1.0  -0.7319
  O  O672  1  0.389400  0.523700  0.153950  1.0  -0.6355
  O  O673  1  0.635700  0.423200  0.185380  1.0  -0.6662
  O  O674  1  0.734800  0.517600  0.164510  1.0  -0.6561
  O  O675  1  0.439900  0.710100  0.253610  1.0  -0.6053
  O  O676  1  0.631400  0.285500  0.235030  1.0  -0.2459
  O  O677  1  0.506700  0.548300  0.105160  1.0  -0.1632
  O  O678  1  0.827000  0.675700  0.139770  1.0  -0.2011
  O  O679  1  0.732900  0.573500  0.108560  1.0  -0.5707
  O  O680  1  0.846200  0.761500  0.108450  1.0  -0.6233
  O  O681  1  0.906000  0.652900  0.096670  1.0  -0.4336
  O  O682  1  0.185700  0.540200  0.849870  1.0  -0.5822
  O  O683  1  0.001500  0.461500  0.868470  1.0  -0.6726
  O  O684  1  0.114900  0.515200  0.890170  1.0  -0.6189
  O  O685  1  0.859900  0.509600  0.821800  1.0  -0.6305
  O  O686  1  0.926100  0.429300  0.804320  1.0  -0.7137
  O  O687  1  0.073300  0.731900  0.917290  1.0  -0.6236
  O  O688  1  0.933100  0.576900  0.897170  1.0  -0.5807
  O  O689  1  0.159000  0.359500  0.770420  1.0  -0.6968
  O  O690  1  0.872000  0.524600  0.929950  1.0  -0.8006
  O  O691  1  0.811000  0.223300  0.883400  1.0  -0.6144
  O  O692  1  0.076300  0.176900  0.800630  1.0  -0.6229
  O  O693  1  0.998500  0.637600  0.847940  1.0  -0.612
  O  O694  1  0.862200  0.606500  0.866600  1.0  -0.6905
  O  O695  1  0.070800  0.353700  0.821730  1.0  -0.7878
  O  O696  1  0.009900  0.271800  0.844640  1.0  -0.5981
  O  O697  1  0.600900  0.224800  0.872470  1.0  -0.6681
  O  O698  1  0.629000  0.439000  0.868590  1.0  -0.734
  O  O699  1  0.134300  0.610600  0.820610  1.0  -0.6341
  O  O700  1  0.787500  0.364300  0.852040  1.0  -0.6652
  O  O701  1  0.782800  0.265200  0.831170  1.0  -0.656
  O  O702  1  0.270200  0.560100  0.920270  1.0  -0.6067
  O  O703  1  0.654100  0.368600  0.901690  1.0  -0.2476
  O  O704  1  0.041600  0.493300  0.771820  1.0  -0.1628
  O  O705  1  0.848700  0.173000  0.806430  1.0  -0.2029
  O  O706  1  0.840600  0.267100  0.775220  1.0  -0.5708
  O  O707  1  0.915300  0.153800  0.775110  1.0  -0.6266
  O  O708  1  0.746900  0.094000  0.763330  1.0  -0.434
  O  O709  1  0.459800  0.814300  0.650130  1.0  -0.5881
  O  O710  1  0.538500  0.998500  0.631530  1.0  -0.6719
  O  O711  1  0.484800  0.885100  0.609830  1.0  -0.618
  O  O712  1  0.490400  0.140100  0.678200  1.0  -0.6262
  O  O713  1  0.570700  0.073900  0.695680  1.0  -0.7156
  O  O714  1  0.268100  0.926700  0.582710  1.0  -0.6569
  O  O715  1  0.423100  0.066900  0.602830  1.0  -0.5788
  O  O716  1  0.640500  0.841000  0.729580  1.0  -0.6958
  O  O717  1  0.475400  0.128000  0.570050  1.0  -0.7999
  O  O718  1  0.776700  0.189000  0.616600  1.0  -0.6165
  O  O719  1  0.823100  0.923700  0.699370  1.0  -0.6265
  O  O720  1  0.362400  0.001500  0.652060  1.0  -0.6112
  O  O721  1  0.393500  0.137800  0.633400  1.0  -0.6888
  O  O722  1  0.646300  0.929200  0.678270  1.0  -0.7874
  O  O723  1  0.728200  0.990100  0.655360  1.0  -0.5995
  O  O724  1  0.775200  0.399100  0.627530  1.0  -0.6606
  O  O725  1  0.561000  0.371000  0.631410  1.0  -0.7315
  O  O726  1  0.389400  0.865700  0.679390  1.0  -0.636
  O  O727  1  0.635700  0.212500  0.647960  1.0  -0.6706
  O  O728  1  0.734800  0.217200  0.668830  1.0  -0.6527
  O  O729  1  0.439900  0.729800  0.579730  1.0  -0.6031
  O  O730  1  0.631400  0.345900  0.598310  1.0  -0.2473
  O  O731  1  0.506700  0.958400  0.728180  1.0  -0.1631
  O  O732  1  0.827000  0.151300  0.693570  1.0  -0.2016
  O  O733  1  0.732900  0.159400  0.724780  1.0  -0.5703
  O  O734  1  0.846200  0.084700  0.724890  1.0  -0.6232
  O  O735  1  0.906000  0.253100  0.736670  1.0  -0.4348
  O  O736  1  0.185700  0.645500  0.983460  1.0  -0.5883
  O  O737  1  0.001500  0.540000  0.964860  1.0  -0.6725
  O  O738  1  0.114900  0.599700  0.943160  1.0  -0.6187
  O  O739  1  0.859900  0.350300  0.011530  1.0  -0.6257
  O  O740  1  0.926100  0.496800  0.029010  1.0  -0.7188
  O  O741  1  0.073300  0.341400  0.916040  1.0  -0.6551
  O  O742  1  0.933100  0.356200  0.936160  1.0  -0.5809
  O  O743  1  0.159000  0.799500  0.062910  1.0  -0.6972
  O  O744  1  0.872000  0.347400  0.903380  1.0  -0.7994
  O  O745  1  0.811000  0.587700  0.949930  1.0  -0.6146
  O  O746  1  0.076300  0.899400  0.032700  1.0  -0.6229
  O  O747  1  0.998500  0.360900  0.985390  1.0  -0.6111
  O  O748  1  0.862200  0.255700  0.966730  1.0  -0.6903
  O  O749  1  0.070800  0.717100  0.011600  1.0  -0.7919
  O  O750  1  0.009900  0.738100  0.988690  1.0  -0.6003
  O  O751  1  0.600900  0.376100  0.960860  1.0  -0.6601
  O  O752  1  0.629000  0.190000  0.964740  1.0  -0.7337
  O  O753  1  0.134300  0.523700  0.012720  1.0  -0.6363
  O  O754  1  0.787500  0.423200  0.981290  1.0  -0.6664
  O  O755  1  0.782800  0.517600  0.002160  1.0  -0.656
  O  O756  1  0.270200  0.710100  0.913060  1.0  -0.6041
  O  O757  1  0.654100  0.285500  0.931640  1.0  -0.2472
  O  O758  1  0.041600  0.548300  0.061510  1.0  -0.1641
  O  O759  1  0.848700  0.675700  0.026900  1.0  -0.2025
  O  O760  1  0.840600  0.573500  0.058110  1.0  -0.5693
  O  O761  1  0.915300  0.761500  0.058220  1.0  -0.6249
  O  O762  1  0.746900  0.652900  0.070000  1.0  -0.433
  O  O763  1  0.354500  0.540200  0.316790  1.0  -0.5878
  O  O764  1  0.460000  0.461500  0.298190  1.0  -0.6727
  O  O765  1  0.400300  0.515200  0.276490  1.0  -0.6186
  O  O766  1  0.649700  0.509600  0.344860  1.0  -0.627
  O  O767  1  0.503200  0.429300  0.362340  1.0  -0.7156
  O  O768  1  0.658600  0.731900  0.249370  1.0  -0.6392
  O  O769  1  0.643800  0.576900  0.269490  1.0  -0.581
  O  O770  1  0.200500  0.359500  0.396240  1.0  -0.6965
  O  O771  1  0.652600  0.524600  0.236710  1.0  -0.8023
  O  O772  1  0.412300  0.223300  0.283260  1.0  -0.654
  O  O773  1  0.100600  0.176900  0.366030  1.0  -0.6263
  O  O774  1  0.639100  0.637600  0.318720  1.0  -0.6118
  O  O775  1  0.744300  0.606500  0.300060  1.0  -0.6916
  O  O776  1  0.282900  0.353700  0.344930  1.0  -0.7877
  O  O777  1  0.261900  0.271800  0.322020  1.0  -0.5992
  O  O778  1  0.623900  0.224800  0.294190  1.0  -0.658
  O  O779  1  0.810000  0.439000  0.298070  1.0  -0.731
  O  O780  1  0.476300  0.610600  0.346050  1.0  -0.6359
  O  O781  1  0.576800  0.364300  0.314620  1.0  -0.6664
  O  O782  1  0.482400  0.265200  0.335490  1.0  -0.6529
  O  O783  1  0.289900  0.560100  0.246390  1.0  -0.6048
  O  O784  1  0.714500  0.368600  0.264970  1.0  -0.247
  O  O785  1  0.451700  0.493300  0.394840  1.0  -0.1632
  O  O786  1  0.324300  0.173000  0.360230  1.0  -0.2029
  O  O787  1  0.426500  0.267100  0.391440  1.0  -0.5695
  O  O788  1  0.238500  0.153800  0.391550  1.0  -0.6252
  O  O789  1  0.347100  0.094000  0.403330  1.0  -0.4354
  O  O790  1  0.540200  0.185700  0.150130  1.0  -0.5879
  O  O791  1  0.461500  0.001500  0.131530  1.0  -0.6736
  O  O792  1  0.515200  0.114900  0.109830  1.0  -0.6178
  O  O793  1  0.509600  0.859900  0.178200  1.0  -0.6263
  O  O794  1  0.429300  0.926100  0.195680  1.0  -0.7174
  O  O795  1  0.731900  0.073300  0.082710  1.0  -0.6574
  O  O796  1  0.576900  0.933100  0.102830  1.0  -0.5785
  O  O797  1  0.359500  0.159000  0.229580  1.0  -0.6978
  O  O798  1  0.524600  0.872000  0.070050  1.0  -0.7985
  O  O799  1  0.223300  0.811000  0.116600  1.0  -0.6155
  O  O800  1  0.176900  0.076300  0.199370  1.0  -0.6291
  O  O801  1  0.637600  0.998500  0.152060  1.0  -0.612
  O  O802  1  0.606500  0.862200  0.133400  1.0  -0.6896
  O  O803  1  0.353700  0.070800  0.178270  1.0  -0.7895
  O  O804  1  0.271800  0.009900  0.155360  1.0  -0.601
  O  O805  1  0.224800  0.600900  0.127530  1.0  -0.6606
  O  O806  1  0.439000  0.629000  0.131410  1.0  -0.7309
  O  O807  1  0.610600  0.134300  0.179390  1.0  -0.637
  O  O808  1  0.364300  0.787500  0.147960  1.0  -0.6698
  O  O809  1  0.265200  0.782800  0.168830  1.0  -0.6518
  O  O810  1  0.560100  0.270200  0.079730  1.0  -0.6048
  O  O811  1  0.368600  0.654100  0.098310  1.0  -0.2463
  O  O812  1  0.493300  0.041600  0.228180  1.0  -0.1629
  O  O813  1  0.173000  0.848700  0.193570  1.0  -0.2025
  O  O814  1  0.267100  0.840600  0.224780  1.0  -0.57
  O  O815  1  0.153800  0.915300  0.224890  1.0  -0.6233
  O  O816  1  0.094000  0.746900  0.236670  1.0  -0.434
  O  O817  1  0.814300  0.354500  0.483460  1.0  -0.5888
  O  O818  1  0.998500  0.460000  0.464860  1.0  -0.6716
  O  O819  1  0.885100  0.400300  0.443160  1.0  -0.6196
  O  O820  1  0.140100  0.649700  0.511530  1.0  -0.6258
  O  O821  1  0.073900  0.503200  0.529010  1.0  -0.7172
  O  O822  1  0.926700  0.658600  0.416040  1.0  -0.6527
  O  O823  1  0.066900  0.643800  0.436160  1.0  -0.5806
  O  O824  1  0.841000  0.200500  0.562910  1.0  -0.6976
  O  O825  1  0.128000  0.652600  0.403380  1.0  -0.7991
  O  O826  1  0.189000  0.412300  0.449930  1.0  -0.6157
  O  O827  1  0.923700  0.100600  0.532700  1.0  -0.6247
  O  O828  1  0.001500  0.639100  0.485390  1.0  -0.6113
  O  O829  1  0.137800  0.744300  0.466730  1.0  -0.6898
  O  O830  1  0.929200  0.282900  0.511600  1.0  -0.791
  O  O831  1  0.990100  0.261900  0.488690  1.0  -0.5997
  O  O832  1  0.399100  0.623900  0.460860  1.0  -0.6613
  O  O833  1  0.371000  0.810000  0.464740  1.0  -0.7319
  O  O834  1  0.865700  0.476300  0.512720  1.0  -0.6361
  O  O835  1  0.212500  0.576800  0.481290  1.0  -0.6667
  O  O836  1  0.217200  0.482400  0.502160  1.0  -0.6556
  O  O837  1  0.729800  0.289900  0.413060  1.0  -0.6037
  O  O838  1  0.345900  0.714500  0.431640  1.0  -0.2446
  O  O839  1  0.958400  0.451700  0.561510  1.0  -0.1633
  O  O840  1  0.151300  0.324300  0.526900  1.0  -0.2015
  O  O841  1  0.159400  0.426500  0.558110  1.0  -0.5709
  O  O842  1  0.084700  0.238500  0.558220  1.0  -0.6226
  O  O843  1  0.253100  0.347100  0.570000  1.0  -0.4351
  O  O844  1  0.645500  0.459800  0.816790  1.0  -0.5881
  O  O845  1  0.540000  0.538500  0.798190  1.0  -0.6729
  O  O846  1  0.599700  0.484800  0.776490  1.0  -0.6195
  O  O847  1  0.350300  0.490400  0.844860  1.0  -0.6266
  O  O848  1  0.496800  0.570700  0.862340  1.0  -0.7154
  O  O849  1  0.341400  0.268100  0.749370  1.0  -0.6229
  O  O850  1  0.356200  0.423100  0.769490  1.0  -0.5812
  O  O851  1  0.799500  0.640500  0.896240  1.0  -0.6981
  O  O852  1  0.347400  0.475400  0.736710  1.0  -0.8019
  O  O853  1  0.587700  0.776700  0.783260  1.0  -0.6546
  O  O854  1  0.899400  0.823100  0.866030  1.0  -0.6228
  O  O855  1  0.360900  0.362400  0.818720  1.0  -0.6123
  O  O856  1  0.255700  0.393500  0.800060  1.0  -0.6906
  O  O857  1  0.717100  0.646300  0.844930  1.0  -0.7883
  O  O858  1  0.738100  0.728200  0.822020  1.0  -0.5984
  O  O859  1  0.376100  0.775200  0.794190  1.0  -0.66
  O  O860  1  0.190000  0.561000  0.798070  1.0  -0.7313
  O  O861  1  0.523700  0.389400  0.846050  1.0  -0.6358
  O  O862  1  0.423200  0.635700  0.814620  1.0  -0.6648
  O  O863  1  0.517600  0.734800  0.835490  1.0  -0.656
  O  O864  1  0.710100  0.439900  0.746390  1.0  -0.606
  O  O865  1  0.285500  0.631400  0.764970  1.0  -0.2481
  O  O866  1  0.548300  0.506700  0.894840  1.0  -0.1641
  O  O867  1  0.675700  0.827000  0.860230  1.0  -0.2028
  O  O868  1  0.573500  0.732900  0.891440  1.0  -0.5688
  O  O869  1  0.761500  0.846200  0.891550  1.0  -0.6272
  O  O870  1  0.652900  0.906000  0.903330  1.0  -0.4344
  O  O871  1  0.347300  0.273300  0.094910  1.0  -0.4508
  O  O872  1  0.294900  0.344300  0.114530  1.0  -0.477
  O  O873  1  0.192200  0.149800  0.109340  1.0  -0.5171
  O  O874  1  0.926000  0.652700  0.761580  1.0  -0.4488
  O  O875  1  0.049400  0.705100  0.781200  1.0  -0.4777
  O  O876  1  0.957600  0.807800  0.776010  1.0  -0.5186
  O  O877  1  0.726700  0.074000  0.428240  1.0  -0.4461
  O  O878  1  0.655700  0.950600  0.447860  1.0  -0.4776
  O  O879  1  0.850200  0.042400  0.442670  1.0  -0.5163
  O  O880  1  0.652700  0.726700  0.594910  1.0  -0.4465
  O  O881  1  0.705100  0.655700  0.614530  1.0  -0.4767
  O  O882  1  0.807800  0.850200  0.609340  1.0  -0.517
  O  O883  1  0.074000  0.347300  0.261580  1.0  -0.4504
  O  O884  1  0.950600  0.294900  0.281200  1.0  -0.4766
  O  O885  1  0.042400  0.192200  0.276010  1.0  -0.518
  O  O886  1  0.273300  0.926000  0.928240  1.0  -0.4456
  O  O887  1  0.344300  0.049400  0.947860  1.0  -0.478
  O  O888  1  0.149800  0.957600  0.942670  1.0  -0.5155
  O  O889  1  0.074000  0.726700  0.571760  1.0  -0.4504
  O  O890  1  0.950600  0.655700  0.552140  1.0  -0.4769
  O  O891  1  0.042400  0.850200  0.557330  1.0  -0.5185
  O  O892  1  0.273300  0.347300  0.905090  1.0  -0.4526
  O  O893  1  0.344300  0.294900  0.885470  1.0  -0.4769
  O  O894  1  0.149800  0.192200  0.890660  1.0  -0.5186
  O  O895  1  0.652700  0.926000  0.238420  1.0  -0.4476
  O  O896  1  0.705100  0.049400  0.218800  1.0  -0.4789
  O  O897  1  0.807800  0.957600  0.223990  1.0  -0.519
  O  O898  1  0.926000  0.273300  0.071760  1.0  -0.4504
  O  O899  1  0.049400  0.344300  0.052140  1.0  -0.4771
  O  O900  1  0.957600  0.149800  0.057330  1.0  -0.5184
  O  O901  1  0.726700  0.652700  0.405090  1.0  -0.4501
  O  O902  1  0.655700  0.705100  0.385470  1.0  -0.4768
  O  O903  1  0.850200  0.807800  0.390660  1.0  -0.5172
  O  O904  1  0.347300  0.074000  0.738420  1.0  -0.4493
  O  O905  1  0.294900  0.950600  0.718800  1.0  -0.4782
  O  O906  1  0.192200  0.042400  0.723990  1.0  -0.5175
